# generated using pymatgen
data_CoH12C18N2O5
_symmetry_space_group_name_H-M   'P 1'
_cell_length_a   13.59460000
_cell_length_b   15.14230000
_cell_length_c   17.52930000
_cell_angle_alpha   90.00000000
_cell_angle_beta   90.00000000
_cell_angle_gamma   89.99960000
_symmetry_Int_Tables_number   1
_chemical_formula_structural   CoH12C18N2O5
_chemical_formula_sum   'Co8 H96 C144 N16 O40'
_cell_volume   3608.46796045
_cell_formula_units_Z   8
loop_
 _symmetry_equiv_pos_site_id
 _symmetry_equiv_pos_as_xyz
  1  'x, y, z'
loop_
 _atom_site_type_symbol
 _atom_site_label
 _atom_site_symmetry_multiplicity
 _atom_site_fract_x
 _atom_site_fract_y
 _atom_site_fract_z
 _atom_site_occupancy
  Co  Co0  1  0.52280000  0.12056000  0.55726000  1.0
  Co  Co1  1  0.97720000  0.12056000  0.94274000  1.0
  Co  Co2  1  0.02280000  0.37944000  0.44275000  1.0
  Co  Co3  1  0.47720000  0.37944000  0.05726000  1.0
  Co  Co4  1  0.47720000  0.87944000  0.44274000  1.0
  Co  Co5  1  0.02280000  0.87944000  0.05726000  1.0
  Co  Co6  1  0.97720000  0.62056000  0.55726000  1.0
  Co  Co7  1  0.52280000  0.62056000  0.94275000  1.0
  H  H8  1  0.42940000  0.07317000  0.13399000  1.0
  H  H9  1  0.07060000  0.07316000  0.36601000  1.0
  H  H10  1  0.92939000  0.42684000  0.86601000  1.0
  H  H11  1  0.57060000  0.42684000  0.63399000  1.0
  H  H12  1  0.57060000  0.92684000  0.86601000  1.0
  H  H13  1  0.92940000  0.92684000  0.63400000  1.0
  H  H14  1  0.07060000  0.57316000  0.13399000  1.0
  H  H15  1  0.42940000  0.57316000  0.36601000  1.0
  H  H16  1  0.43750000  0.97339000  0.26532000  1.0
  H  H17  1  0.06250000  0.97339000  0.23468000  1.0
  H  H18  1  0.93750000  0.52661000  0.73469000  1.0
  H  H19  1  0.56250000  0.52662000  0.76532000  1.0
  H  H20  1  0.56250000  0.02661000  0.73468000  1.0
  H  H21  1  0.93750000  0.02661000  0.76532000  1.0
  H  H22  1  0.06250000  0.47339000  0.26532000  1.0
  H  H23  1  0.43750000  0.47339000  0.23469000  1.0
  H  H24  1  0.34501000  0.18377000  0.46723000  1.0
  H  H25  1  0.15499000  0.18377000  0.03278000  1.0
  H  H26  1  0.84501000  0.31623000  0.53278000  1.0
  H  H27  1  0.65499000  0.31624000  0.96722000  1.0
  H  H28  1  0.65499000  0.81623000  0.53278000  1.0
  H  H29  1  0.84501000  0.81623000  0.96723000  1.0
  H  H30  1  0.15498000  0.68377000  0.46722000  1.0
  H  H31  1  0.34501000  0.68377000  0.03278000  1.0
  H  H32  1  0.16316000  0.18776000  0.48100000  1.0
  H  H33  1  0.33684000  0.18775000  0.01899000  1.0
  H  H34  1  0.66317000  0.31224000  0.51900000  1.0
  H  H35  1  0.83684000  0.31225000  0.98100000  1.0
  H  H36  1  0.83684000  0.81224000  0.51900000  1.0
  H  H37  1  0.66316000  0.81224000  0.98101000  1.0
  H  H38  1  0.33683000  0.68776000  0.48100000  1.0
  H  H39  1  0.16316000  0.68776000  0.01900000  1.0
  H  H40  1  0.19851000  0.05648000  0.69796000  1.0
  H  H41  1  0.30148000  0.05648000  0.80204000  1.0
  H  H42  1  0.69851000  0.44351000  0.30204000  1.0
  H  H43  1  0.80148000  0.44352000  0.19796000  1.0
  H  H44  1  0.80148000  0.94352000  0.30204000  1.0
  H  H45  1  0.69852000  0.94352000  0.19796000  1.0
  H  H46  1  0.30149000  0.55649000  0.69796000  1.0
  H  H47  1  0.19852000  0.55649000  0.80204000  1.0
  H  H48  1  0.38030000  0.05776000  0.67501000  1.0
  H  H49  1  0.11970000  0.05776000  0.82499000  1.0
  H  H50  1  0.88030000  0.44224000  0.32499000  1.0
  H  H51  1  0.61970000  0.44224000  0.17502000  1.0
  H  H52  1  0.61970000  0.94224000  0.32499000  1.0
  H  H53  1  0.88030000  0.94224000  0.17501000  1.0
  H  H54  1  0.11970000  0.55776000  0.67501000  1.0
  H  H55  1  0.38030000  0.55776000  0.82499000  1.0
  H  H56  1  0.03360000  0.11245000  0.66164000  1.0
  H  H57  1  0.46640000  0.11246000  0.83836000  1.0
  H  H58  1  0.53360000  0.38754000  0.33836000  1.0
  H  H59  1  0.96640000  0.38754000  0.16164000  1.0
  H  H60  1  0.96640000  0.88754000  0.33836000  1.0
  H  H61  1  0.53360000  0.88755000  0.16164000  1.0
  H  H62  1  0.46640000  0.61246000  0.66164000  1.0
  H  H63  1  0.03360000  0.61246000  0.83836000  1.0
  H  H64  1  0.02140000  0.12279000  0.48590000  1.0
  H  H65  1  0.47860000  0.12279000  0.01409000  1.0
  H  H66  1  0.52139000  0.37721000  0.51409000  1.0
  H  H67  1  0.97860000  0.37721000  0.98591000  1.0
  H  H68  1  0.97860000  0.87721000  0.51409000  1.0
  H  H69  1  0.52140000  0.87720000  0.98591000  1.0
  H  H70  1  0.47860000  0.62280000  0.48591000  1.0
  H  H71  1  0.02139000  0.62279000  0.01409000  1.0
  H  H72  1  0.86779000  0.09934000  0.42862000  1.0
  H  H73  1  0.63222000  0.09934000  0.07138000  1.0
  H  H74  1  0.36778000  0.40065000  0.57137000  1.0
  H  H75  1  0.13222000  0.40066000  0.92862000  1.0
  H  H76  1  0.13222000  0.90066000  0.57138000  1.0
  H  H77  1  0.36778000  0.90065000  0.92862000  1.0
  H  H78  1  0.63222000  0.59935000  0.42862000  1.0
  H  H79  1  0.86778000  0.59934000  0.07138000  1.0
  H  H80  1  0.87334000  0.13877000  0.67302000  1.0
  H  H81  1  0.62667000  0.13876000  0.82697000  1.0
  H  H82  1  0.37333000  0.36124000  0.32697000  1.0
  H  H83  1  0.12667000  0.36124000  0.17303000  1.0
  H  H84  1  0.12667000  0.86124000  0.32697000  1.0
  H  H85  1  0.37333000  0.86123000  0.17303000  1.0
  H  H86  1  0.62666000  0.63877000  0.67303000  1.0
  H  H87  1  0.87333000  0.63876000  0.82697000  1.0
  H  H88  1  0.68463000  0.10205000  0.43593000  1.0
  H  H89  1  0.81537000  0.10205000  0.06407000  1.0
  H  H90  1  0.18463000  0.39795000  0.56407000  1.0
  H  H91  1  0.31537000  0.39795000  0.93593000  1.0
  H  H92  1  0.31537000  0.89795000  0.56407000  1.0
  H  H93  1  0.18463000  0.89795000  0.93593000  1.0
  H  H94  1  0.81537000  0.60204000  0.43594000  1.0
  H  H95  1  0.68463000  0.60205000  0.06407000  1.0
  H  H96  1  0.69020000  0.13571000  0.66997000  1.0
  H  H97  1  0.80981000  0.13570000  0.83003000  1.0
  H  H98  1  0.19019000  0.36430000  0.33003000  1.0
  H  H99  1  0.30981000  0.36430000  0.16997000  1.0
  H  H100  1  0.30981000  0.86430000  0.33003000  1.0
  H  H101  1  0.19019000  0.86429000  0.16997000  1.0
  H  H102  1  0.80981000  0.63570000  0.66997000  1.0
  H  H103  1  0.69019000  0.63570000  0.83003000  1.0
  C  C104  1  0.48607000  0.08236000  0.39865000  1.0
  C  C105  1  0.01393000  0.08236000  0.10135000  1.0
  C  C106  1  0.98607000  0.41764000  0.60136000  1.0
  C  C107  1  0.51393000  0.41764000  0.89864000  1.0
  C  C108  1  0.51392000  0.91764000  0.60135000  1.0
  C  C109  1  0.98608000  0.91763000  0.89865000  1.0
  C  C110  1  0.01392000  0.58236000  0.39865000  1.0
  C  C111  1  0.48608000  0.58237000  0.10136000  1.0
  C  C112  1  0.47257000  0.10101000  0.31724000  1.0
  C  C113  1  0.02743000  0.10101000  0.18276000  1.0
  C  C114  1  0.97257000  0.39899000  0.68277000  1.0
  C  C115  1  0.52744000  0.39900000  0.81724000  1.0
  C  C116  1  0.52742000  0.89899000  0.68276000  1.0
  C  C117  1  0.97257000  0.89899000  0.81724000  1.0
  C  C118  1  0.02743000  0.60101000  0.31724000  1.0
  C  C119  1  0.47258000  0.60100000  0.18276000  1.0
  C  C120  1  0.46737000  0.18092000  0.21270000  1.0
  C  C121  1  0.03263000  0.18092000  0.28730000  1.0
  C  C122  1  0.96736000  0.31908000  0.78731000  1.0
  C  C123  1  0.53263000  0.31908000  0.71269000  1.0
  C  C124  1  0.53264000  0.81908000  0.78730000  1.0
  C  C125  1  0.96736000  0.81908000  0.71270000  1.0
  C  C126  1  0.03263000  0.68092000  0.21270000  1.0
  C  C127  1  0.46737000  0.68092000  0.28731000  1.0
  C  C128  1  0.44630000  0.09523000  0.19136000  1.0
  C  C129  1  0.05370000  0.09523000  0.30864000  1.0
  C  C130  1  0.94629000  0.40477000  0.80864000  1.0
  C  C131  1  0.55370000  0.40478000  0.69136000  1.0
  C  C132  1  0.55371000  0.90477000  0.80864000  1.0
  C  C133  1  0.94629000  0.90477000  0.69136000  1.0
  C  C134  1  0.05370000  0.59523000  0.19136000  1.0
  C  C135  1  0.44629000  0.59523000  0.30864000  1.0
  C  C136  1  0.44925000  0.04380000  0.25866000  1.0
  C  C137  1  0.05075000  0.04381000  0.24134000  1.0
  C  C138  1  0.94924000  0.45620000  0.74134000  1.0
  C  C139  1  0.55076000  0.45620000  0.75866000  1.0
  C  C140  1  0.55075000  0.95619000  0.74134000  1.0
  C  C141  1  0.94924000  0.95619000  0.75866000  1.0
  C  C142  1  0.05075000  0.54380000  0.25866000  1.0
  C  C143  1  0.44925000  0.54380000  0.24134000  1.0
  C  C144  1  0.47176000  0.26251000  0.16763000  1.0
  C  C145  1  0.02824000  0.26252000  0.33236000  1.0
  C  C146  1  0.97176000  0.23748000  0.83237000  1.0
  C  C147  1  0.52824000  0.23749000  0.66764000  1.0
  C  C148  1  0.52824000  0.73748000  0.83236000  1.0
  C  C149  1  0.97176000  0.73749000  0.66763000  1.0
  C  C150  1  0.02824000  0.76251000  0.16763000  1.0
  C  C151  1  0.47176000  0.76251000  0.33237000  1.0
  C  C152  1  0.30946000  0.15435000  0.51683000  1.0
  C  C153  1  0.19054000  0.15435000  0.98317000  1.0
  C  C154  1  0.80947000  0.34565000  0.48317000  1.0
  C  C155  1  0.69054000  0.34566000  0.01683000  1.0
  C  C156  1  0.69054000  0.84565000  0.48317000  1.0
  C  C157  1  0.80946000  0.84565000  0.01683000  1.0
  C  C158  1  0.19053000  0.65435000  0.51683000  1.0
  C  C159  1  0.30947000  0.65435000  0.98318000  1.0
  C  C160  1  0.20804000  0.15587000  0.52463000  1.0
  C  C161  1  0.29196000  0.15587000  0.97537000  1.0
  C  C162  1  0.70804000  0.34413000  0.47537000  1.0
  C  C163  1  0.79196000  0.34413000  0.02463000  1.0
  C  C164  1  0.79196000  0.84412000  0.47536000  1.0
  C  C165  1  0.70804000  0.84413000  0.02463000  1.0
  C  C166  1  0.29196000  0.65588000  0.52463000  1.0
  C  C167  1  0.20804000  0.65587000  0.97537000  1.0
  C  C168  1  0.16440000  0.11966000  0.59049000  1.0
  C  C169  1  0.33560000  0.11966000  0.90950000  1.0
  C  C170  1  0.66440000  0.38034000  0.40950000  1.0
  C  C171  1  0.83560000  0.38034000  0.09050000  1.0
  C  C172  1  0.83560000  0.88034000  0.40950000  1.0
  C  C173  1  0.66440000  0.88034000  0.09050000  1.0
  C  C174  1  0.33560000  0.61966000  0.59050000  1.0
  C  C175  1  0.16440000  0.61966000  0.90950000  1.0
  C  C176  1  0.22853000  0.08458000  0.64566000  1.0
  C  C177  1  0.27147000  0.08458000  0.85434000  1.0
  C  C178  1  0.72853000  0.41542000  0.35434000  1.0
  C  C179  1  0.77147000  0.41542000  0.14567000  1.0
  C  C180  1  0.77147000  0.91541000  0.35433000  1.0
  C  C181  1  0.72853000  0.91541000  0.14566000  1.0
  C  C182  1  0.27147000  0.58459000  0.64566000  1.0
  C  C183  1  0.22853000  0.58458000  0.85434000  1.0
  C  C184  1  0.32921000  0.08465000  0.63309000  1.0
  C  C185  1  0.17078000  0.08465000  0.86691000  1.0
  C  C186  1  0.82921000  0.41535000  0.36690000  1.0
  C  C187  1  0.67079000  0.41535000  0.13310000  1.0
  C  C188  1  0.67078000  0.91535000  0.36691000  1.0
  C  C189  1  0.82922000  0.91535000  0.13310000  1.0
  C  C190  1  0.17079000  0.58465000  0.63310000  1.0
  C  C191  1  0.32921000  0.58465000  0.86691000  1.0
  C  C192  1  0.05866000  0.11733000  0.60247000  1.0
  C  C193  1  0.44134000  0.11733000  0.89752000  1.0
  C  C194  1  0.55866000  0.38267000  0.39752000  1.0
  C  C195  1  0.94134000  0.38266000  0.10248000  1.0
  C  C196  1  0.94134000  0.88267000  0.39752000  1.0
  C  C197  1  0.55866000  0.88267000  0.10248000  1.0
  C  C198  1  0.44134000  0.61734000  0.60248000  1.0
  C  C199  1  0.05866000  0.61734000  0.89752000  1.0
  C  C200  1  0.99352000  0.11920000  0.54423000  1.0
  C  C201  1  0.50648000  0.11919000  0.95577000  1.0
  C  C202  1  0.49352000  0.38081000  0.45577000  1.0
  C  C203  1  0.00648000  0.38080000  0.04423000  1.0
  C  C204  1  0.00649000  0.88081000  0.45577000  1.0
  C  C205  1  0.49352000  0.88080000  0.04423000  1.0
  C  C206  1  0.50648000  0.61920000  0.54423000  1.0
  C  C207  1  0.99352000  0.61919000  0.95577000  1.0
  C  C208  1  0.88729000  0.11761000  0.55030000  1.0
  C  C209  1  0.61271000  0.11761000  0.94970000  1.0
  C  C210  1  0.38729000  0.38239000  0.44970000  1.0
  C  C211  1  0.11271000  0.38239000  0.05030000  1.0
  C  C212  1  0.11271000  0.88239000  0.44970000  1.0
  C  C213  1  0.38729000  0.88238000  0.05030000  1.0
  C  C214  1  0.61271000  0.61762000  0.55030000  1.0
  C  C215  1  0.88728000  0.61761000  0.94970000  1.0
  C  C216  1  0.83110000  0.10716000  0.48351000  1.0
  C  C217  1  0.66890000  0.10716000  0.01649000  1.0
  C  C218  1  0.33109000  0.39284000  0.51648000  1.0
  C  C219  1  0.16891000  0.39284000  0.98351000  1.0
  C  C220  1  0.16890000  0.89284000  0.51648000  1.0
  C  C221  1  0.33109000  0.89284000  0.98351000  1.0
  C  C222  1  0.66890000  0.60716000  0.48352000  1.0
  C  C223  1  0.83109000  0.60716000  0.01648000  1.0
  C  C224  1  0.83488000  0.12800000  0.61916000  1.0
  C  C225  1  0.66513000  0.12799000  0.88084000  1.0
  C  C226  1  0.33487000  0.37201000  0.38083000  1.0
  C  C227  1  0.16513000  0.37200000  0.11916000  1.0
  C  C228  1  0.16513000  0.87200000  0.38083000  1.0
  C  C229  1  0.33487000  0.87200000  0.11917000  1.0
  C  C230  1  0.66512000  0.62800000  0.61917000  1.0
  C  C231  1  0.83487000  0.62799000  0.88083000  1.0
  C  C232  1  0.72924000  0.10837000  0.48721000  1.0
  C  C233  1  0.77076000  0.10837000  0.01279000  1.0
  C  C234  1  0.22924000  0.39163000  0.51279000  1.0
  C  C235  1  0.27076000  0.39163000  0.98721000  1.0
  C  C236  1  0.27076000  0.89162000  0.51279000  1.0
  C  C237  1  0.22924000  0.89163000  0.98721000  1.0
  C  C238  1  0.77076000  0.60837000  0.48721000  1.0
  C  C239  1  0.72924000  0.60837000  0.01279000  1.0
  C  C240  1  0.73291000  0.12770000  0.61776000  1.0
  C  C241  1  0.76710000  0.12770000  0.88224000  1.0
  C  C242  1  0.23290000  0.37230000  0.38223000  1.0
  C  C243  1  0.26710000  0.37230000  0.11776000  1.0
  C  C244  1  0.26710000  0.87230000  0.38223000  1.0
  C  C245  1  0.23290000  0.87229000  0.11776000  1.0
  C  C246  1  0.76710000  0.62770000  0.61777000  1.0
  C  C247  1  0.73290000  0.62770000  0.88223000  1.0
  N  N248  1  0.37048000  0.11890000  0.56957000  1.0
  N  N249  1  0.12951000  0.11890000  0.93044000  1.0
  N  N250  1  0.87049000  0.38110000  0.43044000  1.0
  N  N251  1  0.62951000  0.38111000  0.06957000  1.0
  N  N252  1  0.62951000  0.88110000  0.43044000  1.0
  N  N253  1  0.87049000  0.88110000  0.06957000  1.0
  N  N254  1  0.12951000  0.61890000  0.56957000  1.0
  N  N255  1  0.37049000  0.61890000  0.93044000  1.0
  N  N256  1  0.67965000  0.11901000  0.55304000  1.0
  N  N257  1  0.82035000  0.11900000  0.94697000  1.0
  N  N258  1  0.17965000  0.38099000  0.44696000  1.0
  N  N259  1  0.32035000  0.38100000  0.05303000  1.0
  N  N260  1  0.32035000  0.88099000  0.44697000  1.0
  N  N261  1  0.17965000  0.88099000  0.05303000  1.0
  N  N262  1  0.82035000  0.61900000  0.55304000  1.0
  N  N263  1  0.67965000  0.61901000  0.94696000  1.0
  O  O264  1  0.51790000  0.14284000  0.44325000  1.0
  O  O265  1  0.98211000  0.14284000  0.05675000  1.0
  O  O266  1  0.01790000  0.35716000  0.55675000  1.0
  O  O267  1  0.48210000  0.35716000  0.94325000  1.0
  O  O268  1  0.48210000  0.85716000  0.55675000  1.0
  O  O269  1  0.01790000  0.85716000  0.94325000  1.0
  O  O270  1  0.98209000  0.64284000  0.44325000  1.0
  O  O271  1  0.51790000  0.64284000  0.05675000  1.0
  O  O272  1  0.48369000  0.18527000  0.28983000  1.0
  O  O273  1  0.01631000  0.18527000  0.21017000  1.0
  O  O274  1  0.98369000  0.31473000  0.71017000  1.0
  O  O275  1  0.51631000  0.31473000  0.78983000  1.0
  O  O276  1  0.51631000  0.81472000  0.71017000  1.0
  O  O277  1  0.98369000  0.81472000  0.78983000  1.0
  O  O278  1  0.01631000  0.68527000  0.28983000  1.0
  O  O279  1  0.48370000  0.68527000  0.21017000  1.0
  O  O280  1  0.46341000  0.00485000  0.41969000  1.0
  O  O281  1  0.03659000  0.00485000  0.08031000  1.0
  O  O282  1  0.96341000  0.49515000  0.58031000  1.0
  O  O283  1  0.53659000  0.49515000  0.91969000  1.0
  O  O284  1  0.53658000  0.99515000  0.58030000  1.0
  O  O285  1  0.96342000  0.99515000  0.91969000  1.0
  O  O286  1  0.03658000  0.50485000  0.41969000  1.0
  O  O287  1  0.46342000  0.50485000  0.08030000  1.0
  O  O288  1  0.46557000  0.25186000  0.09489000  1.0
  O  O289  1  0.03444000  0.25186000  0.40511000  1.0
  O  O290  1  0.96556000  0.24814000  0.90512000  1.0
  O  O291  1  0.53444000  0.24814000  0.59489000  1.0
  O  O292  1  0.53445000  0.74814000  0.90511000  1.0
  O  O293  1  0.96556000  0.74814000  0.59489000  1.0
  O  O294  1  0.03444000  0.75186000  0.09488000  1.0
  O  O295  1  0.46556000  0.75186000  0.40511000  1.0
  O  O296  1  0.47928000  0.33777000  0.19850000  1.0
  O  O297  1  0.02073000  0.33777000  0.30150000  1.0
  O  O298  1  0.97927000  0.16223000  0.80150000  1.0
  O  O299  1  0.52073000  0.16223000  0.69850000  1.0
  O  O300  1  0.52073000  0.66223000  0.80150000  1.0
  O  O301  1  0.97927000  0.66223000  0.69850000  1.0
  O  O302  1  0.02073000  0.83777000  0.19850000  1.0
  O  O303  1  0.47928000  0.83777000  0.30150000  1.0
