# generated using pymatgen
data_CuH6C7S3IO4
_symmetry_space_group_name_H-M   'P 1'
_cell_length_a   4.03166000
_cell_length_b   9.12315000
_cell_length_c   31.76920000
_cell_angle_alpha   89.99980000
_cell_angle_beta   89.99920000
_cell_angle_gamma   89.99960000
_symmetry_Int_Tables_number   1
_chemical_formula_structural   CuH6C7S3IO4
_chemical_formula_sum   'Cu4 H24 C28 S12 I4 O16'
_cell_volume   1168.51688947
_cell_formula_units_Z   4
loop_
 _symmetry_equiv_pos_site_id
 _symmetry_equiv_pos_as_xyz
  1  'x, y, z'
loop_
 _atom_site_type_symbol
 _atom_site_label
 _atom_site_symmetry_multiplicity
 _atom_site_fract_x
 _atom_site_fract_y
 _atom_site_fract_z
 _atom_site_occupancy
  Cu  Cu0  1  0.42549000  0.65699000  0.48045000  1.0
  Cu  Cu1  1  0.92551000  0.84301000  0.51955000  1.0
  Cu  Cu2  1  0.57448000  0.15699000  0.01955000  1.0
  Cu  Cu3  1  0.07449000  0.34300000  0.98045000  1.0
  H  H4  1  0.04969000  0.44931000  0.25121000  1.0
  H  H5  1  0.54965000  0.05069000  0.74879000  1.0
  H  H6  1  0.95038000  0.94931000  0.24880000  1.0
  H  H7  1  0.45035000  0.55069000  0.75120000  1.0
  H  H8  1  0.05204000  0.63180000  0.27231000  1.0
  H  H9  1  0.55198000  0.86821000  0.72769000  1.0
  H  H10  1  0.94806000  0.13180000  0.22769000  1.0
  H  H11  1  0.44802000  0.36820000  0.77231000  1.0
  H  H12  1  0.67732000  0.55712000  0.25090000  1.0
  H  H13  1  0.17726000  0.94289000  0.74910000  1.0
  H  H14  1  0.32279000  0.05711000  0.24909000  1.0
  H  H15  1  0.82275000  0.44288000  0.75090000  1.0
  H  H16  1  0.37458000  0.81429000  0.30251000  1.0
  H  H17  1  0.87457000  0.68570000  0.69749000  1.0
  H  H18  1  0.62543000  0.31429000  0.19749000  1.0
  H  H19  1  0.12544000  0.18571000  0.80251000  1.0
  H  H20  1  0.24645000  0.71987000  0.35005000  1.0
  H  H21  1  0.74644000  0.78014000  0.64995000  1.0
  H  H22  1  0.75356000  0.21985000  0.14995000  1.0
  H  H23  1  0.25356000  0.28013000  0.85005000  1.0
  H  H24  1  0.67775000  0.75102000  0.33957000  1.0
  H  H25  1  0.17774000  0.74898000  0.66043000  1.0
  H  H26  1  0.32226000  0.25101000  0.16044000  1.0
  H  H27  1  0.82227000  0.24897000  0.83956000  1.0
  C  C28  1  0.44516000  0.34440000  0.43574000  1.0
  C  C29  1  0.94514000  0.15561000  0.56426000  1.0
  C  C30  1  0.55483000  0.84438000  0.06426000  1.0
  C  C31  1  0.05484000  0.65561000  0.93574000  1.0
  C  C32  1  0.57987000  0.31421000  0.35633000  1.0
  C  C33  1  0.07988000  0.18582000  0.64367000  1.0
  C  C34  1  0.42010000  0.81418000  0.14367000  1.0
  C  C35  1  0.92009000  0.68581000  0.85633000  1.0
  C  C36  1  0.53210000  0.17494000  0.37105000  1.0
  C  C37  1  0.03214000  0.32509000  0.62895000  1.0
  C  C38  1  0.46784000  0.67490000  0.12895000  1.0
  C  C39  1  0.96786000  0.82507000  0.87105000  1.0
  C  C40  1  0.64522000  0.35652000  0.31175000  1.0
  C  C41  1  0.14520000  0.14351000  0.68825000  1.0
  C  C42  1  0.35478000  0.85649000  0.18825000  1.0
  C  C43  1  0.85476000  0.64349000  0.81175000  1.0
  C  C44  1  0.90583000  0.53214000  0.26806000  1.0
  C  C45  1  0.40577000  0.96787000  0.73194000  1.0
  C  C46  1  0.09426000  0.03213000  0.23194000  1.0
  C  C47  1  0.59422000  0.46787000  0.76806000  1.0
  C  C48  1  0.58768000  0.03982000  0.34578000  1.0
  C  C49  1  0.08770000  0.46020000  0.65422000  1.0
  C  C50  1  0.41229000  0.53979000  0.15422000  1.0
  C  C51  1  0.91232000  0.96019000  0.84578000  1.0
  C  C52  1  0.42638000  0.79478000  0.33593000  1.0
  C  C53  1  0.92638000  0.70522000  0.66407000  1.0
  C  C54  1  0.57362000  0.29477000  0.16408000  1.0
  C  C55  1  0.07363000  0.20522000  0.83593000  1.0
  S  S56  1  0.38217000  0.41206000  0.48362000  1.0
  S  S57  1  0.88216000  0.08794000  0.51638000  1.0
  S  S58  1  0.61779000  0.91206000  0.01637000  1.0
  S  S59  1  0.11782000  0.58794000  0.98362000  1.0
  S  S60  1  0.54014000  0.45398000  0.39294000  1.0
  S  S61  1  0.04016000  0.04603000  0.60706000  1.0
  S  S62  1  0.45982000  0.95396000  0.10706000  1.0
  S  S63  1  0.95982000  0.54602000  0.89294000  1.0
  S  S64  1  0.42870000  0.15842000  0.42387000  1.0
  S  S65  1  0.92871000  0.34159000  0.57612000  1.0
  S  S66  1  0.57125000  0.65840000  0.07612000  1.0
  S  S67  1  0.07129000  0.84159000  0.92387000  1.0
  I  I68  1  0.92243000  0.77370000  0.43890000  1.0
  I  I69  1  0.42244000  0.72628000  0.56111000  1.0
  I  I70  1  0.07754000  0.27371000  0.06110000  1.0
  I  I71  1  0.57754000  0.22628000  0.93890000  1.0
  O  O72  1  0.53659000  0.29316000  0.28086000  1.0
  O  O73  1  0.03656000  0.20685000  0.71914000  1.0
  O  O74  1  0.46344000  0.79314000  0.21914000  1.0
  O  O75  1  0.96342000  0.70685000  0.78086000  1.0
  O  O76  1  0.83100000  0.47981000  0.31036000  1.0
  O  O77  1  0.33096000  0.02022000  0.68964000  1.0
  O  O78  1  0.16904000  0.97978000  0.18964000  1.0
  O  O79  1  0.66902000  0.52021000  0.81036000  1.0
  O  O80  1  0.78919000  0.03036000  0.31726000  1.0
  O  O81  1  0.28921000  0.46967000  0.68274000  1.0
  O  O82  1  0.21079000  0.53033000  0.18274000  1.0
  O  O83  1  0.71083000  0.96966000  0.81725000  1.0
  O  O84  1  0.39328000  0.92984000  0.35933000  1.0
  O  O85  1  0.89327000  0.57017000  0.64067000  1.0
  O  O86  1  0.60672000  0.42982000  0.14067000  1.0
  O  O87  1  0.10672000  0.07016000  0.85933000  1.0
