# generated using pymatgen
data_Zn3H14C21(N3O)4
_symmetry_space_group_name_H-M   'P 1'
_cell_length_a   9.78611000
_cell_length_b   11.38480000
_cell_length_c   12.28920000
_cell_angle_alpha   108.24100000
_cell_angle_beta   103.70100000
_cell_angle_gamma   105.38300000
_symmetry_Int_Tables_number   1
_chemical_formula_structural   Zn3H14C21(N3O)4
_chemical_formula_sum   'Zn6 H28 C42 N24 O8'
_cell_volume   1174.79686433
_cell_formula_units_Z   2
loop_
 _symmetry_equiv_pos_site_id
 _symmetry_equiv_pos_as_xyz
  1  'x, y, z'
loop_
 _atom_site_type_symbol
 _atom_site_label
 _atom_site_symmetry_multiplicity
 _atom_site_fract_x
 _atom_site_fract_y
 _atom_site_fract_z
 _atom_site_occupancy
  Zn  Zn0  1  0.20833000  0.85120000  0.07367000  1.0
  Zn  Zn1  1  0.79167000  0.14879000  0.92633000  1.0
  Zn  Zn2  1  0.84931000  0.72840000  0.10719000  1.0
  Zn  Zn3  1  0.15070000  0.27160000  0.89281000  1.0
  Zn  Zn4  1  0.56962000  0.83009000  0.19990000  1.0
  Zn  Zn5  1  0.43038000  0.16992000  0.80010000  1.0
  H  H6  1  0.73039000  0.65009000  0.82004000  1.0
  H  H7  1  0.26961000  0.34990000  0.17996000  1.0
  H  H8  1  0.63782000  0.46569000  0.61385000  1.0
  H  H9  1  0.36218000  0.53430000  0.38615000  1.0
  H  H10  1  0.79274000  0.32937000  0.56054000  1.0
  H  H11  1  0.20727000  0.67062000  0.43946000  1.0
  H  H12  1  0.03735000  0.37769000  0.71564000  1.0
  H  H13  1  0.96265000  0.62231000  0.28437000  1.0
  H  H14  1  0.58386000  0.66542000  0.35750000  1.0
  H  H15  1  0.41614000  0.33458000  0.64251000  1.0
  H  H16  1  0.68162000  0.67926000  0.56894000  1.0
  H  H17  1  0.31839000  0.32074000  0.43106000  1.0
  H  H18  1  0.95787000  0.79064000  0.69027000  1.0
  H  H19  1  0.04213000  0.20937000  0.30973000  1.0
  H  H20  1  0.13439000  0.88196000  0.59550000  1.0
  H  H21  1  0.86561000  0.11804000  0.40450000  1.0
  H  H22  1  0.84657000  0.29646000  0.20243000  1.0
  H  H23  1  0.15344000  0.70354000  0.79757000  1.0
  H  H24  1  0.75222000  0.46445000  0.31002000  1.0
  H  H25  1  0.24778000  0.53556000  0.68997000  1.0
  H  H26  1  0.50588000  0.38798000  0.33900000  1.0
  H  H27  1  0.49412000  0.61201000  0.66099000  1.0
  H  H28  1  0.35849000  0.14698000  0.26649000  1.0
  H  H29  1  0.64151000  0.85302000  0.73351000  1.0
  H  H30  1  0.64523000  0.96704000  0.43740000  1.0
  H  H31  1  0.35477000  0.03297000  0.56260000  1.0
  H  H32  1  0.47112000  0.94234000  0.35997000  1.0
  H  H33  1  0.52888000  0.05766000  0.64003000  1.0
  C  C34  1  0.93351000  0.61599000  0.88684000  1.0
  C  C35  1  0.06649000  0.38401000  0.11316000  1.0
  C  C36  1  0.79508000  0.58742000  0.79699000  1.0
  C  C37  1  0.20492000  0.41257000  0.20301000  1.0
  C  C38  1  0.74427000  0.48451000  0.68222000  1.0
  C  C39  1  0.25573000  0.51549000  0.31779000  1.0
  C  C40  1  0.82995000  0.40670000  0.65198000  1.0
  C  C41  1  0.17005000  0.59329000  0.34802000  1.0
  C  C42  1  0.96563000  0.43236000  0.73959000  1.0
  C  C43  1  0.03437000  0.56763000  0.26041000  1.0
  C  C44  1  0.01768000  0.53315000  0.85750000  1.0
  C  C45  1  0.98232000  0.46685000  0.14250000  1.0
  C  C46  1  0.16305000  0.55952000  0.94484000  1.0
  C  C47  1  0.83695000  0.44048000  0.05516000  1.0
  C  C48  1  0.80129000  0.76741000  0.35569000  1.0
  C  C49  1  0.19872000  0.23259000  0.64431000  1.0
  C  C50  1  0.70444000  0.71315000  0.41088000  1.0
  C  C51  1  0.29556000  0.28684000  0.58912000  1.0
  C  C52  1  0.75982000  0.72205000  0.52922000  1.0
  C  C53  1  0.24019000  0.27795000  0.47078000  1.0
  C  C54  1  0.91494000  0.78478000  0.59770000  1.0
  C  C55  1  0.08506000  0.21522000  0.40230000  1.0
  C  C56  1  0.01304000  0.83629000  0.54469000  1.0
  C  C57  1  0.98697000  0.16371000  0.45531000  1.0
  C  C58  1  0.95993000  0.82878000  0.42451000  1.0
  C  C59  1  0.04007000  0.17123000  0.57549000  1.0
  C  C60  1  0.06970000  0.87632000  0.37148000  1.0
  C  C61  1  0.93030000  0.12369000  0.62852000  1.0
  C  C62  1  0.71129000  0.03203000  0.10618000  1.0
  C  C63  1  0.28871000  0.96797000  0.89382000  1.0
  C  C64  1  0.65366000  0.12783000  0.16875000  1.0
  C  C65  1  0.34634000  0.87217000  0.83125000  1.0
  C  C66  1  0.73725000  0.26453000  0.21324000  1.0
  C  C67  1  0.26276000  0.73547000  0.78676000  1.0
  C  C68  1  0.68564000  0.35862000  0.27430000  1.0
  C  C69  1  0.31436000  0.64138000  0.72569000  1.0
  C  C70  1  0.54747000  0.31482000  0.29119000  1.0
  C  C71  1  0.45253000  0.68519000  0.70881000  1.0
  C  C72  1  0.46406000  0.17991000  0.25037000  1.0
  C  C73  1  0.53593000  0.82009000  0.74962000  1.0
  C  C74  1  0.51598000  0.08231000  0.19051000  1.0
  C  C75  1  0.48402000  0.91769000  0.80949000  1.0
  N  N76  1  0.25659000  0.68070000  0.02879000  1.0
  N  N77  1  0.74340000  0.31930000  0.97121000  1.0
  N  N78  1  0.38295000  0.66600000  0.08505000  1.0
  N  N79  1  0.61705000  0.33400000  0.91495000  1.0
  N  N80  1  0.37011000  0.54166000  0.04049000  1.0
  N  N81  1  0.62989000  0.45835000  0.95951000  1.0
  N  N82  1  0.23355000  0.47260000  0.95229000  1.0
  N  N83  1  0.76645000  0.52740000  0.04771000  1.0
  N  N84  1  0.04126000  0.84840000  0.25134000  1.0
  N  N85  1  0.95874000  0.15160000  0.74867000  1.0
  N  N86  1  0.17484000  0.89749000  0.23953000  1.0
  N  N87  1  0.82516000  0.10251000  0.76047000  1.0
  N  N88  1  0.28217000  0.95421000  0.34737000  1.0
  N  N89  1  0.71783000  0.04579000  0.65263000  1.0
  N  N90  1  0.22056000  0.94306000  0.43121000  1.0
  N  N91  1  0.77944000  0.05694000  0.56879000  1.0
  N  N92  1  0.79579000  0.04351000  0.03394000  1.0
  N  N93  1  0.20420000  0.95649000  0.96606000  1.0
  N  N94  1  0.83134000  0.93430000  0.00203000  1.0
  N  N95  1  0.16866000  0.06570000  0.99797000  1.0
  N  N96  1  0.77050000  0.85884000  0.05252000  1.0
  N  N97  1  0.22950000  0.14116000  0.94748000  1.0
  N  N98  1  0.69443000  0.91589000  0.11645000  1.0
  N  N99  1  0.30558000  0.08411000  0.88355000  1.0
  O  O100  1  0.98241000  0.71680000  0.99577000  1.0
  O  O101  1  0.01759000  0.28320000  0.00423000  1.0
  O  O102  1  0.74266000  0.76101000  0.24306000  1.0
  O  O103  1  0.25734000  0.23899000  0.75694000  1.0
  O  O104  1  0.55144000  0.90409000  0.36279000  1.0
  O  O105  1  0.44856000  0.09591000  0.63721000  1.0
  O  O106  1  0.44106000  0.95306000  0.15584000  1.0
  O  O107  1  0.55894000  0.04694000  0.84416000  1.0
