# generated using pymatgen
data_CuH20C18(NO2)2
_symmetry_space_group_name_H-M   'P 1'
_cell_length_a   5.10405000
_cell_length_b   9.55497000
_cell_length_c   16.58860000
_cell_angle_alpha   100.20700000
_cell_angle_beta   89.99990000
_cell_angle_gamma   89.99930000
_symmetry_Int_Tables_number   1
_chemical_formula_structural   CuH20C18(NO2)2
_chemical_formula_sum   'Cu2 H40 C36 N4 O8'
_cell_volume   796.20675085
_cell_formula_units_Z   2
loop_
 _symmetry_equiv_pos_site_id
 _symmetry_equiv_pos_as_xyz
  1  'x, y, z'
loop_
 _atom_site_type_symbol
 _atom_site_label
 _atom_site_symmetry_multiplicity
 _atom_site_fract_x
 _atom_site_fract_y
 _atom_site_fract_z
 _atom_site_occupancy
  Cu  Cu0  1  0.25479000  0.74972000  0.50846000  1.0
  Cu  Cu1  1  0.75479000  0.25028000  0.49154000  1.0
  H  H2  1  0.85268000  0.64061000  0.27818000  1.0
  H  H3  1  0.35267000  0.35939000  0.72182000  1.0
  H  H4  1  0.96862000  0.75542000  0.16154000  1.0
  H  H5  1  0.46861000  0.24458000  0.83846000  1.0
  H  H6  1  0.68996000  0.71767000  0.03560000  1.0
  H  H7  1  0.18995000  0.28233000  0.96440000  1.0
  H  H8  1  0.29953000  0.56010000  0.02835000  1.0
  H  H9  1  0.79951000  0.43991000  0.97165000  1.0
  H  H10  1  0.18908000  0.44119000  0.14500000  1.0
  H  H11  1  0.68908000  0.55882000  0.85499000  1.0
  H  H12  1  0.00570000  0.06478000  0.65724000  1.0
  H  H13  1  0.50569000  0.93522000  0.34277000  1.0
  H  H14  1  0.34070000  0.75680000  0.82283000  1.0
  H  H15  1  0.84070000  0.24320000  0.17717000  1.0
  H  H16  1  0.19008000  0.63948000  0.33361000  1.0
  H  H17  1  0.69009000  0.36052000  0.66639000  1.0
  H  H18  1  0.61584000  0.59133000  0.44478000  1.0
  H  H19  1  0.11584000  0.40867000  0.55522000  1.0
  H  H20  1  0.60026000  0.72259000  0.39214000  1.0
  H  H21  1  0.10026000  0.27741000  0.60785000  1.0
  H  H22  1  0.61700000  0.41428000  0.31546000  1.0
  H  H23  1  0.11700000  0.58571000  0.68454000  1.0
  H  H24  1  0.30355000  0.37402000  0.27127000  1.0
  H  H25  1  0.80355000  0.62598000  0.72872000  1.0
  H  H26  1  0.92403000  0.78677000  0.62864000  1.0
  H  H27  1  0.42404000  0.21322000  0.37136000  1.0
  H  H28  1  0.84980000  0.88499000  0.56034000  1.0
  H  H29  1  0.34980000  0.11501000  0.43966000  1.0
  H  H30  1  0.38868000  0.83891000  0.69769000  1.0
  H  H31  1  0.88868000  0.16108000  0.30232000  1.0
  H  H32  1  0.41821000  0.02166000  0.73720000  1.0
  H  H33  1  0.91819000  0.97833000  0.26280000  1.0
  H  H34  1  0.83275000  0.09083000  0.77334000  1.0
  H  H35  1  0.33273000  0.90917000  0.22666000  1.0
  H  H36  1  0.57685000  0.07383000  0.89834000  1.0
  H  H37  1  0.07683000  0.92617000  0.10166000  1.0
  H  H38  1  0.70817000  0.90701000  0.98830000  1.0
  H  H39  1  0.20818000  0.09299000  0.01170000  1.0
  H  H40  1  0.09460000  0.74602000  0.95025000  1.0
  H  H41  1  0.59461000  0.25398000  0.04976000  1.0
  C  C42  1  0.36293000  0.02338000  0.58868000  1.0
  C  C43  1  0.86293000  0.97658000  0.41132000  1.0
  C  C44  1  0.11578000  0.49402000  0.41193000  1.0
  C  C45  1  0.61578000  0.50602000  0.58808000  1.0
  C  C46  1  0.14157000  0.97513000  0.64017000  1.0
  C  C47  1  0.64156000  0.02487000  0.35984000  1.0
  C  C48  1  0.31099000  0.56433000  0.36071000  1.0
  C  C49  1  0.81098000  0.43567000  0.63929000  1.0
  C  C50  1  0.27471000  0.93704000  0.71642000  1.0
  C  C51  1  0.77470000  0.06295000  0.28358000  1.0
  C  C52  1  0.44265000  0.46097000  0.29142000  1.0
  C  C53  1  0.94265000  0.53903000  0.70858000  1.0
  C  C54  1  0.10266000  0.92317000  0.78849000  1.0
  C  C55  1  0.60264000  0.07682000  0.21151000  1.0
  C  C56  1  0.51398000  0.53110000  0.21991000  1.0
  C  C57  1  0.01398000  0.46890000  0.78008000  1.0
  C  C58  1  0.88734000  0.01249000  0.81089000  1.0
  C  C59  1  0.38731000  0.98751000  0.18910000  1.0
  C  C60  1  0.73127000  0.62158000  0.22339000  1.0
  C  C61  1  0.23127000  0.37842000  0.77662000  1.0
  C  C62  1  0.74554000  0.00492000  0.88184000  1.0
  C  C63  1  0.24553000  0.99508000  0.11815000  1.0
  C  C64  1  0.79494000  0.68834000  0.15775000  1.0
  C  C65  1  0.29493000  0.31167000  0.84225000  1.0
  C  C66  1  0.81898000  0.90964000  0.93245000  1.0
  C  C67  1  0.31898000  0.09036000  0.06755000  1.0
  C  C68  1  0.64070000  0.66643000  0.08725000  1.0
  C  C69  1  0.14069000  0.33357000  0.91276000  1.0
  C  C70  1  0.03422000  0.82073000  0.91120000  1.0
  C  C71  1  0.53423000  0.17927000  0.08880000  1.0
  C  C72  1  0.42156000  0.57806000  0.08319000  1.0
  C  C73  1  0.92154000  0.42194000  0.91680000  1.0
  C  C74  1  0.17288000  0.82671000  0.83942000  1.0
  C  C75  1  0.67288000  0.17328000  0.16058000  1.0
  C  C76  1  0.35959000  0.51085000  0.14888000  1.0
  C  C77  1  0.85958000  0.48915000  0.85111000  1.0
  N  N78  1  0.00418000  0.85162000  0.59220000  1.0
  N  N79  1  0.50418000  0.14838000  0.40780000  1.0
  N  N80  1  0.48829000  0.65358000  0.41859000  1.0
  N  N81  1  0.98829000  0.34642000  0.58141000  1.0
  O  O82  1  0.46631000  0.92601000  0.53350000  1.0
  O  O83  1  0.96632000  0.07399000  0.46651000  1.0
  O  O84  1  0.03990000  0.57497000  0.47905000  1.0
  O  O85  1  0.53989000  0.42503000  0.52095000  1.0
  O  O86  1  0.44417000  0.14868000  0.60522000  1.0
  O  O87  1  0.94414000  0.85134000  0.39479000  1.0
  O  O88  1  0.02988000  0.37138000  0.38742000  1.0
  O  O89  1  0.52989000  0.62860000  0.61258000  1.0
