# generated using pymatgen
data_CdH12C18I3N3O5
_symmetry_space_group_name_H-M   'P 1'
_cell_length_a   8.47032000
_cell_length_b   15.21050000
_cell_length_c   17.05810000
_cell_angle_alpha   89.99970000
_cell_angle_beta   89.99960000
_cell_angle_gamma   90.00000000
_symmetry_Int_Tables_number   1
_chemical_formula_structural   CdH12C18I3N3O5
_chemical_formula_sum   'Cd4 H48 C72 I12 N12 O20'
_cell_volume   2197.72811635
_cell_formula_units_Z   4
loop_
 _symmetry_equiv_pos_site_id
 _symmetry_equiv_pos_as_xyz
  1  'x, y, z'
loop_
 _atom_site_type_symbol
 _atom_site_label
 _atom_site_symmetry_multiplicity
 _atom_site_fract_x
 _atom_site_fract_y
 _atom_site_fract_z
 _atom_site_occupancy
  Cd  Cd0  1  0.67770000  0.80225000  0.59858000  1.0
  Cd  Cd1  1  0.32230000  0.30225000  0.40141000  1.0
  Cd  Cd2  1  0.82229000  0.80225000  0.09858000  1.0
  Cd  Cd3  1  0.17771000  0.30225000  0.90142000  1.0
  H  H4  1  0.86300000  0.72068000  0.69866000  1.0
  H  H5  1  0.13699000  0.22069000  0.30134000  1.0
  H  H6  1  0.63698000  0.72069000  0.19866000  1.0
  H  H7  1  0.36303000  0.22069000  0.80134000  1.0
  H  H8  1  0.97896000  0.74615000  0.62599000  1.0
  H  H9  1  0.02104000  0.24614000  0.37400000  1.0
  H  H10  1  0.52103000  0.74614000  0.12599000  1.0
  H  H11  1  0.47897000  0.24614000  0.87401000  1.0
  H  H12  1  0.30904000  0.76949000  0.04945000  1.0
  H  H13  1  0.69096000  0.26949000  0.95054000  1.0
  H  H14  1  0.19097000  0.76949000  0.54945000  1.0
  H  H15  1  0.80904000  0.26949000  0.45055000  1.0
  H  H16  1  0.45979000  0.82883000  0.00893000  1.0
  H  H17  1  0.54022000  0.32883000  0.99108000  1.0
  H  H18  1  0.04022000  0.82883000  0.50892000  1.0
  H  H19  1  0.95979000  0.32883000  0.49108000  1.0
  H  H20  1  0.44525000  0.92921000  0.50319000  1.0
  H  H21  1  0.55475000  0.42921000  0.49682000  1.0
  H  H22  1  0.05475000  0.92920000  0.00319000  1.0
  H  H23  1  0.94524000  0.42920000  0.99683000  1.0
  H  H24  1  0.28733000  0.93474000  0.37853000  1.0
  H  H25  1  0.71268000  0.43472000  0.62147000  1.0
  H  H26  1  0.21268000  0.93472000  0.87853000  1.0
  H  H27  1  0.78734000  0.43470000  0.12149000  1.0
  H  H28  1  0.30365000  0.80599000  0.28599000  1.0
  H  H29  1  0.69635000  0.30596000  0.71401000  1.0
  H  H30  1  0.19635000  0.80598000  0.78599000  1.0
  H  H31  1  0.80368000  0.30596000  0.21402000  1.0
  H  H32  1  0.47008000  0.67831000  0.32259000  1.0
  H  H33  1  0.52990000  0.17829000  0.67741000  1.0
  H  H34  1  0.02990000  0.67829000  0.82259000  1.0
  H  H35  1  0.97012000  0.17827000  0.17741000  1.0
  H  H36  1  0.61629000  0.58315000  0.35223000  1.0
  H  H37  1  0.38368000  0.08314000  0.64777000  1.0
  H  H38  1  0.88368000  0.58315000  0.85222000  1.0
  H  H39  1  0.11635000  0.08313000  0.14778000  1.0
  H  H40  1  0.80563000  0.46883000  0.39453000  1.0
  H  H41  1  0.19434000  0.96883000  0.60546000  1.0
  H  H42  1  0.69434000  0.46883000  0.89453000  1.0
  H  H43  1  0.30569000  0.96883000  0.10546000  1.0
  H  H44  1  0.93281000  0.48203000  0.52714000  1.0
  H  H45  1  0.06719000  0.98203000  0.47284000  1.0
  H  H46  1  0.56720000  0.48202000  0.02715000  1.0
  H  H47  1  0.43282000  0.98203000  0.97284000  1.0
  H  H48  1  0.85844000  0.60901000  0.61242000  1.0
  H  H49  1  0.14155000  0.10900000  0.38757000  1.0
  H  H50  1  0.64156000  0.60899000  0.11243000  1.0
  H  H51  1  0.35845000  0.10900000  0.88757000  1.0
  C  C52  1  0.59169000  0.69617000  0.74785000  1.0
  C  C53  1  0.40830000  0.19618000  0.25215000  1.0
  C  C54  1  0.90829000  0.69618000  0.24785000  1.0
  C  C55  1  0.09172000  0.19617000  0.75215000  1.0
  C  C56  1  0.49288000  0.67383000  0.81961000  1.0
  C  C57  1  0.50712000  0.17383000  0.18039000  1.0
  C  C58  1  0.00711000  0.67383000  0.31961000  1.0
  C  C59  1  0.99290000  0.17382000  0.68039000  1.0
  C  C60  1  0.41615000  0.59280000  0.82721000  1.0
  C  C61  1  0.58384000  0.09280000  0.17279000  1.0
  C  C62  1  0.08383000  0.59280000  0.32721000  1.0
  C  C63  1  0.91617000  0.09280000  0.67279000  1.0
  C  C64  1  0.33448000  0.56974000  0.89586000  1.0
  C  C65  1  0.66551000  0.06974000  0.10414000  1.0
  C  C66  1  0.16550000  0.56974000  0.39585000  1.0
  C  C67  1  0.83449000  0.06974000  0.60415000  1.0
  C  C68  1  0.33307000  0.62961000  0.95798000  1.0
  C  C69  1  0.66693000  0.12961000  0.04202000  1.0
  C  C70  1  0.16693000  0.62961000  0.45798000  1.0
  C  C71  1  0.83307000  0.12961000  0.54202000  1.0
  C  C72  1  0.40867000  0.71246000  0.95343000  1.0
  C  C73  1  0.59133000  0.21246000  0.04656000  1.0
  C  C74  1  0.09133000  0.71246000  0.45344000  1.0
  C  C75  1  0.90867000  0.21246000  0.54657000  1.0
  C  C76  1  0.48625000  0.73313000  0.88236000  1.0
  C  C77  1  0.51376000  0.23313000  0.11764000  1.0
  C  C78  1  0.01375000  0.73313000  0.38236000  1.0
  C  C79  1  0.98626000  0.23312000  0.61764000  1.0
  C  C80  1  0.26634000  0.47801000  0.90402000  1.0
  C  C81  1  0.73364000  0.97800000  0.09598000  1.0
  C  C82  1  0.23363000  0.47801000  0.40402000  1.0
  C  C83  1  0.76635000  0.97801000  0.59599000  1.0
  C  C84  1  0.44536000  0.87463000  0.46174000  1.0
  C  C85  1  0.55465000  0.37462000  0.53826000  1.0
  C  C86  1  0.05465000  0.87462000  0.96174000  1.0
  C  C87  1  0.94536000  0.37461000  0.03827000  1.0
  C  C88  1  0.35981000  0.87772000  0.39205000  1.0
  C  C89  1  0.64020000  0.37770000  0.60795000  1.0
  C  C90  1  0.14020000  0.87771000  0.89205000  1.0
  C  C91  1  0.85982000  0.37769000  0.10797000  1.0
  C  C92  1  0.36847000  0.80607000  0.34113000  1.0
  C  C93  1  0.63153000  0.30605000  0.65888000  1.0
  C  C94  1  0.13153000  0.80605000  0.84113000  1.0
  C  C95  1  0.86849000  0.30603000  0.15888000  1.0
  C  C96  1  0.46149000  0.73439000  0.36175000  1.0
  C  C97  1  0.53850000  0.23437000  0.63825000  1.0
  C  C98  1  0.03851000  0.73438000  0.86175000  1.0
  C  C99  1  0.96151000  0.23436000  0.13826000  1.0
  C  C100  1  0.54311000  0.73510000  0.43321000  1.0
  C  C101  1  0.45688000  0.23510000  0.56678000  1.0
  C  C102  1  0.95688000  0.73510000  0.93321000  1.0
  C  C103  1  0.04313000  0.23509000  0.06679000  1.0
  C  C104  1  0.64582000  0.66110000  0.45788000  1.0
  C  C105  1  0.35416000  0.16109000  0.54212000  1.0
  C  C106  1  0.85416000  0.66109000  0.95788000  1.0
  C  C107  1  0.14585000  0.16109000  0.04212000  1.0
  C  C108  1  0.67268000  0.58851000  0.40905000  1.0
  C  C109  1  0.32730000  0.08851000  0.59095000  1.0
  C  C110  1  0.82729000  0.58851000  0.90905000  1.0
  C  C111  1  0.17272000  0.08850000  0.09095000  1.0
  C  C112  1  0.77752000  0.52365000  0.43328000  1.0
  C  C113  1  0.22247000  0.02364000  0.56672000  1.0
  C  C114  1  0.72248000  0.52364000  0.93327000  1.0
  C  C115  1  0.27755000  0.02364000  0.06672000  1.0
  C  C116  1  0.84783000  0.53056000  0.50679000  1.0
  C  C117  1  0.15216000  0.03055000  0.49320000  1.0
  C  C118  1  0.65217000  0.53055000  0.00679000  1.0
  C  C119  1  0.34785000  0.03055000  0.99320000  1.0
  C  C120  1  0.80985000  0.60245000  0.55354000  1.0
  C  C121  1  0.19013000  0.10244000  0.44646000  1.0
  C  C122  1  0.69014000  0.60244000  0.05354000  1.0
  C  C123  1  0.30987000  0.10244000  0.94646000  1.0
  I  I124  1  0.44133000  0.49778000  0.73767000  1.0
  I  I125  1  0.55865000  0.99778000  0.26233000  1.0
  I  I126  1  0.05861000  0.49778000  0.23767000  1.0
  I  I127  1  0.94138000  0.99777000  0.76233000  1.0
  I  I128  1  0.22326000  0.59363000  0.06535000  1.0
  I  I129  1  0.77674000  0.09363000  0.93465000  1.0
  I  I130  1  0.27673000  0.59362000  0.56535000  1.0
  I  I131  1  0.72327000  0.09363000  0.43466000  1.0
  I  I132  1  0.59758000  0.85701000  0.86907000  1.0
  I  I133  1  0.40243000  0.35701000  0.13093000  1.0
  I  I134  1  0.90242000  0.85702000  0.36908000  1.0
  I  I135  1  0.09758000  0.35701000  0.63093000  1.0
  N  N136  1  0.41122000  0.76816000  0.01793000  1.0
  N  N137  1  0.58879000  0.26816000  0.98206000  1.0
  N  N138  1  0.08879000  0.76816000  0.51794000  1.0
  N  N139  1  0.91122000  0.26816000  0.48207000  1.0
  N  N140  1  0.53270000  0.80487000  0.48211000  1.0
  N  N141  1  0.46729000  0.30486000  0.51789000  1.0
  N  N142  1  0.96730000  0.80486000  0.98211000  1.0
  N  N143  1  0.03270000  0.30485000  0.01789000  1.0
  N  N144  1  0.71454000  0.66713000  0.52917000  1.0
  N  N145  1  0.28545000  0.16712000  0.47083000  1.0
  N  N146  1  0.78546000  0.66712000  0.02917000  1.0
  N  N147  1  0.21455000  0.16712000  0.97083000  1.0
  O  O148  1  0.52737000  0.74662000  0.69733000  1.0
  O  O149  1  0.47262000  0.24662000  0.30267000  1.0
  O  O150  1  0.97261000  0.74662000  0.19734000  1.0
  O  O151  1  0.02740000  0.24661000  0.80267000  1.0
  O  O152  1  0.72910000  0.66412000  0.74638000  1.0
  O  O153  1  0.27088000  0.16413000  0.25360000  1.0
  O  O154  1  0.77086000  0.66413000  0.24640000  1.0
  O  O155  1  0.22914000  0.16412000  0.75360000  1.0
  O  O156  1  0.35522000  0.42114000  0.93638000  1.0
  O  O157  1  0.64475000  0.92114000  0.06361000  1.0
  O  O158  1  0.14474000  0.42114000  0.43638000  1.0
  O  O159  1  0.85523000  0.92114000  0.56362000  1.0
  O  O160  1  0.13030000  0.46150000  0.87668000  1.0
  O  O161  1  0.86967000  0.96149000  0.12332000  1.0
  O  O162  1  0.36967000  0.46149000  0.37668000  1.0
  O  O163  1  0.63031000  0.96150000  0.62333000  1.0
  O  O164  1  0.91424000  0.77010000  0.66879000  1.0
  O  O165  1  0.08575000  0.27010000  0.33121000  1.0
  O  O166  1  0.58574000  0.77010000  0.16879000  1.0
  O  O167  1  0.41426000  0.27010000  0.83121000  1.0
