# generated using pymatgen
data_NaH8C7SNO7
_symmetry_space_group_name_H-M   'P 1'
_cell_length_a   7.07186000
_cell_length_b   12.02280000
_cell_length_c   12.38360000
_cell_angle_alpha   89.99910000
_cell_angle_beta   105.10100000
_cell_angle_gamma   90.00000000
_symmetry_Int_Tables_number   1
_chemical_formula_structural   NaH8C7SNO7
_chemical_formula_sum   'Na4 H32 C28 S4 N4 O28'
_cell_volume   1016.53916160
_cell_formula_units_Z   4
loop_
 _symmetry_equiv_pos_site_id
 _symmetry_equiv_pos_as_xyz
  1  'x, y, z'
loop_
 _atom_site_type_symbol
 _atom_site_label
 _atom_site_symmetry_multiplicity
 _atom_site_fract_x
 _atom_site_fract_y
 _atom_site_fract_z
 _atom_site_occupancy
  Na  Na0  1  0.26435000  0.31716000  0.49601000  1.0
  Na  Na1  1  0.76433000  0.18284000  0.49599000  1.0
  Na  Na2  1  0.73565000  0.68284000  0.50398000  1.0
  Na  Na3  1  0.23566000  0.81716000  0.50400000  1.0
  H  H4  1  0.00936000  0.54814000  0.34393000  1.0
  H  H5  1  0.50935000  0.95187000  0.34394000  1.0
  H  H6  1  0.99065000  0.45187000  0.65607000  1.0
  H  H7  1  0.49065000  0.04813000  0.65606000  1.0
  H  H8  1  0.77054000  0.57338000  0.25198000  1.0
  H  H9  1  0.27054000  0.92663000  0.25199000  1.0
  H  H10  1  0.22946000  0.42662000  0.74802000  1.0
  H  H11  1  0.72947000  0.07337000  0.74801000  1.0
  H  H12  1  0.39632000  0.39620000  0.30507000  1.0
  H  H13  1  0.89631000  0.10381000  0.30507000  1.0
  H  H14  1  0.60369000  0.60381000  0.69493000  1.0
  H  H15  1  0.10369000  0.89619000  0.69493000  1.0
  H  H16  1  0.65862000  0.46998000  0.07475000  1.0
  H  H17  1  0.15863000  0.03000000  0.07474000  1.0
  H  H18  1  0.34137000  0.53000000  0.92526000  1.0
  H  H19  1  0.84136000  0.97001000  0.92526000  1.0
  H  H20  1  0.09287000  0.30261000  0.94756000  1.0
  H  H21  1  0.59286000  0.19739000  0.94756000  1.0
  H  H22  1  0.90714000  0.69739000  0.05244000  1.0
  H  H23  1  0.40714000  0.80260000  0.05244000  1.0
  H  H24  1  0.33337000  0.31785000  0.13582000  1.0
  H  H25  1  0.83334000  0.18217000  0.13581000  1.0
  H  H26  1  0.66666667  0.68216000  0.86419000  1.0
  H  H27  1  0.16665000  0.81783000  0.86419000  1.0
  H  H28  1  0.15748000  0.16797000  0.67269000  1.0
  H  H29  1  0.65750000  0.33203000  0.67269000  1.0
  H  H30  1  0.84252000  0.83203000  0.32730000  1.0
  H  H31  1  0.34251000  0.66797000  0.32731000  1.0
  H  H32  1  0.15219000  0.10218000  0.56221000  1.0
  H  H33  1  0.65220000  0.39783000  0.56221000  1.0
  H  H34  1  0.84781000  0.89782000  0.43779000  1.0
  H  H35  1  0.34781000  0.60218000  0.43779000  1.0
  C  C36  1  0.88247000  0.51009000  0.28516000  1.0
  C  C37  1  0.38248000  0.98992000  0.28517000  1.0
  C  C38  1  0.11752000  0.48992000  0.71484000  1.0
  C  C39  1  0.61753000  0.01008000  0.71483000  1.0
  C  C40  1  0.12982000  0.40346000  0.21002000  1.0
  C  C41  1  0.62982000  0.09653000  0.21003000  1.0
  C  C42  1  0.87018000  0.59653000  0.78997000  1.0
  C  C43  1  0.37018000  0.90346000  0.78998000  1.0
  C  C44  1  0.93843000  0.44831000  0.19322000  1.0
  C  C45  1  0.43842000  0.05169000  0.19322000  1.0
  C  C46  1  0.06158000  0.55169000  0.80678000  1.0
  C  C47  1  0.56158000  0.94831000  0.80678000  1.0
  C  C48  1  0.80571000  0.43613000  0.08933000  1.0
  C  C49  1  0.30571000  0.06386000  0.08933000  1.0
  C  C50  1  0.19429000  0.56386000  0.91067000  1.0
  C  C51  1  0.69429000  0.93614000  0.91067000  1.0
  C  C52  1  0.86277000  0.38248000  0.00251000  1.0
  C  C53  1  0.36276000  0.11751000  0.00250000  1.0
  C  C54  1  0.13723000  0.61752000  0.99750000  1.0
  C  C55  1  0.63723000  0.88249000  0.99750000  1.0
  C  C56  1  0.05264000  0.34008000  0.01809000  1.0
  C  C57  1  0.55264000  0.15991000  0.01807000  1.0
  C  C58  1  0.94736000  0.65991000  0.98193000  1.0
  C  C59  1  0.44736000  0.84008000  0.98193000  1.0
  C  C60  1  0.18479000  0.34967000  0.12149000  1.0
  C  C61  1  0.68478000  0.15032000  0.12147000  1.0
  C  C62  1  0.81521000  0.65032000  0.87852000  1.0
  C  C63  1  0.31522000  0.84967000  0.87852000  1.0
  S  S64  1  0.77458000  0.42028000  0.36935000  1.0
  S  S65  1  0.27457000  0.07973000  0.36934000  1.0
  S  S66  1  0.22542000  0.57972000  0.63065000  1.0
  S  S67  1  0.72543000  0.92027000  0.63066000  1.0
  N  N68  1  0.72671000  0.37262000  0.89453000  1.0
  N  N69  1  0.22672000  0.12738000  0.89453000  1.0
  N  N70  1  0.27328000  0.62738000  0.10547000  1.0
  N  N71  1  0.77329000  0.87262000  0.10547000  1.0
  O  O72  1  0.91964000  0.33501000  0.41914000  1.0
  O  O73  1  0.41963000  0.16500000  0.41914000  1.0
  O  O74  1  0.08036000  0.66500000  0.58085000  1.0
  O  O75  1  0.58037000  0.83500000  0.58086000  1.0
  O  O76  1  0.72298000  0.49318000  0.45309000  1.0
  O  O77  1  0.22297000  0.00682000  0.45308000  1.0
  O  O78  1  0.27701000  0.50682000  0.54691000  1.0
  O  O79  1  0.77703000  0.99318000  0.54691000  1.0
  O  O80  1  0.60009000  0.36939000  0.29241000  1.0
  O  O81  1  0.10008000  0.13061000  0.29240000  1.0
  O  O82  1  0.39991000  0.63062000  0.70760000  1.0
  O  O83  1  0.89992000  0.86938000  0.70760000  1.0
  O  O84  1  0.25768000  0.41669000  0.30997000  1.0
  O  O85  1  0.75768000  0.08332000  0.30997000  1.0
  O  O86  1  0.74231000  0.58331000  0.69003000  1.0
  O  O87  1  0.24233000  0.91668000  0.69003000  1.0
  O  O88  1  0.55905000  0.41248000  0.87854000  1.0
  O  O89  1  0.05903000  0.08752000  0.87854000  1.0
  O  O90  1  0.44097000  0.58753000  0.12145000  1.0
  O  O91  1  0.94096000  0.91247000  0.12145000  1.0
  O  O92  1  0.78284000  0.32220000  0.81914000  1.0
  O  O93  1  0.28284000  0.17780000  0.81912000  1.0
  O  O94  1  0.21715000  0.67779000  0.18088000  1.0
  O  O95  1  0.71715000  0.82221000  0.18088000  1.0
  O  O96  1  0.11790000  0.17396000  0.59036000  1.0
  O  O97  1  0.61791000  0.32604000  0.59037000  1.0
  O  O98  1  0.88209000  0.82604000  0.40963000  1.0
  O  O99  1  0.38209000  0.67396000  0.40963000  1.0
