# generated using pymatgen
data_HgH5C5NCl2O
_symmetry_space_group_name_H-M   'P 1'
_cell_length_a   6.56086000
_cell_length_b   7.23220000
_cell_length_c   10.10080000
_cell_angle_alpha   75.51340000
_cell_angle_beta   73.04870000
_cell_angle_gamma   63.43190000
_symmetry_Int_Tables_number   1
_chemical_formula_structural   HgH5C5NCl2O
_chemical_formula_sum   'Hg2 H10 C10 N2 Cl4 O2'
_cell_volume   406.00642975
_cell_formula_units_Z   2
loop_
 _symmetry_equiv_pos_site_id
 _symmetry_equiv_pos_as_xyz
  1  'x, y, z'
loop_
 _atom_site_type_symbol
 _atom_site_label
 _atom_site_symmetry_multiplicity
 _atom_site_fract_x
 _atom_site_fract_y
 _atom_site_fract_z
 _atom_site_occupancy
  Hg  Hg0  1  0.66658000  0.18252000  0.98157000  1.0
  Hg  Hg1  1  0.33341000  0.81748000  0.01842000  1.0
  H  H2  1  0.96555000  0.41673000  0.13326000  1.0
  H  H3  1  0.03444000  0.58329000  0.86675000  1.0
  H  H4  1  0.00495000  0.23108000  0.37563000  1.0
  H  H5  1  0.99508000  0.76894000  0.62436000  1.0
  H  H6  1  0.77549000  0.42986000  0.58049000  1.0
  H  H7  1  0.22455000  0.57013000  0.41949000  1.0
  H  H8  1  0.51689000  0.81018000  0.53187000  1.0
  H  H9  1  0.48315000  0.18979000  0.46813000  1.0
  H  H10  1  0.49787000  0.97460000  0.28073000  1.0
  H  H11  1  0.50214000  0.02537000  0.71928000  1.0
  C  C12  1  0.87181000  0.49376000  0.22593000  1.0
  C  C13  1  0.12817000  0.50625000  0.77408000  1.0
  C  C14  1  0.89045000  0.39601000  0.36117000  1.0
  C  C15  1  0.10957000  0.60400000  0.63883000  1.0
  C  C16  1  0.76358000  0.50686000  0.47391000  1.0
  C  C17  1  0.23643000  0.49315000  0.52608000  1.0
  C  C18  1  0.61984000  0.71775000  0.44686000  1.0
  C  C19  1  0.38016000  0.28223000  0.55314000  1.0
  C  C20  1  0.60432000  0.81147000  0.31085000  1.0
  C  C21  1  0.39568000  0.18852000  0.68916000  1.0
  N  N22  1  0.72922000  0.69914000  0.20259000  1.0
  N  N23  1  0.27076000  0.30086000  0.79742000  1.0
  Cl  Cl24  1  0.46543000  0.34917000  0.18278000  1.0
  Cl  Cl25  1  0.53457000  0.65084000  0.81721000  1.0
  Cl  Cl26  1  0.92292000  0.06685000  0.77282000  1.0
  Cl  Cl27  1  0.07706000  0.93316000  0.22717000  1.0
  O  O28  1  0.71124000  0.78965000  0.07181000  1.0
  O  O29  1  0.28871000  0.21037000  0.92820000  1.0
