# generated using pymatgen
data_Zn2H21C22N8F
_symmetry_space_group_name_H-M   'P 1'
_cell_length_a   13.00600000
_cell_length_b   13.02430000
_cell_length_c   14.29534015
_cell_angle_alpha   114.30816309
_cell_angle_beta   114.02717933
_cell_angle_gamma   76.43900000
_symmetry_Int_Tables_number   1
_chemical_formula_structural   Zn2H21C22N8F
_chemical_formula_sum   'Zn4 H42 C44 N16 F2'
_cell_volume   2009.12805589
_cell_formula_units_Z   2
loop_
 _symmetry_equiv_pos_site_id
 _symmetry_equiv_pos_as_xyz
  1  'x, y, z'
loop_
 _atom_site_type_symbol
 _atom_site_label
 _atom_site_symmetry_multiplicity
 _atom_site_fract_x
 _atom_site_fract_y
 _atom_site_fract_z
 _atom_site_occupancy
  Zn  Zn0  1  0.65289000  0.34837000  0.00048000  1.0
  Zn  Zn1  1  0.36910000  0.63070000  0.00093000  1.0
  Zn  Zn2  1  0.52841000  0.50645000  0.85176000  1.0
  Zn  Zn3  1  0.49439000  0.47281000  0.14925000  1.0
  H  H4  1  0.87008000  0.78524000  0.47332000  1.0
  H  H5  1  0.39913000  0.79659000  0.52600000  1.0
  H  H6  1  0.87439000  0.47852000  0.43328000  1.0
  H  H7  1  0.01139000  0.53781000  0.60977000  1.0
  H  H8  1  0.45885000  0.95533000  0.68221000  1.0
  H  H9  1  0.02849000  0.56325000  0.30406000  1.0
  H  H10  1  0.20001000  0.96313000  0.35034000  1.0
  H  H11  1  0.50951000  0.94081000  0.40745000  1.0
  H  H12  1  0.01055000  0.70913000  0.37547000  1.0
  H  H13  1  0.30759000  0.02218000  0.34802000  1.0
  H  H14  1  0.18973000  0.68086000  0.50182000  1.0
  H  H15  1  0.28073000  0.17456000  0.49790000  1.0
  H  H16  1  0.18067000  0.53338000  0.45278000  1.0
  H  H17  1  0.20875000  0.09693000  0.52510000  1.0
  H  H18  1  0.97559000  0.43040000  0.36880000  1.0
  H  H19  1  0.25945000  0.85688000  0.48324000  1.0
  H  H20  1  0.27943000  0.85305000  0.18033000  1.0
  H  H21  1  0.87556000  0.48319000  0.15585000  1.0
  H  H22  1  0.10828000  0.45023000  0.54625000  1.0
  H  H23  1  0.31369000  0.99676000  0.66004000  1.0
  H  H24  1  0.54767000  0.03316000  0.18602000  1.0
  H  H25  1  0.07344000  0.28037000  0.93201000  1.0
  H  H26  1  0.71916000  0.92631000  0.06748000  1.0
  H  H27  1  0.05505000  0.80716000  0.60373000  1.0
  H  H28  1  0.96891000  0.45197000  0.81450000  1.0
  H  H29  1  0.70960000  0.69407000  0.96523000  1.0
  H  H30  1  0.73748000  0.49216000  0.76378000  1.0
  H  H31  1  0.66731000  0.64615000  0.35757000  1.0
  H  H32  1  0.45495000  0.64863000  0.38169000  1.0
  H  H33  1  0.49669000  0.12022000  0.54018000  1.0
  H  H34  1  0.72242000  0.10323000  0.04156000  1.0
  H  H35  1  0.15054000  0.49935000  0.83555000  1.0
  H  H36  1  0.14549000  0.71372000  0.82057000  1.0
  H  H37  1  0.51500000  0.12631000  0.84699000  1.0
  H  H38  1  0.35461000  0.33316000  0.64529000  1.0
  H  H39  1  0.35452000  0.54985000  0.62070000  1.0
  H  H40  1  0.89628000  0.27682000  0.95650000  1.0
  H  H41  1  0.49795000  0.85212000  0.16428000  1.0
  H  H42  1  0.00253000  0.75330000  0.66931000  1.0
  H  H43  1  0.57212000  0.05120000  0.63488000  1.0
  H  H44  1  0.30572000  0.29057000  0.03606000  1.0
  H  H45  1  0.50857000  0.26443000  0.23714000  1.0
  C  C46  1  0.84045000  0.32976000  0.91072000  1.0
  C  C47  1  0.18023000  0.37457000  0.91901000  1.0
  C  C48  1  0.61791000  0.13724000  0.14627000  1.0
  C  C49  1  0.20769000  0.63538000  0.67809000  1.0
  C  C50  1  0.41483000  0.18529000  0.70417000  1.0
  C  C51  1  0.90662000  0.71099000  0.49783000  1.0
  C  C52  1  0.48730000  0.93819000  0.47294000  1.0
  C  C53  1  0.54224000  0.79718000  0.10901000  1.0
  C  C54  1  0.01977000  0.73294000  0.59421000  1.0
  C  C55  1  0.49335000  0.05240000  0.56571000  1.0
  C  C56  1  0.95053000  0.50116000  0.43336000  1.0
  C  C57  1  0.34876000  0.87342000  0.51385000  1.0
  C  C58  1  0.02333000  0.62553000  0.38242000  1.0
  C  C59  1  0.28442000  0.99431000  0.39948000  1.0
  C  C60  1  0.92013000  0.60682000  0.39979000  1.0
  C  C61  1  0.36874000  0.89537000  0.42451000  1.0
  C  C62  1  0.10519000  0.62878000  0.57717000  1.0
  C  C63  1  0.39050000  0.07990000  0.60316000  1.0
  C  C64  1  0.04532000  0.52324000  0.54586000  1.0
  C  C65  1  0.37881000  0.97604000  0.62310000  1.0
  C  C66  1  0.32408000  0.78781000  0.21471000  1.0
  C  C67  1  0.80932000  0.51573000  0.19101000  1.0
  C  C68  1  0.13368000  0.61596000  0.47798000  1.0
  C  C69  1  0.28453000  0.34973000  0.99384000  1.0
  C  C70  1  0.28405000  0.09381000  0.50679000  1.0
  C  C71  1  0.60891000  0.03080000  0.15052000  1.0
  C  C72  1  0.07151000  0.34122000  0.89647000  1.0
  C  C73  1  0.65817000  0.92921000  0.10348000  1.0
  C  C74  1  0.97049000  0.39070000  0.84939000  1.0
  C  C75  1  0.56067000  0.24207000  0.18728000  1.0
  C  C76  1  0.65015000  0.71591000  0.00755000  1.0
  C  C77  1  0.75924000  0.43979000  0.81298000  1.0
  C  C78  1  0.70255000  0.59887000  0.29323000  1.0
  C  C79  1  0.41248000  0.68327000  0.31679000  1.0
  C  C80  1  0.86362000  0.38197000  0.85326000  1.0
  C  C81  1  0.62451000  0.82092000  0.08168000  1.0
  C  C82  1  0.36252000  0.79267000  0.32331000  1.0
  C  C83  1  0.81515000  0.58414000  0.29857000  1.0
  C  C84  1  0.67011000  0.15971000  0.08825000  1.0
  C  C85  1  0.20472000  0.45610000  0.89155000  1.0
  C  C86  1  0.21169000  0.67170000  0.78638000  1.0
  C  C87  1  0.48339000  0.19212000  0.81168000  1.0
  C  C88  1  0.40180000  0.29727000  0.70881000  1.0
  C  C89  1  0.31799000  0.58833000  0.68478000  1.0
  N  N90  1  0.73227000  0.35515000  0.90529000  1.0
  N  N91  1  0.68134000  0.42373000  0.84425000  1.0
  N  N92  1  0.58567000  0.63802000  0.99031000  1.0
  N  N93  1  0.63614000  0.54170000  0.19046000  1.0
  N  N94  1  0.40444000  0.61866000  0.21270000  1.0
  N  N95  1  0.64527000  0.26795000  0.09419000  1.0
  N  N96  1  0.31341000  0.47913000  0.94823000  1.0
  N  N97  1  0.51966000  0.68820000  0.05300000  1.0
  N  N98  1  0.31590000  0.64779000  0.85203000  1.0
  N  N99  1  0.51022000  0.29969000  0.87406000  1.0
  N  N100  1  0.46010000  0.36430000  0.81088000  1.0
  N  N101  1  0.38227000  0.59574000  0.78872000  1.0
  N  N102  1  0.36270000  0.41408000  0.01141000  1.0
  N  N103  1  0.57708000  0.31960000  0.15605000  1.0
  N  N104  1  0.34943000  0.68381000  0.14887000  1.0
  N  N105  1  0.70165000  0.49058000  0.12760000  1.0
  F  F106  1  0.82690000  0.69247000  0.53382000  1.0
  F  F107  1  0.56921000  0.85818000  0.51404000  1.0
