# generated using pymatgen
data_Bi2H24C27(SBr2)3
_symmetry_space_group_name_H-M   'P 1'
_cell_length_a   9.10386000
_cell_length_b   14.17930000
_cell_length_c   14.77250000
_cell_angle_alpha   107.60600000
_cell_angle_beta   107.77600000
_cell_angle_gamma   98.51700000
_symmetry_Int_Tables_number   1
_chemical_formula_structural   Bi2H24C27(SBr2)3
_chemical_formula_sum   'Bi4 H48 C54 S6 Br12'
_cell_volume   1668.99173893
_cell_formula_units_Z   2
loop_
 _symmetry_equiv_pos_site_id
 _symmetry_equiv_pos_as_xyz
  1  'x, y, z'
loop_
 _atom_site_type_symbol
 _atom_site_label
 _atom_site_symmetry_multiplicity
 _atom_site_fract_x
 _atom_site_fract_y
 _atom_site_fract_z
 _atom_site_occupancy
  Bi  Bi0  1  0.30530000  0.50901000  0.37557000  1.0
  Bi  Bi1  1  0.69470000  0.49098000  0.62441000  1.0
  Bi  Bi2  1  0.06718000  0.70585000  0.28886000  1.0
  Bi  Bi3  1  0.93281000  0.29414000  0.71115000  1.0
  H  H4  1  0.07812000  0.19834000  0.40512000  1.0
  H  H5  1  0.92188000  0.80167000  0.59489000  1.0
  H  H6  1  0.09285000  0.32918000  0.47268000  1.0
  H  H7  1  0.90716000  0.67083000  0.52732000  1.0
  H  H8  1  0.26912000  0.29300000  0.46313000  1.0
  H  H9  1  0.73088000  0.70700000  0.53687000  1.0
  H  H10  1  0.99629000  0.22576000  0.09382000  1.0
  H  H11  1  0.00372000  0.77424000  0.90618000  1.0
  H  H12  1  0.06561000  0.09411000  0.97546000  1.0
  H  H13  1  0.93439000  0.90589000  0.02455000  1.0
  H  H14  1  0.40062000  0.05385000  0.23087000  1.0
  H  H15  1  0.59938000  0.94613000  0.76913000  1.0
  H  H16  1  0.33451000  0.18677000  0.34948000  1.0
  H  H17  1  0.66548000  0.81322000  0.65051000  1.0
  H  H18  1  0.20765000  0.03928000  0.89906000  1.0
  H  H19  1  0.79234000  0.96071000  0.10094000  1.0
  H  H20  1  0.29902000  0.07028000  0.79027000  1.0
  H  H21  1  0.70097000  0.92972000  0.20973000  1.0
  H  H22  1  0.30146000  0.07359000  0.62708000  1.0
  H  H23  1  0.69853000  0.92641000  0.37292000  1.0
  H  H24  1  0.07839000  0.99505000  0.43303000  1.0
  H  H25  1  0.92160000  0.00494000  0.56698000  1.0
  H  H26  1  0.16984000  0.99808000  0.34174000  1.0
  H  H27  1  0.83015000  0.00193000  0.65827000  1.0
  H  H28  1  0.27143000  0.08332000  0.47251000  1.0
  H  H29  1  0.72856000  0.91669000  0.52750000  1.0
  H  H30  1  0.26586000  0.74843000  0.52119000  1.0
  H  H31  1  0.73415000  0.25157000  0.47881000  1.0
  H  H32  1  0.26049000  0.74476000  0.68325000  1.0
  H  H33  1  0.73951000  0.25524000  0.31675000  1.0
  H  H34  1  0.39164000  0.77496000  0.83326000  1.0
  H  H35  1  0.60836000  0.22504000  0.16674000  1.0
  H  H36  1  0.36028000  0.90626000  0.12683000  1.0
  H  H37  1  0.63972000  0.09373000  0.87317000  1.0
  H  H38  1  0.61998000  0.77257000  0.93051000  1.0
  H  H39  1  0.38003000  0.22743000  0.06949000  1.0
  H  H40  1  0.77865000  0.66091000  0.98684000  1.0
  H  H41  1  0.22136000  0.33910000  0.01317000  1.0
  H  H42  1  0.50294000  0.62173000  0.17166000  1.0
  H  H43  1  0.49707000  0.37828000  0.82834000  1.0
  H  H44  1  0.34272000  0.73143000  0.11265000  1.0
  H  H45  1  0.65729000  0.26859000  0.88736000  1.0
  H  H46  1  0.68637000  0.55341000  0.25658000  1.0
  H  H47  1  0.31363000  0.44660000  0.74342000  1.0
  H  H48  1  0.75053000  0.44322000  0.20364000  1.0
  H  H49  1  0.24948000  0.55679000  0.79637000  1.0
  H  H50  1  0.56025000  0.45569000  0.13351000  1.0
  H  H51  1  0.43976000  0.54432000  0.86649000  1.0
  C  C52  1  0.14008000  0.27808000  0.42356000  1.0
  C  C53  1  0.85992000  0.72193000  0.57643000  1.0
  C  C54  1  0.15823000  0.21412000  0.22966000  1.0
  C  C55  1  0.84178000  0.78587000  0.77034000  1.0
  C  C56  1  0.08629000  0.18881000  0.12389000  1.0
  C  C57  1  0.91371000  0.81118000  0.87611000  1.0
  C  C58  1  0.12618000  0.11400000  0.05726000  1.0
  C  C59  1  0.87382000  0.88599000  0.94273000  1.0
  C  C60  1  0.23739000  0.06188000  0.09310000  1.0
  C  C61  1  0.76261000  0.93811000  0.90690000  1.0
  C  C62  1  0.31020000  0.08990000  0.19963000  1.0
  C  C63  1  0.68979000  0.91008000  0.80037000  1.0
  C  C64  1  0.27278000  0.16561000  0.26754000  1.0
  C  C65  1  0.72722000  0.83438000  0.73245000  1.0
  C  C66  1  0.27660000  0.98138000  0.02087000  1.0
  C  C67  1  0.72339000  0.01862000  0.97912000  1.0
  C  C68  1  0.25399000  0.98011000  0.92204000  1.0
  C  C69  1  0.74601000  0.01989000  0.07796000  1.0
  C  C70  1  0.29289000  0.90558000  0.85291000  1.0
  C  C71  1  0.70711000  0.09442000  0.14708000  1.0
  C  C72  1  0.28065000  0.90731000  0.75138000  1.0
  C  C73  1  0.71934000  0.09269000  0.24862000  1.0
  C  C74  1  0.28915000  0.99848000  0.73144000  1.0
  C  C75  1  0.71084000  0.00151000  0.26855000  1.0
  C  C76  1  0.29152000  0.00082000  0.63820000  1.0
  C  C77  1  0.70846000  0.99918000  0.36180000  1.0
  C  C78  1  0.28313000  0.91104000  0.56120000  1.0
  C  C79  1  0.71688000  0.08896000  0.43880000  1.0
  C  C80  1  0.19210000  0.00701000  0.42155000  1.0
  C  C81  1  0.80789000  0.99299000  0.57846000  1.0
  C  C82  1  0.27300000  0.81943000  0.57958000  1.0
  C  C83  1  0.72700000  0.18057000  0.42042000  1.0
  C  C84  1  0.27115000  0.81790000  0.67268000  1.0
  C  C85  1  0.72885000  0.18210000  0.32732000  1.0
  C  C86  1  0.35611000  0.83159000  0.88477000  1.0
  C  C87  1  0.64390000  0.16841000  0.11523000  1.0
  C  C88  1  0.38282000  0.83178000  0.98332000  1.0
  C  C89  1  0.61719000  0.16822000  0.01668000  1.0
  C  C90  1  0.33990000  0.90597000  0.05018000  1.0
  C  C91  1  0.66010000  0.09403000  0.94982000  1.0
  C  C92  1  0.47003000  0.76121000  0.01765000  1.0
  C  C93  1  0.52998000  0.23879000  0.98235000  1.0
  C  C94  1  0.59316000  0.73914000  0.98281000  1.0
  C  C95  1  0.40684000  0.26086000  0.01719000  1.0
  C  C96  1  0.68416000  0.67692000  0.01513000  1.0
  C  C97  1  0.31585000  0.32308000  0.98487000  1.0
  C  C98  1  0.65334000  0.63455000  0.08395000  1.0
  C  C99  1  0.34667000  0.36546000  0.91605000  1.0
  C  C100  1  0.53010000  0.65450000  0.11897000  1.0
  C  C101  1  0.46991000  0.34550000  0.88102000  1.0
  C  C102  1  0.43959000  0.71739000  0.08579000  1.0
  C  C103  1  0.56042000  0.28262000  0.91421000  1.0
  C  C104  1  0.68330000  0.49739000  0.18568000  1.0
  C  C105  1  0.31671000  0.50262000  0.81432000  1.0
  S  S106  1  0.09078000  0.30431000  0.30773000  1.0
  S  S107  1  0.90923000  0.69569000  0.69226000  1.0
  S  S108  1  0.29075000  0.90985000  0.44229000  1.0
  S  S109  1  0.70925000  0.09016000  0.55771000  1.0
  S  S110  1  0.77882000  0.55801000  0.12013000  1.0
  S  S111  1  0.22119000  0.44200000  0.87988000  1.0
  Br  Br112  1  0.58384000  0.42871000  0.39235000  1.0
  Br  Br113  1  0.41616000  0.57129000  0.60762000  1.0
  Br  Br114  1  0.15650000  0.48190000  0.17158000  1.0
  Br  Br115  1  0.84338000  0.51812000  0.82839000  1.0
  Br  Br116  1  0.02840000  0.55916000  0.40404000  1.0
  Br  Br117  1  0.97160000  0.44082000  0.59595000  1.0
  Br  Br118  1  0.45186000  0.70785000  0.39316000  1.0
  Br  Br119  1  0.54810000  0.29213000  0.60684000  1.0
  Br  Br120  1  0.85329000  0.77988000  0.35822000  1.0
  Br  Br121  1  0.14672000  0.22012000  0.64181000  1.0
  Br  Br122  1  0.08266000  0.80757000  0.16244000  1.0
  Br  Br123  1  0.91739000  0.19243000  0.83758000  1.0
