# generated using pymatgen
data_ZnH10C12(N2Cl)2
_symmetry_space_group_name_H-M   'P 1'
_cell_length_a   6.30019000
_cell_length_b   7.34669265
_cell_length_c   15.94220000
_cell_angle_alpha   87.94841308
_cell_angle_beta   89.99510000
_cell_angle_gamma   64.67804666
_symmetry_Int_Tables_number   1
_chemical_formula_structural   ZnH10C12(N2Cl)2
_chemical_formula_sum   'Zn2 H20 C24 N8 Cl4'
_cell_volume   666.47365771
_cell_formula_units_Z   2
loop_
 _symmetry_equiv_pos_site_id
 _symmetry_equiv_pos_as_xyz
  1  'x, y, z'
loop_
 _atom_site_type_symbol
 _atom_site_label
 _atom_site_symmetry_multiplicity
 _atom_site_fract_x
 _atom_site_fract_y
 _atom_site_fract_z
 _atom_site_occupancy
  Zn  Zn0  1  0.05719000  0.99959000  0.74991000  1.0
  Zn  Zn1  1  0.94277000  0.00046000  0.25009000  1.0
  H  H2  1  0.31642000  0.30213000  0.79982000  1.0
  H  H3  1  0.61847000  0.69742000  0.70021000  1.0
  H  H4  1  0.68358000  0.69791000  0.20019000  1.0
  H  H5  1  0.38150000  0.30262000  0.29978000  1.0
  H  H6  1  0.11506000  0.90481000  0.93983000  1.0
  H  H7  1  0.02094000  0.09420000  0.56011000  1.0
  H  H8  1  0.88500000  0.09515000  0.06017000  1.0
  H  H9  1  0.97898000  0.90585000  0.43988000  1.0
  H  H10  1  0.24420000  0.12580000  0.05119000  1.0
  H  H11  1  0.37106000  0.87362000  0.44877000  1.0
  H  H12  1  0.75597000  0.87407000  0.94881000  1.0
  H  H13  1  0.62884000  0.12642000  0.55123000  1.0
  H  H14  1  0.21104000  0.42417000  0.08297000  1.0
  H  H15  1  0.63535000  0.57587000  0.41705000  1.0
  H  H16  1  0.78908000  0.57576000  0.91705000  1.0
  H  H17  1  0.36457000  0.42416000  0.58294000  1.0
  H  H18  1  0.61557000  0.36416000  0.85762000  1.0
  H  H19  1  0.97982000  0.63567000  0.64244000  1.0
  H  H20  1  0.38456000  0.63575000  0.14238000  1.0
  H  H21  1  0.02011000  0.36436000  0.35756000  1.0
  C  C22  1  0.27767000  0.22299000  0.85196000  1.0
  C  C23  1  0.50102000  0.77638000  0.64800000  1.0
  C  C24  1  0.72231000  0.77702000  0.14805000  1.0
  C  C25  1  0.49891000  0.22368000  0.35199000  1.0
  C  C26  1  0.17348000  0.02197000  0.92811000  1.0
  C  C27  1  0.19624000  0.97710000  0.57180000  1.0
  C  C28  1  0.82660000  0.97799000  0.07188000  1.0
  C  C29  1  0.80368000  0.02297000  0.42820000  1.0
  C  C30  1  0.23870000  0.12799000  0.98315000  1.0
  C  C31  1  0.36749000  0.87125000  0.51681000  1.0
  C  C32  1  0.76144000  0.87192000  0.01686000  1.0
  C  C33  1  0.63242000  0.12881000  0.48319000  1.0
  C  C34  1  0.40079000  0.38218000  0.96640000  1.0
  C  C35  1  0.78334000  0.61775000  0.53360000  1.0
  C  C36  1  0.59933000  0.61774000  0.03361000  1.0
  C  C37  1  0.21655000  0.38230000  0.46640000  1.0
  C  C38  1  0.33828000  0.45660000  0.04660000  1.0
  C  C39  1  0.79512000  0.54319000  0.45339000  1.0
  C  C40  1  0.66185000  0.54329000  0.95340000  1.0
  C  C41  1  0.20477000  0.45687000  0.54660000  1.0
  C  C42  1  0.56249000  0.42517000  0.91958000  1.0
  C  C43  1  0.98769000  0.57499000  0.58047000  1.0
  C  C44  1  0.43762000  0.57473000  0.08043000  1.0
  C  C45  1  0.01222000  0.42507000  0.41954000  1.0
  N  N46  1  0.19671000  0.08322000  0.84695000  1.0
  N  N47  1  0.28049000  0.91590000  0.65296000  1.0
  N  N48  1  0.80326000  0.91680000  0.15305000  1.0
  N  N49  1  0.71945000  0.08416000  0.34703000  1.0
  N  N50  1  0.30550000  0.25456000  0.93424000  1.0
  N  N51  1  0.56052000  0.74492000  0.56574000  1.0
  N  N52  1  0.69459000  0.74538000  0.06577000  1.0
  N  N53  1  0.43939000  0.25512000  0.43425000  1.0
  Cl  Cl54  1  0.98223000  0.74027000  0.80010000  1.0
  Cl  Cl55  1  0.72339000  0.25890000  0.69985000  1.0
  Cl  Cl56  1  0.01776000  0.25976000  0.19989000  1.0
  Cl  Cl57  1  0.27657000  0.74114000  0.30016000  1.0
