# generated using pymatgen
data_CdH16C18(NO)8
_symmetry_space_group_name_H-M   'P 1'
_cell_length_a   7.50559000
_cell_length_b   11.37880000
_cell_length_c   13.61003722
_cell_angle_alpha   114.36594261
_cell_angle_beta   91.74286543
_cell_angle_gamma   90.02660000
_symmetry_Int_Tables_number   1
_chemical_formula_structural   CdH16C18(NO)8
_chemical_formula_sum   'Cd2 H32 C36 N16 O16'
_cell_volume   1058.22948698
_cell_formula_units_Z   2
loop_
 _symmetry_equiv_pos_site_id
 _symmetry_equiv_pos_as_xyz
  1  'x, y, z'
loop_
 _atom_site_type_symbol
 _atom_site_label
 _atom_site_symmetry_multiplicity
 _atom_site_fract_x
 _atom_site_fract_y
 _atom_site_fract_z
 _atom_site_occupancy
  Cd  Cd0  1  0.50000000  0.50000000  0.50000000  1.0
  Cd  Cd1  1  0.00000000  0.00000000  0.50000000  1.0
  H  H2  1  0.54291000  0.34551000  0.25686000  1.0
  H  H3  1  0.95531000  0.09029000  0.74473000  1.0
  H  H4  1  0.45709000  0.65449000  0.74314000  1.0
  H  H5  1  0.04469000  0.90971000  0.25527000  1.0
  H  H6  1  0.65689000  0.37694000  0.09707000  1.0
  H  H7  1  0.84243000  0.28043000  0.90341000  1.0
  H  H8  1  0.34311000  0.62306000  0.90293000  1.0
  H  H9  1  0.15757000  0.71957000  0.09659000  1.0
  H  H10  1  0.46930000  0.73758000  0.42758000  1.0
  H  H11  1  0.03048000  0.31093000  0.57146000  1.0
  H  H12  1  0.53070000  0.26243000  0.57243000  1.0
  H  H13  1  0.96953000  0.68907000  0.42854000  1.0
  H  H14  1  0.56425000  0.78533000  0.27331000  1.0
  H  H15  1  0.93672000  0.51190000  0.72469000  1.0
  H  H16  1  0.43575000  0.21467000  0.72669000  1.0
  H  H17  1  0.06329000  0.48810000  0.27531000  1.0
  H  H18  1  0.77792000  0.80141000  0.82619000  1.0
  H  H19  1  0.72345000  0.97181000  0.17213000  1.0
  H  H20  1  0.22208000  0.19859000  0.17381000  1.0
  H  H21  1  0.27655000  0.02819000  0.82787000  1.0
  H  H22  1  0.76305000  0.02303000  0.83273000  1.0
  H  H23  1  0.73622000  0.18717000  0.16592000  1.0
  H  H24  1  0.23695000  0.97697000  0.16727000  1.0
  H  H25  1  0.26378000  0.81283000  0.83408000  1.0
  H  H26  1  0.67183000  0.76263000  0.60414000  1.0
  H  H27  1  0.82876000  0.15766000  0.39532000  1.0
  H  H28  1  0.32816000  0.23737000  0.39586000  1.0
  H  H29  1  0.17124000  0.84235000  0.60468000  1.0
  H  H30  1  0.78762000  0.66325000  0.62567000  1.0
  H  H31  1  0.71270000  0.03723000  0.37391000  1.0
  H  H32  1  0.21238000  0.33675000  0.37433000  1.0
  H  H33  1  0.28730000  0.96278000  0.62609000  1.0
  C  C34  1  0.55457000  0.44096000  0.25687000  1.0
  C  C35  1  0.94415000  0.18524000  0.74366000  1.0
  C  C36  1  0.44543000  0.55904000  0.74313000  1.0
  C  C37  1  0.05585000  0.81476000  0.25634000  1.0
  C  C38  1  0.61479000  0.45894000  0.16868000  1.0
  C  C39  1  0.88449000  0.29103000  0.83148000  1.0
  C  C40  1  0.38521000  0.54106000  0.83132000  1.0
  C  C41  1  0.11550000  0.70897000  0.16852000  1.0
  C  C42  1  0.51111000  0.66041000  0.35300000  1.0
  C  C43  1  0.98838000  0.30802000  0.64623000  1.0
  C  C44  1  0.48889000  0.33959000  0.64700000  1.0
  C  C45  1  0.01163000  0.69198000  0.35377000  1.0
  C  C46  1  0.56474000  0.68683000  0.26709000  1.0
  C  C47  1  0.93540000  0.41999000  0.73169000  1.0
  C  C48  1  0.43526000  0.31317000  0.73291000  1.0
  C  C49  1  0.06461000  0.58001000  0.26831000  1.0
  C  C50  1  0.62094000  0.58465000  0.17384000  1.0
  C  C51  1  0.87901000  0.41124000  0.82549000  1.0
  C  C52  1  0.37906000  0.41535000  0.82616000  1.0
  C  C53  1  0.12099000  0.58876000  0.17451000  1.0
  C  C54  1  0.68836000  0.60697000  0.08170000  1.0
  C  C55  1  0.81235000  0.52527000  0.91732000  1.0
  C  C56  1  0.31164000  0.39303000  0.91830000  1.0
  C  C57  1  0.18765000  0.47473000  0.08268000  1.0
  C  C58  1  0.75096000  0.73892000  0.99919000  1.0
  C  C59  1  0.24904000  0.26108000  0.00081000  1.0
  C  C60  1  0.75095000  0.86883000  0.99917000  1.0
  C  C61  1  0.24905000  0.13117000  0.00083000  1.0
  C  C62  1  0.76544000  0.88452000  0.90289000  1.0
  C  C63  1  0.73578000  0.97942000  0.09551000  1.0
  C  C64  1  0.23456000  0.11548000  0.09711000  1.0
  C  C65  1  0.26422000  0.02058000  0.90449000  1.0
  C  C66  1  0.76015000  0.00904000  0.90733000  1.0
  C  C67  1  0.73983000  0.09966000  0.09124000  1.0
  C  C68  1  0.23985000  0.99096000  0.09267000  1.0
  C  C69  1  0.26017000  0.90034000  0.90876000  1.0
  N  N70  1  0.50700000  0.54009000  0.34827000  1.0
  N  N71  1  0.99180000  0.19271000  0.65167000  1.0
  N  N72  1  0.49300000  0.45990000  0.65173000  1.0
  N  N73  1  0.00820000  0.80729000  0.34833000  1.0
  N  N74  1  0.75020000  0.50340000  0.99968000  1.0
  N  N75  1  0.24980000  0.49661000  0.00033000  1.0
  N  N76  1  0.68590000  0.72673000  0.08580000  1.0
  N  N77  1  0.81566000  0.64079000  0.91275000  1.0
  N  N78  1  0.31410000  0.27327000  0.91420000  1.0
  N  N79  1  0.18434000  0.35922000  0.08726000  1.0
  N  N80  1  0.74968000  0.11626000  0.99930000  1.0
  N  N81  1  0.25032000  0.88374000  0.00070000  1.0
  N  N82  1  0.14026000  0.62088000  0.59732000  1.0
  N  N83  1  0.36065000  0.02275000  0.40245000  1.0
  N  N84  1  0.85974000  0.37912000  0.40268000  1.0
  N  N85  1  0.63935000  0.97725000  0.59755000  1.0
  O  O86  1  0.66156000  0.68612000  0.62086000  1.0
  O  O87  1  0.83891000  0.06457000  0.37845000  1.0
  O  O88  1  0.33843000  0.31387000  0.37914000  1.0
  O  O89  1  0.16109000  0.93543000  0.62155000  1.0
  O  O90  1  0.25927000  0.67781000  0.56526000  1.0
  O  O91  1  0.24112000  0.11098000  0.43490000  1.0
  O  O92  1  0.74073000  0.32219000  0.43474000  1.0
  O  O93  1  0.75888000  0.88902000  0.56510000  1.0
  O  O94  1  0.15015000  0.50162000  0.56999000  1.0
  O  O95  1  0.35156000  0.93009000  0.42928000  1.0
  O  O96  1  0.84985000  0.49839000  0.43001000  1.0
  O  O97  1  0.64844000  0.06991000  0.57072000  1.0
  O  O98  1  0.01965000  0.68776000  0.65678000  1.0
  O  O99  1  0.48083000  0.03191000  0.34312000  1.0
  O  O100  1  0.98035000  0.31224000  0.34322000  1.0
  O  O101  1  0.51917000  0.96809000  0.65688000  1.0
