# generated using pymatgen
data_Cd3H40C54(N2O9)2
_symmetry_space_group_name_H-M   'P 1'
_cell_length_a   8.60628000
_cell_length_b   12.39990000
_cell_length_c   13.88250000
_cell_angle_alpha   103.91800000
_cell_angle_beta   99.60010000
_cell_angle_gamma   100.01400000
_symmetry_Int_Tables_number   1
_chemical_formula_structural   Cd3H40C54(N2O9)2
_chemical_formula_sum   'Cd3 H40 C54 N4 O18'
_cell_volume   1381.96414339
_cell_formula_units_Z   1
loop_
 _symmetry_equiv_pos_site_id
 _symmetry_equiv_pos_as_xyz
  1  'x, y, z'
loop_
 _atom_site_type_symbol
 _atom_site_label
 _atom_site_symmetry_multiplicity
 _atom_site_fract_x
 _atom_site_fract_y
 _atom_site_fract_z
 _atom_site_occupancy
  Cd  Cd0  1  0.00000000  0.50000000  0.00000000  1.0
  Cd  Cd1  1  0.25299000  0.54470000  0.25199000  1.0
  Cd  Cd2  1  0.74701000  0.45530000  0.74801000  1.0
  H  H3  1  0.25261000  0.20170000  0.92889000  1.0
  H  H4  1  0.74739000  0.79830000  0.07111000  1.0
  H  H5  1  0.44943000  0.29277000  0.97475000  1.0
  H  H6  1  0.55057000  0.70723000  0.02525000  1.0
  H  H7  1  0.96552000  0.76943000  0.56511000  1.0
  H  H8  1  0.03448000  0.23057000  0.43489000  1.0
  H  H9  1  0.67936000  0.36104000  0.14742000  1.0
  H  H10  1  0.32064000  0.63896000  0.85258000  1.0
  H  H11  1  0.78057000  0.27618000  0.06941000  1.0
  H  H12  1  0.21943000  0.72382000  0.93059000  1.0
  H  H13  1  0.56797000  0.94733000  0.83074000  1.0
  H  H14  1  0.43203000  0.05266000  0.16925000  1.0
  H  H15  1  0.10023000  0.02223000  0.09856000  1.0
  H  H16  1  0.89978000  0.97777000  0.90144000  1.0
  H  H17  1  0.46105000  0.12061000  0.88214000  1.0
  H  H18  1  0.53895000  0.87938000  0.11785000  1.0
  H  H19  1  0.96039000  0.17632000  0.08819000  1.0
  H  H20  1  0.03961000  0.82368000  0.91181000  1.0
  H  H21  1  0.23874000  0.89465000  0.14200000  1.0
  H  H22  1  0.76127000  0.10535000  0.85800000  1.0
  H  H23  1  0.04265000  0.81001000  0.07890000  1.0
  H  H24  1  0.95735000  0.19000000  0.92111000  1.0
  H  H25  1  0.86835000  0.95731000  0.33789000  1.0
  H  H26  1  0.13166000  0.04269000  0.66211000  1.0
  H  H27  1  0.11970000  0.53233000  0.45576000  1.0
  H  H28  1  0.88029000  0.46766000  0.54424000  1.0
  H  H29  1  0.56947000  0.58759000  0.14451000  1.0
  H  H30  1  0.43054000  0.41242000  0.85550000  1.0
  H  H31  1  0.72369000  0.11414000  0.32588000  1.0
  H  H32  1  0.27630000  0.88585000  0.67412000  1.0
  H  H33  1  0.51315000  0.69126000  0.71839000  1.0
  H  H34  1  0.48685000  0.30873000  0.28161000  1.0
  H  H35  1  0.79061000  0.75030000  0.68610000  1.0
  H  H36  1  0.20939000  0.24969000  0.31390000  1.0
  H  H37  1  0.99679000  0.74409000  0.38170000  1.0
  H  H38  1  0.00321000  0.25592000  0.61831000  1.0
  H  H39  1  0.86568000  0.67076000  0.19679000  1.0
  H  H40  1  0.13432000  0.32925000  0.80321000  1.0
  H  H41  1  0.21674000  0.60235000  0.64500000  1.0
  H  H42  1  0.78326000  0.39764000  0.35500000  1.0
  C  C43  1  0.50089000  0.63642000  0.46326000  1.0
  C  C44  1  0.49910000  0.36358000  0.53674000  1.0
  C  C45  1  0.93662000  0.40216000  0.20190000  1.0
  C  C46  1  0.06338000  0.59784000  0.79810000  1.0
  C  C47  1  0.56942000  0.67499000  0.56954000  1.0
  C  C48  1  0.43058000  0.32501000  0.43046000  1.0
  C  C49  1  0.60326000  0.64876000  0.39210000  1.0
  C  C50  1  0.39674000  0.35124000  0.60790000  1.0
  C  C51  1  0.34016000  0.25559000  0.99825000  1.0
  C  C52  1  0.65983000  0.74441000  0.00175000  1.0
  C  C53  1  0.43785000  0.09695000  0.02979000  1.0
  C  C54  1  0.56215000  0.90305000  0.97021000  1.0
  C  C55  1  0.83081000  0.15445000  0.20588000  1.0
  C  C56  1  0.16918000  0.84555000  0.79412000  1.0
  C  C57  1  0.18481000  0.73307000  0.17329000  1.0
  C  C58  1  0.81519000  0.26694000  0.82672000  1.0
  C  C59  1  0.83606000  0.73398000  0.53722000  1.0
  C  C60  1  0.16394000  0.26602000  0.46278000  1.0
  C  C61  1  0.77822000  0.31550000  0.14922000  1.0
  C  C62  1  0.22178000  0.68450000  0.85078000  1.0
  C  C63  1  0.54058000  0.97259000  0.90576000  1.0
  C  C64  1  0.45942000  0.02741000  0.09423000  1.0
  C  C65  1  0.01697000  0.04011000  0.14834000  1.0
  C  C66  1  0.98303000  0.95989000  0.85166000  1.0
  C  C67  1  0.47887000  0.06924000  0.93476000  1.0
  C  C68  1  0.52113000  0.93075000  0.06523000  1.0
  C  C69  1  0.93711000  0.12852000  0.14254000  1.0
  C  C70  1  0.06289000  0.87148000  0.85746000  1.0
  C  C71  1  0.26950000  0.35372000  0.04878000  1.0
  C  C72  1  0.73049000  0.64627000  0.95122000  1.0
  C  C73  1  0.99171000  0.97841000  0.21861000  1.0
  C  C74  1  0.00830000  0.02160000  0.78139000  1.0
  C  C75  1  0.13242000  0.83753000  0.15165000  1.0
  C  C76  1  0.86759000  0.16247000  0.84836000  1.0
  C  C77  1  0.88632000  0.00579000  0.28316000  1.0
  C  C78  1  0.11368000  0.99422000  0.71684000  1.0
  C  C79  1  0.24585000  0.57422000  0.49073000  1.0
  C  C80  1  0.75415000  0.42577000  0.50927000  1.0
  C  C81  1  0.62939000  0.61971000  0.22486000  1.0
  C  C82  1  0.37061000  0.38030000  0.77514000  1.0
  C  C83  1  0.80689000  0.09282000  0.27677000  1.0
  C  C84  1  0.19310000  0.90718000  0.72323000  1.0
  C  C85  1  0.46469000  0.66197000  0.63635000  1.0
  C  C86  1  0.53531000  0.33803000  0.36365000  1.0
  C  C87  1  0.73916000  0.72368000  0.60457000  1.0
  C  C88  1  0.26084000  0.27632000  0.39543000  1.0
  C  C89  1  0.86731000  0.70651000  0.35743000  1.0
  C  C90  1  0.13269000  0.29349000  0.64258000  1.0
  C  C91  1  0.77139000  0.69768000  0.42978000  1.0
  C  C92  1  0.22860000  0.30233000  0.57022000  1.0
  C  C93  1  0.79630000  0.66692000  0.25486000  1.0
  C  C94  1  0.20370000  0.33309000  0.74514000  1.0
  C  C95  1  0.30252000  0.61166000  0.59663000  1.0
  C  C96  1  0.69748000  0.38834000  0.40337000  1.0
  N  N97  1  0.34177000  0.58660000  0.42639000  1.0
  N  N98  1  0.65822000  0.41340000  0.57361000  1.0
  N  N99  1  0.53595000  0.61171000  0.29123000  1.0
  N  N100  1  0.46405000  0.38830000  0.70877000  1.0
  O  O101  1  0.98557000  0.47467000  0.15439000  1.0
  O  O102  1  0.01442000  0.52533000  0.84562000  1.0
  O  O103  1  0.20982000  0.66111000  0.09756000  1.0
  O  O104  1  0.79018000  0.33889000  0.90244000  1.0
  O  O105  1  0.37864000  0.19102000  0.06696000  1.0
  O  O106  1  0.62136000  0.80898000  0.93304000  1.0
  O  O107  1  0.73944000  0.23454000  0.20306000  1.0
  O  O108  1  0.26056000  0.76546000  0.79694000  1.0
  O  O109  1  0.01306000  0.40317000  0.28714000  1.0
  O  O110  1  0.98694000  0.59682000  0.71286000  1.0
  O  O111  1  0.30278000  0.38868000  0.14471000  1.0
  O  O112  1  0.69722000  0.61131000  0.85529000  1.0
  O  O113  1  0.20238000  0.72368000  0.26297000  1.0
  O  O114  1  0.79762000  0.27632000  0.73703000  1.0
  O  O115  1  0.18570000  0.39160000  0.98533000  1.0
  O  O116  1  0.81429000  0.60839000  0.01467000  1.0
  O  O117  1  0.06528000  0.89160000  0.23217000  1.0
  O  O118  1  0.93473000  0.10841000  0.76783000  1.0
