# generated using pymatgen
data_AgH8C7(NO)2
_symmetry_space_group_name_H-M   'P 1'
_cell_length_a   11.90310000
_cell_length_b   12.50490000
_cell_length_c   22.84500000
_cell_angle_alpha   84.51060000
_cell_angle_beta   89.99950000
_cell_angle_gamma   89.99980000
_symmetry_Int_Tables_number   1
_chemical_formula_structural   AgH8C7(NO)2
_chemical_formula_sum   'Ag16 H128 C112 N32 O32'
_cell_volume   3384.81685081
_cell_formula_units_Z   16
loop_
 _symmetry_equiv_pos_site_id
 _symmetry_equiv_pos_as_xyz
  1  'x, y, z'
loop_
 _atom_site_type_symbol
 _atom_site_label
 _atom_site_symmetry_multiplicity
 _atom_site_fract_x
 _atom_site_fract_y
 _atom_site_fract_z
 _atom_site_occupancy
  Ag  Ag0  1  0.33991000  0.50927000  0.76598000  1.0
  Ag  Ag1  1  0.83992000  0.49074000  0.73401000  1.0
  Ag  Ag2  1  0.66009000  0.49073000  0.23402000  1.0
  Ag  Ag3  1  0.16008000  0.50927000  0.26599000  1.0
  Ag  Ag4  1  0.54028000  0.78388000  0.55238000  1.0
  Ag  Ag5  1  0.04027000  0.21612000  0.94762000  1.0
  Ag  Ag6  1  0.45972000  0.21612000  0.44762000  1.0
  Ag  Ag7  1  0.95973000  0.78387000  0.05238000  1.0
  Ag  Ag8  1  0.52305000  0.28208000  0.55371000  1.0
  Ag  Ag9  1  0.02305000  0.71792000  0.94629000  1.0
  Ag  Ag10  1  0.47696000  0.71793000  0.44629000  1.0
  Ag  Ag11  1  0.97695000  0.28208000  0.05371000  1.0
  Ag  Ag12  1  0.31893000  0.00293000  0.75670000  1.0
  Ag  Ag13  1  0.81893000  0.99707000  0.74330000  1.0
  Ag  Ag14  1  0.68107000  0.99707000  0.24330000  1.0
  Ag  Ag15  1  0.18107000  0.00292000  0.25670000  1.0
  H  H16  1  0.38900000  0.61609000  0.63976000  1.0
  H  H17  1  0.88900000  0.38391000  0.86024000  1.0
  H  H18  1  0.61100000  0.38391000  0.36024000  1.0
  H  H19  1  0.11099000  0.61609000  0.13977000  1.0
  H  H20  1  0.48262000  0.67593000  0.68924000  1.0
  H  H21  1  0.98262000  0.32407000  0.81075000  1.0
  H  H22  1  0.51738000  0.32407000  0.31076000  1.0
  H  H23  1  0.01737000  0.67593000  0.18925000  1.0
  H  H24  1  0.46600000  0.52622000  0.55973000  1.0
  H  H25  1  0.96600000  0.47378000  0.94027000  1.0
  H  H26  1  0.53400000  0.47378000  0.44027000  1.0
  H  H27  1  0.03399000  0.52622000  0.05973000  1.0
  H  H28  1  0.61490000  0.52184000  0.54900000  1.0
  H  H29  1  0.11490000  0.47816000  0.95100000  1.0
  H  H30  1  0.38510000  0.47816000  0.45100000  1.0
  H  H31  1  0.88509000  0.52183000  0.04900000  1.0
  H  H32  1  0.68162000  0.67315000  0.67349000  1.0
  H  H33  1  0.18162000  0.32686000  0.82651000  1.0
  H  H34  1  0.31839000  0.32685000  0.32651000  1.0
  H  H35  1  0.81837000  0.67314000  0.17349000  1.0
  H  H36  1  0.73732000  0.60967000  0.61326000  1.0
  H  H37  1  0.23732000  0.39034000  0.88674000  1.0
  H  H38  1  0.26268000  0.39034000  0.38674000  1.0
  H  H39  1  0.76267000  0.60966000  0.11326000  1.0
  H  H40  1  0.66964000  0.33830000  0.67950000  1.0
  H  H41  1  0.16965000  0.66170000  0.82051000  1.0
  H  H42  1  0.33035000  0.66170000  0.32050000  1.0
  H  H43  1  0.83035000  0.33830000  0.17950000  1.0
  H  H44  1  0.73086000  0.41288000  0.61680000  1.0
  H  H45  1  0.23086000  0.58711000  0.88320000  1.0
  H  H46  1  0.26914000  0.58711000  0.38320000  1.0
  H  H47  1  0.76914000  0.41288000  0.11680000  1.0
  H  H48  1  0.38251000  0.41998000  0.64232000  1.0
  H  H49  1  0.88252000  0.58002000  0.85768000  1.0
  H  H50  1  0.61749000  0.58002000  0.35768000  1.0
  H  H51  1  0.11748000  0.41998000  0.14232000  1.0
  H  H52  1  0.46950000  0.34167000  0.69409000  1.0
  H  H53  1  0.96951000  0.65833000  0.80592000  1.0
  H  H54  1  0.53049000  0.65833000  0.30592000  1.0
  H  H55  1  0.03049000  0.34167000  0.19409000  1.0
  H  H56  1  0.59388000  0.42692000  0.75823000  1.0
  H  H57  1  0.09388000  0.57309000  0.74177000  1.0
  H  H58  1  0.40612000  0.57308000  0.24177000  1.0
  H  H59  1  0.90611000  0.42692000  0.25824000  1.0
  H  H60  1  0.59696000  0.57191000  0.75506000  1.0
  H  H61  1  0.09696000  0.42810000  0.74494000  1.0
  H  H62  1  0.40305000  0.42810000  0.24494000  1.0
  H  H63  1  0.90304000  0.57190000  0.25506000  1.0
  H  H64  1  0.46030000  0.83804000  0.69062000  1.0
  H  H65  1  0.96030000  0.16196000  0.80938000  1.0
  H  H66  1  0.53970000  0.16196000  0.30938000  1.0
  H  H67  1  0.03970000  0.83804000  0.19062000  1.0
  H  H68  1  0.37908000  0.91852000  0.63645000  1.0
  H  H69  1  0.87908000  0.08148000  0.86355000  1.0
  H  H70  1  0.62092000  0.08148000  0.36355000  1.0
  H  H71  1  0.12092000  0.91852000  0.13645000  1.0
  H  H72  1  0.47220000  0.02990000  0.55986000  1.0
  H  H73  1  0.97219000  0.97010000  0.94014000  1.0
  H  H74  1  0.52781000  0.97010000  0.44014000  1.0
  H  H75  1  0.02781000  0.02989000  0.05986000  1.0
  H  H76  1  0.62242000  0.02822000  0.55471000  1.0
  H  H77  1  0.12242000  0.97178000  0.94529000  1.0
  H  H78  1  0.37758000  0.97178000  0.44529000  1.0
  H  H79  1  0.87759000  0.02822000  0.05471000  1.0
  H  H80  1  0.73023000  0.91399000  0.62546000  1.0
  H  H81  1  0.23023000  0.08601000  0.87454000  1.0
  H  H82  1  0.26977000  0.08601000  0.37454000  1.0
  H  H83  1  0.76977000  0.91399000  0.12546000  1.0
  H  H84  1  0.65909000  0.83642000  0.68466000  1.0
  H  H85  1  0.15910000  0.16358000  0.81534000  1.0
  H  H86  1  0.34090000  0.16358000  0.31534000  1.0
  H  H87  1  0.84090000  0.83642000  0.18466000  1.0
  H  H88  1  0.66557000  0.17155000  0.68473000  1.0
  H  H89  1  0.16557000  0.82845000  0.81527000  1.0
  H  H90  1  0.33443000  0.82845000  0.31528000  1.0
  H  H91  1  0.83443000  0.17155000  0.18473000  1.0
  H  H92  1  0.73315000  0.11097000  0.62572000  1.0
  H  H93  1  0.23314000  0.88903000  0.87428000  1.0
  H  H94  1  0.26686000  0.88903000  0.37428000  1.0
  H  H95  1  0.76686000  0.11098000  0.12572000  1.0
  H  H96  1  0.46885000  0.17240000  0.69266000  1.0
  H  H97  1  0.96886000  0.82760000  0.80734000  1.0
  H  H98  1  0.53114000  0.82760000  0.30734000  1.0
  H  H99  1  0.03115000  0.17240000  0.19266000  1.0
  H  H100  1  0.38285000  0.11714000  0.63800000  1.0
  H  H101  1  0.88285000  0.88287000  0.86200000  1.0
  H  H102  1  0.61715000  0.88286000  0.36200000  1.0
  H  H103  1  0.11715000  0.11713000  0.13800000  1.0
  H  H104  1  0.57172000  0.91745000  0.76089000  1.0
  H  H105  1  0.07172000  0.08256000  0.73911000  1.0
  H  H106  1  0.42828000  0.08255000  0.23911000  1.0
  H  H107  1  0.92827000  0.91744000  0.26089000  1.0
  H  H108  1  0.57236000  0.06398000  0.76185000  1.0
  H  H109  1  0.07236000  0.93603000  0.73815000  1.0
  H  H110  1  0.42764000  0.93602000  0.23815000  1.0
  H  H111  1  0.92764000  0.06397000  0.26185000  1.0
  H  H112  1  0.68234000  0.47482000  0.98152000  1.0
  H  H113  1  0.18236000  0.52519000  0.51848000  1.0
  H  H114  1  0.31767000  0.52516000  0.01849000  1.0
  H  H115  1  0.81764000  0.47481000  0.48152000  1.0
  H  H116  1  0.50063000  0.54308000  0.93787000  1.0
  H  H117  1  0.00064000  0.45692000  0.56212000  1.0
  H  H118  1  0.49938000  0.45692000  0.06214000  1.0
  H  H119  1  0.99936000  0.54308000  0.43787000  1.0
  H  H120  1  0.40757000  0.44413000  0.86135000  1.0
  H  H121  1  0.90757000  0.55587000  0.63864000  1.0
  H  H122  1  0.59244000  0.55588000  0.13865000  1.0
  H  H123  1  0.09244000  0.44412000  0.36136000  1.0
  H  H124  1  0.68556000  0.22512000  0.86438000  1.0
  H  H125  1  0.18554000  0.77488000  0.63561000  1.0
  H  H126  1  0.31444000  0.77487000  0.13561000  1.0
  H  H127  1  0.81446000  0.22512000  0.36438000  1.0
  H  H128  1  0.58240000  0.80954000  0.02618000  1.0
  H  H129  1  0.08239000  0.19042000  0.47383000  1.0
  H  H130  1  0.41760000  0.19047000  0.97382000  1.0
  H  H131  1  0.91762000  0.80957000  0.52618000  1.0
  H  H132  1  0.38222000  0.80568000  0.99423000  1.0
  H  H133  1  0.88220000  0.19429000  0.50576000  1.0
  H  H134  1  0.61778000  0.19433000  0.00576000  1.0
  H  H135  1  0.11780000  0.80571000  0.49423000  1.0
  H  H136  1  0.33616000  0.75902000  0.89273000  1.0
  H  H137  1  0.83614000  0.24098000  0.60726000  1.0
  H  H138  1  0.66385000  0.24098000  0.10727000  1.0
  H  H139  1  0.16386000  0.75902000  0.39274000  1.0
  H  H140  1  0.68701000  0.74147000  0.85320000  1.0
  H  H141  1  0.18699000  0.25856000  0.64680000  1.0
  H  H142  1  0.31300000  0.25854000  0.14680000  1.0
  H  H143  1  0.81302000  0.74145000  0.35320000  1.0
  C  C144  1  0.47122000  0.61011000  0.66137000  1.0
  C  C145  1  0.97122000  0.38990000  0.83863000  1.0
  C  C146  1  0.52878000  0.38989000  0.33863000  1.0
  C  C147  1  0.02878000  0.61010000  0.16137000  1.0
  C  C148  1  0.54778000  0.52079000  0.58202000  1.0
  C  C149  1  0.04778000  0.47921000  0.91798000  1.0
  C  C150  1  0.45222000  0.47921000  0.41798000  1.0
  C  C151  1  0.95221000  0.52079000  0.08203000  1.0
  C  C152  1  0.67036000  0.60653000  0.64637000  1.0
  C  C153  1  0.17036000  0.39348000  0.85363000  1.0
  C  C154  1  0.32964000  0.39348000  0.35363000  1.0
  C  C155  1  0.82964000  0.60652000  0.14637000  1.0
  C  C156  1  0.66378000  0.41215000  0.64978000  1.0
  C  C157  1  0.16378000  0.58785000  0.85023000  1.0
  C  C158  1  0.33622000  0.58785000  0.35023000  1.0
  C  C159  1  0.83622000  0.41215000  0.14978000  1.0
  C  C160  1  0.46432000  0.41601000  0.66458000  1.0
  C  C161  1  0.96432000  0.58399000  0.83542000  1.0
  C  C162  1  0.53568000  0.58399000  0.33542000  1.0
  C  C163  1  0.03567000  0.41601000  0.16458000  1.0
  C  C164  1  0.58784000  0.50217000  0.72978000  1.0
  C  C165  1  0.08784000  0.49783000  0.77022000  1.0
  C  C166  1  0.41216000  0.49783000  0.27022000  1.0
  C  C167  1  0.91215000  0.50217000  0.22978000  1.0
  C  C168  1  0.45713000  0.91366000  0.66208000  1.0
  C  C169  1  0.95712000  0.08634000  0.83792000  1.0
  C  C170  1  0.54287000  0.08634000  0.33792000  1.0
  C  C171  1  0.04287000  0.91365000  0.16208000  1.0
  C  C172  1  0.55078000  0.02389000  0.58517000  1.0
  C  C173  1  0.05077000  0.97611000  0.91483000  1.0
  C  C174  1  0.44923000  0.97611000  0.41483000  1.0
  C  C175  1  0.94923000  0.02388000  0.08517000  1.0
  C  C176  1  0.65833000  0.91141000  0.65564000  1.0
  C  C177  1  0.15833000  0.08859000  0.84436000  1.0
  C  C178  1  0.34167000  0.08859000  0.34436000  1.0
  C  C179  1  0.84167000  0.91141000  0.15564000  1.0
  C  C180  1  0.66117000  0.10667000  0.65579000  1.0
  C  C181  1  0.16117000  0.89334000  0.84421000  1.0
  C  C182  1  0.33883000  0.89333000  0.34421000  1.0
  C  C183  1  0.83883000  0.10667000  0.15579000  1.0
  C  C184  1  0.46146000  0.10871000  0.66296000  1.0
  C  C185  1  0.96146000  0.89129000  0.83704000  1.0
  C  C186  1  0.53854000  0.89129000  0.33704000  1.0
  C  C187  1  0.03854000  0.10871000  0.16296000  1.0
  C  C188  1  0.56897000  0.99584000  0.73488000  1.0
  C  C189  1  0.06897000  0.00416000  0.76512000  1.0
  C  C190  1  0.43103000  0.00416000  0.26512000  1.0
  C  C191  1  0.93102000  0.99584000  0.23488000  1.0
  C  C192  1  0.79939000  0.30105000  0.95608000  1.0
  C  C193  1  0.29940000  0.69895000  0.54392000  1.0
  C  C194  1  0.20061000  0.69894000  0.04392000  1.0
  C  C195  1  0.70060000  0.30105000  0.45608000  1.0
  C  C196  1  0.69342000  0.34421000  0.92693000  1.0
  C  C197  1  0.19342000  0.65580000  0.57307000  1.0
  C  C198  1  0.30658000  0.65578000  0.07307000  1.0
  C  C199  1  0.80659000  0.34420000  0.42693000  1.0
  C  C200  1  0.64188000  0.43506000  0.94677000  1.0
  C  C201  1  0.14189000  0.56495000  0.55323000  1.0
  C  C202  1  0.35813000  0.56493000  0.05324000  1.0
  C  C203  1  0.85811000  0.43506000  0.44677000  1.0
  C  C204  1  0.54008000  0.47211000  0.92268000  1.0
  C  C205  1  0.04009000  0.52789000  0.57732000  1.0
  C  C206  1  0.45993000  0.52788000  0.07733000  1.0
  C  C207  1  0.95991000  0.47211000  0.42268000  1.0
  C  C208  1  0.48885000  0.41726000  0.87947000  1.0
  C  C209  1  0.98885000  0.58275000  0.62052000  1.0
  C  C210  1  0.51115000  0.58274000  0.12053000  1.0
  C  C211  1  0.01115000  0.41725000  0.37948000  1.0
  C  C212  1  0.54054000  0.32861000  0.85745000  1.0
  C  C213  1  0.04054000  0.67140000  0.64255000  1.0
  C  C214  1  0.45945000  0.67139000  0.14255000  1.0
  C  C215  1  0.95946000  0.32860000  0.35746000  1.0
  C  C216  1  0.64396000  0.29338000  0.88128000  1.0
  C  C217  1  0.14396000  0.70663000  0.61872000  1.0
  C  C218  1  0.35603000  0.70662000  0.11872000  1.0
  C  C219  1  0.85604000  0.29337000  0.38128000  1.0
  C  C220  1  0.48739000  0.27452000  0.80713000  1.0
  C  C221  1  0.98737000  0.72547000  0.69286000  1.0
  C  C222  1  0.51260000  0.72548000  0.19287000  1.0
  C  C223  1  0.01264000  0.27453000  0.30714000  1.0
  C  C224  1  0.76729000  0.77137000  0.96225000  1.0
  C  C225  1  0.26728000  0.22864000  0.53774000  1.0
  C  C226  1  0.23271000  0.22865000  0.03775000  1.0
  C  C227  1  0.73272000  0.77138000  0.46226000  1.0
  C  C228  1  0.64706000  0.77421000  0.94213000  1.0
  C  C229  1  0.14704000  0.22579000  0.55786000  1.0
  C  C230  1  0.35295000  0.22580000  0.05787000  1.0
  C  C231  1  0.85296000  0.77421000  0.44213000  1.0
  C  C232  1  0.56073000  0.79411000  0.98144000  1.0
  C  C233  1  0.06071000  0.20587000  0.51856000  1.0
  C  C234  1  0.43928000  0.20589000  0.01856000  1.0
  C  C235  1  0.93929000  0.79412000  0.48144000  1.0
  C  C236  1  0.44894000  0.79126000  0.96341000  1.0
  C  C237  1  0.94893000  0.20873000  0.53659000  1.0
  C  C238  1  0.55106000  0.20875000  0.03659000  1.0
  C  C239  1  0.05108000  0.79127000  0.46341000  1.0
  C  C240  1  0.42299000  0.76763000  0.90654000  1.0
  C  C241  1  0.92297000  0.23238000  0.59346000  1.0
  C  C242  1  0.57702000  0.23237000  0.09346000  1.0
  C  C243  1  0.07703000  0.76762000  0.40654000  1.0
  C  C244  1  0.50836000  0.75235000  0.86595000  1.0
  C  C245  1  0.00835000  0.24766000  0.63405000  1.0
  C  C246  1  0.49164000  0.24765000  0.13405000  1.0
  C  C247  1  0.99165000  0.75234000  0.36595000  1.0
  C  C248  1  0.62037000  0.75558000  0.88421000  1.0
  C  C249  1  0.12035000  0.24443000  0.61578000  1.0
  C  C250  1  0.37964000  0.24442000  0.11579000  1.0
  C  C251  1  0.87965000  0.75557000  0.38421000  1.0
  C  C252  1  0.47945000  0.73113000  0.80350000  1.0
  C  C253  1  0.97942000  0.26888000  0.69649000  1.0
  C  C254  1  0.52057000  0.26887000  0.19650000  1.0
  C  C255  1  0.02057000  0.73111000  0.30351000  1.0
  N  N256  1  0.56063000  0.61355000  0.61677000  1.0
  N  N257  1  0.06063000  0.38646000  0.88323000  1.0
  N  N258  1  0.43937000  0.38645000  0.38323000  1.0
  N  N259  1  0.93937000  0.61355000  0.11677000  1.0
  N  N260  1  0.47579000  0.50825000  0.70069000  1.0
  N  N261  1  0.97579000  0.49175000  0.79931000  1.0
  N  N262  1  0.52421000  0.49175000  0.29931000  1.0
  N  N263  1  0.02421000  0.50824000  0.20069000  1.0
  N  N264  1  0.55416000  0.41861000  0.62022000  1.0
  N  N265  1  0.05416000  0.58139000  0.87979000  1.0
  N  N266  1  0.44584000  0.58139000  0.37978000  1.0
  N  N267  1  0.94584000  0.41860000  0.12022000  1.0
  N  N268  1  0.67975000  0.50445000  0.68553000  1.0
  N  N269  1  0.17975000  0.49555000  0.81447000  1.0
  N  N270  1  0.32025000  0.49554000  0.31447000  1.0
  N  N271  1  0.82024000  0.50445000  0.18554000  1.0
  N  N272  1  0.55346000  0.91997000  0.62175000  1.0
  N  N273  1  0.05346000  0.08004000  0.87825000  1.0
  N  N274  1  0.44654000  0.08003000  0.37825000  1.0
  N  N275  1  0.94654000  0.91996000  0.12175000  1.0
  N  N276  1  0.46177000  0.00393000  0.70065000  1.0
  N  N277  1  0.96177000  0.99607000  0.79936000  1.0
  N  N278  1  0.53822000  0.99607000  0.29935000  1.0
  N  N279  1  0.03822000  0.00393000  0.20064000  1.0
  N  N280  1  0.55671000  0.11429000  0.62203000  1.0
  N  N281  1  0.05670000  0.88571000  0.87797000  1.0
  N  N282  1  0.44329000  0.88571000  0.37797000  1.0
  N  N283  1  0.94329000  0.11429000  0.12203000  1.0
  N  N284  1  0.66716000  0.00223000  0.69375000  1.0
  N  N285  1  0.16717000  0.99777000  0.80625000  1.0
  N  N286  1  0.33283000  0.99776000  0.30625000  1.0
  N  N287  1  0.83283000  0.00223000  0.19375000  1.0
  O  O288  1  0.84631000  0.21989000  0.93674000  1.0
  O  O289  1  0.34632000  0.78011000  0.56326000  1.0
  O  O290  1  0.15369000  0.78011000  0.06326000  1.0
  O  O291  1  0.65367000  0.21989000  0.43674000  1.0
  O  O292  1  0.83539000  0.35071000  0.99885000  1.0
  O  O293  1  0.33540000  0.64931000  0.50115000  1.0
  O  O294  1  0.16461000  0.64928000  0.00115000  1.0
  O  O295  1  0.66460000  0.35070000  0.49885000  1.0
  O  O296  1  0.55307000  0.22000000  0.77734000  1.0
  O  O297  1  0.05305000  0.78001000  0.72266000  1.0
  O  O298  1  0.44691000  0.77999000  0.22266000  1.0
  O  O299  1  0.94696000  0.22000000  0.27734000  1.0
  O  O300  1  0.38359000  0.29100000  0.79701000  1.0
  O  O301  1  0.88358000  0.70898000  0.70298000  1.0
  O  O302  1  0.61640000  0.70902000  0.20299000  1.0
  O  O303  1  0.11643000  0.29102000  0.29702000  1.0
  O  O304  1  0.78883000  0.80674000  0.01157000  1.0
  O  O305  1  0.28881000  0.19326000  0.48842000  1.0
  O  O306  1  0.21118000  0.19327000  0.98842000  1.0
  O  O307  1  0.71119000  0.80677000  0.51157000  1.0
  O  O308  1  0.83846000  0.73319000  0.92796000  1.0
  O  O309  1  0.33845000  0.26681000  0.57203000  1.0
  O  O310  1  0.16154000  0.26682000  0.07204000  1.0
  O  O311  1  0.66156000  0.73318000  0.42797000  1.0
  O  O312  1  0.55825000  0.74366000  0.76560000  1.0
  O  O313  1  0.05822000  0.25635000  0.73439000  1.0
  O  O314  1  0.44177000  0.25634000  0.23440000  1.0
  O  O315  1  0.94177000  0.74364000  0.26561000  1.0
  O  O316  1  0.37879000  0.70374000  0.79307000  1.0
  O  O317  1  0.87878000  0.29629000  0.70692000  1.0
  O  O318  1  0.62122000  0.29625000  0.20693000  1.0
  O  O319  1  0.12122000  0.70371000  0.29307000  1.0
