# generated using pymatgen
data_ZnH12(C3N2)3
_symmetry_space_group_name_H-M   'P 1'
_cell_length_a   10.93060000
_cell_length_b   12.40090000
_cell_length_c   16.64450000
_cell_angle_alpha   89.99990000
_cell_angle_beta   84.95150000
_cell_angle_gamma   89.99990000
_symmetry_Int_Tables_number   1
_chemical_formula_structural   ZnH12(C3N2)3
_chemical_formula_sum   'Zn8 H96 C72 N48'
_cell_volume   2247.39736336
_cell_formula_units_Z   8
loop_
 _symmetry_equiv_pos_site_id
 _symmetry_equiv_pos_as_xyz
  1  'x, y, z'
loop_
 _atom_site_type_symbol
 _atom_site_label
 _atom_site_symmetry_multiplicity
 _atom_site_fract_x
 _atom_site_fract_y
 _atom_site_fract_z
 _atom_site_occupancy
  Zn  Zn0  1  0.27297000  0.26358000  0.59559000  1.0
  Zn  Zn1  1  0.22704000  0.76358000  0.90441000  1.0
  Zn  Zn2  1  0.72704000  0.73642000  0.40441000  1.0
  Zn  Zn3  1  0.77296000  0.23642000  0.09559000  1.0
  Zn  Zn4  1  0.78940000  0.25656000  0.46258000  1.0
  Zn  Zn5  1  0.71060000  0.75656000  0.03742000  1.0
  Zn  Zn6  1  0.21060000  0.74344000  0.53742000  1.0
  Zn  Zn7  1  0.28940000  0.24344000  0.96258000  1.0
  H  H8  1  0.92708000  0.36861000  0.20320000  1.0
  H  H9  1  0.57293000  0.86861000  0.29680000  1.0
  H  H10  1  0.07292000  0.63139000  0.79680000  1.0
  H  H11  1  0.42708000  0.13139000  0.70321000  1.0
  H  H12  1  0.98924000  0.32757000  0.29317000  1.0
  H  H13  1  0.51076000  0.82757000  0.20683000  1.0
  H  H14  1  0.01076000  0.67243000  0.70683000  1.0
  H  H15  1  0.48924000  0.17242000  0.79317000  1.0
  H  H16  1  0.86915000  0.42423000  0.29704000  1.0
  H  H17  1  0.63085000  0.92423000  0.20296000  1.0
  H  H18  1  0.13085000  0.57577000  0.70296000  1.0
  H  H19  1  0.36915000  0.07577000  0.79704000  1.0
  H  H20  1  0.53012000  0.04024000  0.35516000  1.0
  H  H21  1  0.96988000  0.54024000  0.14484000  1.0
  H  H22  1  0.46987000  0.95976000  0.64484000  1.0
  H  H23  1  0.03012000  0.45976000  0.85516000  1.0
  H  H24  1  0.66129000  0.00639000  0.40560000  1.0
  H  H25  1  0.83871000  0.50639000  0.09440000  1.0
  H  H26  1  0.33870000  0.99360000  0.59440000  1.0
  H  H27  1  0.16129000  0.49361000  0.90560000  1.0
  H  H28  1  0.50098000  0.33242000  0.66817000  1.0
  H  H29  1  0.99903000  0.83242000  0.83183000  1.0
  H  H30  1  0.49903000  0.66758000  0.33183000  1.0
  H  H31  1  0.00097000  0.16758000  0.16817000  1.0
  H  H32  1  0.63900000  0.37088000  0.60997000  1.0
  H  H33  1  0.86100000  0.87088000  0.89003000  1.0
  H  H34  1  0.36101000  0.62912000  0.39002000  1.0
  H  H35  1  0.13900000  0.12912000  0.10998000  1.0
  H  H36  1  0.63755000  0.25534000  0.67213000  1.0
  H  H37  1  0.86245000  0.75534000  0.82787000  1.0
  H  H38  1  0.36246000  0.74465000  0.32787000  1.0
  H  H39  1  0.13754000  0.24466000  0.17213000  1.0
  H  H40  1  0.98641000  0.01112000  0.68808000  1.0
  H  H41  1  0.51360000  0.51111000  0.81192000  1.0
  H  H42  1  0.01359000  0.98889000  0.31193000  1.0
  H  H43  1  0.48641000  0.48889000  0.18808000  1.0
  H  H44  1  0.12941000  0.07830000  0.69799000  1.0
  H  H45  1  0.37059000  0.57830000  0.80201000  1.0
  H  H46  1  0.87058000  0.92170000  0.30201000  1.0
  H  H47  1  0.62941000  0.42170000  0.19799000  1.0
  H  H48  1  0.11981000  0.97265000  0.62648000  1.0
  H  H49  1  0.38019000  0.47265000  0.87352000  1.0
  H  H50  1  0.88018000  0.02735000  0.37353000  1.0
  H  H51  1  0.61982000  0.52735000  0.12648000  1.0
  H  H52  1  0.16274000  0.30262000  0.40301000  1.0
  H  H53  1  0.33726000  0.80261000  0.09698000  1.0
  H  H54  1  0.83726000  0.69738000  0.59699000  1.0
  H  H55  1  0.66274000  0.19738000  0.90301000  1.0
  H  H56  1  0.02317000  0.37523000  0.42318000  1.0
  H  H57  1  0.47683000  0.87523000  0.07682000  1.0
  H  H58  1  0.97682000  0.62477000  0.57682000  1.0
  H  H59  1  0.52318000  0.12477000  0.92319000  1.0
  H  H60  1  0.39021000  0.62233000  0.62826000  1.0
  H  H61  1  0.10979000  0.12233000  0.87174000  1.0
  H  H62  1  0.60979000  0.37767000  0.37174000  1.0
  H  H63  1  0.89021000  0.87767000  0.12826000  1.0
  H  H64  1  0.47707000  0.50960000  0.59036000  1.0
  H  H65  1  0.02293000  0.00960000  0.90964000  1.0
  H  H66  1  0.52294000  0.49040000  0.40964000  1.0
  H  H67  1  0.97707000  0.99040000  0.09036000  1.0
  H  H68  1  0.36826000  0.49384000  0.67528000  1.0
  H  H69  1  0.13174000  0.99384000  0.82472000  1.0
  H  H70  1  0.63174000  0.50616000  0.32472000  1.0
  H  H71  1  0.86826000  0.00616000  0.17528000  1.0
  H  H72  1  0.40337000  0.32053000  0.24765000  1.0
  H  H73  1  0.09662000  0.82053000  0.25235000  1.0
  H  H74  1  0.59663000  0.67947000  0.75235000  1.0
  H  H75  1  0.90336000  0.17947000  0.74765000  1.0
  H  H76  1  0.41259000  0.22822000  0.32876000  1.0
  H  H77  1  0.08740000  0.72821000  0.17124000  1.0
  H  H78  1  0.58740000  0.77179000  0.67123000  1.0
  H  H79  1  0.91259000  0.27178000  0.82877000  1.0
  H  H80  1  0.26840000  0.25897000  0.29373000  1.0
  H  H81  1  0.23159000  0.75897000  0.20626000  1.0
  H  H82  1  0.73160000  0.74104000  0.70626000  1.0
  H  H83  1  0.76840000  0.24104000  0.79374000  1.0
  H  H84  1  0.34027000  0.17561000  0.15737000  1.0
  H  H85  1  0.15972000  0.67562000  0.34263000  1.0
  H  H86  1  0.65972000  0.82438000  0.84263000  1.0
  H  H87  1  0.84027000  0.32439000  0.65737000  1.0
  H  H88  1  0.47966000  0.14228000  0.19400000  1.0
  H  H89  1  0.02034000  0.64228000  0.30600000  1.0
  H  H90  1  0.52034000  0.85772000  0.80600000  1.0
  H  H91  1  0.97966000  0.35771000  0.69400000  1.0
  H  H92  1  0.32665000  0.98590000  0.19432000  1.0
  H  H93  1  0.17335000  0.48591000  0.30569000  1.0
  H  H94  1  0.67335000  0.01409000  0.80568000  1.0
  H  H95  1  0.82666000  0.51410000  0.69432000  1.0
  H  H96  1  0.29283000  0.07652000  0.36808000  1.0
  H  H97  1  0.20717000  0.57651000  0.13192000  1.0
  H  H98  1  0.70717000  0.92349000  0.63192000  1.0
  H  H99  1  0.79282000  0.42348000  0.86808000  1.0
  H  H100  1  0.25469000  0.94030000  0.33386000  1.0
  H  H101  1  0.24531000  0.44029000  0.16614000  1.0
  H  H102  1  0.74530000  0.05970000  0.66614000  1.0
  H  H103  1  0.75469000  0.55970000  0.83386000  1.0
  C  C104  1  0.90408000  0.35007000  0.26699000  1.0
  C  C105  1  0.59592000  0.85007000  0.23301000  1.0
  C  C106  1  0.09592000  0.64993000  0.73301000  1.0
  C  C107  1  0.40408000  0.14993000  0.76699000  1.0
  C  C108  1  0.81270000  0.26133000  0.27593000  1.0
  C  C109  1  0.68730000  0.76133000  0.22407000  1.0
  C  C110  1  0.18730000  0.73867000  0.72407000  1.0
  C  C111  1  0.31270000  0.23867000  0.77594000  1.0
  C  C112  1  0.68372000  0.14212000  0.32567000  1.0
  C  C113  1  0.81628000  0.64212000  0.17433000  1.0
  C  C114  1  0.31628000  0.85787000  0.67433000  1.0
  C  C115  1  0.18373000  0.35788000  0.82567000  1.0
  C  C116  1  0.60675000  0.07438000  0.38510000  1.0
  C  C117  1  0.89325000  0.57438000  0.11490000  1.0
  C  C118  1  0.39325000  0.92562000  0.61489000  1.0
  C  C119  1  0.10675000  0.42562000  0.88510000  1.0
  C  C120  1  0.55596000  0.13538000  0.45802000  1.0
  C  C121  1  0.94404000  0.63538000  0.04198000  1.0
  C  C122  1  0.44404000  0.86462000  0.54198000  1.0
  C  C123  1  0.05596000  0.36462000  0.95802000  1.0
  C  C124  1  0.54746000  0.23411000  0.56460000  1.0
  C  C125  1  0.95255000  0.73411000  0.93540000  1.0
  C  C126  1  0.45255000  0.76589000  0.43540000  1.0
  C  C127  1  0.04745000  0.26589000  0.06460000  1.0
  C  C128  1  0.58252000  0.30216000  0.63234000  1.0
  C  C129  1  0.91748000  0.80216000  0.86766000  1.0
  C  C130  1  0.41748000  0.69784000  0.36766000  1.0
  C  C131  1  0.08252000  0.19784000  0.13234000  1.0
  C  C132  1  0.07066000  0.04180000  0.65520000  1.0
  C  C133  1  0.42935000  0.54180000  0.84480000  1.0
  C  C134  1  0.92934000  0.95820000  0.34481000  1.0
  C  C135  1  0.57066000  0.45820000  0.15520000  1.0
  C  C136  1  0.03898000  0.12141000  0.59365000  1.0
  C  C137  1  0.46102000  0.62141000  0.90635000  1.0
  C  C138  1  0.96101000  0.87859000  0.40636000  1.0
  C  C139  1  0.53899000  0.37860000  0.09364000  1.0
  C  C140  1  0.05226000  0.25008000  0.50661000  1.0
  C  C141  1  0.44774000  0.75008000  0.99339000  1.0
  C  C142  1  0.94774000  0.74992000  0.49339000  1.0
  C  C143  1  0.55226000  0.24992000  0.00661000  1.0
  C  C144  1  0.09976000  0.33843000  0.45139000  1.0
  C  C145  1  0.40023000  0.83843000  0.04861000  1.0
  C  C146  1  0.90023000  0.66157000  0.54861000  1.0
  C  C147  1  0.59977000  0.16157000  0.95139000  1.0
  C  C148  1  0.16529000  0.42656000  0.49123000  1.0
  C  C149  1  0.33471000  0.92657000  0.00877000  1.0
  C  C150  1  0.83471000  0.57343000  0.50877000  1.0
  C  C151  1  0.66529000  0.07344000  0.99123000  1.0
  C  C152  1  0.28901000  0.50984000  0.56318000  1.0
  C  C153  1  0.21100000  0.00984000  0.93682000  1.0
  C  C154  1  0.71100000  0.49016000  0.43682000  1.0
  C  C155  1  0.78901000  0.99016000  0.06318000  1.0
  C  C156  1  0.38627000  0.53542000  0.61721000  1.0
  C  C157  1  0.11373000  0.03542000  0.88279000  1.0
  C  C158  1  0.61373000  0.46458000  0.38279000  1.0
  C  C159  1  0.88627000  0.96458000  0.11721000  1.0
  C  C160  1  0.36609000  0.24521000  0.27426000  1.0
  C  C161  1  0.13391000  0.74521000  0.22574000  1.0
  C  C162  1  0.63391000  0.75479000  0.72574000  1.0
  C  C163  1  0.86609000  0.25479000  0.77426000  1.0
  C  C164  1  0.38123000  0.15353000  0.21317000  1.0
  C  C165  1  0.11876000  0.65353000  0.28683000  1.0
  C  C166  1  0.61876000  0.84647000  0.78683000  1.0
  C  C167  1  0.88124000  0.34647000  0.71317000  1.0
  C  C168  1  0.32997000  0.04670000  0.24186000  1.0
  C  C169  1  0.17003000  0.54670000  0.25814000  1.0
  C  C170  1  0.67003000  0.95330000  0.75814000  1.0
  C  C171  1  0.82998000  0.45330000  0.74186000  1.0
  C  C172  1  0.29068000  0.02015000  0.31779000  1.0
  C  C173  1  0.20932000  0.52015000  0.18221000  1.0
  C  C174  1  0.70932000  0.97985000  0.68221000  1.0
  C  C175  1  0.79067000  0.47986000  0.81779000  1.0
  N  N176  1  0.11801000  0.19889000  0.56043000  1.0
  N  N177  1  0.38199000  0.69889000  0.93957000  1.0
  N  N178  1  0.88199000  0.80111000  0.43957000  1.0
  N  N179  1  0.61801000  0.30111000  0.06043000  1.0
  N  N180  1  0.93119000  0.12396000  0.56280000  1.0
  N  N181  1  0.56881000  0.62396000  0.93720000  1.0
  N  N182  1  0.06881000  0.87604000  0.43720000  1.0
  N  N183  1  0.43119000  0.37604000  0.06280000  1.0
  N  N184  1  0.94021000  0.20651000  0.50725000  1.0
  N  N185  1  0.55979000  0.70651000  0.99275000  1.0
  N  N186  1  0.05979000  0.79349000  0.49275000  1.0
  N  N187  1  0.44021000  0.29349000  0.00725000  1.0
  N  N188  1  0.25338000  0.40935000  0.54343000  1.0
  N  N189  1  0.24663000  0.90935000  0.95657000  1.0
  N  N190  1  0.74663000  0.59065000  0.45657000  1.0
  N  N191  1  0.75338000  0.09065000  0.04343000  1.0
  N  N192  1  0.14623000  0.53036000  0.47827000  1.0
  N  N193  1  0.35377000  0.03036000  0.02173000  1.0
  N  N194  1  0.85377000  0.46964000  0.52173000  1.0
  N  N195  1  0.64623000  0.96964000  0.97827000  1.0
  N  N196  1  0.22533000  0.58335000  0.52477000  1.0
  N  N197  1  0.27468000  0.08335000  0.97523000  1.0
  N  N198  1  0.77468000  0.41665000  0.47523000  1.0
  N  N199  1  0.72533000  0.91665000  0.02477000  1.0
  N  N200  1  0.43316000  0.20127000  0.55322000  1.0
  N  N201  1  0.06684000  0.70127000  0.94678000  1.0
  N  N202  1  0.56684000  0.79873000  0.44678000  1.0
  N  N203  1  0.93316000  0.29873000  0.05322000  1.0
  N  N204  1  0.43803000  0.13810000  0.48473000  1.0
  N  N205  1  0.06197000  0.63810000  0.01527000  1.0
  N  N206  1  0.56197000  0.86190000  0.51527000  1.0
  N  N207  1  0.93803000  0.36190000  0.98472000  1.0
  N  N208  1  0.62766000  0.19397000  0.50560000  1.0
  N  N209  1  0.87234000  0.69397000  0.99440000  1.0
  N  N210  1  0.37234000  0.80603000  0.49440000  1.0
  N  N211  1  0.12766000  0.30603000  0.00560000  1.0
  N  N212  1  0.76682000  0.21766000  0.34693000  1.0
  N  N213  1  0.73318000  0.71767000  0.15307000  1.0
  N  N214  1  0.23318000  0.78233000  0.65307000  1.0
  N  N215  1  0.26682000  0.28233000  0.84693000  1.0
  N  N216  1  0.67899000  0.13674000  0.24640000  1.0
  N  N217  1  0.82101000  0.63674000  0.25360000  1.0
  N  N218  1  0.32101000  0.86326000  0.75360000  1.0
  N  N219  1  0.17899000  0.36326000  0.74639000  1.0
  N  N220  1  0.76132000  0.21336000  0.21494000  1.0
  N  N221  1  0.73868000  0.71336000  0.28506000  1.0
  N  N222  1  0.23868000  0.78664000  0.78506000  1.0
  N  N223  1  0.26133000  0.28664000  0.71494000  1.0
