# generated using pymatgen
data_CdH14C10O7
_symmetry_space_group_name_H-M   'P 1'
_cell_length_a   5.25211000
_cell_length_b   5.25225000
_cell_length_c   23.47582615
_cell_angle_alpha   83.70422994
_cell_angle_beta   85.14471150
_cell_angle_gamma   97.59230000
_symmetry_Int_Tables_number   1
_chemical_formula_structural   CdH14C10O7
_chemical_formula_sum   'Cd2 H28 C20 O14'
_cell_volume   634.80380225
_cell_formula_units_Z   2
loop_
 _symmetry_equiv_pos_site_id
 _symmetry_equiv_pos_as_xyz
  1  'x, y, z'
loop_
 _atom_site_type_symbol
 _atom_site_label
 _atom_site_symmetry_multiplicity
 _atom_site_fract_x
 _atom_site_fract_y
 _atom_site_fract_z
 _atom_site_occupancy
  Cd  Cd0  1  0.81370000  0.06360000  0.75001000  1.0
  Cd  Cd1  1  0.18631000  0.93640000  0.24999000  1.0
  H  H2  1  0.49764000  0.56358000  0.76801000  1.0
  H  H3  1  0.33158000  0.76565000  0.73202000  1.0
  H  H4  1  0.50235000  0.43642000  0.23199000  1.0
  H  H5  1  0.66842000  0.23436000  0.26798000  1.0
  H  H6  1  0.22370000  0.98378000  0.66696000  1.0
  H  H7  1  0.65079000  0.39061000  0.83302000  1.0
  H  H8  1  0.77633000  0.01625000  0.33304000  1.0
  H  H9  1  0.34922000  0.60940000  0.16697000  1.0
  H  H10  1  0.01931000  0.70047000  0.68049000  1.0
  H  H11  1  0.38101000  0.19978000  0.81950000  1.0
  H  H12  1  0.98071000  0.29955000  0.31951000  1.0
  H  H13  1  0.61900000  0.80022000  0.18050000  1.0
  H  H14  1  0.16769000  0.55431000  0.90956000  1.0
  H  H15  1  0.46383000  0.57718000  0.59046000  1.0
  H  H16  1  0.83229000  0.44568000  0.09044000  1.0
  H  H17  1  0.53614000  0.42279000  0.40955000  1.0
  H  H18  1  0.39817000  0.83657000  0.88753000  1.0
  H  H19  1  0.72410000  0.78565000  0.61247000  1.0
  H  H20  1  0.60183000  0.16341000  0.11247000  1.0
  H  H21  1  0.27589000  0.21435000  0.38753000  1.0
  H  H22  1  0.42969000  0.17755000  0.94830000  1.0
  H  H23  1  0.12584000  0.87792000  0.55170000  1.0
  H  H24  1  0.57031000  0.82244000  0.05170000  1.0
  H  H25  1  0.87413000  0.12205000  0.44830000  1.0
  H  H26  1  0.74156000  0.61843000  0.96879000  1.0
  H  H27  1  0.58720000  0.21033000  0.53122000  1.0
  H  H28  1  0.25842000  0.38157000  0.03120000  1.0
  H  H29  1  0.41278000  0.78964000  0.46879000  1.0
  C  C30  1  0.09701000  0.88416000  0.95260000  1.0
  C  C31  1  0.83675000  0.54956000  0.54740000  1.0
  C  C32  1  0.90301000  0.11586000  0.04739000  1.0
  C  C33  1  0.16325000  0.45044000  0.45261000  1.0
  C  C34  1  0.19291000  0.76607000  0.90038000  1.0
  C  C35  1  0.66644000  0.59324000  0.59962000  1.0
  C  C36  1  0.80710000  0.23392000  0.09962000  1.0
  C  C37  1  0.33356000  0.40678000  0.40037000  1.0
  C  C38  1  0.23991000  0.10003000  0.97067000  1.0
  C  C39  1  0.07067000  0.71056000  0.52933000  1.0
  C  C40  1  0.76008000  0.89998000  0.02932000  1.0
  C  C41  1  0.92929000  0.28941000  0.47068000  1.0
  C  C42  1  0.85550000  0.78591000  0.98257000  1.0
  C  C43  1  0.76845000  0.33807000  0.51744000  1.0
  C  C44  1  0.14449000  0.21410000  0.01743000  1.0
  C  C45  1  0.23154000  0.66193000  0.48256000  1.0
  C  C46  1  0.03328000  0.83677000  0.85131000  1.0
  C  C47  1  0.68812000  0.38450000  0.64871000  1.0
  C  C48  1  0.96674000  0.16321000  0.14869000  1.0
  C  C49  1  0.31190000  0.61552000  0.35130000  1.0
  O  O50  1  0.49253000  0.74282000  0.75010000  1.0
  O  O51  1  0.50745000  0.25718000  0.24991000  1.0
  O  O52  1  0.83825000  0.68664000  0.84249000  1.0
  O  O53  1  0.52921000  0.18059000  0.65751000  1.0
  O  O54  1  0.16176000  0.31338000  0.15751000  1.0
  O  O55  1  0.47084000  0.81939000  0.34250000  1.0
  O  O56  1  0.09962000  0.06142000  0.82115000  1.0
  O  O57  1  0.88258000  0.42077000  0.67887000  1.0
  O  O58  1  0.90035000  0.93856000  0.17885000  1.0
  O  O59  1  0.11744000  0.57923000  0.32114000  1.0
  O  O60  1  0.09718000  0.86715000  0.69491000  1.0
  O  O61  1  0.56213000  0.29207000  0.80508000  1.0
  O  O62  1  0.90283000  0.13286000  0.30509000  1.0
  O  O63  1  0.43787000  0.70793000  0.19492000  1.0
