# generated using pymatgen
data_CuH4C5SN3
_symmetry_space_group_name_H-M   'P 1'
_cell_length_a   5.65225000
_cell_length_b   5.81074000
_cell_length_c   10.35760000
_cell_angle_alpha   90.00210000
_cell_angle_beta   90.00070000
_cell_angle_gamma   80.89090000
_symmetry_Int_Tables_number   1
_chemical_formula_structural   CuH4C5SN3
_chemical_formula_sum   'Cu2 H8 C10 S2 N6'
_cell_volume   335.89232642
_cell_formula_units_Z   2
loop_
 _symmetry_equiv_pos_site_id
 _symmetry_equiv_pos_as_xyz
  1  'x, y, z'
loop_
 _atom_site_type_symbol
 _atom_site_label
 _atom_site_symmetry_multiplicity
 _atom_site_fract_x
 _atom_site_fract_y
 _atom_site_fract_z
 _atom_site_occupancy
  Cu  Cu0  1  0.37433000  0.07090000  0.60443000  1.0
  Cu  Cu1  1  0.62565000  0.92911000  0.10442000  1.0
  H  H2  1  0.96922000  0.36006000  0.73249000  1.0
  H  H3  1  0.03078000  0.63994000  0.23247000  1.0
  H  H4  1  0.66499000  0.30551000  0.90099000  1.0
  H  H5  1  0.33501000  0.69449000  0.40098000  1.0
  H  H6  1  0.03207000  0.64034000  0.97702000  1.0
  H  H7  1  0.96793000  0.35965000  0.47703000  1.0
  H  H8  1  0.33646000  0.69515000  0.80860000  1.0
  H  H9  1  0.66357000  0.30487000  0.30859000  1.0
  C  C10  1  0.56765000  0.53854000  0.60457000  1.0
  C  C11  1  0.43234000  0.46146000  0.10458000  1.0
  C  C12  1  0.98343000  0.19797000  0.78699000  1.0
  C  C13  1  0.01660000  0.80201000  0.28698000  1.0
  C  C14  1  0.81521000  0.16837000  0.88054000  1.0
  C  C15  1  0.18480000  0.83164000  0.38054000  1.0
  C  C16  1  0.01786000  0.80247000  0.92255000  1.0
  C  C17  1  0.98214000  0.19756000  0.42255000  1.0
  C  C18  1  0.18614000  0.83215000  0.82906000  1.0
  C  C19  1  0.81388000  0.16785000  0.32905000  1.0
  S  S20  1  0.69895000  0.76969000  0.60474000  1.0
  S  S21  1  0.30103000  0.23032000  0.10474000  1.0
  N  N22  1  0.47972000  0.36637000  0.60445000  1.0
  N  N23  1  0.52025000  0.63362000  0.10445000  1.0
  N  N24  1  0.17021000  0.03003000  0.75951000  1.0
  N  N25  1  0.82979000  0.97000000  0.25950000  1.0
  N  N26  1  0.83100000  0.97043000  0.94999000  1.0
  N  N27  1  0.16902000  0.02953000  0.44999000  1.0
