# generated using pymatgen
data_CrH5C8O5
_symmetry_space_group_name_H-M   'P 1'
_cell_length_a   6.28405000
_cell_length_b   6.83881000
_cell_length_c   10.29527063
_cell_angle_alpha   78.27134429
_cell_angle_beta   73.69280216
_cell_angle_gamma   92.21930000
_symmetry_Int_Tables_number   1
_chemical_formula_structural   CrH5C8O5
_chemical_formula_sum   'Cr2 H10 C16 O10'
_cell_volume   413.61185468
_cell_formula_units_Z   2
loop_
 _symmetry_equiv_pos_site_id
 _symmetry_equiv_pos_as_xyz
  1  'x, y, z'
loop_
 _atom_site_type_symbol
 _atom_site_label
 _atom_site_symmetry_multiplicity
 _atom_site_fract_x
 _atom_site_fract_y
 _atom_site_fract_z
 _atom_site_occupancy
  Cr  Cr0  1  0.99999000  0.99998000  0.99998000  1.0
  Cr  Cr1  1  0.00001000  0.49999000  0.00000000  1.0
  H  H2  1  0.50388000  0.79781000  0.32440000  1.0
  H  H3  1  0.64566000  0.36096000  0.42248000  1.0
  H  H4  1  0.81892000  0.68243000  0.68123000  1.0
  H  H5  1  0.07616000  0.14622000  0.57104000  1.0
  H  H6  1  0.49612000  0.20217000  0.67559000  1.0
  H  H7  1  0.35433000  0.63900000  0.57751000  1.0
  H  H8  1  0.18106000  0.31762000  0.31879000  1.0
  H  H9  1  0.92384000  0.85387000  0.42897000  1.0
  H  H10  1  0.31105000  0.27252000  0.95648000  1.0
  H  H11  1  0.68897000  0.72750000  0.04354000  1.0
  C  C12  1  0.58213000  0.08899000  0.35817000  1.0
  C  C13  1  0.50006000  0.88537000  0.40206000  1.0
  C  C14  1  0.58091000  0.20330000  0.45721000  1.0
  C  C15  1  0.69313000  0.17632000  0.20797000  1.0
  C  C16  1  0.94003000  0.40415000  0.64040000  1.0
  C  C17  1  0.89627000  0.60370000  0.60086000  1.0
  C  C18  1  0.04340000  0.30079000  0.53885000  1.0
  C  C19  1  0.89857000  0.31145000  0.79061000  1.0
  C  C20  1  0.41787000  0.91099000  0.64178000  1.0
  C  C21  1  0.49995000  0.11462000  0.59791000  1.0
  C  C22  1  0.41909000  0.79666000  0.54276000  1.0
  C  C23  1  0.30690000  0.82364000  0.79203000  1.0
  C  C24  1  0.05995000  0.59585000  0.35958000  1.0
  C  C25  1  0.10371000  0.39632000  0.39917000  1.0
  C  C26  1  0.95659000  0.69922000  0.46118000  1.0
  C  C27  1  0.10147000  0.68858000  0.20940000  1.0
  O  O28  1  0.71709000  0.05737000  0.12479000  1.0
  O  O29  1  0.76602000  0.36212000  0.17329000  1.0
  O  O30  1  0.83292000  0.42383000  0.87657000  1.0
  O  O31  1  0.93991000  0.12999000  0.82298000  1.0
  O  O32  1  0.28290000  0.94262000  0.87521000  1.0
  O  O33  1  0.23396000  0.63784000  0.82671000  1.0
  O  O34  1  0.16704000  0.57620000  0.12347000  1.0
  O  O35  1  0.06011000  0.87001000  0.17701000  1.0
  O  O36  1  0.84813000  0.74651000  0.99541000  1.0
  O  O37  1  0.15189000  0.25349000  0.00460000  1.0
