# generated using pymatgen
data_NdH20C18N7O12
_symmetry_space_group_name_H-M   'P 1'
_cell_length_a   10.86490000
_cell_length_b   11.08820000
_cell_length_c   14.05150000
_cell_angle_alpha   67.28300000
_cell_angle_beta   82.37500000
_cell_angle_gamma   64.59160000
_symmetry_Int_Tables_number   1
_chemical_formula_structural   NdH20C18N7O12
_chemical_formula_sum   'Nd2 H40 C36 N14 O24'
_cell_volume   1409.34565931
_cell_formula_units_Z   2
loop_
 _symmetry_equiv_pos_site_id
 _symmetry_equiv_pos_as_xyz
  1  'x, y, z'
loop_
 _atom_site_type_symbol
 _atom_site_label
 _atom_site_symmetry_multiplicity
 _atom_site_fract_x
 _atom_site_fract_y
 _atom_site_fract_z
 _atom_site_occupancy
  Nd  Nd0  1  0.61255000  0.71923000  0.63312000  1.0
  Nd  Nd1  1  0.38745000  0.28077000  0.36688000  1.0
  H  H2  1  0.85048000  0.18360000  0.81213000  1.0
  H  H3  1  0.14952000  0.81639000  0.18787000  1.0
  H  H4  1  0.95729000  0.92870000  0.91566000  1.0
  H  H5  1  0.04270000  0.07130000  0.08435000  1.0
  H  H6  1  0.78776000  0.87465000  0.73167000  1.0
  H  H7  1  0.21224000  0.12535000  0.26833000  1.0
  H  H8  1  0.19758000  0.58937000  0.17664000  1.0
  H  H9  1  0.80241000  0.41063000  0.82336000  1.0
  H  H10  1  0.98421000  0.63115000  0.72902000  1.0
  H  H11  1  0.01579000  0.36885000  0.27098000  1.0
  H  H12  1  0.17373000  0.65270000  0.71711000  1.0
  H  H13  1  0.82627000  0.34731000  0.28289000  1.0
  H  H14  1  0.18239000  0.81069000  0.61940000  1.0
  H  H15  1  0.81761000  0.18931000  0.38060000  1.0
  H  H16  1  0.25442000  0.64611000  0.59883000  1.0
  H  H17  1  0.74558000  0.35389000  0.40116000  1.0
  H  H18  1  0.03335000  0.76431000  0.43478000  1.0
  H  H19  1  0.96665000  0.23568000  0.56522000  1.0
  H  H20  1  0.06358000  0.89949000  0.45370000  1.0
  H  H21  1  0.93642000  0.10051000  0.54630000  1.0
  H  H22  1  0.89626000  0.90035000  0.46904000  1.0
  H  H23  1  0.10374000  0.09965000  0.53096000  1.0
  H  H24  1  0.24565000  0.31890000  0.03062000  1.0
  H  H25  1  0.75434000  0.68110000  0.96938000  1.0
  H  H26  1  0.59021000  0.32624000  0.54855000  1.0
  H  H27  1  0.40979000  0.67376000  0.45145000  1.0
  H  H28  1  0.66077000  0.95025000  0.35971000  1.0
  H  H29  1  0.33923000  0.04976000  0.64029000  1.0
  H  H30  1  0.83392000  0.57709000  0.39322000  1.0
  H  H31  1  0.16608000  0.42292000  0.60678000  1.0
  H  H32  1  0.98178000  0.60592000  0.33601000  1.0
  H  H33  1  0.01822000  0.39409000  0.66399000  1.0
  H  H34  1  0.85523000  0.62312000  0.25658000  1.0
  H  H35  1  0.14477000  0.37689000  0.74341000  1.0
  H  H36  1  0.76093000  0.00391000  0.21583000  1.0
  H  H37  1  0.23907000  0.99609000  0.78418000  1.0
  H  H38  1  0.81731000  0.87974000  0.15062000  1.0
  H  H39  1  0.18269000  0.12026000  0.84938000  1.0
  H  H40  1  0.93596000  0.87713000  0.22771000  1.0
  H  H41  1  0.06404000  0.12287000  0.77230000  1.0
  C  C42  1  0.62358000  0.06199000  0.56158000  1.0
  C  C43  1  0.37642000  0.93801000  0.43842000  1.0
  C  C44  1  0.80422000  0.15938000  0.76142000  1.0
  C  C45  1  0.19579000  0.84063000  0.23857000  1.0
  C  C46  1  0.77101000  0.98483000  0.71537000  1.0
  C  C47  1  0.22900000  0.01517000  0.28462000  1.0
  C  C48  1  0.68577000  0.09630000  0.63187000  1.0
  C  C49  1  0.31424000  0.90370000  0.36812000  1.0
  C  C50  1  0.83303000  0.01677000  0.77813000  1.0
  C  C51  1  0.16697000  0.98323000  0.22186000  1.0
  C  C52  1  0.06359000  0.67235000  0.94395000  1.0
  C  C53  1  0.93640000  0.32766000  0.05605000  1.0
  C  C54  1  0.95309000  0.69163000  0.64661000  1.0
  C  C55  1  0.04691000  0.30837000  0.35339000  1.0
  C  C56  1  0.16952000  0.71222000  0.63383000  1.0
  C  C57  1  0.83048000  0.28778000  0.36617000  1.0
  C  C58  1  0.00609000  0.83274000  0.48048000  1.0
  C  C59  1  0.99391000  0.16726000  0.51952000  1.0
  C  C60  1  0.68801000  0.42308000  0.65654000  1.0
  C  C61  1  0.31199000  0.57691000  0.34346000  1.0
  C  C62  1  0.71615000  0.27023000  0.67885000  1.0
  C  C63  1  0.28386000  0.72977000  0.32115000  1.0
  C  C64  1  0.12141000  0.52693000  0.94221000  1.0
  C  C65  1  0.87859000  0.47307000  0.05779000  1.0
  C  C66  1  0.22974000  0.43987000  0.11373000  1.0
  C  C67  1  0.77026000  0.56013000  0.88627000  1.0
  C  C68  1  0.09875000  0.69757000  0.02929000  1.0
  C  C69  1  0.90124000  0.30242000  0.97072000  1.0
  C  C70  1  0.65794000  0.23917000  0.61323000  1.0
  C  C71  1  0.34207000  0.76083000  0.38677000  1.0
  C  C72  1  0.70745000  0.83360000  0.37786000  1.0
  C  C73  1  0.29255000  0.16641000  0.62215000  1.0
  C  C74  1  0.87176000  0.64004000  0.32512000  1.0
  C  C75  1  0.12824000  0.35997000  0.67488000  1.0
  C  C76  1  0.82948000  0.89447000  0.22127000  1.0
  C  C77  1  0.17052000  0.10554000  0.77874000  1.0
  N  N78  1  0.92618000  0.90726000  0.85917000  1.0
  N  N79  1  0.07382000  0.09274000  0.14082000  1.0
  N  N80  1  0.97826000  0.77454000  0.86551000  1.0
  N  N81  1  0.02174000  0.22546000  0.13449000  1.0
  N  N82  1  0.17881000  0.57803000  0.10966000  1.0
  N  N83  1  0.82119000  0.42197000  0.89034000  1.0
  N  N84  1  0.03875000  0.74669000  0.58999000  1.0
  N  N85  1  0.96125000  0.25331000  0.41001000  1.0
  N  N86  1  0.40519000  0.69982000  0.79768000  1.0
  N  N87  1  0.59480000  0.30018000  0.20232000  1.0
  N  N88  1  0.20633000  0.42185000  0.02738000  1.0
  N  N89  1  0.79366000  0.57815000  0.97262000  1.0
  N  N90  1  0.79833000  0.79114000  0.31065000  1.0
  N  N91  1  0.20167000  0.20886000  0.68935000  1.0
  O  O92  1  0.60004000  0.14675000  0.46766000  1.0
  O  O93  1  0.39995000  0.85326000  0.53234000  1.0
  O  O94  1  0.59976000  0.95083000  0.60091000  1.0
  O  O95  1  0.40024000  0.04917000  0.39909000  1.0
  O  O96  1  0.84594000  0.70837000  0.60888000  1.0
  O  O97  1  0.15406000  0.29164000  0.39112000  1.0
  O  O98  1  0.76318000  0.44960000  0.70300000  1.0
  O  O99  1  0.23682000  0.55040000  0.29700000  1.0
  O  O100  1  0.09901000  0.49156000  0.87508000  1.0
  O  O101  1  0.90099000  0.50844000  0.12492000  1.0
  O  O102  1  0.05630000  0.81968000  0.03332000  1.0
  O  O103  1  0.94368000  0.18031000  0.96668000  1.0
  O  O104  1  0.59408000  0.52327000  0.59204000  1.0
  O  O105  1  0.40593000  0.47673000  0.40796000  1.0
  O  O106  1  0.29413000  0.33408000  0.19032000  1.0
  O  O107  1  0.70586000  0.66591000  0.80968000  1.0
  O  O108  1  0.42315000  0.81579000  0.74982000  1.0
  O  O109  1  0.57685000  0.18421000  0.25018000  1.0
  O  O110  1  0.31830000  0.69408000  0.86407000  1.0
  O  O111  1  0.68169000  0.30592000  0.13592000  1.0
  O  O112  1  0.48118000  0.59162000  0.77271000  1.0
  O  O113  1  0.51882000  0.40837000  0.22729000  1.0
  O  O114  1  0.67573000  0.74887000  0.45529000  1.0
  O  O115  1  0.32427000  0.25113000  0.54471000  1.0
