# generated using pymatgen
data_CuH16C11(N2Cl)2
_symmetry_space_group_name_H-M   'P 1'
_cell_length_a   8.69108000
_cell_length_b   8.71790000
_cell_length_c   9.63090000
_cell_angle_alpha   80.90060000
_cell_angle_beta   63.68450000
_cell_angle_gamma   87.67680000
_symmetry_Int_Tables_number   1
_chemical_formula_structural   CuH16C11(N2Cl)2
_chemical_formula_sum   'Cu2 H32 C22 N8 Cl4'
_cell_volume   645.49890411
_cell_formula_units_Z   2
loop_
 _symmetry_equiv_pos_site_id
 _symmetry_equiv_pos_as_xyz
  1  'x, y, z'
loop_
 _atom_site_type_symbol
 _atom_site_label
 _atom_site_symmetry_multiplicity
 _atom_site_fract_x
 _atom_site_fract_y
 _atom_site_fract_z
 _atom_site_occupancy
  Cu  Cu0  1  0.36582000  0.08313000  0.89948000  1.0
  Cu  Cu1  1  0.63418000  0.91687000  0.10052000  1.0
  H  H2  1  0.02707000  0.18405000  0.90811000  1.0
  H  H3  1  0.97293000  0.81595000  0.09189000  1.0
  H  H4  1  0.24712000  0.90020000  0.24649000  1.0
  H  H5  1  0.75288000  0.09980000  0.75351000  1.0
  H  H6  1  0.69671000  0.88914000  0.38818000  1.0
  H  H7  1  0.30330000  0.11086000  0.61181000  1.0
  H  H8  1  0.57330000  0.82655000  0.59268000  1.0
  H  H9  1  0.42670000  0.17345000  0.40732000  1.0
  H  H10  1  0.65842000  0.68745000  0.46347000  1.0
  H  H11  1  0.34158000  0.31255000  0.53653000  1.0
  H  H12  1  0.94126000  0.66705000  0.53703000  1.0
  H  H13  1  0.05874000  0.33295000  0.46298000  1.0
  H  H14  1  0.90923000  0.81157000  0.65700000  1.0
  H  H15  1  0.09077000  0.18843000  0.34301000  1.0
  H  H16  1  0.94405000  0.86564000  0.45897000  1.0
  H  H17  1  0.05595000  0.13436000  0.54103000  1.0
  H  H18  1  0.29381000  0.75140000  0.77879000  1.0
  H  H19  1  0.70619000  0.24860000  0.22121000  1.0
  H  H20  1  0.08214000  0.74763000  0.80248000  1.0
  H  H21  1  0.91786000  0.25237000  0.19752000  1.0
  H  H22  1  0.59422000  0.46838000  0.66009000  1.0
  H  H23  1  0.40578000  0.53162000  0.33991000  1.0
  H  H24  1  0.50509000  0.59432000  0.80289000  1.0
  H  H25  1  0.49491000  0.40568000  0.19711000  1.0
  H  H26  1  0.53874000  0.39614000  0.86012000  1.0
  H  H27  1  0.46126000  0.60387000  0.13988000  1.0
  H  H28  1  0.79011000  0.37090000  0.91535000  1.0
  H  H29  1  0.20989000  0.62910000  0.08465000  1.0
  H  H30  1  0.84483000  0.57323000  0.85392000  1.0
  H  H31  1  0.15516000  0.42677000  0.14608000  1.0
  H  H32  1  0.89198000  0.44731000  0.71325000  1.0
  H  H33  1  0.10802000  0.55269000  0.28674000  1.0
  C  C34  1  0.60095000  0.80226000  0.47559000  1.0
  C  C35  1  0.39905000  0.19774000  0.52441000  1.0
  C  C36  1  0.44132000  0.80722000  0.45404000  1.0
  C  C37  1  0.55868000  0.19278000  0.54596000  1.0
  C  C38  1  0.27087000  0.76360000  0.56620000  1.0
  C  C39  1  0.72913000  0.23640000  0.43380000  1.0
  C  C40  1  0.16987000  0.79818000  0.48585000  1.0
  C  C41  1  0.83014000  0.20182000  0.51415000  1.0
  C  C42  1  0.98142000  0.78492000  0.53744000  1.0
  C  C43  1  0.01859000  0.21508000  0.46256000  1.0
  C  C44  1  0.20987000  0.70186000  0.73754000  1.0
  C  C45  1  0.79013000  0.29814000  0.26246000  1.0
  C  C46  1  0.19991000  0.52790000  0.78346000  1.0
  C  C47  1  0.80009000  0.47210000  0.21654000  1.0
  C  C48  1  0.32413000  0.43219000  0.80799000  1.0
  C  C49  1  0.67586000  0.56781000  0.19201000  1.0
  C  C50  1  0.49997000  0.47510000  0.78163000  1.0
  C  C51  1  0.50002000  0.52490000  0.21837000  1.0
  C  C52  1  0.05776000  0.42875000  0.82636000  1.0
  C  C53  1  0.94224000  0.57125000  0.17364000  1.0
  C  C54  1  0.88728000  0.45661000  0.82765000  1.0
  C  C55  1  0.11272000  0.54339000  0.17234000  1.0
  N  N56  1  0.25926000  0.28510000  0.86473000  1.0
  N  N57  1  0.74074000  0.71490000  0.13527000  1.0
  N  N58  1  0.09918000  0.28593000  0.87447000  1.0
  N  N59  1  0.90082000  0.71407000  0.12553000  1.0
  N  N60  1  0.44263000  0.86317000  0.31463000  1.0
  N  N61  1  0.55737000  0.13683000  0.68537000  1.0
  N  N62  1  0.27886000  0.85593000  0.33602000  1.0
  N  N63  1  0.72114000  0.14407000  0.66398000  1.0
  Cl  Cl64  1  0.11236000  0.00366000  0.11743000  1.0
  Cl  Cl65  1  0.88764000  0.99633000  0.88257000  1.0
  Cl  Cl66  1  0.48040000  0.84149000  0.92478000  1.0
  Cl  Cl67  1  0.51960000  0.15851000  0.07522000  1.0
