# generated using pymatgen
data_ZnH24C34(N3O4)2
_symmetry_space_group_name_H-M   'P 1'
_cell_length_a   11.50240000
_cell_length_b   14.74610000
_cell_length_c   21.93240000
_cell_angle_alpha   89.99950000
_cell_angle_beta   76.14000000
_cell_angle_gamma   89.99940000
_symmetry_Int_Tables_number   1
_chemical_formula_structural   ZnH24C34(N3O4)2
_chemical_formula_sum   'Zn4 H96 C136 N24 O32'
_cell_volume   3611.76198948
_cell_formula_units_Z   4
loop_
 _symmetry_equiv_pos_site_id
 _symmetry_equiv_pos_as_xyz
  1  'x, y, z'
loop_
 _atom_site_type_symbol
 _atom_site_label
 _atom_site_symmetry_multiplicity
 _atom_site_fract_x
 _atom_site_fract_y
 _atom_site_fract_z
 _atom_site_occupancy
  Zn  Zn0  1  0.53327000  0.84778000  0.48556000  1.0
  Zn  Zn1  1  0.46673000  0.84779000  0.01444000  1.0
  Zn  Zn2  1  0.46673000  0.15222000  0.51444000  1.0
  Zn  Zn3  1  0.53328000  0.15221000  0.98556000  1.0
  H  H4  1  0.54897000  0.46799000  0.10242000  1.0
  H  H5  1  0.45103000  0.46798000  0.39758000  1.0
  H  H6  1  0.45102000  0.53201000  0.89758000  1.0
  H  H7  1  0.54898000  0.53201000  0.60242000  1.0
  H  H8  1  0.02025000  0.22812000  0.58120000  1.0
  H  H9  1  0.97975000  0.22811000  0.91880000  1.0
  H  H10  1  0.97974000  0.77188000  0.41881000  1.0
  H  H11  1  0.02024000  0.77188000  0.08120000  1.0
  H  H12  1  0.15535000  0.88811000  0.50543000  1.0
  H  H13  1  0.84465000  0.88811000  0.99456000  1.0
  H  H14  1  0.84464000  0.11189000  0.49457000  1.0
  H  H15  1  0.15536000  0.11189000  0.00543000  1.0
  H  H16  1  0.93645000  0.90613000  0.54651000  1.0
  H  H17  1  0.06355000  0.90612000  0.95348000  1.0
  H  H18  1  0.06355000  0.09387000  0.45349000  1.0
  H  H19  1  0.93646000  0.09387000  0.04651000  1.0
  H  H20  1  0.75873000  0.77317000  0.67342000  1.0
  H  H21  1  0.24127000  0.77317000  0.82658000  1.0
  H  H22  1  0.24127000  0.22683000  0.32658000  1.0
  H  H23  1  0.75873000  0.22682000  0.17342000  1.0
  H  H24  1  0.66666667  0.02773000  0.52815000  1.0
  H  H25  1  0.33327000  0.02773000  0.97185000  1.0
  H  H26  1  0.33328000  0.97227000  0.47185000  1.0
  H  H27  1  0.66666667  0.97227000  0.02815000  1.0
  H  H28  1  0.63632000  0.75888000  0.59657000  1.0
  H  H29  1  0.36368000  0.75888000  0.90343000  1.0
  H  H30  1  0.36368000  0.24112000  0.40343000  1.0
  H  H31  1  0.63632000  0.24112000  0.09657000  1.0
  H  H32  1  0.93777000  0.97582000  0.69182000  1.0
  H  H33  1  0.06223000  0.97582000  0.80818000  1.0
  H  H34  1  0.06223000  0.02418000  0.30818000  1.0
  H  H35  1  0.93777000  0.02418000  0.19182000  1.0
  H  H36  1  0.89004000  0.07343000  0.78805000  1.0
  H  H37  1  0.10996000  0.07343000  0.71195000  1.0
  H  H38  1  0.10996000  0.92657000  0.21195000  1.0
  H  H39  1  0.89004000  0.92657000  0.28805000  1.0
  H  H40  1  0.55703000  0.93359000  0.85399000  1.0
  H  H41  1  0.44297000  0.93361000  0.64601000  1.0
  H  H42  1  0.44297000  0.06640000  0.14601000  1.0
  H  H43  1  0.55703000  0.06640000  0.35399000  1.0
  H  H44  1  0.60466000  0.83358000  0.75937000  1.0
  H  H45  1  0.39535000  0.83359000  0.74063000  1.0
  H  H46  1  0.39535000  0.16641000  0.24063000  1.0
  H  H47  1  0.60466000  0.16642000  0.25937000  1.0
  H  H48  1  0.95470000  0.75259000  0.71078000  1.0
  H  H49  1  0.04530000  0.75259000  0.78922000  1.0
  H  H50  1  0.04530000  0.24741000  0.28922000  1.0
  H  H51  1  0.95470000  0.24741000  0.21078000  1.0
  H  H52  1  0.17578000  0.73657000  0.66945000  1.0
  H  H53  1  0.82422000  0.73657000  0.83054000  1.0
  H  H54  1  0.82422000  0.26343000  0.33054000  1.0
  H  H55  1  0.17578000  0.26343000  0.16946000  1.0
  H  H56  1  0.43162000  0.63178000  0.50054000  1.0
  H  H57  1  0.56838000  0.63178000  0.99946000  1.0
  H  H58  1  0.56839000  0.36822000  0.49946000  1.0
  H  H59  1  0.43162000  0.36821000  0.00054000  1.0
  H  H60  1  0.75772000  0.74659000  0.40523000  1.0
  H  H61  1  0.24229000  0.74659000  0.09477000  1.0
  H  H62  1  0.24229000  0.25342000  0.59477000  1.0
  H  H63  1  0.75771000  0.25341000  0.90523000  1.0
  H  H64  1  0.86255000  0.60984000  0.36040000  1.0
  H  H65  1  0.13745000  0.60984000  0.13960000  1.0
  H  H66  1  0.13745000  0.39016000  0.63960000  1.0
  H  H67  1  0.86255000  0.39016000  0.86040000  1.0
  H  H68  1  0.70935000  0.38302000  0.36030000  1.0
  H  H69  1  0.29065000  0.38301000  0.13970000  1.0
  H  H70  1  0.29065000  0.61698000  0.63971000  1.0
  H  H71  1  0.70934000  0.61699000  0.86029000  1.0
  H  H72  1  0.63736000  0.33067000  0.26909000  1.0
  H  H73  1  0.36265000  0.33066000  0.23090000  1.0
  H  H74  1  0.36264000  0.66934000  0.73091000  1.0
  H  H75  1  0.63735000  0.66934000  0.76909000  1.0
  H  H76  1  0.71937000  0.59107000  0.17965000  1.0
  H  H77  1  0.28064000  0.59107000  0.32034000  1.0
  H  H78  1  0.28064000  0.40893000  0.82034000  1.0
  H  H79  1  0.71935000  0.40893000  0.67966000  1.0
  H  H80  1  0.79794000  0.64340000  0.26967000  1.0
  H  H81  1  0.20207000  0.64340000  0.23032000  1.0
  H  H82  1  0.20207000  0.35660000  0.73032000  1.0
  H  H83  1  0.79792000  0.35660000  0.76968000  1.0
  H  H84  1  0.01770000  0.48919000  0.34336000  1.0
  H  H85  1  0.98230000  0.48918000  0.15664000  1.0
  H  H86  1  0.98230000  0.51081000  0.65664000  1.0
  H  H87  1  0.01770000  0.51081000  0.84336000  1.0
  H  H88  1  0.12151000  0.38570000  0.40272000  1.0
  H  H89  1  0.87849000  0.38570000  0.09728000  1.0
  H  H90  1  0.87849000  0.61430000  0.59728000  1.0
  H  H91  1  0.12151000  0.61430000  0.90272000  1.0
  H  H92  1  0.80445000  0.37403000  0.55351000  1.0
  H  H93  1  0.19555000  0.37402000  0.94649000  1.0
  H  H94  1  0.19555000  0.62598000  0.44649000  1.0
  H  H95  1  0.80443000  0.62598000  0.05351000  1.0
  H  H96  1  0.70253000  0.48032000  0.49604000  1.0
  H  H97  1  0.29748000  0.48031000  0.00396000  1.0
  H  H98  1  0.29748000  0.51969000  0.50396000  1.0
  H  H99  1  0.70251000  0.51969000  0.99604000  1.0
  C  C100  1  0.31170000  0.79972000  0.56028000  1.0
  C  C101  1  0.68830000  0.79972000  0.93972000  1.0
  C  C102  1  0.68830000  0.20028000  0.43972000  1.0
  C  C103  1  0.31170000  0.20028000  0.06028000  1.0
  C  C104  1  0.17925000  0.81054000  0.58474000  1.0
  C  C105  1  0.82075000  0.81054000  0.91526000  1.0
  C  C106  1  0.82075000  0.18946000  0.41526000  1.0
  C  C107  1  0.17925000  0.18946000  0.08474000  1.0
  C  C108  1  0.11117000  0.85834000  0.55044000  1.0
  C  C109  1  0.88883000  0.85834000  0.94956000  1.0
  C  C110  1  0.88883000  0.14166000  0.44956000  1.0
  C  C111  1  0.11117000  0.14166000  0.05044000  1.0
  C  C112  1  0.98788000  0.86776000  0.57339000  1.0
  C  C113  1  0.01212000  0.86775000  0.92661000  1.0
  C  C114  1  0.01212000  0.13224000  0.42661000  1.0
  C  C115  1  0.98788000  0.13224000  0.07339000  1.0
  C  C116  1  0.93081000  0.82942000  0.63107000  1.0
  C  C117  1  0.06919000  0.82942000  0.86892000  1.0
  C  C118  1  0.06919000  0.17058000  0.36893000  1.0
  C  C119  1  0.93081000  0.17058000  0.13108000  1.0
  C  C120  1  0.79826000  0.84065000  0.66067000  1.0
  C  C121  1  0.20174000  0.84065000  0.83933000  1.0
  C  C122  1  0.20174000  0.15935000  0.33933000  1.0
  C  C123  1  0.79827000  0.15935000  0.16067000  1.0
  C  C124  1  0.67725000  0.96701000  0.55448000  1.0
  C  C125  1  0.32274000  0.96701000  0.94552000  1.0
  C  C126  1  0.32275000  0.03299000  0.44552000  1.0
  C  C127  1  0.67725000  0.03299000  0.05448000  1.0
  C  C128  1  0.66081000  0.82950000  0.58755000  1.0
  C  C129  1  0.33919000  0.82950000  0.91245000  1.0
  C  C130  1  0.33919000  0.17050000  0.41245000  1.0
  C  C131  1  0.66081000  0.17050000  0.08755000  1.0
  C  C132  1  0.77380000  0.89899000  0.71947000  1.0
  C  C133  1  0.22620000  0.89899000  0.78054000  1.0
  C  C134  1  0.22621000  0.10100000  0.28054000  1.0
  C  C135  1  0.77380000  0.10100000  0.21947000  1.0
  C  C136  1  0.85445000  0.96643000  0.72735000  1.0
  C  C137  1  0.14555000  0.96643000  0.77265000  1.0
  C  C138  1  0.14555000  0.03357000  0.27265000  1.0
  C  C139  1  0.85445000  0.03357000  0.22736000  1.0
  C  C140  1  0.82826000  0.02081000  0.78068000  1.0
  C  C141  1  0.17173000  0.02081000  0.71932000  1.0
  C  C142  1  0.17174000  0.97918000  0.21932000  1.0
  C  C143  1  0.82827000  0.97919000  0.28069000  1.0
  C  C144  1  0.72077000  0.00968000  0.82616000  1.0
  C  C145  1  0.27922000  0.00969000  0.67384000  1.0
  C  C146  1  0.27923000  0.99031000  0.17384000  1.0
  C  C147  1  0.72078000  0.99032000  0.32616000  1.0
  C  C148  1  0.69279000  0.07206000  0.88179000  1.0
  C  C149  1  0.30721000  0.07206000  0.61821000  1.0
  C  C150  1  0.30721000  0.92794000  0.11821000  1.0
  C  C151  1  0.69279000  0.92794000  0.38179000  1.0
  C  C152  1  0.64009000  0.94206000  0.81825000  1.0
  C  C153  1  0.35992000  0.94206000  0.68175000  1.0
  C  C154  1  0.35992000  0.05794000  0.18175000  1.0
  C  C155  1  0.64008000  0.05794000  0.31825000  1.0
  C  C156  1  0.66727000  0.88658000  0.76543000  1.0
  C  C157  1  0.33274000  0.88658000  0.73458000  1.0
  C  C158  1  0.33273000  0.11342000  0.23458000  1.0
  C  C159  1  0.66727000  0.11342000  0.26543000  1.0
  C  C160  1  0.99900000  0.78147000  0.66536000  1.0
  C  C161  1  0.00100000  0.78147000  0.83464000  1.0
  C  C162  1  0.00100000  0.21852000  0.33464000  1.0
  C  C163  1  0.99900000  0.21852000  0.16536000  1.0
  C  C164  1  0.12195000  0.77241000  0.64261000  1.0
  C  C165  1  0.87805000  0.77241000  0.85739000  1.0
  C  C166  1  0.87804000  0.22758000  0.35739000  1.0
  C  C167  1  0.12196000  0.22758000  0.14261000  1.0
  C  C168  1  0.52154000  0.63727000  0.47095000  1.0
  C  C169  1  0.47846000  0.63727000  0.02904000  1.0
  C  C170  1  0.47846000  0.36273000  0.52905000  1.0
  C  C171  1  0.52154000  0.36273000  0.97095000  1.0
  C  C172  1  0.68855000  0.69661000  0.42376000  1.0
  C  C173  1  0.31145000  0.69661000  0.07624000  1.0
  C  C174  1  0.31145000  0.30339000  0.57624000  1.0
  C  C175  1  0.68855000  0.30339000  0.92376000  1.0
  C  C176  1  0.79579000  0.55640000  0.37756000  1.0
  C  C177  1  0.20421000  0.55639000  0.12244000  1.0
  C  C178  1  0.20421000  0.44361000  0.62244000  1.0
  C  C179  1  0.79579000  0.44361000  0.87756000  1.0
  C  C180  1  0.76026000  0.51679000  0.32053000  1.0
  C  C181  1  0.23975000  0.51679000  0.17946000  1.0
  C  C182  1  0.23974000  0.48321000  0.67947000  1.0
  C  C183  1  0.76026000  0.48321000  0.82053000  1.0
  C  C184  1  0.71567000  0.42859000  0.32032000  1.0
  C  C185  1  0.28433000  0.42859000  0.17968000  1.0
  C  C186  1  0.28433000  0.57141000  0.67968000  1.0
  C  C187  1  0.71567000  0.57141000  0.82032000  1.0
  C  C188  1  0.67455000  0.39865000  0.26896000  1.0
  C  C189  1  0.32546000  0.39864000  0.23104000  1.0
  C  C190  1  0.32546000  0.60136000  0.73105000  1.0
  C  C191  1  0.67454000  0.60136000  0.76896000  1.0
  C  C192  1  0.67429000  0.45716000  0.21850000  1.0
  C  C193  1  0.32571000  0.45716000  0.28149000  1.0
  C  C194  1  0.32570000  0.54284000  0.78150000  1.0
  C  C195  1  0.67429000  0.54284000  0.71850000  1.0
  C  C196  1  0.61986000  0.42465000  0.16761000  1.0
  C  C197  1  0.38015000  0.42465000  0.33238000  1.0
  C  C198  1  0.38014000  0.57535000  0.83239000  1.0
  C  C199  1  0.61985000  0.57535000  0.66761000  1.0
  C  C200  1  0.71985000  0.54544000  0.21863000  1.0
  C  C201  1  0.28015000  0.54544000  0.28136000  1.0
  C  C202  1  0.28015000  0.45456000  0.78136000  1.0
  C  C203  1  0.71985000  0.45456000  0.71864000  1.0
  C  C204  1  0.76388000  0.57431000  0.26914000  1.0
  C  C205  1  0.23613000  0.57431000  0.23085000  1.0
  C  C206  1  0.23612000  0.42569000  0.73086000  1.0
  C  C207  1  0.76388000  0.42569000  0.76915000  1.0
  C  C208  1  0.85222000  0.49100000  0.41559000  1.0
  C  C209  1  0.14779000  0.49100000  0.08441000  1.0
  C  C210  1  0.14779000  0.50900000  0.58441000  1.0
  C  C211  1  0.85221000  0.50900000  0.91559000  1.0
  C  C212  1  0.97070000  0.46420000  0.38956000  1.0
  C  C213  1  0.02931000  0.46420000  0.11044000  1.0
  C  C214  1  0.02931000  0.53580000  0.61045000  1.0
  C  C215  1  0.97069000  0.53580000  0.88956000  1.0
  C  C216  1  0.02927000  0.40647000  0.42234000  1.0
  C  C217  1  0.97073000  0.40647000  0.07766000  1.0
  C  C218  1  0.97073000  0.59354000  0.57766000  1.0
  C  C219  1  0.02926000  0.59354000  0.92234000  1.0
  C  C220  1  0.96993000  0.37313000  0.48153000  1.0
  C  C221  1  0.03007000  0.37314000  0.01846000  1.0
  C  C222  1  0.03007000  0.62687000  0.51847000  1.0
  C  C223  1  0.96992000  0.62687000  0.98153000  1.0
  C  C224  1  0.03741000  0.31097000  0.51358000  1.0
  C  C225  1  0.96258000  0.31097000  0.98642000  1.0
  C  C226  1  0.96258000  0.68903000  0.48642000  1.0
  C  C227  1  0.03739000  0.68902000  0.01358000  1.0
  C  C228  1  0.85143000  0.39943000  0.50757000  1.0
  C  C229  1  0.14858000  0.39943000  0.99242000  1.0
  C  C230  1  0.14857000  0.60057000  0.49243000  1.0
  C  C231  1  0.85142000  0.60057000  0.00757000  1.0
  C  C232  1  0.79364000  0.45866000  0.47497000  1.0
  C  C233  1  0.20637000  0.45865000  0.02503000  1.0
  C  C234  1  0.20637000  0.54135000  0.52503000  1.0
  C  C235  1  0.79363000  0.54135000  0.97497000  1.0
  N  N236  1  0.73249000  0.87601000  0.61622000  1.0
  N  N237  1  0.26751000  0.87601000  0.88378000  1.0
  N  N238  1  0.26751000  0.12399000  0.38378000  1.0
  N  N239  1  0.73249000  0.12399000  0.11622000  1.0
  N  N240  1  0.74402000  0.96394000  0.59592000  1.0
  N  N241  1  0.25598000  0.96394000  0.90408000  1.0
  N  N242  1  0.25598000  0.03606000  0.40409000  1.0
  N  N243  1  0.74403000  0.03606000  0.09592000  1.0
  N  N244  1  0.62405000  0.88550000  0.54815000  1.0
  N  N245  1  0.37595000  0.88550000  0.95185000  1.0
  N  N246  1  0.37595000  0.11450000  0.45185000  1.0
  N  N247  1  0.62405000  0.11449000  0.04815000  1.0
  N  N248  1  0.58067000  0.71806000  0.45907000  1.0
  N  N249  1  0.41933000  0.71806000  0.04093000  1.0
  N  N250  1  0.41933000  0.28194000  0.54093000  1.0
  N  N251  1  0.58067000  0.28194000  0.95907000  1.0
  N  N252  1  0.58673000  0.56713000  0.44426000  1.0
  N  N253  1  0.41327000  0.56713000  0.05574000  1.0
  N  N254  1  0.41327000  0.43288000  0.55575000  1.0
  N  N255  1  0.58673000  0.43287000  0.94426000  1.0
  N  N256  1  0.69342000  0.60669000  0.41509000  1.0
  N  N257  1  0.30658000  0.60668000  0.08491000  1.0
  N  N258  1  0.30659000  0.39332000  0.58491000  1.0
  N  N259  1  0.69342000  0.39331000  0.91509000  1.0
  O  O260  1  0.35913000  0.85242000  0.51315000  1.0
  O  O261  1  0.64087000  0.85242000  0.98684000  1.0
  O  O262  1  0.64087000  0.14758000  0.48684000  1.0
  O  O263  1  0.35913000  0.14758000  0.01315000  1.0
  O  O264  1  0.36913000  0.74321000  0.58404000  1.0
  O  O265  1  0.63087000  0.74321000  0.91596000  1.0
  O  O266  1  0.63087000  0.25679000  0.41596000  1.0
  O  O267  1  0.36913000  0.25679000  0.08404000  1.0
  O  O268  1  0.58231000  0.06972000  0.91411000  1.0
  O  O269  1  0.41769000  0.06972000  0.58589000  1.0
  O  O270  1  0.41769000  0.93028000  0.08589000  1.0
  O  O271  1  0.58231000  0.93028000  0.41411000  1.0
  O  O272  1  0.77324000  0.12244000  0.89310000  1.0
  O  O273  1  0.22676000  0.12244000  0.60690000  1.0
  O  O274  1  0.22676000  0.87756000  0.10689000  1.0
  O  O275  1  0.77325000  0.87756000  0.39311000  1.0
  O  O276  1  0.59592000  0.34493000  0.16021000  1.0
  O  O277  1  0.40409000  0.34493000  0.33978000  1.0
  O  O278  1  0.40408000  0.65506000  0.83979000  1.0
  O  O279  1  0.59591000  0.65507000  0.66021000  1.0
  O  O280  1  0.59554000  0.49254000  0.13087000  1.0
  O  O281  1  0.40447000  0.49254000  0.36912000  1.0
  O  O282  1  0.40447000  0.50745000  0.86913000  1.0
  O  O283  1  0.59553000  0.50746000  0.63087000  1.0
  O  O284  1  0.14421000  0.29372000  0.49440000  1.0
  O  O285  1  0.85580000  0.29373000  0.00560000  1.0
  O  O286  1  0.85579000  0.70628000  0.50561000  1.0
  O  O287  1  0.14420000  0.70628000  0.99440000  1.0
  O  O288  1  0.96974000  0.27370000  0.56742000  1.0
  O  O289  1  0.03026000  0.27369000  0.93258000  1.0
  O  O290  1  0.03025000  0.72631000  0.43259000  1.0
  O  O291  1  0.96973000  0.72630000  0.06742000  1.0
