# generated using pymatgen
data_CuH18C20N4(OF)4
_symmetry_space_group_name_H-M   'P 1'
_cell_length_a   9.37593000
_cell_length_b   9.64272000
_cell_length_c   11.88750000
_cell_angle_alpha   89.99950000
_cell_angle_beta   97.31130000
_cell_angle_gamma   89.99960000
_symmetry_Int_Tables_number   1
_chemical_formula_structural   CuH18C20N4(OF)4
_chemical_formula_sum   'Cu2 H36 C40 N8 O8 F8'
_cell_volume   1066.00420640
_cell_formula_units_Z   2
loop_
 _symmetry_equiv_pos_site_id
 _symmetry_equiv_pos_as_xyz
  1  'x, y, z'
loop_
 _atom_site_type_symbol
 _atom_site_label
 _atom_site_symmetry_multiplicity
 _atom_site_fract_x
 _atom_site_fract_y
 _atom_site_fract_z
 _atom_site_occupancy
  Cu  Cu0  1  0.25000000  0.60697000  0.75000000  1.0
  Cu  Cu1  1  0.75000000  0.39301000  0.25000000  1.0
  H  H2  1  0.04300000  0.30763000  0.76850000  1.0
  H  H3  1  0.45699000  0.30763000  0.73150000  1.0
  H  H4  1  0.95698000  0.69238000  0.23150000  1.0
  H  H5  1  0.54301000  0.69238000  0.26849000  1.0
  H  H6  1  0.90544000  0.30548000  0.65121000  1.0
  H  H7  1  0.59456000  0.30548000  0.84879000  1.0
  H  H8  1  0.09455000  0.69453000  0.34879000  1.0
  H  H9  1  0.40544000  0.69453000  0.15120000  1.0
  H  H10  1  0.96283000  0.46545000  0.71729000  1.0
  H  H11  1  0.53716000  0.46545000  0.78271000  1.0
  H  H12  1  0.03717000  0.53456000  0.28271000  1.0
  H  H13  1  0.46283000  0.53456000  0.21729000  1.0
  H  H14  1  0.38922000  0.51840000  0.52668000  1.0
  H  H15  1  0.11077000  0.51839000  0.97332000  1.0
  H  H16  1  0.61078000  0.48161000  0.47333000  1.0
  H  H17  1  0.88922000  0.48160000  0.02667000  1.0
  H  H18  1  0.26251000  0.30888000  0.38846000  1.0
  H  H19  1  0.23749000  0.30886000  0.11154000  1.0
  H  H20  1  0.73750000  0.69113000  0.61154000  1.0
  H  H21  1  0.76250000  0.69112000  0.88846000  1.0
  H  H22  1  0.02031000  0.19538000  0.37933000  1.0
  H  H23  1  0.47969000  0.19537000  0.12067000  1.0
  H  H24  1  0.97968000  0.80465000  0.62066000  1.0
  H  H25  1  0.52031000  0.80465000  0.87934000  1.0
  H  H26  1  0.90932000  0.22660000  0.48512000  1.0
  H  H27  1  0.59068000  0.22660000  0.01488000  1.0
  H  H28  1  0.09068000  0.77342000  0.51488000  1.0
  H  H29  1  0.40932000  0.77342000  0.98512000  1.0
  H  H30  1  0.16324000  0.02237000  0.50385000  1.0
  H  H31  1  0.33677000  0.02237000  0.99615000  1.0
  H  H32  1  0.83675000  0.97764000  0.49612000  1.0
  H  H33  1  0.66325000  0.97764000  0.00387000  1.0
  H  H34  1  0.06222000  0.05973000  0.61588000  1.0
  H  H35  1  0.43778000  0.05973000  0.88412000  1.0
  H  H36  1  0.93777000  0.94027000  0.38410000  1.0
  H  H37  1  0.56223000  0.94026000  0.11590000  1.0
  C  C38  1  0.99887000  0.36336000  0.69114000  1.0
  C  C39  1  0.50112000  0.36336000  0.80886000  1.0
  C  C40  1  0.00112000  0.63665000  0.30886000  1.0
  C  C41  1  0.49888000  0.63664000  0.19114000  1.0
  C  C42  1  0.10940000  0.38020000  0.61320000  1.0
  C  C43  1  0.39060000  0.38020000  0.88680000  1.0
  C  C44  1  0.89060000  0.61980000  0.38680000  1.0
  C  C45  1  0.60939000  0.61979000  0.11320000  1.0
  C  C46  1  0.29673000  0.45443000  0.53612000  1.0
  C  C47  1  0.20327000  0.45442000  0.96388000  1.0
  C  C48  1  0.70327000  0.54557000  0.46388000  1.0
  C  C49  1  0.79672000  0.54556000  0.03611000  1.0
  C  C50  1  0.23486000  0.35099000  0.46747000  1.0
  C  C51  1  0.26514000  0.35099000  0.03252000  1.0
  C  C52  1  0.76514000  0.64902000  0.53253000  1.0
  C  C53  1  0.73485000  0.64901000  0.96746000  1.0
  C  C54  1  0.01835000  0.19636000  0.47134000  1.0
  C  C55  1  0.48165000  0.19636000  0.02866000  1.0
  C  C56  1  0.98164000  0.80365000  0.52865000  1.0
  C  C57  1  0.51836000  0.80365000  0.97134000  1.0
  C  C58  1  0.05607000  0.05408000  0.52289000  1.0
  C  C59  1  0.44394000  0.05408000  0.97711000  1.0
  C  C60  1  0.94392000  0.94593000  0.47709000  1.0
  C  C61  1  0.55608000  0.94592000  0.02291000  1.0
  C  C62  1  0.07199000  0.77112000  0.85457000  1.0
  C  C63  1  0.42800000  0.77112000  0.64543000  1.0
  C  C64  1  0.92798000  0.22886000  0.14542000  1.0
  C  C65  1  0.57202000  0.22886000  0.35458000  1.0
  C  C66  1  0.03313000  0.88806000  0.92994000  1.0
  C  C67  1  0.46688000  0.88807000  0.57007000  1.0
  C  C68  1  0.96688000  0.11192000  0.07006000  1.0
  C  C69  1  0.53313000  0.11192000  0.42994000  1.0
  C  C70  1  0.07729000  0.88772000  0.04653000  1.0
  C  C71  1  0.42273000  0.88772000  0.45347000  1.0
  C  C72  1  0.92273000  0.11228000  0.95346000  1.0
  C  C73  1  0.57728000  0.11228000  0.54654000  1.0
  C  C74  1  0.04495000  0.99729000  0.11517000  1.0
  C  C75  1  0.45508000  0.99729000  0.38483000  1.0
  C  C76  1  0.95507000  0.00271000  0.88482000  1.0
  C  C77  1  0.54493000  0.00271000  0.61518000  1.0
  N  N78  1  0.21822000  0.47164000  0.62592000  1.0
  N  N79  1  0.28177000  0.47164000  0.87408000  1.0
  N  N80  1  0.78178000  0.52836000  0.37408000  1.0
  N  N81  1  0.71822000  0.52835000  0.12592000  1.0
  N  N82  1  0.11720000  0.30564000  0.51678000  1.0
  N  N83  1  0.38280000  0.30564000  0.98322000  1.0
  N  N84  1  0.88280000  0.69436000  0.48322000  1.0
  N  N85  1  0.61719000  0.69435000  0.01678000  1.0
  O  O86  1  0.20852000  0.75619000  0.85627000  1.0
  O  O87  1  0.29148000  0.75620000  0.64373000  1.0
  O  O88  1  0.79146000  0.24377000  0.14372000  1.0
  O  O89  1  0.70854000  0.24378000  0.35628000  1.0
  O  O90  1  0.97531000  0.70183000  0.79869000  1.0
  O  O91  1  0.52469000  0.70182000  0.70130000  1.0
  O  O92  1  0.02465000  0.29817000  0.20130000  1.0
  O  O93  1  0.47535000  0.29818000  0.29871000  1.0
  F  F94  1  0.15238000  0.77814000  0.09537000  1.0
  F  F95  1  0.34764000  0.77813000  0.40463000  1.0
  F  F96  1  0.84763000  0.22186000  0.90463000  1.0
  F  F97  1  0.65237000  0.22186000  0.59537000  1.0
  F  F98  1  0.08793000  0.98985000  0.22843000  1.0
  F  F99  1  0.41211000  0.98984000  0.27157000  1.0
  F  F100  1  0.91209000  0.01016000  0.77157000  1.0
  F  F101  1  0.58789000  0.01016000  0.72844000  1.0
