# generated using pymatgen
data_CuMo8H12C18(N7O13)2
_symmetry_space_group_name_H-M   'P 1'
_cell_length_a   7.88694000
_cell_length_b   11.94470000
_cell_length_c   12.03590000
_cell_angle_alpha   94.25100000
_cell_angle_beta   101.52300000
_cell_angle_gamma   101.48400000
_symmetry_Int_Tables_number   1
_chemical_formula_structural   CuMo8H12C18(N7O13)2
_chemical_formula_sum   'Cu1 Mo8 H12 C18 N14 O26'
_cell_volume   1081.08559419
_cell_formula_units_Z   1
loop_
 _symmetry_equiv_pos_site_id
 _symmetry_equiv_pos_as_xyz
  1  'x, y, z'
loop_
 _atom_site_type_symbol
 _atom_site_label
 _atom_site_symmetry_multiplicity
 _atom_site_fract_x
 _atom_site_fract_y
 _atom_site_fract_z
 _atom_site_occupancy
  Cu  Cu0  1  0.50023000  0.00007000  0.49997000  1.0
  Mo  Mo1  1  0.46410000  0.08684000  0.22089000  1.0
  Mo  Mo2  1  0.53670000  0.91327000  0.77905000  1.0
  Mo  Mo3  1  0.11823000  0.89321000  0.03326000  1.0
  Mo  Mo4  1  0.88256000  0.10697000  0.96662000  1.0
  Mo  Mo5  1  0.07271000  0.04337000  0.28313000  1.0
  Mo  Mo6  1  0.92816000  0.95681000  0.71681000  1.0
  Mo  Mo7  1  0.71071000  0.88268000  0.09510000  1.0
  Mo  Mo8  1  0.29014000  0.11751000  0.90484000  1.0
  H  H9  1  0.53322000  0.49481000  0.28061000  1.0
  H  H10  1  0.46523000  0.50469000  0.71956000  1.0
  H  H11  1  0.35072000  0.83180000  0.26662000  1.0
  H  H12  1  0.64892000  0.16821000  0.73348000  1.0
  H  H13  1  0.03277000  0.14269000  0.53381000  1.0
  H  H14  1  0.96759000  0.85761000  0.46624000  1.0
  H  H15  1  0.85331000  0.26353000  0.42102000  1.0
  H  H16  1  0.14682000  0.73657000  0.57896000  1.0
  H  H17  1  0.92846000  0.49109000  0.73451000  1.0
  H  H18  1  0.06978000  0.50845000  0.26560000  1.0
  H  H19  1  0.09555000  0.35219000  0.83695000  1.0
  H  H20  1  0.90303000  0.64752000  0.16323000  1.0
  C  C21  1  0.56478000  0.68445000  0.42826000  1.0
  C  C22  1  0.43481000  0.31546000  0.57173000  1.0
  C  C23  1  0.63778000  0.58580000  0.44928000  1.0
  C  C24  1  0.36141000  0.41397000  0.55074000  1.0
  C  C25  1  0.76885000  0.45497000  0.50442000  1.0
  C  C26  1  0.23024000  0.54477000  0.49561000  1.0
  C  C27  1  0.42933000  0.79267000  0.33135000  1.0
  C  C28  1  0.57037000  0.20731000  0.66870000  1.0
  C  C29  1  0.00277000  0.21904000  0.57375000  1.0
  C  C30  1  0.99715000  0.78109000  0.42632000  1.0
  C  C31  1  0.90369000  0.28735000  0.51241000  1.0
  C  C32  1  0.09608000  0.71266000  0.48760000  1.0
  C  C33  1  0.87551000  0.38608000  0.57018000  1.0
  C  C34  1  0.12371000  0.61374000  0.42985000  1.0
  C  C35  1  0.94759000  0.41455000  0.68795000  1.0
  C  C36  1  0.05118000  0.58517000  0.31215000  1.0
  C  C37  1  0.04107000  0.34049000  0.74506000  1.0
  C  C38  1  0.95787000  0.65933000  0.25509000  1.0
  N  N39  1  0.60872000  0.49914000  0.36081000  1.0
  N  N40  1  0.39003000  0.50048000  0.63929000  1.0
  N  N41  1  0.68933000  0.41650000  0.39297000  1.0
  N  N42  1  0.30937000  0.58309000  0.60713000  1.0
  N  N43  1  0.73941000  0.55810000  0.54172000  1.0
  N  N44  1  0.25998000  0.44174000  0.45825000  1.0
  N  N45  1  0.50063000  0.84651000  0.44134000  1.0
  N  N46  1  0.49962000  0.15360000  0.55860000  1.0
  N  N47  1  0.06381000  0.24895000  0.68481000  1.0
  N  N48  1  0.93567000  0.75107000  0.31530000  1.0
  N  N49  1  0.58589000  0.77994000  0.50288000  1.0
  N  N50  1  0.41429000  0.22011000  0.49705000  1.0
  N  N51  1  0.46760000  0.69008000  0.32160000  1.0
  N  N52  1  0.53164000  0.30978000  0.67848000  1.0
  O  O53  1  0.21620000  0.93079000  0.18932000  1.0
  O  O54  1  0.78457000  0.06941000  0.81055000  1.0
  O  O55  1  0.32627000  0.05961000  0.04794000  1.0
  O  O56  1  0.67455000  0.94059000  0.95197000  1.0
  O  O57  1  0.27147000  0.14779000  0.24936000  1.0
  O  O58  1  0.72936000  0.85240000  0.75055000  1.0
  O  O59  1  0.54026000  0.05292000  0.36469000  1.0
  O  O60  1  0.46047000  0.94721000  0.63528000  1.0
  O  O61  1  0.60465000  0.20954000  0.20996000  1.0
  O  O62  1  0.39619000  0.79054000  0.78997000  1.0
  O  O63  1  0.57870000  0.97082000  0.15675000  1.0
  O  O64  1  0.42207000  0.02931000  0.84319000  1.0
  O  O65  1  0.90557000  0.80665000  0.03711000  1.0
  O  O66  1  0.09522000  0.19354000  0.96274000  1.0
  O  O67  1  0.23260000  0.79842000  0.99059000  1.0
  O  O68  1  0.76819000  0.20177000  0.00924000  1.0
  O  O69  1  0.04917000  0.96877000  0.90097000  1.0
  O  O70  1  0.95156000  0.03148000  0.09899000  1.0
  O  O71  1  0.87412000  0.90028000  0.24293000  1.0
  O  O72  1  0.12677000  0.09993000  0.75696000  1.0
  O  O73  1  0.17307000  0.00161000  0.41037000  1.0
  O  O74  1  0.82785000  0.99840000  0.58947000  1.0
  O  O75  1  0.95150000  0.13797000  0.31958000  1.0
  O  O76  1  0.04950000  0.86222000  0.68054000  1.0
  O  O77  1  0.58689000  0.74783000  0.08335000  1.0
  O  O78  1  0.41407000  0.25234000  0.91668000  1.0
