# generated using pymatgen
data_PrH9C10O9
_symmetry_space_group_name_H-M   'P 1'
_cell_length_a   6.67039000
_cell_length_b   10.17790000
_cell_length_c   10.93876042
_cell_angle_alpha   117.72559883
_cell_angle_beta   101.72229191
_cell_angle_gamma   89.99530000
_symmetry_Int_Tables_number   1
_chemical_formula_structural   PrH9C10O9
_chemical_formula_sum   'Pr2 H18 C20 O18'
_cell_volume   639.83051912
_cell_formula_units_Z   2
loop_
 _symmetry_equiv_pos_site_id
 _symmetry_equiv_pos_as_xyz
  1  'x, y, z'
loop_
 _atom_site_type_symbol
 _atom_site_label
 _atom_site_symmetry_multiplicity
 _atom_site_fract_x
 _atom_site_fract_y
 _atom_site_fract_z
 _atom_site_occupancy
  Pr  Pr0  1  0.03990000  0.71058000  0.89145000  1.0
  Pr  Pr1  1  0.53992000  0.18077000  0.89134000  1.0
  H  H2  1  0.03302000  0.46518000  0.26725000  1.0
  H  H3  1  0.53333000  0.80206000  0.26727000  1.0
  H  H4  1  0.21321000  0.64838000  0.51642000  1.0
  H  H5  1  0.71307000  0.86814000  0.51651000  1.0
  H  H6  1  0.08933000  0.00744000  0.42005000  1.0
  H  H7  1  0.58915000  0.41270000  0.42017000  1.0
  H  H8  1  0.99385000  0.05909000  0.25454000  1.0
  H  H9  1  0.49386000  0.19539000  0.25445000  1.0
  H  H10  1  0.74022000  0.99844000  0.25329000  1.0
  H  H11  1  0.24021000  0.25484000  0.25316000  1.0
  H  H12  1  0.46444000  0.66880000  0.78674000  1.0
  H  H13  1  0.96437000  0.11779000  0.78668000  1.0
  H  H14  1  0.36155000  0.79053000  0.75474000  1.0
  H  H15  1  0.86167000  0.96402000  0.75464000  1.0
  H  H16  1  0.19288000  0.40905000  0.80744000  1.0
  H  H17  1  0.69306000  0.39843000  0.80768000  1.0
  H  H18  1  0.98507000  0.36347000  0.68959000  1.0
  H  H19  1  0.48552000  0.32592000  0.68959000  1.0
  C  C20  1  0.98865000  0.78471000  0.24374000  1.0
  C  C21  1  0.48878000  0.45910000  0.24380000  1.0
  C  C22  1  0.97397000  0.63007000  0.19991000  1.0
  C  C23  1  0.47419000  0.56985000  0.19991000  1.0
  C  C24  1  0.05174000  0.58445000  0.30157000  1.0
  C  C25  1  0.55196000  0.71714000  0.30160000  1.0
  C  C26  1  0.14938000  0.68603000  0.43990000  1.0
  C  C27  1  0.64936000  0.75392000  0.44000000  1.0
  C  C28  1  0.16321000  0.83871000  0.48106000  1.0
  C  C29  1  0.66319000  0.64243000  0.48119000  1.0
  C  C30  1  0.07856000  0.88789000  0.38382000  1.0
  C  C31  1  0.57852000  0.49600000  0.38392000  1.0
  C  C32  1  0.85775000  0.97733000  0.19045000  1.0
  C  C33  1  0.35779000  0.21310000  0.19036000  1.0
  C  C34  1  0.77468000  0.99337000  0.05823000  1.0
  C  C35  1  0.27464000  0.06492000  0.05809000  1.0
  C  C36  1  0.87217000  0.51345000  0.05289000  1.0
  C  C37  1  0.37248000  0.53946000  0.05287000  1.0
  C  C38  1  0.27689000  0.95233000  0.62594000  1.0
  C  C39  1  0.77685000  0.67365000  0.62606000  1.0
  O  O40  1  0.90898000  0.82769000  0.14360000  1.0
  O  O41  1  0.40915000  0.31597000  0.14361000  1.0
  O  O42  1  0.72004000  0.12009000  0.07949000  1.0
  O  O43  1  0.22008000  0.95943000  0.07931000  1.0
  O  O44  1  0.76726000  0.88241000  0.93809000  1.0
  O  O45  1  0.26710000  0.05586000  0.93799000  1.0
  O  O46  1  0.85032000  0.54163000  0.94804000  1.0
  O  O47  1  0.35073000  0.40645000  0.94800000  1.0
  O  O48  1  0.80941000  0.38783000  0.03745000  1.0
  O  O49  1  0.30964000  0.64965000  0.03749000  1.0
  O  O50  1  0.41922000  0.91202000  0.69544000  1.0
  O  O51  1  0.91950000  0.78326000  0.69543000  1.0
  O  O52  1  0.23891000  0.08873000  0.67550000  1.0
  O  O53  1  0.73859000  0.58698000  0.67572000  1.0
  O  O54  1  0.33435000  0.71175000  0.78104000  1.0
  O  O55  1  0.83423000  0.06900000  0.78071000  1.0
  O  O56  1  0.10852000  0.43467000  0.73569000  1.0
  O  O57  1  0.60901000  0.30095000  0.73577000  1.0
