# generated using pymatgen
data_NdH11C11O9
_symmetry_space_group_name_H-M   'P 1'
_cell_length_a   7.79781000
_cell_length_b   12.33130000
_cell_length_c   12.97630000
_cell_angle_alpha   91.16730000
_cell_angle_beta   89.99990000
_cell_angle_gamma   89.99990000
_symmetry_Int_Tables_number   1
_chemical_formula_structural   NdH11C11O9
_chemical_formula_sum   'Nd4 H44 C44 O36'
_cell_volume   1247.50487907
_cell_formula_units_Z   4
loop_
 _symmetry_equiv_pos_site_id
 _symmetry_equiv_pos_as_xyz
  1  'x, y, z'
loop_
 _atom_site_type_symbol
 _atom_site_label
 _atom_site_symmetry_multiplicity
 _atom_site_fract_x
 _atom_site_fract_y
 _atom_site_fract_z
 _atom_site_occupancy
  Nd  Nd0  1  0.92312000  0.47507000  0.69018000  1.0
  Nd  Nd1  1  0.42312000  0.52492000  0.80982000  1.0
  Nd  Nd2  1  0.07688000  0.52492000  0.30982000  1.0
  Nd  Nd3  1  0.57688000  0.47507000  0.19018000  1.0
  H  H4  1  0.43034000  0.07568000  0.90123000  1.0
  H  H5  1  0.93034000  0.92433000  0.59877000  1.0
  H  H6  1  0.56966000  0.92433000  0.09877000  1.0
  H  H7  1  0.06966000  0.07568000  0.40123000  1.0
  H  H8  1  0.62287000  0.23622000  0.89848000  1.0
  H  H9  1  0.12287000  0.76378000  0.60152000  1.0
  H  H10  1  0.37713000  0.76378000  0.10152000  1.0
  H  H11  1  0.87713000  0.23622000  0.39848000  1.0
  H  H12  1  0.05851000  0.02289000  0.86145000  1.0
  H  H13  1  0.55851000  0.97712000  0.63855000  1.0
  H  H14  1  0.94149000  0.97712000  0.13855000  1.0
  H  H15  1  0.44149000  0.02289000  0.36145000  1.0
  H  H16  1  0.55008000  0.88791000  0.88215000  1.0
  H  H17  1  0.05008000  0.11209000  0.61785000  1.0
  H  H18  1  0.44992000  0.11209000  0.11785000  1.0
  H  H19  1  0.94992000  0.88791000  0.38215000  1.0
  H  H20  1  0.10901000  0.84162000  0.93002000  1.0
  H  H21  1  0.60901000  0.15838000  0.56997000  1.0
  H  H22  1  0.89099000  0.15838000  0.06997000  1.0
  H  H23  1  0.39099000  0.84162000  0.43003000  1.0
  H  H24  1  0.10501000  0.86770000  0.79518000  1.0
  H  H25  1  0.60500000  0.13229000  0.70482000  1.0
  H  H26  1  0.89499000  0.13230000  0.20482000  1.0
  H  H27  1  0.39500000  0.86770000  0.29518000  1.0
  H  H28  1  0.16947000  0.17164000  0.80325000  1.0
  H  H29  1  0.66947000  0.82836000  0.69675000  1.0
  H  H30  1  0.83053000  0.82836000  0.19675000  1.0
  H  H31  1  0.33053000  0.17164000  0.30325000  1.0
  H  H32  1  0.17885000  0.18112000  0.94130000  1.0
  H  H33  1  0.67885000  0.81888000  0.55870000  1.0
  H  H34  1  0.82115000  0.81888000  0.05870000  1.0
  H  H35  1  0.32115000  0.18112000  0.44130000  1.0
  H  H36  1  0.91211000  0.43526000  0.95633000  1.0
  H  H37  1  0.41211000  0.56474000  0.54367000  1.0
  H  H38  1  0.08789000  0.56474000  0.04367000  1.0
  H  H39  1  0.58789000  0.43526000  0.45633000  1.0
  H  H40  1  0.10044000  0.32724000  0.53270000  1.0
  H  H41  1  0.60044000  0.67276000  0.96729000  1.0
  H  H42  1  0.89956000  0.67276000  0.46730000  1.0
  H  H43  1  0.39956000  0.32724000  0.03270000  1.0
  H  H44  1  0.22174000  0.32279000  0.63034000  1.0
  H  H45  1  0.72174000  0.67721000  0.86966000  1.0
  H  H46  1  0.77826000  0.67721000  0.36966000  1.0
  H  H47  1  0.27826000  0.32279000  0.13034000  1.0
  C  C48  1  0.56795000  0.06414000  0.89162000  1.0
  C  C49  1  0.06795000  0.93586000  0.60838000  1.0
  C  C50  1  0.43205000  0.93586000  0.10838000  1.0
  C  C51  1  0.93205000  0.06414000  0.39162000  1.0
  C  C52  1  0.67473000  0.15464000  0.89095000  1.0
  C  C53  1  0.17473000  0.84537000  0.60905000  1.0
  C  C54  1  0.32527000  0.84537000  0.10905000  1.0
  C  C55  1  0.82527000  0.15463000  0.39095000  1.0
  C  C56  1  0.85137000  0.13921000  0.87810000  1.0
  C  C57  1  0.35137000  0.86079000  0.62190000  1.0
  C  C58  1  0.14863000  0.86079000  0.12190000  1.0
  C  C59  1  0.64863000  0.13922000  0.37810000  1.0
  C  C60  1  0.92129000  0.03478000  0.86946000  1.0
  C  C61  1  0.42129000  0.96522000  0.63054000  1.0
  C  C62  1  0.07871000  0.96522000  0.13054000  1.0
  C  C63  1  0.57871000  0.03478000  0.36946000  1.0
  C  C64  1  0.81017000  0.94535000  0.87078000  1.0
  C  C65  1  0.31017000  0.05465000  0.62922000  1.0
  C  C66  1  0.18983000  0.05465000  0.12922000  1.0
  C  C67  1  0.68983000  0.94535000  0.37078000  1.0
  C  C68  1  0.63277000  0.95916000  0.88094000  1.0
  C  C69  1  0.13277000  0.04084000  0.61907000  1.0
  C  C70  1  0.36723000  0.04084000  0.11907000  1.0
  C  C71  1  0.86723000  0.95916000  0.38094000  1.0
  C  C72  1  0.04553000  0.82031000  0.85654000  1.0
  C  C73  1  0.54553000  0.17969000  0.64346000  1.0
  C  C74  1  0.95446000  0.17969000  0.14346000  1.0
  C  C75  1  0.45447000  0.82031000  0.35654000  1.0
  C  C76  1  0.08069000  0.70169000  0.83049000  1.0
  C  C77  1  0.58068000  0.29830000  0.66951000  1.0
  C  C78  1  0.91931000  0.29830000  0.16951000  1.0
  C  C79  1  0.41932000  0.70169000  0.33049000  1.0
  C  C80  1  0.12940000  0.22012000  0.87172000  1.0
  C  C81  1  0.62940000  0.77988000  0.62828000  1.0
  C  C82  1  0.87060000  0.77988000  0.12828000  1.0
  C  C83  1  0.37060000  0.22012000  0.37172000  1.0
  C  C84  1  0.21364000  0.33000000  0.86171000  1.0
  C  C85  1  0.71364000  0.67000000  0.63829000  1.0
  C  C86  1  0.78636000  0.67000000  0.13829000  1.0
  C  C87  1  0.28636000  0.33000000  0.36171000  1.0
  C  C88  1  0.77457000  0.44724000  0.93966000  1.0
  C  C89  1  0.27457000  0.55276000  0.56034000  1.0
  C  C90  1  0.22543000  0.55276000  0.06034000  1.0
  C  C91  1  0.72543000  0.44724000  0.43966000  1.0
  O  O92  1  0.86553000  0.83989000  0.86223000  1.0
  O  O93  1  0.36552000  0.16011000  0.63777000  1.0
  O  O94  1  0.13448000  0.16011000  0.13777000  1.0
  O  O95  1  0.63447000  0.83989000  0.36223000  1.0
  O  O96  1  0.23848000  0.68024000  0.82376000  1.0
  O  O97  1  0.73848000  0.31976000  0.67624000  1.0
  O  O98  1  0.76152000  0.31976000  0.17624000  1.0
  O  O99  1  0.26152000  0.68024000  0.32376000  1.0
  O  O100  1  0.95687000  0.63544000  0.81720000  1.0
  O  O101  1  0.45687000  0.36456000  0.68280000  1.0
  O  O102  1  0.04313000  0.36456000  0.18280000  1.0
  O  O103  1  0.54313000  0.63544000  0.31720000  1.0
  O  O104  1  0.94840000  0.23200000  0.87598000  1.0
  O  O105  1  0.44840000  0.76800000  0.62402000  1.0
  O  O106  1  0.05160000  0.76800000  0.12402000  1.0
  O  O107  1  0.55160000  0.23200000  0.37598000  1.0
  O  O108  1  0.13658000  0.40801000  0.81770000  1.0
  O  O109  1  0.63658000  0.59199000  0.68229000  1.0
  O  O110  1  0.86342000  0.59198000  0.18229000  1.0
  O  O111  1  0.36342000  0.40801000  0.31770000  1.0
  O  O112  1  0.36597000  0.34004000  0.89460000  1.0
  O  O113  1  0.86597000  0.65996000  0.60540000  1.0
  O  O114  1  0.63403000  0.65995000  0.10540000  1.0
  O  O115  1  0.13403000  0.34004000  0.39461000  1.0
  O  O116  1  0.73221000  0.45609000  0.84478000  1.0
  O  O117  1  0.23221000  0.54390000  0.65522000  1.0
  O  O118  1  0.26779000  0.54390000  0.15522000  1.0
  O  O119  1  0.76779000  0.45609000  0.34478000  1.0
  O  O120  1  0.10057000  0.32789000  0.60892000  1.0
  O  O121  1  0.60057000  0.67211000  0.89108000  1.0
  O  O122  1  0.89943000  0.67211000  0.39108000  1.0
  O  O123  1  0.39943000  0.32789000  0.10892000  1.0
  O  O124  1  0.66891000  0.45206000  0.01226000  1.0
  O  O125  1  0.16891000  0.54794000  0.48774000  1.0
  O  O126  1  0.33109000  0.54794000  0.98774000  1.0
  O  O127  1  0.83109000  0.45206000  0.51226000  1.0
