# generated using pymatgen
data_ZnH12C11N3O5
_symmetry_space_group_name_H-M   'P 1'
_cell_length_a   9.64291000
_cell_length_b   10.93980000
_cell_length_c   10.94690000
_cell_angle_alpha   89.94260000
_cell_angle_beta   90.26040000
_cell_angle_gamma   89.84070000
_symmetry_Int_Tables_number   1
_chemical_formula_structural   ZnH12C11N3O5
_chemical_formula_sum   'Zn2 H24 C22 N6 O10'
_cell_volume   1154.78799188
_cell_formula_units_Z   2
loop_
 _symmetry_equiv_pos_site_id
 _symmetry_equiv_pos_as_xyz
  1  'x, y, z'
loop_
 _atom_site_type_symbol
 _atom_site_label
 _atom_site_symmetry_multiplicity
 _atom_site_fract_x
 _atom_site_fract_y
 _atom_site_fract_z
 _atom_site_occupancy
  Zn  Zn0  1  0.34816000  0.49532000  0.50534000  1.0
  Zn  Zn1  1  0.64632000  0.49937000  0.50113000  1.0
  H  H2  1  0.28021000  0.50242000  0.88521000  1.0
  H  H3  1  0.82155000  0.58371000  0.88691000  1.0
  H  H4  1  0.82035000  0.41960000  0.88843000  1.0
  H  H5  1  0.81942000  0.42027000  0.11450000  1.0
  H  H6  1  0.82099000  0.58429000  0.11485000  1.0
  H  H7  1  0.87284000  0.33302000  0.39858000  1.0
  H  H8  1  0.87304000  0.46955000  0.31184000  1.0
  H  H9  1  0.11514000  0.47117000  0.31173000  1.0
  H  H10  1  0.12063000  0.33362000  0.39712000  1.0
  H  H11  1  0.11771000  0.66509000  0.41521000  1.0
  H  H12  1  0.11721000  0.66987000  0.57740000  1.0
  H  H13  1  0.87324000  0.66457000  0.41421000  1.0
  H  H14  1  0.87308000  0.67052000  0.57518000  1.0
  H  H15  1  0.87347000  0.34084000  0.61555000  1.0
  H  H16  1  0.87313000  0.48300000  0.69212000  1.0
  H  H17  1  0.11924000  0.48379000  0.69312000  1.0
  H  H18  1  0.12051000  0.34103000  0.61750000  1.0
  H  H19  1  0.27942000  0.11593000  0.50128000  1.0
  H  H20  1  0.82034000  0.11378000  0.58103000  1.0
  H  H21  1  0.81987000  0.11398000  0.41715000  1.0
  H  H22  1  0.81922000  0.88642000  0.41733000  1.0
  H  H23  1  0.81942000  0.88649000  0.58103000  1.0
  H  H24  1  0.28156000  0.50442000  0.21022000  1.0
  H  H25  1  0.27889000  0.79089000  0.50079000  1.0
  C  C26  1  0.50234000  0.50374000  0.26008000  1.0
  C  C27  1  0.49867000  0.50304000  0.73933000  1.0
  C  C28  1  0.49798000  0.26154000  0.49914000  1.0
  C  C29  1  0.50068000  0.74059000  0.49897000  1.0
  C  C30  1  0.61880000  0.50340000  0.93808000  1.0
  C  C31  1  0.37415000  0.50391000  0.05973000  1.0
  C  C32  1  0.61823000  0.50396000  0.06088000  1.0
  C  C33  1  0.37674000  0.50271000  0.93605000  1.0
  C  C34  1  0.77459000  0.50235000  0.92858000  1.0
  C  C35  1  0.77393000  0.50285000  0.07321000  1.0
  C  C36  1  0.91572000  0.42566000  0.39374000  1.0
  C  C37  1  0.07620000  0.42600000  0.39384000  1.0
  C  C38  1  0.07598000  0.62149000  0.49747000  1.0
  C  C39  1  0.91599000  0.62147000  0.49666000  1.0
  C  C40  1  0.91629000  0.43368000  0.61400000  1.0
  C  C41  1  0.07691000  0.43376000  0.61471000  1.0
  C  C42  1  0.61792000  0.06293000  0.49880000  1.0
  C  C43  1  0.37299000  0.94118000  0.50015000  1.0
  C  C44  1  0.61719000  0.94002000  0.49867000  1.0
  C  C45  1  0.37577000  0.06493000  0.50052000  1.0
  C  C46  1  0.77366000  0.07276000  0.49900000  1.0
  C  C47  1  0.77297000  0.92798000  0.49897000  1.0
  N  N48  1  0.50032000  0.50265000  0.86550000  1.0
  N  N49  1  0.49846000  0.50405000  0.13372000  1.0
  N  N50  1  0.13005000  0.49400000  0.50194000  1.0
  N  N51  1  0.86307000  0.49410000  0.50132000  1.0
  N  N52  1  0.49949000  0.13542000  0.49963000  1.0
  N  N53  1  0.49721000  0.86713000  0.49926000  1.0
  O  O54  1  0.37807000  0.31264000  0.49995000  1.0
  O  O55  1  0.61605000  0.31497000  0.49772000  1.0
  O  O56  1  0.38200000  0.68461000  0.50035000  1.0
  O  O57  1  0.61824000  0.68867000  0.49722000  1.0
  O  O58  1  0.38380000  0.50250000  0.31627000  1.0
  O  O59  1  0.61658000  0.50464000  0.68598000  1.0
  O  O60  1  0.62014000  0.50470000  0.31192000  1.0
  O  O61  1  0.37876000  0.50178000  0.68824000  1.0
  O  O62  1  0.25289000  0.50547000  0.12033000  1.0
  O  O63  1  0.25140000  0.88089000  0.50046000  1.0
