# generated using pymatgen
data_Zn4H4C24S4N2O17F2
_symmetry_space_group_name_H-M   'P 1'
_cell_length_a   19.64330000
_cell_length_b   19.64790000
_cell_length_c   33.35410000
_cell_angle_alpha   79.04880000
_cell_angle_beta   79.06300000
_cell_angle_gamma   63.79960000
_symmetry_Int_Tables_number   1
_chemical_formula_structural   Zn4H4C24S4N2O17F2
_chemical_formula_sum   'Zn16 H16 C96 S16 N8 O68 F8'
_cell_volume   11257.85973107
_cell_formula_units_Z   4
loop_
 _symmetry_equiv_pos_site_id
 _symmetry_equiv_pos_as_xyz
  1  'x, y, z'
loop_
 _atom_site_type_symbol
 _atom_site_label
 _atom_site_symmetry_multiplicity
 _atom_site_fract_x
 _atom_site_fract_y
 _atom_site_fract_z
 _atom_site_occupancy
  Zn  Zn0  1  0.05489000  0.40170000  0.47719000  1.0
  Zn  Zn1  1  0.98707000  0.48310000  0.56004000  1.0
  Zn  Zn2  1  0.05725000  0.56363000  0.48185000  1.0
  Zn  Zn3  1  0.89997000  0.55446000  0.47911000  1.0
  Zn  Zn4  1  0.69485000  0.34935000  0.27169000  1.0
  Zn  Zn5  1  0.68851000  0.19107000  0.26575000  1.0
  Zn  Zn6  1  0.77114000  0.26482000  0.18957000  1.0
  Zn  Zn7  1  0.84789000  0.19415000  0.27286000  1.0
  Zn  Zn8  1  0.26763000  0.76580000  0.68862000  1.0
  Zn  Zn9  1  0.35024000  0.69558000  0.77038000  1.0
  Zn  Zn10  1  0.19452000  0.84872000  0.77046000  1.0
  Zn  Zn11  1  0.19213000  0.68711000  0.76596000  1.0
  Zn  Zn12  1  0.56100000  0.06033000  0.98288000  1.0
  Zn  Zn13  1  0.40191000  0.05390000  0.97710000  1.0
  Zn  Zn14  1  0.55782000  0.90003000  0.97805000  1.0
  Zn  Zn15  1  0.48415000  0.98197000  0.05956000  1.0
  H  H16  1  0.74708000  0.45343000  0.35012000  1.0
  H  H17  1  0.00055000  0.29925000  0.39955000  1.0
  H  H18  1  0.20517000  0.69778000  0.59830000  1.0
  H  H19  1  0.04835000  0.55153000  0.64900000  1.0
  H  H20  1  0.46286000  0.24018000  0.34200000  1.0
  H  H21  1  0.48311000  0.70158000  0.59972000  1.0
  H  H22  1  0.20463000  0.97920000  0.59996000  1.0
  H  H23  1  0.95188000  0.96318000  0.34171000  1.0
  H  H24  1  0.64968000  0.15293000  0.04822000  1.0
  H  H25  1  0.59649000  0.10511000  0.19971000  1.0
  H  H26  1  0.54391000  0.76891000  0.14840000  1.0
  H  H27  1  0.16068000  0.14316000  0.04103000  1.0
  H  H28  1  0.29959000  0.99806000  0.90078000  1.0
  H  H29  1  0.45062000  0.74444000  0.85113000  1.0
  H  H30  1  0.29819000  0.28328000  0.90312000  1.0
  H  H31  1  0.78755000  0.01212000  0.90590000  1.0
  C  C32  1  0.06448000  0.31720000  0.55925000  1.0
  C  C33  1  0.07004000  0.57151000  0.56679000  1.0
  C  C34  1  0.18018000  0.44206000  0.43756000  1.0
  C  C35  1  0.93506000  0.68285000  0.43845000  1.0
  C  C36  1  0.92818000  0.43133000  0.43197000  1.0
  C  C37  1  0.82115000  0.56018000  0.56198000  1.0
  C  C38  1  0.56708000  0.31016000  0.31283000  1.0
  C  C39  1  0.67817000  0.18758000  0.17911000  1.0
  C  C40  1  0.69356000  0.43120000  0.18906000  1.0
  C  C41  1  0.93572000  0.18499000  0.19120000  1.0
  C  C42  1  0.81732000  0.31870000  0.32011000  1.0
  C  C43  1  0.81221000  0.06340000  0.30790000  1.0
  C  C44  1  0.43487000  0.69132000  0.68689000  1.0
  C  C45  1  0.31835000  0.81859000  0.81874000  1.0
  C  C46  1  0.18719000  0.93336000  0.68693000  1.0
  C  C47  1  0.06753000  0.81032000  0.80863000  1.0
  C  C48  1  0.18671000  0.67460000  0.68046000  1.0
  C  C49  1  0.31065000  0.56969000  0.81229000  1.0
  C  C50  1  0.43740000  0.18404000  0.93812000  1.0
  C  C51  1  0.43314000  0.92594000  0.93153000  1.0
  C  C52  1  0.68538000  0.94019000  0.93782000  1.0
  C  C53  1  0.56291000  0.81507000  0.06155000  1.0
  C  C54  1  0.56867000  0.06950000  0.06902000  1.0
  C  C55  1  0.31597000  0.06251000  0.06005000  1.0
  C  C56  1  0.89884000  0.40449000  0.40271000  1.0
  C  C57  1  0.84762000  0.34691000  0.34816000  1.0
  C  C58  1  0.82742000  0.44695000  0.38793000  1.0
  C  C59  1  0.91943000  0.30481000  0.36258000  1.0
  C  C60  1  0.80247000  0.41910000  0.36120000  1.0
  C  C61  1  0.94458000  0.33294000  0.38905000  1.0
  C  C62  1  0.10001000  0.59943000  0.59517000  1.0
  C  C63  1  0.15590000  0.64755000  0.65204000  1.0
  C  C64  1  0.14434000  0.64132000  0.58183000  1.0
  C  C65  1  0.11111000  0.60613000  0.66537000  1.0
  C  C66  1  0.17142000  0.66503000  0.60951000  1.0
  C  C67  1  0.08347000  0.58289000  0.63771000  1.0
  C  C68  1  0.30596000  0.45508000  0.40298000  1.0
  C  C69  1  0.44643000  0.29694000  0.35000000  1.0
  C  C70  1  0.25837000  0.41734000  0.41537000  1.0
  C  C71  1  0.49200000  0.33619000  0.33795000  1.0
  C  C72  1  0.37809000  0.34108000  0.37337000  1.0
  C  C73  1  0.37356000  0.41267000  0.37840000  1.0
  C  C74  1  0.72874000  0.58064000  0.63088000  1.0
  C  C75  1  0.52705000  0.67379000  0.62031000  1.0
  C  C76  1  0.74706000  0.58811000  0.58829000  1.0
  C  C77  1  0.51075000  0.66549000  0.66268000  1.0
  C  C78  1  0.60687000  0.64176000  0.60885000  1.0
  C  C79  1  0.64899000  0.60983000  0.64283000  1.0
  C  C80  1  0.07132000  0.22615000  0.62800000  1.0
  C  C81  1  0.17406000  0.02390000  0.61995000  1.0
  C  C82  1  0.08304000  0.24314000  0.58548000  1.0
  C  C83  1  0.16192000  0.00892000  0.66227000  1.0
  C  C84  1  0.14148000  0.10344000  0.60767000  1.0
  C  C85  1  0.10560000  0.14679000  0.64099000  1.0
  C  C86  1  0.83687000  0.80395000  0.39874000  1.0
  C  C87  1  0.90551000  0.94521000  0.34780000  1.0
  C  C88  1  0.90630000  0.75935000  0.41441000  1.0
  C  C89  1  0.83587000  0.98834000  0.33289000  1.0
  C  C90  1  0.90587000  0.87728000  0.37132000  1.0
  C  C91  1  0.83660000  0.87061000  0.37356000  1.0
  C  C92  1  0.65047000  0.15868000  0.15001000  1.0
  C  C93  1  0.59563000  0.09947000  0.09795000  1.0
  C  C94  1  0.66456000  0.17110000  0.10687000  1.0
  C  C95  1  0.58143000  0.08721000  0.14109000  1.0
  C  C96  1  0.63785000  0.14232000  0.08149000  1.0
  C  C97  1  0.60820000  0.11587000  0.16646000  1.0
  C  C98  1  0.67547000  0.52212000  0.11973000  1.0
  C  C99  1  0.57521000  0.72428000  0.12841000  1.0
  C  C100  1  0.66499000  0.50474000  0.16231000  1.0
  C  C101  1  0.58785000  0.73947000  0.08612000  1.0
  C  C102  1  0.60854000  0.64470000  0.14057000  1.0
  C  C103  1  0.64508000  0.60168000  0.10715000  1.0
  C  C104  1  0.08520000  0.11634000  0.17901000  1.0
  C  C105  1  0.16989000  0.12543000  0.07320000  1.0
  C  C106  1  0.01203000  0.15567000  0.16702000  1.0
  C  C107  1  0.24174000  0.08669000  0.08602000  1.0
  C  C108  1  0.11295000  0.13737000  0.10742000  1.0
  C  C109  1  0.14311000  0.10712000  0.14532000  1.0
  C  C110  1  0.34580000  0.84689000  0.84826000  1.0
  C  C111  1  0.40482000  0.89620000  0.90317000  1.0
  C  C112  1  0.30432000  0.91829000  0.86319000  1.0
  C  C113  1  0.44601000  0.82446000  0.88856000  1.0
  C  C114  1  0.33295000  0.94239000  0.88990000  1.0
  C  C115  1  0.41734000  0.80030000  0.86184000  1.0
  C  C116  1  0.40410000  0.45348000  0.85698000  1.0
  C  C117  1  0.34307000  0.30301000  0.89888000  1.0
  C  C118  1  0.33561000  0.49711000  0.84016000  1.0
  C  C119  1  0.41228000  0.26041000  0.91437000  1.0
  C  C120  1  0.34077000  0.37317000  0.87748000  1.0
  C  C121  1  0.40822000  0.38206000  0.87745000  1.0
  C  C122  1  0.94863000  0.79216000  0.85044000  1.0
  C  C123  1  0.80461000  0.95454000  0.89894000  1.0
  C  C124  1  0.99440000  0.83136000  0.83591000  1.0
  C  C125  1  0.76017000  0.91434000  0.91251000  1.0
  C  C126  1  0.87280000  0.91004000  0.87561000  1.0
  C  C127  1  0.87847000  0.83715000  0.87227000  1.0
  S  S128  1  0.29814000  0.32867000  0.39785000  1.0
  S  S129  1  0.45242000  0.42648000  0.35428000  1.0
  S  S130  1  0.66616000  0.63330000  0.56305000  1.0
  S  S131  1  0.59123000  0.61834000  0.68879000  1.0
  S  S132  1  0.13404000  0.16131000  0.56138000  1.0
  S  S133  1  0.11228000  0.09040000  0.68738000  1.0
  S  S134  1  0.97029000  0.80054000  0.39917000  1.0
  S  S135  1  0.77123000  0.94683000  0.34652000  1.0
  S  S136  1  0.61514000  0.58643000  0.18668000  1.0
  S  S137  1  0.64022000  0.65837000  0.06093000  1.0
  S  S138  1  0.01451000  0.17898000  0.11420000  1.0
  S  S139  1  0.24104000  0.06546000  0.13924000  1.0
  S  S140  1  0.27514000  0.45150000  0.85105000  1.0
  S  S141  1  0.47492000  0.30434000  0.90298000  1.0
  S  S142  1  0.95227000  0.92262000  0.85038000  1.0
  S  S143  1  0.79976000  0.82351000  0.89682000  1.0
  N  N144  1  0.29493000  0.52746000  0.41466000  1.0
  N  N145  1  0.78129000  0.55222000  0.66197000  1.0
  N  N146  1  0.02542000  0.27996000  0.65771000  1.0
  N  N147  1  0.76774000  0.79101000  0.40820000  1.0
  N  N148  1  0.70872000  0.46843000  0.08913000  1.0
  N  N149  1  0.10502000  0.08143000  0.22027000  1.0
  N  N150  1  0.46555000  0.47584000  0.85733000  1.0
  N  N151  1  0.96844000  0.71221000  0.84768000  1.0
  O  O152  1  0.00042000  0.49993000  0.49943000  1.0
  O  O153  1  0.06533000  0.31531000  0.52096000  1.0
  O  O154  1  0.02203000  0.54395000  0.58366000  1.0
  O  O155  1  0.14083000  0.51303000  0.43949000  1.0
  O  O156  1  0.05201000  0.37475000  0.57633000  1.0
  O  O157  1  0.15888000  0.38821000  0.45166000  1.0
  O  O158  1  0.09484000  0.57665000  0.52871000  1.0
  O  O159  1  0.99319000  0.66634000  0.45665000  1.0
  O  O160  1  0.88039000  0.48792000  0.45045000  1.0
  O  O161  1  0.90231000  0.64005000  0.43785000  1.0
  O  O162  1  0.99919000  0.39405000  0.43618000  1.0
  O  O163  1  0.87853000  0.50701000  0.57766000  1.0
  O  O164  1  0.81907000  0.59169000  0.52458000  1.0
  O  O165  1  0.74973000  0.25029000  0.25000000  1.0
  O  O166  1  0.60035000  0.35504000  0.30688000  1.0
  O  O167  1  0.66438000  0.16669000  0.21729000  1.0
  O  O168  1  0.74761000  0.37398000  0.17363000  1.0
  O  O169  1  0.59180000  0.24573000  0.29942000  1.0
  O  O170  1  0.66187000  0.43320000  0.22638000  1.0
  O  O171  1  0.71265000  0.22997000  0.16381000  1.0
  O  O172  1  0.87966000  0.20466000  0.17069000  1.0
  O  O173  1  0.85249000  0.24845000  0.31498000  1.0
  O  O174  1  0.93184000  0.19057000  0.22895000  1.0
  O  O175  1  0.75773000  0.36789000  0.30398000  1.0
  O  O176  1  0.74412000  0.09332000  0.29818000  1.0
  O  O177  1  0.86130000  0.09167000  0.29856000  1.0
  O  O178  1  0.25075000  0.74965000  0.74886000  1.0
  O  O179  1  0.37677000  0.72120000  0.66706000  1.0
  O  O180  1  0.35913000  0.74951000  0.81148000  1.0
  O  O181  1  0.16724000  0.93340000  0.72576000  1.0
  O  O182  1  0.43462000  0.68136000  0.72595000  1.0
  O  O183  1  0.22615000  0.87538000  0.66749000  1.0
  O  O184  1  0.25779000  0.86523000  0.80315000  1.0
  O  O185  1  0.10228000  0.85263000  0.80769000  1.0
  O  O186  1  0.18245000  0.64856000  0.71837000  1.0
  O  O187  1  0.08807000  0.75511000  0.78790000  1.0
  O  O188  1  0.21536000  0.72183000  0.66381000  1.0
  O  O189  1  0.36149000  0.59158000  0.79370000  1.0
  O  O190  1  0.23915000  0.60231000  0.80845000  1.0
  O  O191  1  0.50071000  0.99973000  0.99923000  1.0
  O  O192  1  0.50444000  0.15602000  0.94911000  1.0
  O  O193  1  0.38925000  0.99314000  0.94094000  1.0
  O  O194  1  0.65360000  0.89390000  0.94489000  1.0
  O  O195  1  0.39057000  0.15301000  0.94557000  1.0
  O  O196  1  0.65936000  0.00549000  0.95049000  1.0
  O  O197  1  0.49782000  0.88267000  0.94381000  1.0
  O  O198  1  0.58362000  0.81529000  0.02281000  1.0
  O  O199  1  0.53469000  0.02684000  0.08469000  1.0
  O  O200  1  0.52311000  0.87302000  0.08097000  1.0
  O  O201  1  0.58267000  0.08940000  0.03073000  1.0
  O  O202  1  0.31501000  0.07636000  0.02116000  1.0
  O  O203  1  0.37476000  0.02910000  0.07947000  1.0
  O  O204  1  0.32641000  0.56355000  0.38943000  1.0
  O  O205  1  0.25929000  0.54658000  0.44833000  1.0
  O  O206  1  0.75786000  0.52580000  0.69589000  1.0
  O  O207  1  0.84213000  0.55901000  0.65370000  1.0
  O  O208  1  0.04533000  0.26024000  0.69295000  1.0
  O  O209  1  0.96967000  0.33816000  0.64696000  1.0
  O  O210  1  0.72293000  0.82028000  0.38148000  1.0
  O  O211  1  0.75627000  0.75586000  0.44170000  1.0
  O  O212  1  0.73994000  0.49052000  0.05646000  1.0
  O  O213  1  0.70136000  0.40790000  0.09641000  1.0
  O  O214  1  0.16784000  0.07467000  0.22746000  1.0
  O  O215  1  0.06148000  0.05825000  0.24427000  1.0
  O  O216  1  0.53010000  0.42205000  0.85966000  1.0
  O  O217  1  0.45015000  0.54400000  0.85716000  1.0
  O  O218  1  0.91343000  0.69692000  0.84733000  1.0
  O  O219  1  0.03589000  0.66547000  0.84782000  1.0
  F  F220  1  0.78075000  0.51741000  0.39873000  1.0
  F  F221  1  0.96741000  0.23547000  0.35068000  1.0
  F  F222  1  0.16140000  0.66107000  0.54134000  1.0
  F  F223  1  0.09238000  0.58828000  0.70586000  1.0
  F  F224  1  0.70529000  0.21123000  0.08841000  1.0
  F  F225  1  0.54068000  0.04699000  0.15967000  1.0
  F  F226  1  0.23417000  0.96635000  0.85227000  1.0
  F  F227  1  0.51563000  0.77618000  0.89990000  1.0
