# generated using pymatgen
data_CoH22C20(NO4)2
_symmetry_space_group_name_H-M   'P 1'
_cell_length_a   8.29241000
_cell_length_b   17.46350000
_cell_length_c   17.46600000
_cell_angle_alpha   119.99400000
_cell_angle_beta   89.98390000
_cell_angle_gamma   89.99910000
_symmetry_Int_Tables_number   1
_chemical_formula_structural   CoH22C20(NO4)2
_chemical_formula_sum   'Co3 H66 C60 N6 O24'
_cell_volume   2190.59641600
_cell_formula_units_Z   3
loop_
 _symmetry_equiv_pos_site_id
 _symmetry_equiv_pos_as_xyz
  1  'x, y, z'
loop_
 _atom_site_type_symbol
 _atom_site_label
 _atom_site_symmetry_multiplicity
 _atom_site_fract_x
 _atom_site_fract_y
 _atom_site_fract_z
 _atom_site_occupancy
  Co  Co0  1  0.00001000  0.47329000  0.00000000  1.0
  Co  Co1  1  0.66666667  0.00000000  0.47334000  1.0
  Co  Co2  1  0.33333333  0.52665000  0.52665000  1.0
  H  H3  1  0.82365000  0.85948000  0.43740000  1.0
  H  H4  1  0.48979000  0.56251000  0.42196000  1.0
  H  H5  1  0.15695000  0.57806000  0.14037000  1.0
  H  H6  1  0.51023000  0.14055000  0.57806000  1.0
  H  H7  1  0.84302000  0.43766000  0.85961000  1.0
  H  H8  1  0.17638000  0.42208000  0.56257000  1.0
  H  H9  1  0.99653000  0.69411000  0.23860000  1.0
  H  H10  1  0.66266000  0.76158000  0.45557000  1.0
  H  H11  1  0.32968000  0.54456000  0.30591000  1.0
  H  H12  1  0.33738000  0.30600000  0.54444000  1.0
  H  H13  1  0.67030000  0.23865000  0.69409000  1.0
  H  H14  1  0.00346000  0.45553000  0.76140000  1.0
  H  H15  1  0.78272000  0.89346000  0.19498000  1.0
  H  H16  1  0.44834000  0.80517000  0.69841000  1.0
  H  H17  1  0.11567000  0.30172000  0.10665000  1.0
  H  H18  1  0.55167000  0.10675000  0.30158000  1.0
  H  H19  1  0.88435000  0.19508000  0.89336000  1.0
  H  H20  1  0.21728000  0.69849000  0.80503000  1.0
  H  H21  1  0.69028000  0.58437000  0.02876000  1.0
  H  H22  1  0.35690000  0.97129000  0.55576000  1.0
  H  H23  1  0.02372000  0.44420000  0.41553000  1.0
  H  H24  1  0.64310000  0.41555000  0.44425000  1.0
  H  H25  1  0.97630000  0.02868000  0.58447000  1.0
  H  H26  1  0.30972000  0.55561000  0.97123000  1.0
  H  H27  1  0.86236000  0.80590000  0.03567000  1.0
  H  H28  1  0.52845000  0.96438000  0.77025000  1.0
  H  H29  1  0.19559000  0.22980000  0.19398000  1.0
  H  H30  1  0.47154000  0.19414000  0.22976000  1.0
  H  H31  1  0.80443000  0.03582000  0.80603000  1.0
  H  H32  1  0.13763000  0.77023000  0.96434000  1.0
  H  H33  1  0.67832000  0.56153000  0.22204000  1.0
  H  H34  1  0.34491000  0.77789000  0.33974000  1.0
  H  H35  1  0.01090000  0.66047000  0.43863000  1.0
  H  H36  1  0.65508000  0.43816000  0.66028000  1.0
  H  H37  1  0.98909000  0.22185000  0.56137000  1.0
  H  H38  1  0.32169000  0.33949000  0.77795000  1.0
  H  H39  1  0.47489000  0.60159000  0.24477000  1.0
  H  H40  1  0.14140000  0.75534000  0.35706000  1.0
  H  H41  1  0.80755000  0.64301000  0.39854000  1.0
  H  H42  1  0.85858000  0.39829000  0.64296000  1.0
  H  H43  1  0.19244000  0.24447000  0.60146000  1.0
  H  H44  1  0.52511000  0.35683000  0.75522000  1.0
  H  H45  1  0.63999000  0.67783000  0.28848000  1.0
  H  H46  1  0.30630000  0.71153000  0.38963000  1.0
  H  H47  1  0.97277000  0.61068000  0.32237000  1.0
  H  H48  1  0.69369000  0.32192000  0.61039000  1.0
  H  H49  1  0.02723000  0.28832000  0.67764000  1.0
  H  H50  1  0.36001000  0.38935000  0.71151000  1.0
  H  H51  1  0.51947000  0.69130000  0.09036000  1.0
  H  H52  1  0.18646000  0.90978000  0.60122000  1.0
  H  H53  1  0.85277000  0.39891000  0.30889000  1.0
  H  H54  1  0.81351000  0.30858000  0.39880000  1.0
  H  H55  1  0.14724000  0.09003000  0.69111000  1.0
  H  H56  1  0.48052000  0.60095000  0.90963000  1.0
  H  H57  1  0.52785000  0.75477000  0.20778000  1.0
  H  H58  1  0.19473000  0.79235000  0.54728000  1.0
  H  H59  1  0.86096000  0.45281000  0.24536000  1.0
  H  H60  1  0.80525000  0.24509000  0.45275000  1.0
  H  H61  1  0.13904000  0.20745000  0.75464000  1.0
  H  H62  1  0.47215000  0.54699000  0.79220000  1.0
  H  H63  1  0.36960000  0.67549000  0.15483000  1.0
  H  H64  1  0.03632000  0.84538000  0.52114000  1.0
  H  H65  1  0.70264000  0.47905000  0.32463000  1.0
  H  H66  1  0.96366000  0.32425000  0.47887000  1.0
  H  H67  1  0.29737000  0.15441000  0.67536000  1.0
  H  H68  1  0.63040000  0.52066000  0.84515000  1.0
  C  C69  1  0.88529000  0.79914000  0.22646000  1.0
  C  C70  1  0.55117000  0.77363000  0.57263000  1.0
  C  C71  1  0.21823000  0.42751000  0.20096000  1.0
  C  C72  1  0.44886000  0.20100000  0.42737000  1.0
  C  C73  1  0.78178000  0.22654000  0.79904000  1.0
  C  C74  1  0.11469000  0.57269000  0.77353000  1.0
  C  C75  1  0.97626000  0.70142000  0.04702000  1.0
  C  C76  1  0.64264000  0.95307000  0.65451000  1.0
  C  C77  1  0.30961000  0.34556000  0.29848000  1.0
  C  C78  1  0.35735000  0.29856000  0.34550000  1.0
  C  C79  1  0.69039000  0.04708000  0.70152000  1.0
  C  C80  1  0.02374000  0.65440000  0.95298000  1.0
  C  C81  1  0.96907000  0.71949000  0.19446000  1.0
  C  C82  1  0.63510000  0.80566000  0.52505000  1.0
  C  C83  1  0.30213000  0.47506000  0.28055000  1.0
  C  C84  1  0.36491000  0.28060000  0.47495000  1.0
  C  C85  1  0.69787000  0.19451000  0.71945000  1.0
  C  C86  1  0.03092000  0.52505000  0.80554000  1.0
  C  C87  1  0.01758000  0.67021000  0.10566000  1.0
  C  C88  1  0.68391000  0.89443000  0.56463000  1.0
  C  C89  1  0.35079000  0.43545000  0.32972000  1.0
  C  C90  1  0.31610000  0.32979000  0.43537000  1.0
  C  C91  1  0.64918000  0.10573000  0.67029000  1.0
  C  C92  1  0.98242000  0.56455000  0.89434000  1.0
  C  C93  1  0.84772000  0.83123000  0.16924000  1.0
  C  C94  1  0.51361000  0.83085000  0.66196000  1.0
  C  C95  1  0.18072000  0.33817000  0.16881000  1.0
  C  C96  1  0.48642000  0.16889000  0.33804000  1.0
  C  C97  1  0.81930000  0.16935000  0.83119000  1.0
  C  C98  1  0.15226000  0.66199000  0.83076000  1.0
  C  C99  1  0.83398000  0.84995000  0.32009000  1.0
  C  C100  1  0.49997000  0.67997000  0.52974000  1.0
  C  C101  1  0.16713000  0.47038000  0.15018000  1.0
  C  C102  1  0.50006000  0.15024000  0.47027000  1.0
  C  C103  1  0.83287000  0.32020000  0.84982000  1.0
  C  C104  1  0.16602000  0.52987000  0.67990000  1.0
  C  C105  1  0.69679000  0.57174000  0.08454000  1.0
  C  C106  1  0.36326000  0.91552000  0.48734000  1.0
  C  C107  1  0.03000000  0.51266000  0.42823000  1.0
  C  C108  1  0.63672000  0.42819000  0.51266000  1.0
  C  C109  1  0.97001000  0.08444000  0.57177000  1.0
  C  C110  1  0.30321000  0.48720000  0.91544000  1.0
  C  C111  1  0.89301000  0.78221000  0.08104000  1.0
  C  C112  1  0.55916000  0.91902000  0.70119000  1.0
  C  C113  1  0.22621000  0.29889000  0.21773000  1.0
  C  C114  1  0.44083000  0.21782000  0.29881000  1.0
  C  C115  1  0.77380000  0.08116000  0.78227000  1.0
  C  C116  1  0.10700000  0.70117000  0.91897000  1.0
  C  C117  1  0.59787000  0.61538000  0.23194000  1.0
  C  C118  1  0.26433000  0.76808000  0.38371000  1.0
  C  C119  1  0.93061000  0.61648000  0.38475000  1.0
  C  C120  1  0.73565000  0.38438000  0.61630000  1.0
  C  C121  1  0.06939000  0.23173000  0.61525000  1.0
  C  C122  1  0.40214000  0.38345000  0.76805000  1.0
  C  C123  1  0.49765000  0.68950000  0.15136000  1.0
  C  C124  1  0.16442000  0.84879000  0.53846000  1.0
  C  C125  1  0.83074000  0.46168000  0.31064000  1.0
  C  C126  1  0.83555000  0.31035000  0.46156000  1.0
  C  C127  1  0.16926000  0.15104000  0.68936000  1.0
  C  C128  1  0.50234000  0.53813000  0.84862000  1.0
  N  N129  1  0.59876000  0.62189000  0.15218000  1.0
  N  N130  1  0.26529000  0.84790000  0.46993000  1.0
  N  N131  1  0.93173000  0.53017000  0.37821000  1.0
  N  N132  1  0.73470000  0.37799000  0.53009000  1.0
  N  N133  1  0.06827000  0.15196000  0.62179000  1.0
  N  N134  1  0.40124000  0.46971000  0.84781000  1.0
  O  O135  1  0.76150000  0.92223000  0.34862000  1.0
  O  O136  1  0.42780000  0.65136000  0.57351000  1.0
  O  O137  1  0.09452000  0.42662000  0.07796000  1.0
  O  O138  1  0.57224000  0.07786000  0.42648000  1.0
  O  O139  1  0.90550000  0.34865000  0.92204000  1.0
  O  O140  1  0.23850000  0.57361000  0.65136000  1.0
  O  O141  1  0.10478000  0.59592000  0.07774000  1.0
  O  O142  1  0.77110000  0.92228000  0.51821000  1.0
  O  O143  1  0.43792000  0.48185000  0.40401000  1.0
  O  O144  1  0.22891000  0.40407000  0.48178000  1.0
  O  O145  1  0.56203000  0.07784000  0.59602000  1.0
  O  O146  1  0.89524000  0.51817000  0.92225000  1.0
  O  O147  1  0.86775000  0.81461000  0.36956000  1.0
  O  O148  1  0.53361000  0.63054000  0.44491000  1.0
  O  O149  1  0.20094000  0.55517000  0.18546000  1.0
  O  O150  1  0.46643000  0.18563000  0.55510000  1.0
  O  O151  1  0.79904000  0.36970000  0.81454000  1.0
  O  O152  1  0.13227000  0.44504000  0.63042000  1.0
  O  O153  1  0.79156000  0.51471000  0.08267000  1.0
  O  O154  1  0.45788000  0.91745000  0.43215000  1.0
  O  O155  1  0.12470000  0.56783000  0.48523000  1.0
  O  O156  1  0.54208000  0.48530000  0.56784000  1.0
  O  O157  1  0.87530000  0.08261000  0.51477000  1.0
  O  O158  1  0.20845000  0.43204000  0.91732000  1.0
