# generated using pymatgen
data_CuH8C4S2I
_symmetry_space_group_name_H-M   'P 1'
_cell_length_a   7.69448000
_cell_length_b   12.79420000
_cell_length_c   15.45360000
_cell_angle_alpha   90.00020000
_cell_angle_beta   89.99960000
_cell_angle_gamma   90.00000000
_symmetry_Int_Tables_number   1
_chemical_formula_structural   CuH8C4S2I
_chemical_formula_sum   'Cu8 H64 C32 S16 I8'
_cell_volume   1521.32526338
_cell_formula_units_Z   8
loop_
 _symmetry_equiv_pos_site_id
 _symmetry_equiv_pos_as_xyz
  1  'x, y, z'
loop_
 _atom_site_type_symbol
 _atom_site_label
 _atom_site_symmetry_multiplicity
 _atom_site_fract_x
 _atom_site_fract_y
 _atom_site_fract_z
 _atom_site_occupancy
  Cu  Cu0  1  0.83808000  0.49676000  0.53729000  1.0
  Cu  Cu1  1  0.66192000  0.50324000  0.03729000  1.0
  Cu  Cu2  1  0.16192000  0.99676000  0.46271000  1.0
  Cu  Cu3  1  0.33808000  0.00324000  0.96271000  1.0
  Cu  Cu4  1  0.16192000  0.50324000  0.46271000  1.0
  Cu  Cu5  1  0.33808000  0.49676000  0.96271000  1.0
  Cu  Cu6  1  0.83808000  0.00324000  0.53729000  1.0
  Cu  Cu7  1  0.66192000  0.99676000  0.03729000  1.0
  H  H8  1  0.97919000  0.35716000  0.69359000  1.0
  H  H9  1  0.52080000  0.64284000  0.19359000  1.0
  H  H10  1  0.02080000  0.85716000  0.30641000  1.0
  H  H11  1  0.47919000  0.14284000  0.80641000  1.0
  H  H12  1  0.02080000  0.64284000  0.30641000  1.0
  H  H13  1  0.47919000  0.35716000  0.80641000  1.0
  H  H14  1  0.97919000  0.14284000  0.69359000  1.0
  H  H15  1  0.52081000  0.85716000  0.19359000  1.0
  H  H16  1  0.81510000  0.41917000  0.75502000  1.0
  H  H17  1  0.68490000  0.58083000  0.25502000  1.0
  H  H18  1  0.18490000  0.91917000  0.24498000  1.0
  H  H19  1  0.31510000  0.08083000  0.74498000  1.0
  H  H20  1  0.18490000  0.58083000  0.24498000  1.0
  H  H21  1  0.31510000  0.41917000  0.74498000  1.0
  H  H22  1  0.81510000  0.08083000  0.75502000  1.0
  H  H23  1  0.68490000  0.91917000  0.25503000  1.0
  H  H24  1  0.67421000  0.25000000  0.78831000  1.0
  H  H25  1  0.82578000  0.75000000  0.28832000  1.0
  H  H26  1  0.32578000  0.75000000  0.21169000  1.0
  H  H27  1  0.17422000  0.25000000  0.71168000  1.0
  H  H28  1  0.89461000  0.25000000  0.82084000  1.0
  H  H29  1  0.60539000  0.75000000  0.32085000  1.0
  H  H30  1  0.10539000  0.75000000  0.17916000  1.0
  H  H31  1  0.39461000  0.25000000  0.67915000  1.0
  H  H32  1  0.90162000  0.25000000  0.54513000  1.0
  H  H33  1  0.59838000  0.75000000  0.04514000  1.0
  H  H34  1  0.09838000  0.75000000  0.45487000  1.0
  H  H35  1  0.40162000  0.25000000  0.95487000  1.0
  H  H36  1  0.68777000  0.25000000  0.50145000  1.0
  H  H37  1  0.81223000  0.75000000  0.00145000  1.0
  H  H38  1  0.31222000  0.75000000  0.49855000  1.0
  H  H39  1  0.18777000  0.25000000  0.99855000  1.0
  H  H40  1  0.53187000  0.58113000  0.67275000  1.0
  H  H41  1  0.96813000  0.41887000  0.17275000  1.0
  H  H42  1  0.46814000  0.08112000  0.32726000  1.0
  H  H43  1  0.03186000  0.91888000  0.82726000  1.0
  H  H44  1  0.46814000  0.41888000  0.32725000  1.0
  H  H45  1  0.03186000  0.58112000  0.82725000  1.0
  H  H46  1  0.53186000  0.91888000  0.67274000  1.0
  H  H47  1  0.96813000  0.08112000  0.17275000  1.0
  H  H48  1  0.73429000  0.64655000  0.68457000  1.0
  H  H49  1  0.76571000  0.35346000  0.18457000  1.0
  H  H50  1  0.26572000  0.14654000  0.31543000  1.0
  H  H51  1  0.23428000  0.85346000  0.81543000  1.0
  H  H52  1  0.26572000  0.35346000  0.31543000  1.0
  H  H53  1  0.23428000  0.64654000  0.81542000  1.0
  H  H54  1  0.73428000  0.85347000  0.68457000  1.0
  H  H55  1  0.76572000  0.14654000  0.18457000  1.0
  H  H56  1  0.48999000  0.75001000  0.74670000  1.0
  H  H57  1  0.01000000  0.24999000  0.24670000  1.0
  H  H58  1  0.51001000  0.25000000  0.25330000  1.0
  H  H59  1  0.98999000  0.75000000  0.75330000  1.0
  H  H60  1  0.37963000  0.75000000  0.64607000  1.0
  H  H61  1  0.12037000  0.25000000  0.14607000  1.0
  H  H62  1  0.62038000  0.25000000  0.35393000  1.0
  H  H63  1  0.87962000  0.75000000  0.85393000  1.0
  H  H64  1  0.80127000  0.75000000  0.44872000  1.0
  H  H65  1  0.69874000  0.25000000  0.94872000  1.0
  H  H66  1  0.19874000  0.25000000  0.55128000  1.0
  H  H67  1  0.30127000  0.74999000  0.05128000  1.0
  H  H68  1  0.88407000  0.75000000  0.55750000  1.0
  H  H69  1  0.61593000  0.25000000  0.05750000  1.0
  H  H70  1  0.11594000  0.25000000  0.44250000  1.0
  H  H71  1  0.38407000  0.75000000  0.94250000  1.0
  C  C72  1  0.84310000  0.35066000  0.71434000  1.0
  C  C73  1  0.65689000  0.64934000  0.21434000  1.0
  C  C74  1  0.15689000  0.85066000  0.28566000  1.0
  C  C75  1  0.34310000  0.14934000  0.78566000  1.0
  C  C76  1  0.15689000  0.64934000  0.28566000  1.0
  C  C77  1  0.34310000  0.35066000  0.78566000  1.0
  C  C78  1  0.84310000  0.14935000  0.71434000  1.0
  C  C79  1  0.65690000  0.85066000  0.21434000  1.0
  C  C80  1  0.80819000  0.25000000  0.76391000  1.0
  C  C81  1  0.69181000  0.75000000  0.26391000  1.0
  C  C82  1  0.19181000  0.75000000  0.23609000  1.0
  C  C83  1  0.30818000  0.25000000  0.73609000  1.0
  C  C84  1  0.76312000  0.25000000  0.56163000  1.0
  C  C85  1  0.73688000  0.75000000  0.06163000  1.0
  C  C86  1  0.23688000  0.75000000  0.43837000  1.0
  C  C87  1  0.26312000  0.25000000  0.93837000  1.0
  C  C88  1  0.60635000  0.65028000  0.65290000  1.0
  C  C89  1  0.89365000  0.34972000  0.15289000  1.0
  C  C90  1  0.39366000  0.15027000  0.34711000  1.0
  C  C91  1  0.10635000  0.84972000  0.84711000  1.0
  C  C92  1  0.39365000  0.34973000  0.34710000  1.0
  C  C93  1  0.10635000  0.65027000  0.84711000  1.0
  C  C94  1  0.60635000  0.84973000  0.65289000  1.0
  C  C95  1  0.89365000  0.15027000  0.15289000  1.0
  C  C96  1  0.50937000  0.75001000  0.67592000  1.0
  C  C97  1  0.99063000  0.25000000  0.17592000  1.0
  C  C98  1  0.49064000  0.25000000  0.32408000  1.0
  C  C99  1  0.00937000  0.75000000  0.82408000  1.0
  C  C100  1  0.76563000  0.75000000  0.51739000  1.0
  C  C101  1  0.73438000  0.25000000  0.01740000  1.0
  C  C102  1  0.23438000  0.25000000  0.48260000  1.0
  C  C103  1  0.26563000  0.75000000  0.98260000  1.0
  S  S104  1  0.70739000  0.36841000  0.61912000  1.0
  S  S105  1  0.79261000  0.63159000  0.11912000  1.0
  S  S106  1  0.29261000  0.86841000  0.38088000  1.0
  S  S107  1  0.20739000  0.13159000  0.88088000  1.0
  S  S108  1  0.29260000  0.63159000  0.38088000  1.0
  S  S109  1  0.20739000  0.36841000  0.88088000  1.0
  S  S110  1  0.70739000  0.13158000  0.61912000  1.0
  S  S111  1  0.79261000  0.86841000  0.11912000  1.0
  S  S112  1  0.64140000  0.63219000  0.53739000  1.0
  S  S113  1  0.85861000  0.36781000  0.03739000  1.0
  S  S114  1  0.35861000  0.13219000  0.46261000  1.0
  S  S115  1  0.14140000  0.86781000  0.96261000  1.0
  S  S116  1  0.35860000  0.36782000  0.46261000  1.0
  S  S117  1  0.14140000  0.63218000  0.96261000  1.0
  S  S118  1  0.64140000  0.86782000  0.53738000  1.0
  S  S119  1  0.85860000  0.13218000  0.03739000  1.0
  I  I120  1  0.88366000  0.43593000  0.37841000  1.0
  I  I121  1  0.61635000  0.56407000  0.87841000  1.0
  I  I122  1  0.11634000  0.93593000  0.62159000  1.0
  I  I123  1  0.38365000  0.06407000  0.12159000  1.0
  I  I124  1  0.11635000  0.56406000  0.62159000  1.0
  I  I125  1  0.38365000  0.43593000  0.12159000  1.0
  I  I126  1  0.88366000  0.06407000  0.37841000  1.0
  I  I127  1  0.61635000  0.93594000  0.87841000  1.0
