# generated using pymatgen
data_ZnH5C12I2NO4
_symmetry_space_group_name_H-M   'P 1'
_cell_length_a   9.61821000
_cell_length_b   10.91820000
_cell_length_c   11.00190000
_cell_angle_alpha   87.41600000
_cell_angle_beta   88.62180000
_cell_angle_gamma   85.52680000
_symmetry_Int_Tables_number   1
_chemical_formula_structural   ZnH5C12I2NO4
_chemical_formula_sum   'Zn2 H10 C24 I4 N2 O8'
_cell_volume   1150.41337923
_cell_formula_units_Z   2
loop_
 _symmetry_equiv_pos_site_id
 _symmetry_equiv_pos_as_xyz
  1  'x, y, z'
loop_
 _atom_site_type_symbol
 _atom_site_label
 _atom_site_symmetry_multiplicity
 _atom_site_fract_x
 _atom_site_fract_y
 _atom_site_fract_z
 _atom_site_occupancy
  Zn  Zn0  1  0.36078000  0.50363000  0.50684000  1.0
  Zn  Zn1  1  0.64716000  0.49692000  0.50445000  1.0
  H  H2  1  0.29650000  0.25211000  0.65431000  1.0
  H  H3  1  0.24157000  0.80430000  0.64282000  1.0
  H  H4  1  0.08017000  0.16768000  0.73504000  1.0
  H  H5  1  0.05095000  0.94315000  0.72420000  1.0
  H  H6  1  0.36066000  0.64399000  0.11254000  1.0
  H  H7  1  0.35841000  0.63653000  0.88541000  1.0
  H  H8  1  0.87145000  0.54735000  0.31979000  1.0
  H  H9  1  0.87009000  0.43086000  0.68440000  1.0
  H  H10  1  0.13781000  0.55334000  0.32236000  1.0
  H  H11  1  0.13565000  0.44008000  0.68757000  1.0
  C  C12  1  0.50151000  0.48080000  0.74385000  1.0
  C  C13  1  0.50379000  0.50076000  0.27017000  1.0
  C  C14  1  0.42138000  0.57135000  0.06562000  1.0
  C  C15  1  0.42003000  0.56713000  0.93977000  1.0
  C  C16  1  0.93196000  0.52338000  0.40116000  1.0
  C  C17  1  0.93118000  0.45837000  0.60428000  1.0
  C  C18  1  0.07631000  0.52720000  0.40260000  1.0
  C  C19  1  0.07528000  0.46317000  0.60593000  1.0
  C  C20  1  0.51852000  0.26244000  0.52286000  1.0
  C  C21  1  0.49136000  0.73396000  0.53739000  1.0
  C  C22  1  0.28315000  0.15468000  0.64937000  1.0
  C  C23  1  0.25266000  0.90233000  0.64342000  1.0
  C  C24  1  0.16272000  0.10740000  0.69446000  1.0
  C  C25  1  0.14686000  0.98051000  0.68964000  1.0
  C  C26  1  0.38144000  0.94675000  0.60133000  1.0
  C  C27  1  0.39429000  0.07720000  0.60056000  1.0
  C  C28  1  0.52052000  0.12629000  0.55453000  1.0
  C  C29  1  0.50168000  0.86623000  0.56990000  1.0
  C  C30  1  0.63986000  0.04621000  0.54399000  1.0
  C  C31  1  0.63124000  0.91705000  0.56291000  1.0
  C  C32  1  0.57881000  0.38317000  0.94953000  1.0
  C  C33  1  0.57987000  0.38662000  0.07729000  1.0
  C  C34  1  0.50247000  0.48354000  0.13537000  1.0
  C  C35  1  0.50040000  0.47444000  0.88081000  1.0
  I  I36  1  0.83617000  0.10719000  0.48666000  1.0
  I  I37  1  0.81631000  0.80678000  0.60497000  1.0
  I  I38  1  0.68884000  0.24068000  0.85496000  1.0
  I  I39  1  0.68713000  0.24437000  0.18231000  1.0
  N  N40  1  0.14636000  0.49827000  0.50533000  1.0
  N  N41  1  0.86107000  0.48978000  0.50207000  1.0
  O  O42  1  0.38936000  0.45867000  0.69252000  1.0
  O  O43  1  0.38733000  0.53294000  0.32205000  1.0
  O  O44  1  0.61234000  0.51354000  0.69143000  1.0
  O  O45  1  0.62084000  0.48492000  0.32169000  1.0
  O  O46  1  0.40700000  0.31600000  0.47962000  1.0
  O  O47  1  0.37768000  0.68250000  0.55681000  1.0
  O  O48  1  0.62812000  0.31535000  0.54285000  1.0
  O  O49  1  0.59767000  0.68187000  0.48452000  1.0
