# generated using pymatgen
data_Cu2H12C17(SN3)2
_symmetry_space_group_name_H-M   'P 1'
_cell_length_a   5.59275000
_cell_length_b   9.42643540
_cell_length_c   17.67730766
_cell_angle_alpha   75.36486877
_cell_angle_beta   80.96135656
_cell_angle_gamma   72.78212816
_symmetry_Int_Tables_number   1
_chemical_formula_structural   Cu2H12C17(SN3)2
_chemical_formula_sum   'Cu4 H24 C34 S4 N12'
_cell_volume   857.87322207
_cell_formula_units_Z   2
loop_
 _symmetry_equiv_pos_site_id
 _symmetry_equiv_pos_as_xyz
  1  'x, y, z'
loop_
 _atom_site_type_symbol
 _atom_site_label
 _atom_site_symmetry_multiplicity
 _atom_site_fract_x
 _atom_site_fract_y
 _atom_site_fract_z
 _atom_site_occupancy
  Cu  Cu0  1  0.51215000  0.08331000  0.06429000  1.0
  Cu  Cu1  1  0.65866000  0.41714000  0.43596000  1.0
  Cu  Cu2  1  0.48784000  0.91669000  0.93571000  1.0
  Cu  Cu3  1  0.34137000  0.58286000  0.56403000  1.0
  H  H4  1  0.51484000  0.16799000  0.22900000  1.0
  H  H5  1  0.91119000  0.33231000  0.27150000  1.0
  H  H6  1  0.48517000  0.83201000  0.77099000  1.0
  H  H7  1  0.08881000  0.66769000  0.72849000  1.0
  H  H8  1  0.36561000  0.19069000  0.36765000  1.0
  H  H9  1  0.92430000  0.30939000  0.13278000  1.0
  H  H10  1  0.63441000  0.80931000  0.63234000  1.0
  H  H11  1  0.07568000  0.69061000  0.86722000  1.0
  H  H12  1  0.02993000  0.07704000  0.44099000  1.0
  H  H13  1  0.54901000  0.42281000  0.05899000  1.0
  H  H14  1  0.97008000  0.92297000  0.55901000  1.0
  H  H15  1  0.45097000  0.57719000  0.94101000  1.0
  H  H16  1  0.84164000  0.92528000  0.38232000  1.0
  H  H17  1  0.15015000  0.57466000  0.11720000  1.0
  H  H18  1  0.15837000  0.07472000  0.61768000  1.0
  H  H19  1  0.84984000  0.42534000  0.88280000  1.0
  H  H20  1  0.16193000  0.86131000  0.10450000  1.0
  H  H21  1  0.12680000  0.63875000  0.39522000  1.0
  H  H22  1  0.83806000  0.13869000  0.89550000  1.0
  H  H23  1  0.87322000  0.36125000  0.60478000  1.0
  H  H24  1  0.84310000  0.73334000  0.20082000  1.0
  H  H25  1  0.77735000  0.76667000  0.29842000  1.0
  H  H26  1  0.15690000  0.26665000  0.79919000  1.0
  H  H27  1  0.22266000  0.23333000  0.70158000  1.0
  C  C28  1  0.26478000  0.03052000  0.22916000  1.0
  C  C29  1  0.52416000  0.46955000  0.27090000  1.0
  C  C30  1  0.73522000  0.96948000  0.77084000  1.0
  C  C31  1  0.47584000  0.53045000  0.72910000  1.0
  C  C32  1  0.37133000  0.11448000  0.26243000  1.0
  C  C33  1  0.74805000  0.38566000  0.23787000  1.0
  C  C34  1  0.62868000  0.88552000  0.73756000  1.0
  C  C35  1  0.25196000  0.61434000  0.76212000  1.0
  C  C36  1  0.28616000  0.12682000  0.33955000  1.0
  C  C37  1  0.75274000  0.37326000  0.16073000  1.0
  C  C38  1  0.71385000  0.87319000  0.66044000  1.0
  C  C39  1  0.24726000  0.62674000  0.83927000  1.0
  C  C40  1  0.09682000  0.05999000  0.38186000  1.0
  C  C41  1  0.53930000  0.43994000  0.11816000  1.0
  C  C42  1  0.90319000  0.94001000  0.61814000  1.0
  C  C43  1  0.46068000  0.56007000  0.88184000  1.0
  C  C44  1  0.99031000  0.97502000  0.34952000  1.0
  C  C45  1  0.31541000  0.52493000  0.15023000  1.0
  C  C46  1  0.00970000  0.02498000  0.65048000  1.0
  C  C47  1  0.68457000  0.47508000  0.84977000  1.0
  C  C48  1  0.08049000  0.95994000  0.27293000  1.0
  C  C49  1  0.31339000  0.54006000  0.22687000  1.0
  C  C50  1  0.91951000  0.04006000  0.72707000  1.0
  C  C51  1  0.68661000  0.45994000  0.77313000  1.0
  C  C52  1  0.16772000  0.90892000  0.15377000  1.0
  C  C53  1  0.22975000  0.59110000  0.34604000  1.0
  C  C54  1  0.83226000  0.09108000  0.84623000  1.0
  C  C55  1  0.77026000  0.40890000  0.65397000  1.0
  C  C56  1  0.92317000  0.75003000  0.24970000  1.0
  C  C57  1  0.07683000  0.24997000  0.75030000  1.0
  C  C58  1  0.99114000  0.18066000  0.00583000  1.0
  C  C59  1  0.17689000  0.31955000  0.49433000  1.0
  C  C60  1  0.00884000  0.81934000  0.99417000  1.0
  C  C61  1  0.82312000  0.68045000  0.50567000  1.0
  S  S62  1  0.24689000  0.23003000  0.96689000  1.0
  S  S63  1  0.44316000  0.27029000  0.53337000  1.0
  S  S64  1  0.75309000  0.76998000  0.03311000  1.0
  S  S65  1  0.55686000  0.72971000  0.46663000  1.0
  N  N66  1  0.31290000  0.99713000  0.15443000  1.0
  N  N67  1  0.46364000  0.50297000  0.34564000  1.0
  N  N68  1  0.68709000  0.00287000  0.84557000  1.0
  N  N69  1  0.53637000  0.49703000  0.65436000  1.0
  N  N70  1  0.02156000  0.88319000  0.22320000  1.0
  N  N71  1  0.12781000  0.61677000  0.27644000  1.0
  N  N72  1  0.97843000  0.11681000  0.77680000  1.0
  N  N73  1  0.87222000  0.38322000  0.72356000  1.0
  N  N74  1  0.80733000  0.14284000  0.03440000  1.0
  N  N75  1  0.98381000  0.35723000  0.46571000  1.0
  N  N76  1  0.19265000  0.85716000  0.96560000  1.0
  N  N77  1  0.01622000  0.64277000  0.53429000  1.0
