# generated using pymatgen
data_Cu3H8C12N2O9
_symmetry_space_group_name_H-M   'P 1'
_cell_length_a   5.84189000
_cell_length_b   11.42860000
_cell_length_c   11.44250000
_cell_angle_alpha   86.30320000
_cell_angle_beta   79.32180000
_cell_angle_gamma   79.42090000
_symmetry_Int_Tables_number   1
_chemical_formula_structural   Cu3H8C12N2O9
_chemical_formula_sum   'Cu6 H16 C24 N4 O18'
_cell_volume   737.59762917
_cell_formula_units_Z   2
loop_
 _symmetry_equiv_pos_site_id
 _symmetry_equiv_pos_as_xyz
  1  'x, y, z'
loop_
 _atom_site_type_symbol
 _atom_site_label
 _atom_site_symmetry_multiplicity
 _atom_site_fract_x
 _atom_site_fract_y
 _atom_site_fract_z
 _atom_site_occupancy
  Cu  Cu0  1  0.14704000  0.99786000  0.73850000  1.0
  Cu  Cu1  1  0.35302000  0.26162000  0.00284000  1.0
  Cu  Cu2  1  0.85228000  0.00271000  0.26204000  1.0
  Cu  Cu3  1  0.65111000  0.73912000  0.99787000  1.0
  Cu  Cu4  1  0.24841000  0.98638000  0.01494000  1.0
  Cu  Cu5  1  0.74984000  0.01391000  0.98536000  1.0
  H  H6  1  0.05251000  0.84858000  0.90572000  1.0
  H  H7  1  0.44838000  0.09428000  0.15187000  1.0
  H  H8  1  0.94820000  0.15199000  0.09469000  1.0
  H  H9  1  0.54956000  0.90570000  0.84857000  1.0
  H  H10  1  0.11582000  0.23381000  0.81669000  1.0
  H  H11  1  0.38489000  0.18349000  0.76612000  1.0
  H  H12  1  0.88519000  0.76570000  0.18319000  1.0
  H  H13  1  0.61571000  0.81617000  0.23349000  1.0
  H  H14  1  0.17304000  0.72520000  0.54871000  1.0
  H  H15  1  0.32595000  0.45149000  0.27422000  1.0
  H  H16  1  0.82625000  0.27451000  0.45148000  1.0
  H  H17  1  0.67447000  0.54792000  0.72457000  1.0
  H  H18  1  0.82042000  0.75380000  0.71795000  1.0
  H  H19  1  0.67902000  0.28242000  0.24614000  1.0
  H  H20  1  0.17916000  0.24604000  0.28234000  1.0
  H  H21  1  0.32226000  0.71745000  0.75315000  1.0
  C  C22  1  0.20833000  0.85679000  0.34235000  1.0
  C  C23  1  0.29176000  0.65798000  0.14276000  1.0
  C  C24  1  0.79089000  0.14323000  0.65783000  1.0
  C  C25  1  0.70907000  0.34206000  0.85685000  1.0
  C  C26  1  0.99793000  0.85855000  0.43956000  1.0
  C  C27  1  0.50177000  0.56061000  0.14082000  1.0
  C  C28  1  0.00137000  0.14124000  0.56066000  1.0
  C  C29  1  0.49895000  0.43925000  0.85859000  1.0
  C  C30  1  0.01081000  0.78798000  0.54265000  1.0
  C  C31  1  0.48846000  0.45755000  0.21154000  1.0
  C  C32  1  0.98856000  0.21180000  0.45756000  1.0
  C  C33  1  0.51223000  0.54214000  0.78758000  1.0
  C  C34  1  0.81836000  0.80321000  0.63332000  1.0
  C  C35  1  0.68100000  0.36703000  0.19659000  1.0
  C  C36  1  0.18103000  0.19666000  0.36698000  1.0
  C  C37  1  0.32010000  0.63285000  0.80276000  1.0
  C  C38  1  0.61379000  0.88870000  0.62300000  1.0
  C  C39  1  0.88574000  0.37737000  0.11110000  1.0
  C  C40  1  0.38542000  0.11109000  0.37735000  1.0
  C  C41  1  0.11572000  0.62279000  0.88859000  1.0
  C  C42  1  0.60370000  0.95563000  0.51163000  1.0
  C  C43  1  0.89641000  0.48863000  0.04412000  1.0
  C  C44  1  0.39563000  0.04422000  0.48873000  1.0
  C  C45  1  0.10467000  0.51159000  0.95563000  1.0
  N  N46  1  0.80035000  0.93641000  0.42580000  1.0
  N  N47  1  0.69963000  0.57455000  0.06311000  1.0
  N  N48  1  0.19896000  0.06348000  0.57455000  1.0
  N  N49  1  0.30132000  0.42558000  0.93658000  1.0
  O  O50  1  0.06336000  0.93503000  0.90527000  1.0
  O  O51  1  0.43601000  0.09495000  0.06569000  1.0
  O  O52  1  0.93468000  0.06580000  0.09530000  1.0
  O  O53  1  0.55893000  0.90534000  0.93503000  1.0
  O  O54  1  0.25040000  0.16937000  0.83071000  1.0
  O  O55  1  0.75045000  0.83011000  0.16899000  1.0
  O  O56  1  0.17831000  0.92973000  0.25244000  1.0
  O  O57  1  0.32322000  0.74832000  0.07078000  1.0
  O  O58  1  0.82081000  0.07078000  0.74807000  1.0
  O  O59  1  0.67876000  0.25200000  0.92972000  1.0
  O  O60  1  0.40117000  0.79169000  0.35194000  1.0
  O  O61  1  0.09837000  0.64791000  0.20742000  1.0
  O  O62  1  0.59810000  0.20820000  0.64788000  1.0
  O  O63  1  0.90202000  0.35168000  0.79173000  1.0
  O  O64  1  0.45042000  0.90065000  0.71911000  1.0
  O  O65  1  0.04880000  0.28091000  0.09922000  1.0
  O  O66  1  0.54845000  0.09903000  0.28112000  1.0
  O  O67  1  0.95325000  0.71938000  0.90053000  1.0
