# generated using pymatgen
data_CdH10C14N4O3
_symmetry_space_group_name_H-M   'P 1'
_cell_length_a   7.53242000
_cell_length_b   15.13590000
_cell_length_c   25.33430000
_cell_angle_alpha   90.00010000
_cell_angle_beta   89.99990000
_cell_angle_gamma   89.99990000
_symmetry_Int_Tables_number   1
_chemical_formula_structural   CdH10C14N4O3
_chemical_formula_sum   'Cd8 H80 C112 N32 O24'
_cell_volume   2888.36242519
_cell_formula_units_Z   8
loop_
 _symmetry_equiv_pos_site_id
 _symmetry_equiv_pos_as_xyz
  1  'x, y, z'
loop_
 _atom_site_type_symbol
 _atom_site_label
 _atom_site_symmetry_multiplicity
 _atom_site_fract_x
 _atom_site_fract_y
 _atom_site_fract_z
 _atom_site_occupancy
  Cd  Cd0  1  0.00922000  0.36019000  0.72537000  1.0
  Cd  Cd1  1  0.49078000  0.63981000  0.22537000  1.0
  Cd  Cd2  1  0.50921000  0.13981000  0.27463000  1.0
  Cd  Cd3  1  0.99079000  0.86019000  0.77463000  1.0
  Cd  Cd4  1  0.99078000  0.63981000  0.27463000  1.0
  Cd  Cd5  1  0.50922000  0.36019000  0.77463000  1.0
  Cd  Cd6  1  0.49079000  0.86020000  0.72537000  1.0
  Cd  Cd7  1  0.00921000  0.13981000  0.22537000  1.0
  H  H8  1  0.22672000  0.04053000  0.48799000  1.0
  H  H9  1  0.27328000  0.95947000  0.98799000  1.0
  H  H10  1  0.72672000  0.45947000  0.51201000  1.0
  H  H11  1  0.77328000  0.54053000  0.01201000  1.0
  H  H12  1  0.77328000  0.95947000  0.51201000  1.0
  H  H13  1  0.72672000  0.04053000  0.01201000  1.0
  H  H14  1  0.27328000  0.54053000  0.48799000  1.0
  H  H15  1  0.22672000  0.45947000  0.98799000  1.0
  H  H16  1  0.47732000  0.08843000  0.43078000  1.0
  H  H17  1  0.02268000  0.91157000  0.93078000  1.0
  H  H18  1  0.97732000  0.41157000  0.56922000  1.0
  H  H19  1  0.52269000  0.58843000  0.06922000  1.0
  H  H20  1  0.52268000  0.91157000  0.56922000  1.0
  H  H21  1  0.97731000  0.08843000  0.06922000  1.0
  H  H22  1  0.02269000  0.58843000  0.43078000  1.0
  H  H23  1  0.47732000  0.41157000  0.93078000  1.0
  H  H24  1  0.69640000  0.19767000  0.46514000  1.0
  H  H25  1  0.80360000  0.80233000  0.96514000  1.0
  H  H26  1  0.19640000  0.30234000  0.53486000  1.0
  H  H27  1  0.30360000  0.69766000  0.03486000  1.0
  H  H28  1  0.30359000  0.80234000  0.53486000  1.0
  H  H29  1  0.19640000  0.19766000  0.03486000  1.0
  H  H30  1  0.80360000  0.69767000  0.46514000  1.0
  H  H31  1  0.69641000  0.30233000  0.96514000  1.0
  H  H32  1  0.65532000  0.26370000  0.55396000  1.0
  H  H33  1  0.84468000  0.73630000  0.05396000  1.0
  H  H34  1  0.15532000  0.23630000  0.44604000  1.0
  H  H35  1  0.34468000  0.76370000  0.94604000  1.0
  H  H36  1  0.34468000  0.73630000  0.44604000  1.0
  H  H37  1  0.15532000  0.26370000  0.94604000  1.0
  H  H38  1  0.84467000  0.76370000  0.55396000  1.0
  H  H39  1  0.65533000  0.23630000  0.05396000  1.0
  H  H40  1  0.32951000  0.05495000  0.65123000  1.0
  H  H41  1  0.17049000  0.94505000  0.15123000  1.0
  H  H42  1  0.82951000  0.44505000  0.34877000  1.0
  H  H43  1  0.67049000  0.55495000  0.84876000  1.0
  H  H44  1  0.67049000  0.94504000  0.34877000  1.0
  H  H45  1  0.82951000  0.05495000  0.84877000  1.0
  H  H46  1  0.17049000  0.55495000  0.65124000  1.0
  H  H47  1  0.32951000  0.44505000  0.15123000  1.0
  H  H48  1  0.70647000  0.05038000  0.58690000  1.0
  H  H49  1  0.79352000  0.94963000  0.08690000  1.0
  H  H50  1  0.20647000  0.44963000  0.41310000  1.0
  H  H51  1  0.29353000  0.55038000  0.91310000  1.0
  H  H52  1  0.29353000  0.94963000  0.41310000  1.0
  H  H53  1  0.20647000  0.05038000  0.91310000  1.0
  H  H54  1  0.79353000  0.55038000  0.58690000  1.0
  H  H55  1  0.70647000  0.44962000  0.08690000  1.0
  H  H56  1  0.94432000  0.11565000  0.53072000  1.0
  H  H57  1  0.55568000  0.88435000  0.03072000  1.0
  H  H58  1  0.44432000  0.38435000  0.46928000  1.0
  H  H59  1  0.05568000  0.61565000  0.96928000  1.0
  H  H60  1  0.05569000  0.88435000  0.46928000  1.0
  H  H61  1  0.44431000  0.11565000  0.96928000  1.0
  H  H62  1  0.55569000  0.61565000  0.53072000  1.0
  H  H63  1  0.94432000  0.38435000  0.03072000  1.0
  H  H64  1  0.09357000  0.99486000  0.70753000  1.0
  H  H65  1  0.40643000  0.00514000  0.20753000  1.0
  H  H66  1  0.59356000  0.50514000  0.29247000  1.0
  H  H67  1  0.90644000  0.49486000  0.79247000  1.0
  H  H68  1  0.90643000  0.00514000  0.29247000  1.0
  H  H69  1  0.59356000  0.99486000  0.79247000  1.0
  H  H70  1  0.40644000  0.49486000  0.70753000  1.0
  H  H71  1  0.09356000  0.50514000  0.20753000  1.0
  H  H72  1  0.74282000  0.24706000  0.66775000  1.0
  H  H73  1  0.75718000  0.75294000  0.16775000  1.0
  H  H74  1  0.24282000  0.25294000  0.33225000  1.0
  H  H75  1  0.25718000  0.74706000  0.83225000  1.0
  H  H76  1  0.25718000  0.75294000  0.33225000  1.0
  H  H77  1  0.24282000  0.24706000  0.83225000  1.0
  H  H78  1  0.75718000  0.74706000  0.66775000  1.0
  H  H79  1  0.74282000  0.25294000  0.16775000  1.0
  H  H80  1  0.94556000  0.22953000  0.65041000  1.0
  H  H81  1  0.55444000  0.77047000  0.15041000  1.0
  H  H82  1  0.44556000  0.27047000  0.34959000  1.0
  H  H83  1  0.05444000  0.72953000  0.84959000  1.0
  H  H84  1  0.05444000  0.77047000  0.34959000  1.0
  H  H85  1  0.44556000  0.22953000  0.84959000  1.0
  H  H86  1  0.55444000  0.72953000  0.65041000  1.0
  H  H87  1  0.94556000  0.27047000  0.15041000  1.0
  C  C88  1  0.29840000  0.12369000  0.55321000  1.0
  C  C89  1  0.20161000  0.87631000  0.05321000  1.0
  C  C90  1  0.79839000  0.37631000  0.44679000  1.0
  C  C91  1  0.70161000  0.62369000  0.94679000  1.0
  C  C92  1  0.70160000  0.87631000  0.44680000  1.0
  C  C93  1  0.79839000  0.12369000  0.94679000  1.0
  C  C94  1  0.20161000  0.62369000  0.55321000  1.0
  C  C95  1  0.29839000  0.37631000  0.05320000  1.0
  C  C96  1  0.42003000  0.18799000  0.57170000  1.0
  C  C97  1  0.07997000  0.81201000  0.07170000  1.0
  C  C98  1  0.92003000  0.31201000  0.42830000  1.0
  C  C99  1  0.57997000  0.68799000  0.92830000  1.0
  C  C100  1  0.57997000  0.81201000  0.42830000  1.0
  C  C101  1  0.92003000  0.18799000  0.92830000  1.0
  C  C102  1  0.07997000  0.68799000  0.57170000  1.0
  C  C103  1  0.42003000  0.31201000  0.07170000  1.0
  C  C104  1  0.32083000  0.08974000  0.50220000  1.0
  C  C105  1  0.17917000  0.91026000  0.00220000  1.0
  C  C106  1  0.82083000  0.41026000  0.49780000  1.0
  C  C107  1  0.67917000  0.58974000  0.99780000  1.0
  C  C108  1  0.67917000  0.91026000  0.49780000  1.0
  C  C109  1  0.82083000  0.08974000  0.99780000  1.0
  C  C110  1  0.17917000  0.58974000  0.50220000  1.0
  C  C111  1  0.32083000  0.41026000  0.00220000  1.0
  C  C112  1  0.46267000  0.11585000  0.47039000  1.0
  C  C113  1  0.03733000  0.88415000  0.97039000  1.0
  C  C114  1  0.96267000  0.38415000  0.52961000  1.0
  C  C115  1  0.53733000  0.61585000  0.02961000  1.0
  C  C116  1  0.53733000  0.88415000  0.52961000  1.0
  C  C117  1  0.96267000  0.11585000  0.02961000  1.0
  C  C118  1  0.03733000  0.61585000  0.47039000  1.0
  C  C119  1  0.46267000  0.38415000  0.97039000  1.0
  C  C120  1  0.58560000  0.17686000  0.48968000  1.0
  C  C121  1  0.91440000  0.82314000  0.98968000  1.0
  C  C122  1  0.08560000  0.32314000  0.51032000  1.0
  C  C123  1  0.41440000  0.67686000  0.01032000  1.0
  C  C124  1  0.41440000  0.82314000  0.51032000  1.0
  C  C125  1  0.08560000  0.17686000  0.01032000  1.0
  C  C126  1  0.91440000  0.67686000  0.48968000  1.0
  C  C127  1  0.58561000  0.32314000  0.98968000  1.0
  C  C128  1  0.56355000  0.21329000  0.53981000  1.0
  C  C129  1  0.93645000  0.78671000  0.03981000  1.0
  C  C130  1  0.06355000  0.28671000  0.46019000  1.0
  C  C131  1  0.43645000  0.71329000  0.96019000  1.0
  C  C132  1  0.43645000  0.78671000  0.46019000  1.0
  C  C133  1  0.06355000  0.21328000  0.96019000  1.0
  C  C134  1  0.93645000  0.71329000  0.53981000  1.0
  C  C135  1  0.56356000  0.28671000  0.03981000  1.0
  C  C136  1  0.38743000  0.23406000  0.62165000  1.0
  C  C137  1  0.11258000  0.76594000  0.12165000  1.0
  C  C138  1  0.88742000  0.26594000  0.37835000  1.0
  C  C139  1  0.61257000  0.73406000  0.87835000  1.0
  C  C140  1  0.61258000  0.76594000  0.37835000  1.0
  C  C141  1  0.88742000  0.23406000  0.87835000  1.0
  C  C142  1  0.11257000  0.73406000  0.62165000  1.0
  C  C143  1  0.38743000  0.26594000  0.12165000  1.0
  C  C144  1  0.19265000  0.05515000  0.63720000  1.0
  C  C145  1  0.30735000  0.94485000  0.13720000  1.0
  C  C146  1  0.69265000  0.44485000  0.36280000  1.0
  C  C147  1  0.80735000  0.55515000  0.86280000  1.0
  C  C148  1  0.80735000  0.94485000  0.36280000  1.0
  C  C149  1  0.69265000  0.05515000  0.86280000  1.0
  C  C150  1  0.30735000  0.55515000  0.63720000  1.0
  C  C151  1  0.19264000  0.44485000  0.13720000  1.0
  C  C152  1  0.84364000  0.05121000  0.60047000  1.0
  C  C153  1  0.65635000  0.94879000  0.10047000  1.0
  C  C154  1  0.34364000  0.44879000  0.39953000  1.0
  C  C155  1  0.15636000  0.55121000  0.89953000  1.0
  C  C156  1  0.15636000  0.94879000  0.39953000  1.0
  C  C157  1  0.34364000  0.05121000  0.89953000  1.0
  C  C158  1  0.65636000  0.55121000  0.60047000  1.0
  C  C159  1  0.84364000  0.44879000  0.10047000  1.0
  C  C160  1  0.97703000  0.08723000  0.56907000  1.0
  C  C161  1  0.52296000  0.91277000  0.06907000  1.0
  C  C162  1  0.47703000  0.41277000  0.43093000  1.0
  C  C163  1  0.02297000  0.58723000  0.93092000  1.0
  C  C164  1  0.02297000  0.91277000  0.43093000  1.0
  C  C165  1  0.47703000  0.08723000  0.93093000  1.0
  C  C166  1  0.52297000  0.58723000  0.56907000  1.0
  C  C167  1  0.97703000  0.41277000  0.06908000  1.0
  C  C168  1  0.88370000  0.01598000  0.65028000  1.0
  C  C169  1  0.61630000  0.98402000  0.15028000  1.0
  C  C170  1  0.38370000  0.48402000  0.34972000  1.0
  C  C171  1  0.11630000  0.51598000  0.84972000  1.0
  C  C172  1  0.11630000  0.98402000  0.34972000  1.0
  C  C173  1  0.38370000  0.01598000  0.84972000  1.0
  C  C174  1  0.61630000  0.51598000  0.65028000  1.0
  C  C175  1  0.88370000  0.48402000  0.15028000  1.0
  C  C176  1  0.15369000  0.08891000  0.58687000  1.0
  C  C177  1  0.34630000  0.91110000  0.08687000  1.0
  C  C178  1  0.65369000  0.41109000  0.41313000  1.0
  C  C179  1  0.84631000  0.58891000  0.91313000  1.0
  C  C180  1  0.84631000  0.91109000  0.41313000  1.0
  C  C181  1  0.65369000  0.08891000  0.91313000  1.0
  C  C182  1  0.34631000  0.58891000  0.58687000  1.0
  C  C183  1  0.15369000  0.41110000  0.08687000  1.0
  C  C184  1  0.05925000  0.01985000  0.66861000  1.0
  C  C185  1  0.44075000  0.98015000  0.16861000  1.0
  C  C186  1  0.55924000  0.48016000  0.33139000  1.0
  C  C187  1  0.94076000  0.51984000  0.83139000  1.0
  C  C188  1  0.94075000  0.98016000  0.33139000  1.0
  C  C189  1  0.55925000  0.01984000  0.83139000  1.0
  C  C190  1  0.44075000  0.51984000  0.66861000  1.0
  C  C191  1  0.05925000  0.48016000  0.16861000  1.0
  C  C192  1  0.74246000  0.97135000  0.68132000  1.0
  C  C193  1  0.75753000  0.02865000  0.18132000  1.0
  C  C194  1  0.24246000  0.52865000  0.31868000  1.0
  C  C195  1  0.25754000  0.47135000  0.81868000  1.0
  C  C196  1  0.25754000  0.02865000  0.31868000  1.0
  C  C197  1  0.24246000  0.97135000  0.81868000  1.0
  C  C198  1  0.75754000  0.47135000  0.68132000  1.0
  C  C199  1  0.74246000  0.52865000  0.18132000  1.0
  N  N200  1  0.24991000  0.30028000  0.68317000  1.0
  N  N201  1  0.25009000  0.69972000  0.18317000  1.0
  N  N202  1  0.74991000  0.19972000  0.31683000  1.0
  N  N203  1  0.75009000  0.80028000  0.81683000  1.0
  N  N204  1  0.75009000  0.69972000  0.31683000  1.0
  N  N205  1  0.74991000  0.30028000  0.81683000  1.0
  N  N206  1  0.25009000  0.80028000  0.68317000  1.0
  N  N207  1  0.24991000  0.19972000  0.18317000  1.0
  N  N208  1  0.22390000  0.25964000  0.63741000  1.0
  N  N209  1  0.27611000  0.74036000  0.13741000  1.0
  N  N210  1  0.72390000  0.24036000  0.36259000  1.0
  N  N211  1  0.77610000  0.75964000  0.86259000  1.0
  N  N212  1  0.77610000  0.74036000  0.36259000  1.0
  N  N213  1  0.72389000  0.25965000  0.86259000  1.0
  N  N214  1  0.27610000  0.75964000  0.63741000  1.0
  N  N215  1  0.22390000  0.24036000  0.13741000  1.0
  N  N216  1  0.51133000  0.25939000  0.65715000  1.0
  N  N217  1  0.98867000  0.74061000  0.15715000  1.0
  N  N218  1  0.01133000  0.24061000  0.34285000  1.0
  N  N219  1  0.48867000  0.75939000  0.84284000  1.0
  N  N220  1  0.48867000  0.74061000  0.34285000  1.0
  N  N221  1  0.01133000  0.25939000  0.84285000  1.0
  N  N222  1  0.98867000  0.75939000  0.65716000  1.0
  N  N223  1  0.51133000  0.24061000  0.15715000  1.0
  N  N224  1  0.42073000  0.30018000  0.69526000  1.0
  N  N225  1  0.07927000  0.69982000  0.19526000  1.0
  N  N226  1  0.92072000  0.19982000  0.30474000  1.0
  N  N227  1  0.57927000  0.80018000  0.80474000  1.0
  N  N228  1  0.57927000  0.69982000  0.30474000  1.0
  N  N229  1  0.92073000  0.30018000  0.80474000  1.0
  N  N230  1  0.07927000  0.80018000  0.69526000  1.0
  N  N231  1  0.42072000  0.19982000  0.19526000  1.0
  O  O232  1  0.86840000  0.24261000  0.68054000  1.0
  O  O233  1  0.63160000  0.75739000  0.18054000  1.0
  O  O234  1  0.36839000  0.25739000  0.31946000  1.0
  O  O235  1  0.13160000  0.74261000  0.81946000  1.0
  O  O236  1  0.13160000  0.75739000  0.31946000  1.0
  O  O237  1  0.36840000  0.24261000  0.81946000  1.0
  O  O238  1  0.63160000  0.74261000  0.68054000  1.0
  O  O239  1  0.86840000  0.25739000  0.18054000  1.0
  O  O240  1  0.77736000  0.93833000  0.72729000  1.0
  O  O241  1  0.72264000  0.06167000  0.22728000  1.0
  O  O242  1  0.27736000  0.56167000  0.27272000  1.0
  O  O243  1  0.22264000  0.43833000  0.77272000  1.0
  O  O244  1  0.22264000  0.06167000  0.27271000  1.0
  O  O245  1  0.27736000  0.93833000  0.77272000  1.0
  O  O246  1  0.72264000  0.43833000  0.72728000  1.0
  O  O247  1  0.77736000  0.56167000  0.22728000  1.0
  O  O248  1  0.58748000  0.96293000  0.66192000  1.0
  O  O249  1  0.91252000  0.03707000  0.16192000  1.0
  O  O250  1  0.08747000  0.53707000  0.33808000  1.0
  O  O251  1  0.41253000  0.46293000  0.83808000  1.0
  O  O252  1  0.41252000  0.03707000  0.33808000  1.0
  O  O253  1  0.08747000  0.96293000  0.83808000  1.0
  O  O254  1  0.91253000  0.46293000  0.66192000  1.0
  O  O255  1  0.58747000  0.53707000  0.16192000  1.0
