# generated using pymatgen
data_Sr3H18C28(N2O9)2
_symmetry_space_group_name_H-M   'P 1'
_cell_length_a   9.09953000
_cell_length_b   10.42970000
_cell_length_c   18.60690000
_cell_angle_alpha   75.90200000
_cell_angle_beta   89.99980000
_cell_angle_gamma   89.99980000
_symmetry_Int_Tables_number   1
_chemical_formula_structural   Sr3H18C28(N2O9)2
_chemical_formula_sum   'Sr6 H36 C56 N8 O36'
_cell_volume   1712.70685999
_cell_formula_units_Z   2
loop_
 _symmetry_equiv_pos_site_id
 _symmetry_equiv_pos_as_xyz
  1  'x, y, z'
loop_
 _atom_site_type_symbol
 _atom_site_label
 _atom_site_symmetry_multiplicity
 _atom_site_fract_x
 _atom_site_fract_y
 _atom_site_fract_z
 _atom_site_occupancy
  Sr  Sr0  1  0.05360000  0.07238000  0.09521000  1.0
  Sr  Sr1  1  0.55360000  0.92762000  0.40479000  1.0
  Sr  Sr2  1  0.94640000  0.92762000  0.90479000  1.0
  Sr  Sr3  1  0.44640000  0.07238000  0.59521000  1.0
  Sr  Sr4  1  0.00000000  0.50000000  0.00000000  1.0
  Sr  Sr5  1  0.50000000  0.50000000  0.50000000  1.0
  H  H6  1  0.09128000  0.50719000  0.18730000  1.0
  H  H7  1  0.59128000  0.49281000  0.31270000  1.0
  H  H8  1  0.90872000  0.49281000  0.81270000  1.0
  H  H9  1  0.40872000  0.50720000  0.68730000  1.0
  H  H10  1  0.29140000  0.48634000  0.28375000  1.0
  H  H11  1  0.79140000  0.51366000  0.21625000  1.0
  H  H12  1  0.70860000  0.51366000  0.71625000  1.0
  H  H13  1  0.20860000  0.48634000  0.78375000  1.0
  H  H14  1  0.39321000  0.69563000  0.30977000  1.0
  H  H15  1  0.89321000  0.30436000  0.19022000  1.0
  H  H16  1  0.60679000  0.30436000  0.69022000  1.0
  H  H17  1  0.10679000  0.69563000  0.80978000  1.0
  H  H18  1  0.37595000  0.97990000  0.07970000  1.0
  H  H19  1  0.87594000  0.02010000  0.42030000  1.0
  H  H20  1  0.62405000  0.02010000  0.92030000  1.0
  H  H21  1  0.12405000  0.97990000  0.57970000  1.0
  H  H22  1  0.30106000  0.97912000  0.00317000  1.0
  H  H23  1  0.80106000  0.02088000  0.49684000  1.0
  H  H24  1  0.69894000  0.02088000  0.99683000  1.0
  H  H25  1  0.19894000  0.97912000  0.50317000  1.0
  H  H26  1  0.57417000  0.42968000  0.14168000  1.0
  H  H27  1  0.07418000  0.57032000  0.35832000  1.0
  H  H28  1  0.42583000  0.57032000  0.85832000  1.0
  H  H29  1  0.92582000  0.42969000  0.64168000  1.0
  H  H30  1  0.67862000  0.65581000  0.08316000  1.0
  H  H31  1  0.17862000  0.34419000  0.41684000  1.0
  H  H32  1  0.32138000  0.34419000  0.91684000  1.0
  H  H33  1  0.82138000  0.65581000  0.58316000  1.0
  H  H34  1  0.51691000  0.82068000  0.99928000  1.0
  H  H35  1  0.01691000  0.17932000  0.50072000  1.0
  H  H36  1  0.48309000  0.17932000  0.00072000  1.0
  H  H37  1  0.98310000  0.82068000  0.49928000  1.0
  H  H38  1  0.32118000  0.16645000  0.19139000  1.0
  H  H39  1  0.82118000  0.83355000  0.30861000  1.0
  H  H40  1  0.67883000  0.83355000  0.80861000  1.0
  H  H41  1  0.17882000  0.16645000  0.69140000  1.0
  C  C42  1  0.09507000  0.72011000  0.16155000  1.0
  C  C43  1  0.59507000  0.27989000  0.33846000  1.0
  C  C44  1  0.90493000  0.27989000  0.83846000  1.0
  C  C45  1  0.40493000  0.72012000  0.66155000  1.0
  C  C46  1  0.14075000  0.59389000  0.20028000  1.0
  C  C47  1  0.64074000  0.40611000  0.29972000  1.0
  C  C48  1  0.85926000  0.40611000  0.79972000  1.0
  C  C49  1  0.35925000  0.59389000  0.70028000  1.0
  C  C50  1  0.25098000  0.58296000  0.25348000  1.0
  C  C51  1  0.75098000  0.41705000  0.24652000  1.0
  C  C52  1  0.74902000  0.41704000  0.74651000  1.0
  C  C53  1  0.24902000  0.58295000  0.75349000  1.0
  C  C54  1  0.30869000  0.69790000  0.26810000  1.0
  C  C55  1  0.80869000  0.30210000  0.23190000  1.0
  C  C56  1  0.69131000  0.30210000  0.73190000  1.0
  C  C57  1  0.19131000  0.69790000  0.76810000  1.0
  C  C58  1  0.25344000  0.81986000  0.22851000  1.0
  C  C59  1  0.75344000  0.18014000  0.27149000  1.0
  C  C60  1  0.74657000  0.18014000  0.77148000  1.0
  C  C61  1  0.24656000  0.81986000  0.72852000  1.0
  C  C62  1  0.98791000  0.73869000  0.09710000  1.0
  C  C63  1  0.48791000  0.26130000  0.40290000  1.0
  C  C64  1  0.01209000  0.26131000  0.90291000  1.0
  C  C65  1  0.51209000  0.73870000  0.59710000  1.0
  C  C66  1  0.31338000  0.94816000  0.24085000  1.0
  C  C67  1  0.81338000  0.05183000  0.25915000  1.0
  C  C68  1  0.68662000  0.05184000  0.75915000  1.0
  C  C69  1  0.18662000  0.94816000  0.74085000  1.0
  C  C70  1  0.36588000  0.47595000  0.08748000  1.0
  C  C71  1  0.86588000  0.52405000  0.41252000  1.0
  C  C72  1  0.63412000  0.52405000  0.91252000  1.0
  C  C73  1  0.13412000  0.47595000  0.58748000  1.0
  C  C74  1  0.50941000  0.50533000  0.10465000  1.0
  C  C75  1  0.00941000  0.49468000  0.39535000  1.0
  C  C76  1  0.49059000  0.49468000  0.89535000  1.0
  C  C77  1  0.99059000  0.50533000  0.60465000  1.0
  C  C78  1  0.56545000  0.63065000  0.07276000  1.0
  C  C79  1  0.06545000  0.36935000  0.42724000  1.0
  C  C80  1  0.43455000  0.36935000  0.92724000  1.0
  C  C81  1  0.93455000  0.63065000  0.57276000  1.0
  C  C82  1  0.47541000  0.72236000  0.02562000  1.0
  C  C83  1  0.97542000  0.27765000  0.47437000  1.0
  C  C84  1  0.52458000  0.27764000  0.97437000  1.0
  C  C85  1  0.02458000  0.72235000  0.52563000  1.0
  C  C86  1  0.33408000  0.68338000  0.01039000  1.0
  C  C87  1  0.83409000  0.31662000  0.48961000  1.0
  C  C88  1  0.66591000  0.31662000  0.98961000  1.0
  C  C89  1  0.16592000  0.68338000  0.51039000  1.0
  C  C90  1  0.29776000  0.34349000  0.12029000  1.0
  C  C91  1  0.79777000  0.65650000  0.37971000  1.0
  C  C92  1  0.70224000  0.65651000  0.87971000  1.0
  C  C93  1  0.20223000  0.34349000  0.62029000  1.0
  C  C94  1  0.22982000  0.77463000  0.95880000  1.0
  C  C95  1  0.72981000  0.22538000  0.54120000  1.0
  C  C96  1  0.77018000  0.22538000  0.04120000  1.0
  C  C97  1  0.27018000  0.77462000  0.45880000  1.0
  N  N98  1  0.15036000  0.83042000  0.17577000  1.0
  N  N99  1  0.65036000  0.16958000  0.32423000  1.0
  N  N100  1  0.84965000  0.16958000  0.82423000  1.0
  N  N101  1  0.34964000  0.83042000  0.67577000  1.0
  N  N102  1  0.28065000  0.56209000  0.04029000  1.0
  N  N103  1  0.78065000  0.43791000  0.45970000  1.0
  N  N104  1  0.71935000  0.43791000  0.95971000  1.0
  N  N105  1  0.21935000  0.56209000  0.54029000  1.0
  O  O106  1  0.97261000  0.85474000  0.05593000  1.0
  O  O107  1  0.47261000  0.14526000  0.44407000  1.0
  O  O108  1  0.02739000  0.14526000  0.94407000  1.0
  O  O109  1  0.52739000  0.85475000  0.55593000  1.0
  O  O110  1  0.92557000  0.63500000  0.08765000  1.0
  O  O111  1  0.42557000  0.36500000  0.41235000  1.0
  O  O112  1  0.07443000  0.36501000  0.91235000  1.0
  O  O113  1  0.57442000  0.63500000  0.58765000  1.0
  O  O114  1  0.25517000  0.05364000  0.19918000  1.0
  O  O115  1  0.75518000  0.94636000  0.30082000  1.0
  O  O116  1  0.74483000  0.94637000  0.80081000  1.0
  O  O117  1  0.24482000  0.05364000  0.69919000  1.0
  O  O118  1  0.41349000  0.94613000  0.28667000  1.0
  O  O119  1  0.91349000  0.05386000  0.21333000  1.0
  O  O120  1  0.58651000  0.05386000  0.71332000  1.0
  O  O121  1  0.08650000  0.94613000  0.78667000  1.0
  O  O122  1  0.17666000  0.31413000  0.09633000  1.0
  O  O123  1  0.67666000  0.68588000  0.40366000  1.0
  O  O124  1  0.82334000  0.68587000  0.90367000  1.0
  O  O125  1  0.32333000  0.31413000  0.59633000  1.0
  O  O126  1  0.37352000  0.26804000  0.17326000  1.0
  O  O127  1  0.87353000  0.73195000  0.32674000  1.0
  O  O128  1  0.62648000  0.73196000  0.82675000  1.0
  O  O129  1  0.12648000  0.26804000  0.67326000  1.0
  O  O130  1  0.11911000  0.72056000  0.93607000  1.0
  O  O131  1  0.61911000  0.27944000  0.56393000  1.0
  O  O132  1  0.88088000  0.27944000  0.06394000  1.0
  O  O133  1  0.38089000  0.72056000  0.43607000  1.0
  O  O134  1  0.25227000  0.89824000  0.94223000  1.0
  O  O135  1  0.75227000  0.10177000  0.55777000  1.0
  O  O136  1  0.74773000  0.10176000  0.05777000  1.0
  O  O137  1  0.24773000  0.89824000  0.44223000  1.0
  O  O138  1  0.31274000  0.03196000  0.04144000  1.0
  O  O139  1  0.81274000  0.96804000  0.45856000  1.0
  O  O140  1  0.68726000  0.96804000  0.95856000  1.0
  O  O141  1  0.18726000  0.03196000  0.54144000  1.0
