# generated using pymatgen
data_H6RuC19N2O5F8
_symmetry_space_group_name_H-M   'P 1'
_cell_length_a   10.56760000
_cell_length_b   10.74820000
_cell_length_c   14.88244305
_cell_angle_alpha   89.09072472
_cell_angle_beta   71.43330033
_cell_angle_gamma   88.93280000
_symmetry_Int_Tables_number   1
_chemical_formula_structural   H6RuC19N2O5F8
_chemical_formula_sum   'H12 Ru2 C38 N4 O10 F16'
_cell_volume   1602.04314838
_cell_formula_units_Z   2
loop_
 _symmetry_equiv_pos_site_id
 _symmetry_equiv_pos_as_xyz
  1  'x, y, z'
loop_
 _atom_site_type_symbol
 _atom_site_label
 _atom_site_symmetry_multiplicity
 _atom_site_fract_x
 _atom_site_fract_y
 _atom_site_fract_z
 _atom_site_occupancy
  H  H0  1  0.90763000  0.06396000  0.66937000  1.0
  H  H1  1  0.09237000  0.93608000  0.33064000  1.0
  H  H2  1  0.47868000  0.29041000  0.18669000  1.0
  H  H3  1  0.52133000  0.70957000  0.81332000  1.0
  H  H4  1  0.83111000  0.77749000  0.90454000  1.0
  H  H5  1  0.16887000  0.22248000  0.09546000  1.0
  H  H6  1  0.86498000  0.68599000  0.34115000  1.0
  H  H7  1  0.13506000  0.31411000  0.65881000  1.0
  H  H8  1  0.03354000  0.73237000  0.32400000  1.0
  H  H9  1  0.96650000  0.26774000  0.67597000  1.0
  H  H10  1  0.91704000  0.83963000  0.29756000  1.0
  H  H11  1  0.08298000  0.16048000  0.70244000  1.0
  Ru  Ru12  1  0.56560000  0.96801000  0.92512000  1.0
  Ru  Ru13  1  0.43440000  0.03197000  0.07489000  1.0
  C  C14  1  0.50737000  0.77156000  0.06784000  1.0
  C  C15  1  0.49263000  0.22843000  0.93216000  1.0
  C  C16  1  0.28036000  0.93200000  0.96609000  1.0
  C  C17  1  0.71963000  0.06795000  0.03391000  1.0
  C  C18  1  0.72873000  0.89201000  0.70770000  1.0
  C  C19  1  0.27130000  0.10802000  0.29230000  1.0
  C  C20  1  0.50093000  0.64052000  0.10214000  1.0
  C  C21  1  0.49906000  0.35946000  0.89786000  1.0
  C  C22  1  0.15699000  0.89035000  0.94906000  1.0
  C  C23  1  0.84301000  0.10963000  0.05094000  1.0
  C  C24  1  0.60433000  0.55427000  0.06170000  1.0
  C  C25  1  0.39565000  0.44571000  0.93830000  1.0
  C  C26  1  0.38864000  0.59566000  0.17405000  1.0
  C  C27  1  0.61134000  0.40432000  0.82595000  1.0
  C  C28  1  0.14266000  0.89691000  0.85844000  1.0
  C  C29  1  0.85734000  0.10308000  0.14157000  1.0
  C  C30  1  0.05047000  0.84100000  0.02297000  1.0
  C  C31  1  0.94952000  0.15896000  0.97703000  1.0
  C  C32  1  0.89111000  0.93653000  0.56373000  1.0
  C  C33  1  0.10891000  0.06350000  0.43627000  1.0
  C  C34  1  0.59670000  0.43141000  0.09363000  1.0
  C  C35  1  0.40331000  0.56856000  0.90636000  1.0
  C  C36  1  0.38156000  0.47130000  0.20359000  1.0
  C  C37  1  0.61844000  0.52867000  0.79640000  1.0
  C  C38  1  0.02706000  0.85543000  0.84316000  1.0
  C  C39  1  0.97294000  0.14455000  0.15685000  1.0
  C  C40  1  0.93545000  0.80060000  0.00646000  1.0
  C  C41  1  0.06454000  0.19935000  0.99355000  1.0
  C  C42  1  0.94925000  0.03795000  0.59524000  1.0
  C  C43  1  0.05078000  0.96209000  0.40475000  1.0
  C  C44  1  0.94440000  0.89904000  0.46570000  1.0
  C  C45  1  0.05561000  0.10099000  0.53429000  1.0
  C  C46  1  0.48575000  0.38779000  0.16449000  1.0
  C  C47  1  0.51426000  0.61219000  0.83551000  1.0
  C  C48  1  0.92235000  0.80668000  0.91661000  1.0
  C  C49  1  0.07766000  0.19330000  0.08339000  1.0
  C  C50  1  0.92854000  0.76365000  0.34485000  1.0
  C  C51  1  0.07148000  0.23643000  0.65513000  1.0
  N  N52  1  0.66703000  0.90097000  0.78990000  1.0
  N  N53  1  0.33299000  0.09904000  0.21010000  1.0
  N  N54  1  0.78744000  0.87219000  0.62055000  1.0
  N  N55  1  0.21256000  0.12785000  0.37946000  1.0
  O  O56  1  0.57328000  0.79296000  0.98067000  1.0
  O  O57  1  0.42673000  0.20702000  0.01933000  1.0
  O  O58  1  0.39175000  0.91787000  0.90060000  1.0
  O  O59  1  0.60822000  0.08211000  0.09941000  1.0
  O  O60  1  0.55444000  0.14467000  0.87388000  1.0
  O  O61  1  0.44557000  0.85532000  0.12612000  1.0
  O  O62  1  0.73249000  0.01985000  0.95313000  1.0
  O  O63  1  0.26748000  0.98011000  0.04689000  1.0
  O  O64  1  0.88264000  0.80236000  0.44183000  1.0
  O  O65  1  0.11736000  0.19769000  0.55817000  1.0
  F  F66  1  0.71471000  0.58707000  0.99058000  1.0
  F  F67  1  0.28528000  0.41292000  0.00941000  1.0
  F  F68  1  0.28219000  0.67044000  0.21378000  1.0
  F  F69  1  0.71776000  0.32953000  0.78620000  1.0
  F  F70  1  0.23866000  0.94712000  0.78471000  1.0
  F  F71  1  0.76131000  0.05287000  0.21530000  1.0
  F  F72  1  0.05761000  0.82871000  0.11171000  1.0
  F  F73  1  0.94239000  0.17123000  0.88829000  1.0
  F  F74  1  0.70054000  0.35355000  0.05178000  1.0
  F  F75  1  0.29946000  0.64643000  0.94823000  1.0
  F  F76  1  0.26956000  0.43227000  0.27068000  1.0
  F  F77  1  0.73044000  0.56770000  0.72930000  1.0
  F  F78  1  0.01709000  0.86555000  0.75494000  1.0
  F  F79  1  0.98290000  0.13446000  0.24507000  1.0
  F  F80  1  0.83435000  0.75738000  0.08120000  1.0
  F  F81  1  0.16565000  0.24258000  0.91880000  1.0
