# generated using pymatgen
data_CaH12C16(NO3)2
_symmetry_space_group_name_H-M   'P 1'
_cell_length_a   7.04352000
_cell_length_b   7.40599000
_cell_length_c   16.34120000
_cell_angle_alpha   89.99970000
_cell_angle_beta   89.99990000
_cell_angle_gamma   114.65600000
_symmetry_Int_Tables_number   1
_chemical_formula_structural   CaH12C16(NO3)2
_chemical_formula_sum   'Ca2 H24 C32 N4 O12'
_cell_volume   774.70953963
_cell_formula_units_Z   2
loop_
 _symmetry_equiv_pos_site_id
 _symmetry_equiv_pos_as_xyz
  1  'x, y, z'
loop_
 _atom_site_type_symbol
 _atom_site_label
 _atom_site_symmetry_multiplicity
 _atom_site_fract_x
 _atom_site_fract_y
 _atom_site_fract_z
 _atom_site_occupancy
  Ca  Ca0  1  0.75000000  0.75000000  0.53121000  1.0
  Ca  Ca1  1  0.25000000  0.25000000  0.46879000  1.0
  H  H2  1  0.61260000  0.05366000  0.59702000  1.0
  H  H3  1  0.88739000  0.44634000  0.59702000  1.0
  H  H4  1  0.38739000  0.94634000  0.40298000  1.0
  H  H5  1  0.11260000  0.55366000  0.40298000  1.0
  H  H6  1  0.85671000  0.13040000  0.60501000  1.0
  H  H7  1  0.64329000  0.36960000  0.60501000  1.0
  H  H8  1  0.14329000  0.86961000  0.39499000  1.0
  H  H9  1  0.35670000  0.63039000  0.39499000  1.0
  H  H10  1  0.05326000  0.23783000  0.28552000  1.0
  H  H11  1  0.44673000  0.26217000  0.28552000  1.0
  H  H12  1  0.94673000  0.76217000  0.71448000  1.0
  H  H13  1  0.55327000  0.73783000  0.71447000  1.0
  H  H14  1  0.06413000  0.25372000  0.13298000  1.0
  H  H15  1  0.43587000  0.24628000  0.13298000  1.0
  H  H16  1  0.93587000  0.74627000  0.86702000  1.0
  H  H17  1  0.56414000  0.75373000  0.86702000  1.0
  H  H18  1  0.45075000  0.76746000  0.12341000  1.0
  H  H19  1  0.04925000  0.73253000  0.12341000  1.0
  H  H20  1  0.54925000  0.23253000  0.87659000  1.0
  H  H21  1  0.95076000  0.26747000  0.87659000  1.0
  H  H22  1  0.44107000  0.75244000  0.27490000  1.0
  H  H23  1  0.05892000  0.74756000  0.27490000  1.0
  H  H24  1  0.55892000  0.24755000  0.72510000  1.0
  H  H25  1  0.94108000  0.25245000  0.72510000  1.0
  C  C26  1  0.74813000  0.97236000  0.38099000  1.0
  C  C27  1  0.75187000  0.52764000  0.38099000  1.0
  C  C28  1  0.25187000  0.02763000  0.61901000  1.0
  C  C29  1  0.24813000  0.47236000  0.61901000  1.0
  C  C30  1  0.74752000  0.99352000  0.29005000  1.0
  C  C31  1  0.75247000  0.50648000  0.29005000  1.0
  C  C32  1  0.25247000  0.00648000  0.70995000  1.0
  C  C33  1  0.24753000  0.49352000  0.70995000  1.0
  C  C34  1  0.92266000  0.13456000  0.24974000  1.0
  C  C35  1  0.57733000  0.36544000  0.24973000  1.0
  C  C36  1  0.07733000  0.86543000  0.75026000  1.0
  C  C37  1  0.42267000  0.63457000  0.75026000  1.0
  C  C38  1  0.92950000  0.14401000  0.16478000  1.0
  C  C39  1  0.57050000  0.35598000  0.16478000  1.0
  C  C40  1  0.07049000  0.85598000  0.83522000  1.0
  C  C41  1  0.42952000  0.64402000  0.83522000  1.0
  C  C42  1  0.75856000  0.01029000  0.11962000  1.0
  C  C43  1  0.74144000  0.48970000  0.11962000  1.0
  C  C44  1  0.24144000  0.98970000  0.88038000  1.0
  C  C45  1  0.25857000  0.51030000  0.88038000  1.0
  C  C46  1  0.58090000  0.87061000  0.15938000  1.0
  C  C47  1  0.91910000  0.62939000  0.15938000  1.0
  C  C48  1  0.41909000  0.12939000  0.84062000  1.0
  C  C49  1  0.08091000  0.37061000  0.84062000  1.0
  C  C50  1  0.57656000  0.86352000  0.24423000  1.0
  C  C51  1  0.92343000  0.63648000  0.24423000  1.0
  C  C52  1  0.42343000  0.13647000  0.75577000  1.0
  C  C53  1  0.07657000  0.36353000  0.75577000  1.0
  C  C54  1  0.76199000  0.01278000  0.03244000  1.0
  C  C55  1  0.73802000  0.48722000  0.03244000  1.0
  C  C56  1  0.23801000  0.98721000  0.96756000  1.0
  C  C57  1  0.26200000  0.51279000  0.96756000  1.0
  N  N58  1  0.75988000  0.01024000  0.96098000  1.0
  N  N59  1  0.74014000  0.48976000  0.96098000  1.0
  N  N60  1  0.24013000  0.98976000  0.03902000  1.0
  N  N61  1  0.25988000  0.51023000  0.03902000  1.0
  O  O62  1  0.58094000  0.84949000  0.41698000  1.0
  O  O63  1  0.91905000  0.65051000  0.41698000  1.0
  O  O64  1  0.41905000  0.15051000  0.58302000  1.0
  O  O65  1  0.08094000  0.34949000  0.58302000  1.0
  O  O66  1  0.91334000  0.06653000  0.42159000  1.0
  O  O67  1  0.58665000  0.43346000  0.42159000  1.0
  O  O68  1  0.08665000  0.93346000  0.57841000  1.0
  O  O69  1  0.41334000  0.56654000  0.57841000  1.0
  O  O70  1  0.72409000  0.00964000  0.60946000  1.0
  O  O71  1  0.77590000  0.49036000  0.60946000  1.0
  O  O72  1  0.27590000  0.99036000  0.39054000  1.0
  O  O73  1  0.22408000  0.50964000  0.39054000  1.0
