# generated using pymatgen
data_CoH22C30(N3O2)2
_symmetry_space_group_name_H-M   'P 1'
_cell_length_a   11.86550000
_cell_length_b   12.55850000
_cell_length_c   13.12848076
_cell_angle_alpha   118.00933370
_cell_angle_beta   105.81449147
_cell_angle_gamma   92.29230000
_symmetry_Int_Tables_number   1
_chemical_formula_structural   CoH22C30(N3O2)2
_chemical_formula_sum   'Co2 H44 C60 N12 O8'
_cell_volume   1628.98088003
_cell_formula_units_Z   2
loop_
 _symmetry_equiv_pos_site_id
 _symmetry_equiv_pos_as_xyz
  1  'x, y, z'
loop_
 _atom_site_type_symbol
 _atom_site_label
 _atom_site_symmetry_multiplicity
 _atom_site_fract_x
 _atom_site_fract_y
 _atom_site_fract_z
 _atom_site_occupancy
  Co  Co0  1  0.00000000  0.50000000  0.50000000  1.0
  Co  Co1  1  0.50000000  0.00000000  0.50000000  1.0
  H  H2  1  0.19043000  0.42076000  0.38305000  1.0
  H  H3  1  0.30086000  0.04128000  0.61641000  1.0
  H  H4  1  0.80957000  0.57924000  0.61695000  1.0
  H  H5  1  0.69915000  0.95872000  0.38359000  1.0
  H  H6  1  0.53860000  0.64719000  0.51036000  1.0
  H  H7  1  0.95693000  0.13362000  0.49252000  1.0
  H  H8  1  0.46140000  0.35280000  0.48964000  1.0
  H  H9  1  0.04306000  0.86637000  0.50747000  1.0
  H  H10  1  0.66414000  0.55859000  0.37953000  1.0
  H  H11  1  0.83341000  0.17850000  0.62767000  1.0
  H  H12  1  0.33586000  0.44141000  0.62047000  1.0
  H  H13  1  0.16658000  0.82148000  0.37231000  1.0
  H  H14  1  0.57016000  0.41252000  0.15687000  1.0
  H  H15  1  0.92940000  0.25673000  0.84968000  1.0
  H  H16  1  0.42983000  0.58748000  0.84313000  1.0
  H  H17  1  0.07059000  0.74327000  0.15031000  1.0
  H  H18  1  0.34813000  0.35306000  0.06487000  1.0
  H  H19  1  0.15089000  0.28902000  0.93693000  1.0
  H  H20  1  0.65186000  0.64694000  0.93513000  1.0
  H  H21  1  0.84910000  0.71097000  0.06306000  1.0
  H  H22  1  0.22167000  0.44105000  0.19618000  1.0
  H  H23  1  0.27513000  0.24428000  0.80157000  1.0
  H  H24  1  0.77833000  0.55895000  0.80383000  1.0
  H  H25  1  0.72486000  0.75572000  0.19842000  1.0
  H  H26  1  0.14926000  0.76862000  0.61567000  1.0
  H  H27  1  0.33930000  0.14080000  0.36945000  1.0
  H  H28  1  0.85074000  0.23138000  0.38433000  1.0
  H  H29  1  0.66071000  0.85920000  0.63055000  1.0
  H  H30  1  0.89619000  0.59033000  0.33400000  1.0
  H  H31  1  0.61156000  0.27077000  0.68929000  1.0
  H  H32  1  0.10381000  0.40968000  0.66601000  1.0
  H  H33  1  0.38844000  0.72924000  0.31072000  1.0
  H  H34  1  0.77595000  0.49616000  0.11443000  1.0
  H  H35  1  0.73916000  0.39492000  0.90743000  1.0
  H  H36  1  0.22406000  0.50385000  0.88557000  1.0
  H  H37  1  0.26084000  0.60509000  0.09258000  1.0
  H  H38  1  0.84612000  0.14467000  0.07258000  1.0
  H  H39  1  0.66382000  0.07498000  0.94156000  1.0
  H  H40  1  0.15388000  0.85534000  0.92743000  1.0
  H  H41  1  0.33617000  0.92503000  0.05845000  1.0
  H  H42  1  0.96207000  0.25459000  0.29309000  1.0
  H  H43  1  0.53990000  0.96667000  0.72309000  1.0
  H  H44  1  0.03793000  0.74542000  0.70692000  1.0
  H  H45  1  0.46010000  0.03334000  0.27692000  1.0
  C  C46  1  0.49659000  0.58400000  0.41272000  1.0
  C  C47  1  0.99952000  0.16848000  0.58986000  1.0
  C  C48  1  0.50341000  0.41600000  0.58728000  1.0
  C  C49  1  0.00047000  0.83150000  0.41012000  1.0
  C  C50  1  0.56713000  0.53369000  0.33899000  1.0
  C  C51  1  0.93026000  0.19358000  0.66595000  1.0
  C  C52  1  0.43287000  0.46631000  0.66102000  1.0
  C  C53  1  0.06973000  0.80641000  0.33404000  1.0
  C  C54  1  0.51431000  0.45104000  0.21390000  1.0
  C  C55  1  0.98425000  0.23739000  0.79084000  1.0
  C  C56  1  0.48569000  0.54896000  0.78610000  1.0
  C  C57  1  0.01574000  0.76261000  0.20915000  1.0
  C  C58  1  0.38990000  0.41773000  0.16244000  1.0
  C  C59  1  0.10834000  0.25515000  0.83951000  1.0
  C  C60  1  0.61010000  0.58227000  0.83756000  1.0
  C  C61  1  0.89165000  0.74484000  0.16048000  1.0
  C  C62  1  0.31892000  0.46677000  0.23587000  1.0
  C  C63  1  0.17807000  0.22961000  0.76373000  1.0
  C  C64  1  0.68108000  0.53324000  0.76414000  1.0
  C  C65  1  0.82193000  0.77038000  0.23626000  1.0
  C  C66  1  0.37147000  0.55099000  0.36171000  1.0
  C  C67  1  0.12438000  0.18657000  0.63805000  1.0
  C  C68  1  0.62853000  0.44900000  0.63829000  1.0
  C  C69  1  0.87562000  0.81342000  0.36194000  1.0
  C  C70  1  0.29371000  0.59911000  0.43612000  1.0
  C  C71  1  0.19984000  0.15876000  0.56023000  1.0
  C  C72  1  0.70630000  0.40089000  0.56389000  1.0
  C  C73  1  0.80016000  0.84123000  0.43976000  1.0
  C  C74  1  0.18743000  0.69929000  0.55569000  1.0
  C  C75  1  0.30267000  0.13522000  0.43412000  1.0
  C  C76  1  0.81258000  0.30070000  0.44431000  1.0
  C  C77  1  0.69734000  0.86477000  0.56588000  1.0
  C  C78  1  0.28613000  0.71785000  0.52205000  1.0
  C  C79  1  0.20842000  0.18830000  0.47076000  1.0
  C  C80  1  0.71388000  0.28215000  0.47796000  1.0
  C  C81  1  0.79158000  0.81170000  0.52923000  1.0
  C  C82  1  0.34626000  0.84324000  0.56257000  1.0
  C  C83  1  0.15207000  0.27242000  0.43238000  1.0
  C  C84  1  0.65374000  0.15675000  0.43742000  1.0
  C  C85  1  0.84793000  0.72757000  0.56761000  1.0
  C  C86  1  0.88173000  0.49188000  0.27183000  1.0
  C  C87  1  0.62599000  0.23161000  0.74919000  1.0
  C  C88  1  0.11827000  0.50813000  0.72818000  1.0
  C  C89  1  0.37401000  0.76839000  0.25081000  1.0
  C  C90  1  0.81477000  0.43744000  0.14879000  1.0
  C  C91  1  0.69718000  0.29999000  0.87144000  1.0
  C  C92  1  0.18523000  0.56258000  0.85122000  1.0
  C  C93  1  0.30282000  0.70002000  0.12856000  1.0
  C  C94  1  0.79466000  0.30937000  0.07301000  1.0
  C  C95  1  0.71665000  0.24481000  0.94455000  1.0
  C  C96  1  0.20534000  0.69063000  0.92699000  1.0
  C  C97  1  0.28335000  0.75520000  0.05545000  1.0
  C  C98  1  0.85166000  0.24334000  0.12639000  1.0
  C  C99  1  0.65726000  0.12243000  0.88943000  1.0
  C  C100  1  0.14834000  0.75666000  0.87361000  1.0
  C  C101  1  0.34275000  0.87758000  0.11058000  1.0
  C  C102  1  0.91709000  0.30343000  0.24966000  1.0
  C  C103  1  0.58744000  0.06092000  0.76711000  1.0
  C  C104  1  0.08291000  0.69658000  0.75035000  1.0
  C  C105  1  0.41256000  0.93908000  0.23289000  1.0
  N  N106  1  0.13863000  0.57981000  0.49663000  1.0
  N  N107  1  0.34861000  0.07761000  0.49448000  1.0
  N  N108  1  0.86137000  0.42018000  0.50337000  1.0
  N  N109  1  0.65139000  0.92239000  0.50552000  1.0
  N  N110  1  0.20296000  0.51974000  0.42348000  1.0
  N  N111  1  0.28638000  0.09402000  0.57149000  1.0
  N  N112  1  0.79704000  0.48025000  0.57652000  1.0
  N  N113  1  0.71362000  0.90598000  0.42851000  1.0
  N  N114  1  0.92928000  0.42566000  0.32362000  1.0
  N  N115  1  0.57340000  0.11259000  0.69598000  1.0
  N  N116  1  0.07072000  0.57434000  0.67638000  1.0
  N  N117  1  0.42661000  0.88742000  0.30403000  1.0
  O  O118  1  0.42084000  0.85470000  0.51192000  1.0
  O  O119  1  0.07640000  0.32707000  0.48082000  1.0
  O  O120  1  0.57917000  0.14530000  0.48808000  1.0
  O  O121  1  0.92361000  0.67292000  0.51917000  1.0
  O  O122  1  0.31644000  0.93181000  0.64361000  1.0
  O  O123  1  0.18622000  0.28703000  0.35465000  1.0
  O  O124  1  0.68358000  0.06819000  0.35638000  1.0
  O  O125  1  0.81378000  0.71296000  0.64534000  1.0
