# generated using pymatgen
data_CdH19C18N4O5
_symmetry_space_group_name_H-M   'P 1'
_cell_length_a   9.52445000
_cell_length_b   10.68110000
_cell_length_c   12.53820000
_cell_angle_alpha   113.77100000
_cell_angle_beta   92.25400000
_cell_angle_gamma   110.61300000
_symmetry_Int_Tables_number   1
_chemical_formula_structural   CdH19C18N4O5
_chemical_formula_sum   'Cd2 H38 C36 N8 O10'
_cell_volume   1067.85172770
_cell_formula_units_Z   2
loop_
 _symmetry_equiv_pos_site_id
 _symmetry_equiv_pos_as_xyz
  1  'x, y, z'
loop_
 _atom_site_type_symbol
 _atom_site_label
 _atom_site_symmetry_multiplicity
 _atom_site_fract_x
 _atom_site_fract_y
 _atom_site_fract_z
 _atom_site_occupancy
  Cd  Cd0  1  0.17744000  0.75438000  0.16146000  1.0
  Cd  Cd1  1  0.82258000  0.24561000  0.83854000  1.0
  H  H2  1  0.97731000  0.82144000  0.07687000  1.0
  H  H3  1  0.02271000  0.17856000  0.92313000  1.0
  H  H4  1  0.89664000  0.64197000  0.98795000  1.0
  H  H5  1  0.10339000  0.35803000  0.01205000  1.0
  H  H6  1  0.40961000  0.23573000  0.40473000  1.0
  H  H7  1  0.59038000  0.76425000  0.59528000  1.0
  H  H8  1  0.16052000  0.26754000  0.13338000  1.0
  H  H9  1  0.83950000  0.73246000  0.86662000  1.0
  H  H10  1  0.46367000  0.66978000  0.43468000  1.0
  H  H11  1  0.53631000  0.33020000  0.56536000  1.0
  H  H12  1  0.07423000  0.54848000  0.85139000  1.0
  H  H13  1  0.92579000  0.45152000  0.14861000  1.0
  H  H14  1  0.81025000  0.79912000  0.50025000  1.0
  H  H15  1  0.18975000  0.20089000  0.49973000  1.0
  H  H16  1  0.21634000  0.99303000  0.67719000  1.0
  H  H17  1  0.78364000  0.00697000  0.32281000  1.0
  H  H18  1  0.02419000  0.95486000  0.69242000  1.0
  H  H19  1  0.97579000  0.04513000  0.30756000  1.0
  H  H20  1  0.97877000  0.68903000  0.64283000  1.0
  H  H21  1  0.02120000  0.31096000  0.35714000  1.0
  H  H22  1  0.11641000  0.82368000  0.77417000  1.0
  H  H23  1  0.88356000  0.17630000  0.22581000  1.0
  H  H24  1  0.29576000  0.54839000  0.62934000  1.0
  H  H25  1  0.70423000  0.45162000  0.37066000  1.0
  H  H26  1  0.10518000  0.50998000  0.65037000  1.0
  H  H27  1  0.89482000  0.49002000  0.34964000  1.0
  H  H28  1  0.49694000  0.89892000  0.06313000  1.0
  H  H29  1  0.50308000  0.10109000  0.93686000  1.0
  H  H30  1  0.49701000  0.83617000  0.82567000  1.0
  H  H31  1  0.50299000  0.16386000  0.17432000  1.0
  H  H32  1  0.18348000  0.65473000  0.53013000  1.0
  H  H33  1  0.81650000  0.34526000  0.46986000  1.0
  H  H34  1  0.32710000  0.80268000  0.65360000  1.0
  H  H35  1  0.67288000  0.19732000  0.34638000  1.0
  H  H36  1  0.82755000  0.72078000  0.26028000  1.0
  H  H37  1  0.17247000  0.27922000  0.73970000  1.0
  H  H38  1  0.26915000  0.87880000  0.46340000  1.0
  H  H39  1  0.73085000  0.12120000  0.53660000  1.0
  C  C40  1  0.21159000  0.06958000  0.19862000  1.0
  C  C41  1  0.78842000  0.93041000  0.80137000  1.0
  C  C42  1  0.44833000  0.46392000  0.44067000  1.0
  C  C43  1  0.55165000  0.53606000  0.55935000  1.0
  C  C44  1  0.38257000  0.30789000  0.37367000  1.0
  C  C45  1  0.61742000  0.69208000  0.62634000  1.0
  C  C46  1  0.27670000  0.57752000  0.23394000  1.0
  C  C47  1  0.72331000  0.42249000  0.76608000  1.0
  C  C48  1  0.31241000  0.47981000  0.27991000  1.0
  C  C49  1  0.68759000  0.52019000  0.72011000  1.0
  C  C50  1  0.24287000  0.32378000  0.21764000  1.0
  C  C51  1  0.75713000  0.67621000  0.78237000  1.0
  C  C52  1  0.28070000  0.23800000  0.26396000  1.0
  C  C53  1  0.71930000  0.76199000  0.73605000  1.0
  C  C54  1  0.41379000  0.54817000  0.39005000  1.0
  C  C55  1  0.58619000  0.45182000  0.60997000  1.0
  C  C56  1  0.19081000  0.63276000  0.87885000  1.0
  C  C57  1  0.80920000  0.36725000  0.12115000  1.0
  C  C58  1  0.90599000  0.80312000  0.45591000  1.0
  C  C59  1  0.09401000  0.19689000  0.54408000  1.0
  C  C60  1  0.09991000  0.90426000  0.64661000  1.0
  C  C61  1  0.90007000  0.09574000  0.35338000  1.0
  C  C62  1  0.09561000  0.77784000  0.67634000  1.0
  C  C63  1  0.90437000  0.22215000  0.32364000  1.0
  C  C64  1  0.21899000  0.60014000  0.67218000  1.0
  C  C65  1  0.78100000  0.39987000  0.32781000  1.0
  C  C66  1  0.40960000  0.81498000  0.98404000  1.0
  C  C67  1  0.59041000  0.18504000  0.01596000  1.0
  C  C68  1  0.41169000  0.78513000  0.86697000  1.0
  C  C69  1  0.58831000  0.21488000  0.13303000  1.0
  C  C70  1  0.21177000  0.71243000  0.62830000  1.0
  C  C71  1  0.78821000  0.28756000  0.37169000  1.0
  C  C72  1  0.91591000  0.76455000  0.33847000  1.0
  C  C73  1  0.08410000  0.23546000  0.66152000  1.0
  C  C74  1  0.14665000  0.84617000  0.43934000  1.0
  C  C75  1  0.85335000  0.15383000  0.56066000  1.0
  N  N76  1  0.06683000  0.79168000  0.32951000  1.0
  N  N77  1  0.93318000  0.20832000  0.67048000  1.0
  N  N78  1  0.27140000  0.71959000  0.99039000  1.0
  N  N79  1  0.72862000  0.28041000  0.00961000  1.0
  N  N80  1  0.27215000  0.66880000  0.80140000  1.0
  N  N81  1  0.72785000  0.33122000  0.19860000  1.0
  N  N82  1  0.05335000  0.85500000  0.51878000  1.0
  N  N83  1  0.94664000  0.14500000  0.48121000  1.0
  O  O84  1  0.29174000  0.00671000  0.22432000  1.0
  O  O85  1  0.70827000  0.99329000  0.77567000  1.0
  O  O86  1  0.16198000  0.51536000  0.14578000  1.0
  O  O87  1  0.83806000  0.48465000  0.85422000  1.0
  O  O88  1  0.93553000  0.71862000  0.07252000  1.0
  O  O89  1  0.06449000  0.28138000  0.92748000  1.0
  O  O90  1  0.08294000  0.00593000  0.12802000  1.0
  O  O91  1  0.91707000  0.99406000  0.87197000  1.0
  O  O92  1  0.35560000  0.71721000  0.28522000  1.0
  O  O93  1  0.64442000  0.28280000  0.71482000  1.0
