# generated using pymatgen
data_AlH9C21N3(ClO2)3
_symmetry_space_group_name_H-M   'P 1'
_cell_length_a   3.97605000
_cell_length_b   27.93930000
_cell_length_c   27.93970001
_cell_angle_alpha   60.00142076
_cell_angle_beta   89.99930001
_cell_angle_gamma   89.99930000
_symmetry_Int_Tables_number   1
_chemical_formula_structural   AlH9C21N3(ClO2)3
_chemical_formula_sum   'Al2 H18 C42 N6 Cl6 O12'
_cell_volume   2687.97946093
_cell_formula_units_Z   2
loop_
 _symmetry_equiv_pos_site_id
 _symmetry_equiv_pos_as_xyz
  1  'x, y, z'
loop_
 _atom_site_type_symbol
 _atom_site_label
 _atom_site_symmetry_multiplicity
 _atom_site_fract_x
 _atom_site_fract_y
 _atom_site_fract_z
 _atom_site_occupancy
  Al  Al0  1  0.01028000  0.00000000  0.50000000  1.0
  Al  Al1  1  0.01029000  0.66667000  0.16666000  1.0
  H  H2  1  0.46957000  0.51142000  0.31073000  1.0
  H  H3  1  0.47969000  0.40768000  0.36015000  1.0
  H  H4  1  0.51112000  0.41384000  0.20326000  1.0
  H  H5  1  0.51114000  0.25283000  0.46340000  1.0
  H  H6  1  0.47968000  0.25900000  0.30651000  1.0
  H  H7  1  0.46955000  0.15525000  0.35593000  1.0
  H  H8  1  0.46951000  0.81074000  0.17785000  1.0
  H  H9  1  0.47964000  0.86016000  0.23217000  1.0
  H  H10  1  0.51118000  0.70326000  0.38290000  1.0
  H  H11  1  0.51114000  0.96341000  0.28377000  1.0
  H  H12  1  0.47966000  0.80651000  0.43449000  1.0
  H  H13  1  0.46953000  0.85593000  0.48882000  1.0
  H  H14  1  0.46958000  0.67785000  0.01141000  1.0
  H  H15  1  0.47969000  0.73217000  0.90767000  1.0
  H  H16  1  0.51114000  0.88290000  0.91384000  1.0
  H  H17  1  0.51116000  0.78377000  0.75282000  1.0
  H  H18  1  0.47965000  0.93449000  0.75900000  1.0
  H  H19  1  0.46955000  0.98882000  0.65526000  1.0
  C  C20  1  0.50770000  0.95200000  0.58456000  1.0
  C  C21  1  0.50770000  0.08455000  0.46345000  1.0
  C  C22  1  0.50770000  0.96345000  0.45200000  1.0
  C  C23  1  0.50770000  0.58211000  0.20322000  1.0
  C  C24  1  0.50770000  0.70322000  0.21466000  1.0
  C  C25  1  0.50771000  0.71467000  0.08211000  1.0
  C  C26  1  0.50025000  0.52069000  0.22975000  1.0
  C  C27  1  0.48275000  0.48936000  0.28777000  1.0
  C  C28  1  0.48733000  0.43215000  0.31526000  1.0
  C  C29  1  0.50007000  0.40496000  0.28436000  1.0
  C  C30  1  0.50845000  0.43560000  0.22650000  1.0
  C  C31  1  0.51189000  0.49313000  0.19936000  1.0
  C  C32  1  0.50846000  0.23108000  0.44016000  1.0
  C  C33  1  0.50008000  0.26171000  0.38231000  1.0
  C  C34  1  0.48732000  0.23452000  0.35141000  1.0
  C  C35  1  0.48274000  0.17732000  0.37889000  1.0
  C  C36  1  0.50024000  0.14598000  0.43692000  1.0
  C  C37  1  0.51190000  0.17354000  0.46731000  1.0
  C  C38  1  0.50022000  0.72975000  0.24956000  1.0
  C  C39  1  0.48270000  0.78778000  0.22287000  1.0
  C  C40  1  0.48729000  0.81526000  0.25259000  1.0
  C  C41  1  0.50007000  0.78436000  0.31068000  1.0
  C  C42  1  0.50847000  0.72650000  0.33790000  1.0
  C  C43  1  0.51189000  0.69936000  0.30751000  1.0
  C  C44  1  0.50846000  0.94016000  0.32877000  1.0
  C  C45  1  0.50007000  0.88231000  0.35598000  1.0
  C  C46  1  0.48731000  0.85141000  0.41407000  1.0
  C  C47  1  0.48273000  0.87889000  0.44380000  1.0
  C  C48  1  0.50024000  0.93692000  0.41710000  1.0
  C  C49  1  0.51190000  0.96731000  0.35915000  1.0
  C  C50  1  0.50025000  0.74957000  0.02068000  1.0
  C  C51  1  0.48276000  0.72287000  0.98935000  1.0
  C  C52  1  0.48734000  0.75260000  0.93214000  1.0
  C  C53  1  0.50008000  0.81069000  0.90496000  1.0
  C  C54  1  0.50846000  0.83790000  0.93560000  1.0
  C  C55  1  0.51190000  0.80753000  0.99312000  1.0
  C  C56  1  0.50847000  0.82877000  0.73107000  1.0
  C  C57  1  0.50008000  0.85598000  0.76171000  1.0
  C  C58  1  0.48732000  0.91409000  0.73451000  1.0
  C  C59  1  0.48274000  0.94379000  0.67732000  1.0
  C  C60  1  0.50025000  0.91711000  0.64598000  1.0
  C  C61  1  0.51191000  0.85915000  0.67354000  1.0
  N  N62  1  0.50133000  0.34699000  0.30716000  1.0
  N  N63  1  0.50135000  0.31967000  0.35951000  1.0
  N  N64  1  0.50135000  0.80716000  0.34585000  1.0
  N  N65  1  0.50133000  0.85951000  0.32082000  1.0
  N  N66  1  0.50135000  0.84585000  0.84699000  1.0
  N  N67  1  0.50134000  0.82082000  0.81968000  1.0
  Cl  Cl68  1  0.51279000  0.52920000  0.12794000  1.0
  Cl  Cl69  1  0.51280000  0.13747000  0.53873000  1.0
  Cl  Cl70  1  0.51282000  0.62794000  0.34285000  1.0
  Cl  Cl71  1  0.51280000  0.03873000  0.32381000  1.0
  Cl  Cl72  1  0.51280000  0.84285000  0.02920000  1.0
  Cl  Cl73  1  0.51282000  0.82380000  0.63747000  1.0
  O  O74  1  0.74756000  0.99659000  0.44446000  1.0
  O  O75  1  0.74756000  0.94446000  0.55895000  1.0
  O  O76  1  0.74757000  0.05896000  0.49659000  1.0
  O  O77  1  0.27613000  0.94974000  0.48809000  1.0
  O  O78  1  0.27612000  0.06217000  0.44974000  1.0
  O  O79  1  0.27614000  0.98809000  0.56218000  1.0
  O  O80  1  0.74757000  0.72221000  0.10771000  1.0
  O  O81  1  0.74756000  0.60772000  0.17007000  1.0
  O  O82  1  0.74756000  0.67008000  0.22220000  1.0
  O  O83  1  0.27612000  0.67857000  0.10449000  1.0
  O  O84  1  0.27612000  0.71694000  0.17857000  1.0
  O  O85  1  0.27614000  0.60449000  0.21693000  1.0
