# generated using pymatgen
data_Cu3H14C9(N3O2)2
_symmetry_space_group_name_H-M   'P 1'
_cell_length_a   10.75430000
_cell_length_b   14.52820000
_cell_length_c   14.53240000
_cell_angle_alpha   114.12600000
_cell_angle_beta   104.27800000
_cell_angle_gamma   104.26000000
_symmetry_Int_Tables_number   1
_chemical_formula_structural   Cu3H14C9(N3O2)2
_chemical_formula_sum   'Cu9 H42 C27 N18 O12'
_cell_volume   1847.07066503
_cell_formula_units_Z   3
loop_
 _symmetry_equiv_pos_site_id
 _symmetry_equiv_pos_as_xyz
  1  'x, y, z'
loop_
 _atom_site_type_symbol
 _atom_site_label
 _atom_site_symmetry_multiplicity
 _atom_site_fract_x
 _atom_site_fract_y
 _atom_site_fract_z
 _atom_site_occupancy
  Cu  Cu0  1  0.45430000  0.48988000  0.88882000  1.0
  Cu  Cu1  1  0.56534000  0.11096000  0.60084000  1.0
  Cu  Cu2  1  0.96441000  0.39909000  0.51020000  1.0
  Cu  Cu3  1  0.96447000  0.51057000  0.39996000  1.0
  Cu  Cu4  1  0.45358000  0.88898000  0.48927000  1.0
  Cu  Cu5  1  0.56481000  0.60022000  0.11079000  1.0
  Cu  Cu6  1  0.26359000  0.60354000  0.99971000  1.0
  Cu  Cu7  1  0.26369000  0.00034000  0.60373000  1.0
  Cu  Cu8  1  0.65985000  0.39608000  0.39640000  1.0
  H  H9  1  0.97694000  0.57297000  0.85318000  1.0
  H  H10  1  0.87537000  0.49073000  0.70857000  1.0
  H  H11  1  0.99306000  0.62518000  0.76228000  1.0
  H  H12  1  0.38177000  0.40547000  0.63783000  1.0
  H  H13  1  0.24826000  0.40721000  0.53683000  1.0
  H  H14  1  0.21694000  0.29346000  0.55940000  1.0
  H  H15  1  0.12387000  0.14731000  0.71970000  1.0
  H  H16  1  0.16703000  0.29199000  0.78193000  1.0
  H  H17  1  0.23115000  0.23833000  0.86271000  1.0
  H  H18  1  0.74397000  0.36191000  0.76729000  1.0
  H  H19  1  0.71154000  0.46296000  0.87011000  1.0
  H  H20  1  0.65791000  0.44072000  0.73392000  1.0
  H  H21  1  0.40413000  0.28000000  0.42722000  1.0
  H  H22  1  0.38509000  0.21798000  0.50982000  1.0
  H  H23  1  0.36839000  0.13698000  0.37545000  1.0
  H  H24  1  0.97653000  0.23225000  0.59430000  1.0
  H  H25  1  0.84144000  0.12946000  0.59259000  1.0
  H  H26  1  0.92395000  0.26566000  0.70647000  1.0
  H  H27  1  0.40370000  0.42617000  0.28004000  1.0
  H  H28  1  0.38488000  0.50929000  0.21859000  1.0
  H  H29  1  0.36747000  0.37479000  0.13698000  1.0
  H  H30  1  0.97622000  0.59380000  0.23277000  1.0
  H  H31  1  0.84120000  0.59162000  0.12948000  1.0
  H  H32  1  0.92298000  0.70567000  0.26555000  1.0
  H  H33  1  0.97758000  0.85430000  0.57413000  1.0
  H  H34  1  0.87564000  0.70975000  0.49137000  1.0
  H  H35  1  0.99280000  0.76288000  0.62588000  1.0
  H  H36  1  0.38207000  0.63868000  0.40643000  1.0
  H  H37  1  0.24929000  0.53776000  0.40895000  1.0
  H  H38  1  0.21694000  0.55958000  0.29475000  1.0
  H  H39  1  0.12329000  0.71968000  0.14584000  1.0
  H  H40  1  0.16588000  0.78138000  0.29037000  1.0
  H  H41  1  0.23004000  0.86276000  0.23728000  1.0
  H  H42  1  0.74329000  0.76748000  0.36123000  1.0
  H  H43  1  0.71115000  0.87077000  0.46209000  1.0
  H  H44  1  0.65721000  0.73475000  0.44027000  1.0
  H  H45  1  0.51290000  0.69461000  0.00030000  1.0
  H  H46  1  0.96595000  0.40885000  0.00027000  1.0
  H  H47  1  0.51224000  0.99948000  0.69408000  1.0
  H  H48  1  0.96574000  0.00028000  0.40876000  1.0
  H  H49  1  0.81848000  0.30579000  0.30561000  1.0
  H  H50  1  0.55517000  0.59030000  0.59051000  1.0
  C  C51  1  0.08859000  0.51149000  0.75713000  1.0
  C  C52  1  0.97753000  0.55247000  0.77192000  1.0
  C  C53  1  0.21723000  0.43926000  0.68303000  1.0
  C  C54  1  0.26962000  0.38320000  0.59981000  1.0
  C  C55  1  0.33151000  0.24315000  0.75398000  1.0
  C  C56  1  0.20580000  0.22855000  0.78031000  1.0
  C  C57  1  0.53419000  0.31698000  0.75581000  1.0
  C  C58  1  0.66990000  0.40009000  0.78307000  1.0
  C  C59  1  0.57744000  0.24572000  0.48887000  1.0
  C  C60  1  0.42542000  0.21942000  0.44795000  1.0
  C  C61  1  0.77831000  0.24383000  0.56093000  1.0
  C  C62  1  0.88676000  0.21649000  0.61673000  1.0
  C  C63  1  0.57691000  0.48782000  0.24560000  1.0
  C  C64  1  0.42495000  0.44711000  0.21955000  1.0
  C  C65  1  0.77767000  0.56001000  0.24376000  1.0
  C  C66  1  0.88620000  0.61591000  0.21656000  1.0
  C  C67  1  0.08900000  0.75796000  0.51258000  1.0
  C  C68  1  0.97785000  0.77287000  0.55338000  1.0
  C  C69  1  0.21744000  0.68369000  0.44034000  1.0
  C  C70  1  0.26999000  0.60048000  0.38448000  1.0
  C  C71  1  0.33092000  0.75423000  0.24204000  1.0
  C  C72  1  0.20495000  0.78024000  0.22722000  1.0
  C  C73  1  0.53366000  0.75627000  0.31621000  1.0
  C  C74  1  0.66938000  0.78364000  0.39942000  1.0
  C  C75  1  0.06621000  0.45372000  0.00006000  1.0
  C  C76  1  0.06612000  0.00024000  0.45372000  1.0
  C  C77  1  0.61107000  0.54559000  0.54581000  1.0
  N  N78  1  0.20014000  0.52980000  0.83825000  1.0
  N  N79  1  0.28128000  0.48356000  0.79113000  1.0
  N  N80  1  0.09611000  0.45439000  0.65913000  1.0
  N  N81  1  0.36174000  0.16187000  0.69107000  1.0
  N  N82  1  0.49001000  0.20884000  0.69196000  1.0
  N  N83  1  0.43712000  0.34108000  0.79491000  1.0
  N  N84  1  0.67058000  0.30866000  0.47059000  1.0
  N  N85  1  0.79797000  0.30776000  0.51674000  1.0
  N  N86  1  0.64216000  0.20475000  0.54586000  1.0
  N  N87  1  0.67014000  0.46963000  0.30862000  1.0
  N  N88  1  0.79760000  0.51594000  0.30779000  1.0
  N  N89  1  0.64144000  0.54478000  0.20456000  1.0
  N  N90  1  0.20040000  0.83904000  0.53060000  1.0
  N  N91  1  0.28146000  0.79177000  0.48425000  1.0
  N  N92  1  0.09646000  0.65987000  0.45568000  1.0
  N  N93  1  0.36140000  0.69132000  0.16094000  1.0
  N  N94  1  0.48978000  0.69230000  0.20816000  1.0
  N  N95  1  0.43640000  0.79530000  0.34007000  1.0
  O  O96  1  0.45585000  0.63015000  0.99921000  1.0
  O  O97  1  0.61945000  0.52606000  0.99974000  1.0
  O  O98  1  0.07329000  0.54379000  0.99963000  1.0
  O  O99  1  0.15879000  0.41628000  0.00026000  1.0
  O  O100  1  0.45634000  0.00069000  0.63078000  1.0
  O  O101  1  0.61940000  0.99983000  0.52621000  1.0
  O  O102  1  0.07352000  0.00045000  0.54410000  1.0
  O  O103  1  0.15848000  0.00004000  0.41612000  1.0
  O  O104  1  0.82544000  0.36906000  0.36995000  1.0
  O  O105  1  0.09329000  0.47326000  0.47354000  1.0
  O  O106  1  0.52859000  0.45518000  0.45549000  1.0
  O  O107  1  0.74101000  0.58345000  0.58360000  1.0
