# generated using pymatgen
data_ZnH13C25NO10
_symmetry_space_group_name_H-M   'P 1'
_cell_length_a   16.59540000
_cell_length_b   17.49660000
_cell_length_c   17.84420000
_cell_angle_alpha   90.79720000
_cell_angle_beta   92.79610000
_cell_angle_gamma   100.73000000
_symmetry_Int_Tables_number   1
_chemical_formula_structural   ZnH13C25NO10
_chemical_formula_sum   'Zn2 H26 C50 N2 O20'
_cell_volume   5083.24729341
_cell_formula_units_Z   2
loop_
 _symmetry_equiv_pos_site_id
 _symmetry_equiv_pos_as_xyz
  1  'x, y, z'
loop_
 _atom_site_type_symbol
 _atom_site_label
 _atom_site_symmetry_multiplicity
 _atom_site_fract_x
 _atom_site_fract_y
 _atom_site_fract_z
 _atom_site_occupancy
  Zn  Zn0  1  0.58740000  0.50461000  0.50557000  1.0
  Zn  Zn1  1  0.41353000  0.49030000  0.49894000  1.0
  H  H2  1  0.68719000  0.41443000  0.43752000  1.0
  H  H3  1  0.31451000  0.56310000  0.58694000  1.0
  H  H4  1  0.83437000  0.40026000  0.42905000  1.0
  H  H5  1  0.16730000  0.57221000  0.60493000  1.0
  H  H6  1  0.41209000  0.25831000  0.37685000  1.0
  H  H7  1  0.60441000  0.73851000  0.40503000  1.0
  H  H8  1  0.60950000  0.87873000  0.38074000  1.0
  H  H9  1  0.41516000  0.11930000  0.35187000  1.0
  H  H10  1  0.61701000  0.46324000  0.12312000  1.0
  H  H11  1  0.39284000  0.56669000  0.87114000  1.0
  H  H12  1  0.62017000  0.45841000  0.26341000  1.0
  H  H13  1  0.39420000  0.55539000  0.73119000  1.0
  H  H14  1  0.40237000  0.56903000  0.12732000  1.0
  H  H15  1  0.61323000  0.46971000  0.88891000  1.0
  H  H16  1  0.37976000  0.77432000  0.61900000  1.0
  H  H17  1  0.55530000  0.21502000  0.65991000  1.0
  H  H18  1  0.96361000  0.58228000  0.59874000  1.0
  H  H19  1  0.03603000  0.42642000  0.40869000  1.0
  H  H20  1  0.67356000  0.61145000  0.59956000  1.0
  H  H21  1  0.33040000  0.41737000  0.38218000  1.0
  H  H22  1  0.34216000  0.01280000  0.40448000  1.0
  H  H23  1  0.66687000  0.98431000  0.45568000  1.0
  H  H24  1  0.54919000  0.12016000  0.62752000  1.0
  H  H25  1  0.41078000  0.87365000  0.60476000  1.0
  H  H26  1  0.35913000  0.59086000  0.23957000  1.0
  H  H27  1  0.66360000  0.44064000  0.78338000  1.0
  C  C28  1  0.49938000  0.50188000  0.64722000  1.0
  C  C29  1  0.51723000  0.50069000  0.35750000  1.0
  C  C30  1  0.57106000  0.48482000  0.15475000  1.0
  C  C31  1  0.44084000  0.54316000  0.84431000  1.0
  C  C32  1  0.57239000  0.48186000  0.23239000  1.0
  C  C33  1  0.44154000  0.53646000  0.76683000  1.0
  C  C34  1  0.51288000  0.50788000  0.27424000  1.0
  C  C35  1  0.50309000  0.50695000  0.73086000  1.0
  C  C36  1  0.45094000  0.53966000  0.23542000  1.0
  C  C37  1  0.56660000  0.48395000  0.77583000  1.0
  C  C38  1  0.44990000  0.54404000  0.15730000  1.0
  C  C39  1  0.56530000  0.48900000  0.85395000  1.0
  C  C40  1  0.50905000  0.51645000  0.11601000  1.0
  C  C41  1  0.50307000  0.51827000  0.88912000  1.0
  C  C42  1  0.50603000  0.51987000  0.03684000  1.0
  C  C43  1  0.50378000  0.52074000  0.96838000  1.0
  C  C44  1  0.85333000  0.54468000  0.56408000  1.0
  C  C45  1  0.14628000  0.45531000  0.44682000  1.0
  C  C46  1  0.76920000  0.54889000  0.56497000  1.0
  C  C47  1  0.23034000  0.45288000  0.44119000  1.0
  C  C48  1  0.73627000  0.45041000  0.47193000  1.0
  C  C49  1  0.26496000  0.53350000  0.54863000  1.0
  C  C50  1  0.51323000  0.64886000  0.49930000  1.0
  C  C51  1  0.47356000  0.34566000  0.49740000  1.0
  C  C52  1  0.81771000  0.44283000  0.46764000  1.0
  C  C53  1  0.18347000  0.53835000  0.55818000  1.0
  C  C54  1  0.87811000  0.49141000  0.51297000  1.0
  C  C55  1  0.12240000  0.49846000  0.50743000  1.0
  C  C56  1  0.96287000  0.49115000  0.51014000  1.0
  C  C57  1  0.03780000  0.49808000  0.51279000  1.0
  C  C58  1  0.52239000  0.73586000  0.49462000  1.0
  C  C59  1  0.46704000  0.25898000  0.48865000  1.0
  C  C60  1  0.47745000  0.77896000  0.53927000  1.0
  C  C61  1  0.49791000  0.21484000  0.54543000  1.0
  C  C62  1  0.47933000  0.85832000  0.52404000  1.0
  C  C63  1  0.50216000  0.13630000  0.52974000  1.0
  C  C64  1  0.52688000  0.89558000  0.46625000  1.0
  C  C65  1  0.47255000  0.10065000  0.45923000  1.0
  C  C66  1  0.57301000  0.85137000  0.42573000  1.0
  C  C67  1  0.43818000  0.14566000  0.40637000  1.0
  C  C68  1  0.57049000  0.77254000  0.43903000  1.0
  C  C69  1  0.43631000  0.22398000  0.42003000  1.0
  C  C70  1  0.53455000  0.97977000  0.45689000  1.0
  C  C71  1  0.46876000  0.01708000  0.44665000  1.0
  C  C72  1  0.43058000  0.74400000  0.60192000  1.0
  C  C73  1  0.52114000  0.24926000  0.62061000  1.0
  C  C74  1  0.73710000  0.60439000  0.61537000  1.0
  C  C75  1  0.26250000  0.40958000  0.37983000  1.0
  C  C76  1  0.38650000  0.97373000  0.41899000  1.0
  C  C77  1  0.62065000  0.02330000  0.45685000  1.0
  N  N78  1  0.71361000  0.50296000  0.51808000  1.0
  N  N79  1  0.28692000  0.49143000  0.49222000  1.0
  O  O80  1  0.56684000  0.50390000  0.61565000  1.0
  O  O81  1  0.44970000  0.48947000  0.39009000  1.0
  O  O82  1  0.42913000  0.49705000  0.61312000  1.0
  O  O83  1  0.58821000  0.50517000  0.39013000  1.0
  O  O84  1  0.57946000  0.62205000  0.50292000  1.0
  O  O85  1  0.40702000  0.37144000  0.49830000  1.0
  O  O86  1  0.44045000  0.61048000  0.49428000  1.0
  O  O87  1  0.54615000  0.38463000  0.49697000  1.0
  O  O88  1  0.44138000  0.68651000  0.63660000  1.0
  O  O89  1  0.50544000  0.31064000  0.64403000  1.0
  O  O90  1  0.90878000  0.59169000  0.60950000  1.0
  O  O91  1  0.09037000  0.41736000  0.39571000  1.0
  O  O92  1  0.77685000  0.63898000  0.66905000  1.0
  O  O93  1  0.21936000  0.37022000  0.33066000  1.0
  O  O94  1  0.36587000  0.90312000  0.41042000  1.0
  O  O95  1  0.64292000  0.09409000  0.45650000  1.0
  O  O96  1  0.53100000  0.09022000  0.58127000  1.0
  O  O97  1  0.43964000  0.90403000  0.56554000  1.0
  O  O98  1  0.39370000  0.56774000  0.27495000  1.0
  O  O99  1  0.62813000  0.45564000  0.74325000  1.0
