# generated using pymatgen
data_Al3H28C48(N3O7)2
_symmetry_space_group_name_H-M   'P 1'
_cell_length_a   12.22510000
_cell_length_b   12.70800000
_cell_length_c   27.76140000
_cell_angle_alpha   90.25150000
_cell_angle_beta   90.94310000
_cell_angle_gamma   118.61650000
_symmetry_Int_Tables_number   1
_chemical_formula_structural   Al3H28C48(N3O7)2
_chemical_formula_sum   'Al6 H56 C96 N12 O28'
_cell_volume   3785.18908049
_cell_formula_units_Z   2
loop_
 _symmetry_equiv_pos_site_id
 _symmetry_equiv_pos_as_xyz
  1  'x, y, z'
loop_
 _atom_site_type_symbol
 _atom_site_label
 _atom_site_symmetry_multiplicity
 _atom_site_fract_x
 _atom_site_fract_y
 _atom_site_fract_z
 _atom_site_occupancy
  Al  Al0  1  0.38631000  0.56900000  0.49636000  1.0
  Al  Al1  1  0.42820000  0.34023000  0.50062000  1.0
  Al  Al2  1  0.65383000  0.58338000  0.49920000  1.0
  Al  Al3  1  0.93949000  0.08708000  0.98527000  1.0
  Al  Al4  1  0.67597000  0.08303000  0.98510000  1.0
  Al  Al5  1  0.90561000  0.32221000  0.98385000  1.0
  H  H6  1  0.16507000  0.51741000  0.22888000  1.0
  H  H7  1  0.81909000  0.82022000  0.61800000  1.0
  H  H8  1  0.97891000  0.95397000  0.77829000  1.0
  H  H9  1  0.95617000  0.90346000  0.69118000  1.0
  H  H10  1  0.43163000  0.72001000  0.62276000  1.0
  H  H11  1  0.06040000  0.46079000  0.85577000  1.0
  H  H12  1  0.12356000  0.57377000  0.68940000  1.0
  H  H13  1  0.13869000  0.16807000  0.86627000  1.0
  H  H14  1  0.21800000  0.10475000  0.79639000  1.0
  H  H15  1  0.26604000  0.11864000  0.70970000  1.0
  H  H16  1  0.28096000  0.21490000  0.63017000  1.0
  H  H17  1  0.98781000  0.33372000  0.28653000  1.0
  H  H18  1  0.62872000  0.63304000  0.25594000  1.0
  H  H19  1  0.45374000  0.19105000  0.21193000  1.0
  H  H20  1  0.37601000  0.65265000  0.20823000  1.0
  H  H21  1  0.46282000  0.65869000  0.16101000  1.0
  H  H22  1  0.49532000  0.86370000  0.27314000  1.0
  H  H23  1  0.71519000  0.04908000  0.23095000  1.0
  H  H24  1  0.43791000  0.55391000  0.25672000  1.0
  H  H25  1  0.37888000  0.52313000  0.31191000  1.0
  H  H26  1  0.31934000  0.30794000  0.19887000  1.0
  H  H27  1  0.54412000  0.10249000  0.85156000  1.0
  H  H28  1  0.13927000  0.12316000  0.25600000  1.0
  H  H29  1  0.54668000  0.04943000  0.27200000  1.0
  H  H30  1  0.62220000  0.12823000  0.32139000  1.0
  H  H31  1  0.44923000  0.02741000  0.76971000  1.0
  H  H32  1  0.80579000  0.47535000  0.87518000  1.0
  H  H33  1  0.84715000  0.66782000  0.65494000  1.0
  H  H34  1  0.79830000  0.61060000  0.59719000  1.0
  H  H35  1  0.52107000  0.41585000  0.25766000  1.0
  H  H36  1  0.39668000  0.74564000  0.86474000  1.0
  H  H37  1  0.49233000  0.84666000  0.90748000  1.0
  H  H38  1  0.25725000  0.74435000  0.78226000  1.0
  H  H39  1  0.95139000  0.16489000  0.21113000  1.0
  H  H40  1  0.35873000  0.84629000  0.82188000  1.0
  H  H41  1  0.34975000  0.81440000  0.65618000  1.0
  H  H42  1  0.28827000  0.82378000  0.70905000  1.0
  H  H43  1  0.21593000  0.53459000  0.57557000  1.0
  H  H44  1  0.17365000  0.58442000  0.62718000  1.0
  H  H45  1  0.03422000  0.56098000  0.81023000  1.0
  H  H46  1  0.03488000  0.61380000  0.75605000  1.0
  H  H47  1  0.78534000  0.62469000  0.20271000  1.0
  H  H48  1  0.77671000  0.53641000  0.15651000  1.0
  H  H49  1  0.87509000  0.48021000  0.27088000  1.0
  H  H50  1  0.51190000  0.20471000  0.61404000  1.0
  H  H51  1  0.80802000  0.25697000  0.22461000  1.0
  H  H52  1  0.94440000  0.85333000  0.23283000  1.0
  H  H53  1  0.89525000  0.85052000  0.17628000  1.0
  H  H54  1  0.94464000  0.06404000  0.28509000  1.0
  H  H55  1  0.86822000  0.98636000  0.33304000  1.0
  H  H56  1  0.44391000  0.06364000  0.68273000  1.0
  H  H57  1  0.85222000  0.62079000  0.80747000  1.0
  H  H58  1  0.84888000  0.65666000  0.72195000  1.0
  H  H59  1  0.88809000  0.97035000  0.85451000  1.0
  H  H60  1  0.29360000  0.69003000  0.47629000  1.0
  H  H61  1  0.09550000  0.03951000  0.96438000  1.0
  C  C62  1  0.27151000  0.35532000  0.43044000  1.0
  C  C63  1  0.65581000  0.37263000  0.33962000  1.0
  C  C64  1  0.77696000  0.91585000  0.26882000  1.0
  C  C65  1  0.61776000  0.39987000  0.43118000  1.0
  C  C66  1  0.76758000  0.82648000  0.22722000  1.0
  C  C67  1  0.71059000  0.91481000  0.10283000  1.0
  C  C68  1  0.62665000  0.76261000  0.38337000  1.0
  C  C69  1  0.69552000  0.95683000  0.23716000  1.0
  C  C70  1  0.68745000  0.86768000  0.19535000  1.0
  C  C71  1  0.57427000  0.85547000  0.25934000  1.0
  C  C72  1  0.65408000  0.81398000  0.29120000  1.0
  C  C73  1  0.64497000  0.38056000  0.38297000  1.0
  C  C74  1  0.56346000  0.76662000  0.21820000  1.0
  C  C75  1  0.64617000  0.72459000  0.24967000  1.0
  C  C76  1  0.70199000  0.89419000  0.14586000  1.0
  C  C77  1  0.60000000  0.71152000  0.43061000  1.0
  C  C78  1  0.63871000  0.78659000  0.34066000  1.0
  C  C79  1  0.06074000  0.32799000  0.26627000  1.0
  C  C80  1  0.16033000  0.43035000  0.23533000  1.0
  C  C81  1  0.10752000  0.33582000  0.10080000  1.0
  C  C82  1  0.21392000  0.31355000  0.38364000  1.0
  C  C83  1  0.04090000  0.23321000  0.22619000  1.0
  C  C84  1  0.74465000  0.29261000  0.23277000  1.0
  C  C85  1  0.14175000  0.33630000  0.19443000  1.0
  C  C86  1  0.14527000  0.21064000  0.24967000  1.0
  C  C87  1  0.16451000  0.30437000  0.29092000  1.0
  C  C88  1  0.24562000  0.31292000  0.21886000  1.0
  C  C89  1  0.28193000  0.36906000  0.56787000  1.0
  C  C90  1  0.26613000  0.40760000  0.25918000  1.0
  C  C91  1  0.12626000  0.34279000  0.14422000  1.0
  C  C92  1  0.18518000  0.30073000  0.34091000  1.0
  C  C93  1  0.57443000  0.27630000  0.63859000  1.0
  C  C94  1  0.57692000  0.25353000  0.68756000  1.0
  C  C95  1  0.66534000  0.31579000  0.19249000  1.0
  C  C96  1  0.58503000  0.21227000  0.78806000  1.0
  C  C97  1  0.50654000  0.11676000  0.75542000  1.0
  C  C98  1  0.50324000  0.13705000  0.70735000  1.0
  C  C99  1  0.59562000  0.19259000  0.83718000  1.0
  C  C100  1  0.67676000  0.28674000  0.86792000  1.0
  C  C101  1  0.62945000  0.40661000  0.56779000  1.0
  C  C102  1  0.73174000  0.48726000  0.64993000  1.0
  C  C103  1  0.72873000  0.46824000  0.70089000  1.0
  C  C104  1  0.65443000  0.35138000  0.71932000  1.0
  C  C105  1  0.79811000  0.56443000  0.73431000  1.0
  C  C106  1  0.78205000  0.41615000  0.25717000  1.0
  C  C107  1  0.80011000  0.54533000  0.78271000  1.0
  C  C108  1  0.73403000  0.42731000  0.80187000  1.0
  C  C109  1  0.65730000  0.33059000  0.76966000  1.0
  C  C110  1  0.74390000  0.40345000  0.85059000  1.0
  C  C111  1  0.64940000  0.38977000  0.61896000  1.0
  C  C112  1  0.74023000  0.81030000  0.63898000  1.0
  C  C113  1  0.59878000  0.71053000  0.56729000  1.0
  C  C114  1  0.75643000  0.84307000  0.68793000  1.0
  C  C115  1  0.78359000  0.90108000  0.78785000  1.0
  C  C116  1  0.88797000  0.91684000  0.76012000  1.0
  C  C117  1  0.66328000  0.35667000  0.28962000  1.0
  C  C118  1  0.87534000  0.88878000  0.71216000  1.0
  C  C119  1  0.79691000  0.93148000  0.83661000  1.0
  C  C120  1  0.69460000  0.91250000  0.86436000  1.0
  C  C121  1  0.52159000  0.75781000  0.64159000  1.0
  C  C122  1  0.53471000  0.79265000  0.69029000  1.0
  C  C123  1  0.65153000  0.83014000  0.71476000  1.0
  C  C124  1  0.43606000  0.79612000  0.71599000  1.0
  C  C125  1  0.62271000  0.23043000  0.26463000  1.0
  C  C126  1  0.44353000  0.81350000  0.76573000  1.0
  C  C127  1  0.55765000  0.84084000  0.79190000  1.0
  C  C128  1  0.70366000  0.44193000  0.21700000  1.0
  C  C129  1  0.66364000  0.85701000  0.76492000  1.0
  C  C130  1  0.57279000  0.85974000  0.84309000  1.0
  C  C131  1  0.62263000  0.76375000  0.61653000  1.0
  C  C132  1  0.20115000  0.43921000  0.63756000  1.0
  C  C133  1  0.17216000  0.42940000  0.68797000  1.0
  C  C134  1  0.12095000  0.41599000  0.78868000  1.0
  C  C135  1  0.11077000  0.50315000  0.75873000  1.0
  C  C136  1  0.13315000  0.50625000  0.71028000  1.0
  C  C137  1  0.54692000  0.25642000  0.22499000  1.0
  C  C138  1  0.09167000  0.40392000  0.83775000  1.0
  C  C139  1  0.58448000  0.38052000  0.24920000  1.0
  C  C140  1  0.09667000  0.31411000  0.86500000  1.0
  C  C141  1  0.24927000  0.27294000  0.64692000  1.0
  C  C142  1  0.22258000  0.26282000  0.69579000  1.0
  C  C143  1  0.18430000  0.34310000  0.71665000  1.0
  C  C144  1  0.23407000  0.17726000  0.72582000  1.0
  C  C145  1  0.20785000  0.16956000  0.77366000  1.0
  C  C146  1  0.16748000  0.24727000  0.79559000  1.0
  C  C147  1  0.15786000  0.33599000  0.76672000  1.0
  C  C148  1  0.13557000  0.23734000  0.84419000  1.0
  C  C149  1  0.68703000  0.29155000  0.09947000  1.0
  C  C150  1  0.67369000  0.29989000  0.14259000  1.0
  C  C151  1  0.24036000  0.35856000  0.61770000  1.0
  C  C152  1  0.73003000  0.95899000  0.05439000  1.0
  C  C153  1  0.71633000  0.27147000  0.05171000  1.0
  C  C154  1  0.05880000  0.30092000  0.05248000  1.0
  C  C155  1  0.72373000  0.95466000  0.91516000  1.0
  C  C156  1  0.70177000  0.26034000  0.91766000  1.0
  C  C157  1  0.05011000  0.29274000  0.91500000  1.0
  N  N158  1  0.45438000  0.70466000  0.18960000  1.0
  N  N159  1  0.73440000  0.54109000  0.18721000  1.0
  N  N160  1  0.86945000  0.81388000  0.20958000  1.0
  N  N161  1  0.88565000  0.98119000  0.29758000  1.0
  N  N162  1  0.38390000  0.48729000  0.27957000  1.0
  N  N163  1  0.56990000  0.12500000  0.29185000  1.0
  N  N164  1  0.81227000  0.59620000  0.63225000  1.0
  N  N165  1  0.46957000  0.82824000  0.87181000  1.0
  N  N166  1  0.34264000  0.81981000  0.78666000  1.0
  N  N167  1  0.33085000  0.78433000  0.69054000  1.0
  N  N168  1  0.19157000  0.52331000  0.61091000  1.0
  N  N169  1  0.08314000  0.58877000  0.77935000  1.0
  O  O170  1  0.49321000  0.68158000  0.44695000  1.0
  O  O171  1  0.82125000  0.34984000  0.03539000  1.0
  O  O172  1  0.03881000  0.37592000  0.02761000  1.0
  O  O173  1  0.29842000  0.46197000  0.44106000  1.0
  O  O174  1  0.04502000  0.20370000  0.93712000  1.0
  O  O175  1  0.83358000  0.99134000  0.93078000  1.0
  O  O176  1  0.63692000  0.95773000  0.94111000  1.0
  O  O177  1  0.63267000  0.15501000  0.93396000  1.0
  O  O178  1  0.79604000  0.34226000  0.94076000  1.0
  O  O179  1  0.01211000  0.36428000  0.93211000  1.0
  O  O180  1  0.83954000  0.16503000  0.98519000  1.0
  O  O181  1  0.53766000  0.32191000  0.54458000  1.0
  O  O182  1  0.29529000  0.28435000  0.45627000  1.0
  O  O183  1  0.51726000  0.31824000  0.44927000  1.0
  O  O184  1  0.69300000  0.49983000  0.45186000  1.0
  O  O185  1  0.68638000  0.69631000  0.45130000  1.0
  O  O186  1  0.49099000  0.67313000  0.54904000  1.0
  O  O187  1  0.28164000  0.45092000  0.54155000  1.0
  O  O188  1  0.32163000  0.29709000  0.55252000  1.0
  O  O189  1  0.70078000  0.50863000  0.54808000  1.0
  O  O190  1  0.68802000  0.70033000  0.54678000  1.0
  O  O191  1  0.49101000  0.49729000  0.49824000  1.0
  O  O192  1  0.03445000  0.19665000  0.03944000  1.0
  O  O193  1  0.83036000  0.97937000  0.03469000  1.0
  O  O194  1  0.64338000  0.97818000  0.03616000  1.0
  O  O195  1  0.63903000  0.17467000  0.02969000  1.0
  O  O196  1  0.28423000  0.63056000  0.49976000  1.0
  O  O197  1  0.02765000  0.01149000  0.98666000  1.0
