# generated using pymatgen
data_CaH14C16(Cl2O3)3
_symmetry_space_group_name_H-M   'P 1'
_cell_length_a   7.75575000
_cell_length_b   7.89059000
_cell_length_c   19.39940000
_cell_angle_alpha   83.83580000
_cell_angle_beta   82.05520000
_cell_angle_gamma   85.05890000
_symmetry_Int_Tables_number   1
_chemical_formula_structural   CaH14C16(Cl2O3)3
_chemical_formula_sum   'Ca2 H28 C32 Cl12 O18'
_cell_volume   1165.93267519
_cell_formula_units_Z   2
loop_
 _symmetry_equiv_pos_site_id
 _symmetry_equiv_pos_as_xyz
  1  'x, y, z'
loop_
 _atom_site_type_symbol
 _atom_site_label
 _atom_site_symmetry_multiplicity
 _atom_site_fract_x
 _atom_site_fract_y
 _atom_site_fract_z
 _atom_site_occupancy
  Ca  Ca0  1  0.66961000  0.14686000  0.51873000  1.0
  Ca  Ca1  1  0.33040000  0.85314000  0.48126000  1.0
  H  H2  1  0.09062000  0.22808000  0.47792000  1.0
  H  H3  1  0.90939000  0.77191000  0.52209000  1.0
  H  H4  1  0.94040000  0.37032000  0.46677000  1.0
  H  H5  1  0.05961000  0.62967000  0.53323000  1.0
  H  H6  1  0.82297000  0.51988000  0.54681000  1.0
  H  H7  1  0.17704000  0.48011000  0.45319000  1.0
  H  H8  1  0.67955000  0.52142000  0.49776000  1.0
  H  H9  1  0.32045000  0.47857000  0.50225000  1.0
  H  H10  1  0.37922000  0.38922000  0.59924000  1.0
  H  H11  1  0.62079000  0.61075000  0.40077000  1.0
  H  H12  1  0.30160000  0.22654000  0.57136000  1.0
  H  H13  1  0.69841000  0.77344000  0.42864000  1.0
  H  H14  1  0.09617000  0.02358000  0.94099000  1.0
  H  H15  1  0.90382000  0.97645000  0.05901000  1.0
  H  H16  1  0.08473000  0.51558000  0.87861000  1.0
  H  H17  1  0.91527000  0.48443000  0.12140000  1.0
  H  H18  1  0.16656000  0.86673000  0.66339000  1.0
  H  H19  1  0.83344000  0.13325000  0.33661000  1.0
  H  H20  1  0.18228000  0.07947000  0.68309000  1.0
  H  H21  1  0.81771000  0.92051000  0.31692000  1.0
  H  H22  1  0.59850000  0.06312000  0.88086000  1.0
  H  H23  1  0.40150000  0.93687000  0.11914000  1.0
  H  H24  1  0.59582000  0.52102000  0.94386000  1.0
  H  H25  1  0.40417000  0.47895000  0.05613000  1.0
  H  H26  1  0.65326000  0.58638000  0.66699000  1.0
  H  H27  1  0.34676000  0.41365000  0.33301000  1.0
  H  H28  1  0.68031000  0.80832000  0.67204000  1.0
  H  H29  1  0.31968000  0.19171000  0.32795000  1.0
  C  C30  1  0.09432000  0.76280000  0.91622000  1.0
  C  C31  1  0.90569000  0.23723000  0.08379000  1.0
  C  C32  1  0.07592000  0.93999000  0.90224000  1.0
  C  C33  1  0.92408000  0.06004000  0.09776000  1.0
  C  C34  1  0.06884000  0.65356000  0.86714000  1.0
  C  C35  1  0.93116000  0.34646000  0.13287000  1.0
  C  C36  1  0.02979000  0.00830000  0.83751000  1.0
  C  C37  1  0.97020000  0.99172000  0.16249000  1.0
  C  C38  1  0.02286000  0.72558000  0.80266000  1.0
  C  C39  1  0.97713000  0.27444000  0.19735000  1.0
  C  C40  1  0.00142000  0.90319000  0.78675000  1.0
  C  C41  1  0.99857000  0.09682000  0.21325000  1.0
  C  C42  1  0.09233000  0.99073000  0.66974000  1.0
  C  C43  1  0.90766000  0.00926000  0.33026000  1.0
  C  C44  1  0.03139000  0.05720000  0.60038000  1.0
  C  C45  1  0.96862000  0.94279000  0.39962000  1.0
  C  C46  1  0.60212000  0.79448000  0.91875000  1.0
  C  C47  1  0.39788000  0.20550000  0.08125000  1.0
  C  C48  1  0.57945000  0.93449000  0.86959000  1.0
  C  C49  1  0.42054000  0.06550000  0.13040000  1.0
  C  C50  1  0.57785000  0.62891000  0.90505000  1.0
  C  C51  1  0.42215000  0.37108000  0.09495000  1.0
  C  C52  1  0.53034000  0.90571000  0.80545000  1.0
  C  C53  1  0.46966000  0.09429000  0.19455000  1.0
  C  C54  1  0.53014000  0.60388000  0.84048000  1.0
  C  C55  1  0.46985000  0.39612000  0.15951000  1.0
  C  C56  1  0.50529000  0.74098000  0.78951000  1.0
  C  C57  1  0.49470000  0.25901000  0.21049000  1.0
  C  C58  1  0.58592000  0.71487000  0.66857000  1.0
  C  C59  1  0.41409000  0.28515000  0.33142000  1.0
  C  C60  1  0.49548000  0.76116000  0.60374000  1.0
  C  C61  1  0.50454000  0.23884000  0.39626000  1.0
  Cl  Cl62  1  0.14717000  0.67843000  0.99737000  1.0
  Cl  Cl63  1  0.85284000  0.32161000  0.00263000  1.0
  Cl  Cl64  1  0.00653000  0.22607000  0.81777000  1.0
  Cl  Cl65  1  0.99346000  0.77395000  0.18223000  1.0
  Cl  Cl66  1  0.99027000  0.59748000  0.73981000  1.0
  Cl  Cl67  1  0.00970000  0.40252000  0.26021000  1.0
  Cl  Cl68  1  0.65946000  0.82385000  0.99950000  1.0
  Cl  Cl69  1  0.34053000  0.17612000  0.00050000  1.0
  Cl  Cl70  1  0.49732000  0.07463000  0.74342000  1.0
  Cl  Cl71  1  0.50267000  0.92538000  0.25658000  1.0
  Cl  Cl72  1  0.50099000  0.40175000  0.82117000  1.0
  Cl  Cl73  1  0.49900000  0.59825000  0.17882000  1.0
  O  O74  1  0.94859000  0.97260000  0.72448000  1.0
  O  O75  1  0.05141000  0.02740000  0.27552000  1.0
  O  O76  1  0.15755000  0.07821000  0.54948000  1.0
  O  O77  1  0.84247000  0.92179000  0.45052000  1.0
  O  O78  1  0.87310000  0.08897000  0.59495000  1.0
  O  O79  1  0.12692000  0.91103000  0.40505000  1.0
  O  O80  1  0.44930000  0.71424000  0.72795000  1.0
  O  O81  1  0.55070000  0.28577000  0.27204000  1.0
  O  O82  1  0.53491000  0.89692000  0.56426000  1.0
  O  O83  1  0.46510000  0.10308000  0.43573000  1.0
  O  O84  1  0.38264000  0.66666667  0.59025000  1.0
  O  O85  1  0.61736000  0.33333333  0.40975000  1.0
  O  O86  1  0.05298000  0.32193000  0.44352000  1.0
  O  O87  1  0.94702000  0.67805000  0.55649000  1.0
  O  O88  1  0.75292000  0.44105000  0.52593000  1.0
  O  O89  1  0.24708000  0.55894000  0.47408000  1.0
  O  O90  1  0.40115000  0.30041000  0.56674000  1.0
  O  O91  1  0.59886000  0.69957000  0.43326000  1.0
