# generated using pymatgen
data_EuH21(C3O)6
_symmetry_space_group_name_H-M   'P 1'
_cell_length_a   7.47981000
_cell_length_b   16.41715000
_cell_length_c   16.41720000
_cell_angle_alpha   59.99969776
_cell_angle_beta   89.99990000
_cell_angle_gamma   89.99960000
_symmetry_Int_Tables_number   1
_chemical_formula_structural   EuH21(C3O)6
_chemical_formula_sum   'Eu4 H84 C72 O24'
_cell_volume   1745.88940875
_cell_formula_units_Z   4
loop_
 _symmetry_equiv_pos_site_id
 _symmetry_equiv_pos_as_xyz
  1  'x, y, z'
loop_
 _atom_site_type_symbol
 _atom_site_label
 _atom_site_symmetry_multiplicity
 _atom_site_fract_x
 _atom_site_fract_y
 _atom_site_fract_z
 _atom_site_occupancy
  Eu  Eu0  1  0.35921000  0.66666667  0.66666667  1.0
  Eu  Eu1  1  0.85921000  0.33333333  0.33333333  1.0
  Eu  Eu2  1  0.85921000  0.66666667  0.66666667  1.0
  Eu  Eu3  1  0.35921000  0.33333333  0.33333333  1.0
  H  H4  1  0.73061000  0.00000000  0.80976000  1.0
  H  H5  1  0.73062000  0.19024000  0.00000000  1.0
  H  H6  1  0.73061000  0.80976000  0.19024000  1.0
  H  H7  1  0.23062000  0.00000000  0.19024000  1.0
  H  H8  1  0.23061000  0.80976000  0.00000000  1.0
  H  H9  1  0.23062000  0.19024000  0.80976000  1.0
  H  H10  1  0.59727000  1.00000000  0.51219000  1.0
  H  H11  1  0.59726000  0.48781000  0.00000000  1.0
  H  H12  1  0.59727000  0.51219000  0.48781000  1.0
  H  H13  1  0.09727000  0.00000000  0.48781000  1.0
  H  H14  1  0.09727000  0.51219000  1.00000000  1.0
  H  H15  1  0.09726000  0.48782000  0.51218000  1.0
  H  H16  1  0.81028000  0.00000000  0.55949000  1.0
  H  H17  1  0.81027000  0.44051000  0.00000000  1.0
  H  H18  1  0.81028000  0.55948000  0.44052000  1.0
  H  H19  1  0.31028000  0.00000000  0.44051000  1.0
  H  H20  1  0.31028000  0.55948000  0.00000000  1.0
  H  H21  1  0.31027000  0.44051000  0.55949000  1.0
  H  H22  1  0.37394000  0.84770000  0.74473000  1.0
  H  H23  1  0.37394000  0.40757000  0.84770000  1.0
  H  H24  1  0.37393000  0.74473000  0.40757000  1.0
  H  H25  1  0.87393000  0.15230000  0.25527000  1.0
  H  H26  1  0.87393000  0.59243000  0.15230000  1.0
  H  H27  1  0.87394000  0.25527000  0.59243000  1.0
  H  H28  1  0.87393000  0.74473000  0.84770000  1.0
  H  H29  1  0.87394000  0.84770000  0.40757000  1.0
  H  H30  1  0.87393000  0.40757000  0.74473000  1.0
  H  H31  1  0.37394000  0.25527000  0.15230000  1.0
  H  H32  1  0.37393000  0.15230000  0.59243000  1.0
  H  H33  1  0.37394000  0.59243000  0.25527000  1.0
  H  H34  1  0.33983000  0.91032000  0.62175000  1.0
  H  H35  1  0.33983000  0.46794000  0.91031000  1.0
  H  H36  1  0.33983000  0.62175000  0.46793000  1.0
  H  H37  1  0.83983000  0.08969000  0.37825000  1.0
  H  H38  1  0.83983000  0.53207000  0.08968000  1.0
  H  H39  1  0.83983000  0.37825000  0.53207000  1.0
  H  H40  1  0.83983000  0.62175000  0.91032000  1.0
  H  H41  1  0.83983000  0.91032000  0.46793000  1.0
  H  H42  1  0.83983000  0.46794000  0.62175000  1.0
  H  H43  1  0.33983000  0.37825000  0.08969000  1.0
  H  H44  1  0.33983000  0.08969000  0.53206000  1.0
  H  H45  1  0.33983000  0.53207000  0.37825000  1.0
  H  H46  1  0.21374000  0.00000000  0.69318000  1.0
  H  H47  1  0.21374000  0.30682000  0.00000000  1.0
  H  H48  1  0.21374000  0.69318000  0.30682000  1.0
  H  H49  1  0.71374000  0.00000000  0.30682000  1.0
  H  H50  1  0.71374000  0.69318000  1.00000000  1.0
  H  H51  1  0.71374000  0.30682000  0.69318000  1.0
  H  H52  1  0.85725000  0.91051000  0.73739000  1.0
  H  H53  1  0.85725000  0.35210000  0.91051000  1.0
  H  H54  1  0.85725000  0.73739000  0.35210000  1.0
  H  H55  1  0.35725000  0.08949000  0.26261000  1.0
  H  H56  1  0.35725000  0.64790000  0.08949000  1.0
  H  H57  1  0.35725000  0.26261000  0.64790000  1.0
  H  H58  1  0.35725000  0.73739000  0.91051000  1.0
  H  H59  1  0.35725000  0.91051000  0.35210000  1.0
  H  H60  1  0.35725000  0.35210000  0.73739000  1.0
  H  H61  1  0.85725000  0.26261000  0.08949000  1.0
  H  H62  1  0.85725000  0.08949000  0.64790000  1.0
  H  H63  1  0.85725000  0.64790000  0.26261000  1.0
  H  H64  1  0.67537000  0.84836000  0.81300000  1.0
  H  H65  1  0.67537000  0.33864000  0.84835000  1.0
  H  H66  1  0.67536000  0.81301000  0.33863000  1.0
  H  H67  1  0.17536000  0.15164000  0.18700000  1.0
  H  H68  1  0.17536000  0.66136000  0.15164000  1.0
  H  H69  1  0.17537000  0.18699000  0.66137000  1.0
  H  H70  1  0.17536000  0.81301000  0.84835000  1.0
  H  H71  1  0.17537000  0.84836000  0.33863000  1.0
  H  H72  1  0.17536000  0.33864000  0.81300000  1.0
  H  H73  1  0.67537000  0.18699000  0.15165000  1.0
  H  H74  1  0.67536000  0.15164000  0.66137000  1.0
  H  H75  1  0.67537000  0.66136000  0.18700000  1.0
  H  H76  1  0.41812000  0.06247000  0.77096000  1.0
  H  H77  1  0.41813000  0.16657000  0.06248000  1.0
  H  H78  1  0.41813000  0.77095000  0.16658000  1.0
  H  H79  1  0.91813000  0.93753000  0.22904000  1.0
  H  H80  1  0.91812000  0.83343000  0.93753000  1.0
  H  H81  1  0.91813000  0.22905000  0.83342000  1.0
  H  H82  1  0.91812000  0.77095000  0.06248000  1.0
  H  H83  1  0.91812000  0.06247000  0.16658000  1.0
  H  H84  1  0.91813000  0.16657000  0.77096000  1.0
  H  H85  1  0.41813000  0.22905000  0.93752000  1.0
  H  H86  1  0.41813000  0.93753000  0.83342000  1.0
  H  H87  1  0.41812000  0.83343000  0.22904000  1.0
  C  C88  1  0.67934000  0.82473000  0.66117000  1.0
  C  C89  1  0.67934000  0.51410000  0.82473000  1.0
  C  C90  1  0.67934000  0.66117000  0.51410000  1.0
  C  C91  1  0.17933000  0.17527000  0.33883000  1.0
  C  C92  1  0.17934000  0.48590000  0.17527000  1.0
  C  C93  1  0.17933000  0.33883000  0.48590000  1.0
  C  C94  1  0.17933000  0.66117000  0.82473000  1.0
  C  C95  1  0.17933000  0.82473000  0.51410000  1.0
  C  C96  1  0.17933000  0.51410000  0.66117000  1.0
  C  C97  1  0.67934000  0.33883000  0.17527000  1.0
  C  C98  1  0.67934000  0.17527000  0.48590000  1.0
  C  C99  1  0.67934000  0.48590000  0.33883000  1.0
  C  C100  1  0.61356000  0.91114000  0.66384000  1.0
  C  C101  1  0.61356000  0.42502000  0.91115000  1.0
  C  C102  1  0.61356000  0.66383000  0.42503000  1.0
  C  C103  1  0.11356000  0.08886000  0.33616000  1.0
  C  C104  1  0.11356000  0.57498000  0.08885000  1.0
  C  C105  1  0.11356000  0.33617000  0.57497000  1.0
  C  C106  1  0.11356000  0.66383000  0.91115000  1.0
  C  C107  1  0.11356000  0.91114000  0.42503000  1.0
  C  C108  1  0.11356000  0.42502000  0.66384000  1.0
  C  C109  1  0.61356000  0.33617000  0.08885000  1.0
  C  C110  1  0.61356000  0.08886000  0.57497000  1.0
  C  C111  1  0.61356000  0.57498000  0.33616000  1.0
  C  C112  1  0.65878000  0.00000000  0.75108000  1.0
  C  C113  1  0.65879000  0.24891000  0.00000000  1.0
  C  C114  1  0.65878000  0.75109000  0.24891000  1.0
  C  C115  1  0.15879000  0.00000000  0.24891000  1.0
  C  C116  1  0.15878000  0.75108000  0.00000000  1.0
  C  C117  1  0.15879000  0.24891000  0.75109000  1.0
  C  C118  1  0.66616000  0.00000000  0.57149000  1.0
  C  C119  1  0.66616000  0.42851000  0.00000000  1.0
  C  C120  1  0.66616000  0.57150000  0.42850000  1.0
  C  C121  1  0.16616000  0.00000000  0.42850000  1.0
  C  C122  1  0.16616000  0.57149000  0.00000000  1.0
  C  C123  1  0.16616000  0.42851000  0.57149000  1.0
  C  C124  1  0.41121000  0.91162000  0.67937000  1.0
  C  C125  1  0.41121000  0.40901000  0.91161000  1.0
  C  C126  1  0.41121000  0.67938000  0.40901000  1.0
  C  C127  1  0.91121000  0.08839000  0.32062000  1.0
  C  C128  1  0.91121000  0.59099000  0.08839000  1.0
  C  C129  1  0.91121000  0.32062000  0.59099000  1.0
  C  C130  1  0.91121000  0.67938000  0.91161000  1.0
  C  C131  1  0.91121000  0.91161000  0.40901000  1.0
  C  C132  1  0.91121000  0.40901000  0.67938000  1.0
  C  C133  1  0.41121000  0.32062000  0.08839000  1.0
  C  C134  1  0.41121000  0.08839000  0.59099000  1.0
  C  C135  1  0.41121000  0.59099000  0.32063000  1.0
  C  C136  1  0.35969000  1.00000000  0.68381000  1.0
  C  C137  1  0.35969000  0.31619000  0.00000000  1.0
  C  C138  1  0.35969000  0.68381000  0.31619000  1.0
  C  C139  1  0.85969000  0.00000000  0.31619000  1.0
  C  C140  1  0.85969000  0.68381000  0.00000000  1.0
  C  C141  1  0.85969000  0.31619000  0.68381000  1.0
  C  C142  1  0.71171000  0.91200000  0.74677000  1.0
  C  C143  1  0.71171000  0.34123000  0.91200000  1.0
  C  C144  1  0.71171000  0.74677000  0.34123000  1.0
  C  C145  1  0.21171000  0.08800000  0.25323000  1.0
  C  C146  1  0.21171000  0.65877000  0.08800000  1.0
  C  C147  1  0.21171000  0.25323000  0.65877000  1.0
  C  C148  1  0.21171000  0.74677000  0.91200000  1.0
  C  C149  1  0.21171000  0.91200000  0.34123000  1.0
  C  C150  1  0.21171000  0.34123000  0.74677000  1.0
  C  C151  1  0.71171000  0.25323000  0.08800000  1.0
  C  C152  1  0.71171000  0.08800000  0.65877000  1.0
  C  C153  1  0.71171000  0.65877000  0.25323000  1.0
  C  C154  1  0.45614000  0.00000000  0.76635000  1.0
  C  C155  1  0.45615000  0.23365000  0.00000000  1.0
  C  C156  1  0.45614000  0.76635000  0.23365000  1.0
  C  C157  1  0.95615000  0.00000000  0.23365000  1.0
  C  C158  1  0.95614000  0.76635000  0.00000000  1.0
  C  C159  1  0.95615000  0.23365000  0.76635000  1.0
  O  O160  1  0.59263000  0.74599000  0.70197000  1.0
  O  O161  1  0.59263000  0.55204000  0.74599000  1.0
  O  O162  1  0.59263000  0.70196000  0.55205000  1.0
  O  O163  1  0.09264000  0.25401000  0.29803000  1.0
  O  O164  1  0.09264000  0.44796000  0.25400000  1.0
  O  O165  1  0.09264000  0.29804000  0.44795000  1.0
  O  O166  1  0.09263000  0.70196000  0.74600000  1.0
  O  O167  1  0.09264000  0.74599000  0.55205000  1.0
  O  O168  1  0.09264000  0.55204000  0.70197000  1.0
  O  O169  1  0.59263000  0.29803000  0.25401000  1.0
  O  O170  1  0.59263000  0.25401000  0.44795000  1.0
  O  O171  1  0.59263000  0.44796000  0.29803000  1.0
  O  O172  1  0.82862000  0.82871000  0.62270000  1.0
  O  O173  1  0.82862000  0.54859000  0.82871000  1.0
  O  O174  1  0.82862000  0.62270000  0.54859000  1.0
  O  O175  1  0.32863000  0.17129000  0.37729000  1.0
  O  O176  1  0.32863000  0.45141000  0.17129000  1.0
  O  O177  1  0.32863000  0.37730000  0.45141000  1.0
  O  O178  1  0.32863000  0.62270000  0.82871000  1.0
  O  O179  1  0.32863000  0.82871000  0.54859000  1.0
  O  O180  1  0.32862000  0.54859000  0.62270000  1.0
  O  O181  1  0.82862000  0.37730000  0.17129000  1.0
  O  O182  1  0.82862000  0.17129000  0.45141000  1.0
  O  O183  1  0.82862000  0.45141000  0.37730000  1.0
