# generated using pymatgen
data_NiPH10C6NO6
_symmetry_space_group_name_H-M   'P 1'
_cell_length_a   6.55335000
_cell_length_b   7.38828000
_cell_length_c   9.98097000
_cell_angle_alpha   87.04110000
_cell_angle_beta   76.56800000
_cell_angle_gamma   70.15120000
_symmetry_Int_Tables_number   1
_chemical_formula_structural   NiPH10C6NO6
_chemical_formula_sum   'Ni2 P2 H20 C12 N2 O12'
_cell_volume   441.91919618
_cell_formula_units_Z   2
loop_
 _symmetry_equiv_pos_site_id
 _symmetry_equiv_pos_as_xyz
  1  'x, y, z'
loop_
 _atom_site_type_symbol
 _atom_site_label
 _atom_site_symmetry_multiplicity
 _atom_site_fract_x
 _atom_site_fract_y
 _atom_site_fract_z
 _atom_site_occupancy
  Ni  Ni0  1  0.26448000  0.17626000  0.03596000  1.0
  Ni  Ni1  1  0.73552000  0.82374000  0.96403000  1.0
  P  P2  1  0.72845000  0.21476000  0.10910000  1.0
  P  P3  1  0.27155000  0.78524000  0.89090000  1.0
  H  H4  1  0.54817000  0.27111000  0.48784000  1.0
  H  H5  1  0.45183000  0.72889000  0.51216000  1.0
  H  H6  1  0.67357000  0.40823000  0.66256000  1.0
  H  H7  1  0.32643000  0.59176000  0.33745000  1.0
  H  H8  1  0.08258000  0.35670000  0.62842000  1.0
  H  H9  1  0.91742000  0.64330000  0.37158000  1.0
  H  H10  1  0.34149000  0.18613000  0.40500000  1.0
  H  H11  1  0.65851000  0.81387000  0.59500000  1.0
  H  H12  1  0.66743000  0.01651000  0.29896000  1.0
  H  H13  1  0.33257000  0.98350000  0.70103000  1.0
  H  H14  1  0.94844000  0.93198000  0.20340000  1.0
  H  H15  1  0.05157000  0.06802000  0.79660000  1.0
  H  H16  1  0.11715000  0.55566000  0.07851000  1.0
  H  H17  1  0.88285000  0.44434000  0.92149000  1.0
  H  H18  1  0.31688000  0.44076000  0.14951000  1.0
  H  H19  1  0.68312000  0.55924000  0.85049000  1.0
  H  H20  1  0.37878000  0.39426000  0.83496000  1.0
  H  H21  1  0.62122000  0.60575000  0.16503000  1.0
  H  H22  1  0.50659000  0.17022000  0.80240000  1.0
  H  H23  1  0.49341000  0.82978000  0.19760000  1.0
  C  C24  1  0.87251000  0.15293000  0.35607000  1.0
  C  C25  1  0.12749000  0.84707000  0.64393000  1.0
  C  C26  1  0.72346000  0.25398000  0.47356000  1.0
  C  C27  1  0.27654000  0.74602000  0.52645000  1.0
  C  C28  1  0.79360000  0.32859000  0.57242000  1.0
  C  C29  1  0.20640000  0.67141000  0.42758000  1.0
  C  C30  1  0.02017000  0.30231000  0.55262000  1.0
  C  C31  1  0.97983000  0.69769000  0.44738000  1.0
  C  C32  1  0.16451000  0.20819000  0.43386000  1.0
  C  C33  1  0.83549000  0.79182000  0.56614000  1.0
  C  C34  1  0.81112000  0.06031000  0.25126000  1.0
  C  C35  1  0.18888000  0.93969000  0.74874000  1.0
  N  N36  1  0.09194000  0.13571000  0.33862000  1.0
  N  N37  1  0.90807000  0.86429000  0.66138000  1.0
  O  O38  1  0.93911000  0.23621000  0.01334000  1.0
  O  O39  1  0.06089000  0.76379000  0.98665000  1.0
  O  O40  1  0.61259000  0.10793000  0.03834000  1.0
  O  O41  1  0.38741000  0.89207000  0.96166000  1.0
  O  O42  1  0.56035000  0.40791000  0.17315000  1.0
  O  O43  1  0.43965000  0.59209000  0.82685000  1.0
  O  O44  1  0.23926000  0.04223000  0.22804000  1.0
  O  O45  1  0.76074000  0.95777000  0.77196000  1.0
  O  O46  1  0.16954000  0.44027000  0.13473000  1.0
  O  O47  1  0.83046000  0.55973000  0.86527000  1.0
  O  O48  1  0.35580000  0.26615000  0.83275000  1.0
  O  O49  1  0.64419000  0.73385000  0.16725000  1.0
