# generated using pymatgen
data_Hg2H19C19S(NO2)3
_symmetry_space_group_name_H-M   'P 1'
_cell_length_a   8.50843000
_cell_length_b   9.41098000
_cell_length_c   14.79730000
_cell_angle_alpha   89.21420000
_cell_angle_beta   74.02650000
_cell_angle_gamma   87.87720000
_symmetry_Int_Tables_number   1
_chemical_formula_structural   Hg2H19C19S(NO2)3
_chemical_formula_sum   'Hg4 H38 C38 S2 N6 O12'
_cell_volume   1138.32135407
_cell_formula_units_Z   2
loop_
 _symmetry_equiv_pos_site_id
 _symmetry_equiv_pos_as_xyz
  1  'x, y, z'
loop_
 _atom_site_type_symbol
 _atom_site_label
 _atom_site_symmetry_multiplicity
 _atom_site_fract_x
 _atom_site_fract_y
 _atom_site_fract_z
 _atom_site_occupancy
  Hg  Hg0  1  0.70871000  0.33584000  0.72589000  1.0
  Hg  Hg1  1  0.29129000  0.66416000  0.27410000  1.0
  Hg  Hg2  1  0.55386000  0.97436000  0.63445000  1.0
  Hg  Hg3  1  0.44615000  0.02564000  0.36555000  1.0
  H  H4  1  0.66950000  0.72245000  0.37445000  1.0
  H  H5  1  0.33049000  0.27755000  0.62555000  1.0
  H  H6  1  0.38797000  0.51703000  0.76329000  1.0
  H  H7  1  0.61204000  0.48297000  0.23671000  1.0
  H  H8  1  0.34154000  0.68655000  0.71805000  1.0
  H  H9  1  0.65846000  0.31344000  0.28195000  1.0
  H  H10  1  0.90013000  0.57891000  0.26519000  1.0
  H  H11  1  0.09986000  0.42110000  0.73481000  1.0
  H  H12  1  0.02281000  0.36524000  0.32815000  1.0
  H  H13  1  0.97719000  0.63477000  0.67185000  1.0
  H  H14  1  0.92483000  0.30084000  0.49585000  1.0
  H  H15  1  0.07517000  0.69915000  0.50415000  1.0
  H  H16  1  0.65702000  0.00323000  0.82549000  1.0
  H  H17  1  0.34297000  0.99677000  0.17451000  1.0
  H  H18  1  0.71392000  0.20850000  0.02672000  1.0
  H  H19  1  0.28608000  0.79149000  0.97327000  1.0
  H  H20  1  0.91889000  0.26384000  0.01081000  1.0
  H  H21  1  0.08111000  0.73615000  0.98919000  1.0
  H  H22  1  0.87879000  0.09890000  0.96220000  1.0
  H  H23  1  0.12121000  0.90110000  0.03779000  1.0
  H  H24  1  0.51065000  0.50367000  0.88545000  1.0
  H  H25  1  0.48935000  0.49633000  0.11455000  1.0
  H  H26  1  0.71742000  0.88045000  0.96294000  1.0
  H  H27  1  0.28257000  0.11956000  0.03706000  1.0
  H  H28  1  0.65032000  0.62555000  0.99346000  1.0
  H  H29  1  0.34967000  0.37445000  0.00655000  1.0
  H  H30  1  0.12656000  0.10067000  0.80845000  1.0
  H  H31  1  0.87344000  0.89933000  0.19156000  1.0
  H  H32  1  0.17070000  0.09922000  0.91887000  1.0
  H  H33  1  0.82930000  0.90078000  0.08114000  1.0
  H  H34  1  0.27797000  0.97875000  0.82756000  1.0
  H  H35  1  0.72203000  0.02126000  0.17244000  1.0
  H  H36  1  0.13315000  0.94074000  0.64686000  1.0
  H  H37  1  0.86686000  0.05927000  0.35315000  1.0
  H  H38  1  0.05120000  0.11801000  0.67930000  1.0
  H  H39  1  0.94880000  0.88199000  0.32070000  1.0
  H  H40  1  0.13578000  0.07337000  0.55931000  1.0
  H  H41  1  0.86423000  0.92663000  0.44069000  1.0
  C  C42  1  0.66902000  0.47373000  0.62460000  1.0
  C  C43  1  0.33098000  0.52626000  0.37540000  1.0
  C  C44  1  0.56005000  0.66135000  0.56054000  1.0
  C  C45  1  0.43995000  0.33865000  0.43947000  1.0
  C  C46  1  0.73370000  0.63232000  0.39692000  1.0
  C  C47  1  0.26630000  0.36767000  0.60308000  1.0
  C  C48  1  0.74902000  0.47840000  0.52900000  1.0
  C  C49  1  0.25097000  0.52159000  0.47100000  1.0
  C  C50  1  0.51816000  0.68934000  0.79847000  1.0
  C  C51  1  0.48184000  0.31065000  0.20152000  1.0
  C  C52  1  0.43904000  0.61779000  0.73234000  1.0
  C  C53  1  0.56096000  0.38220000  0.26766000  1.0
  C  C54  1  0.85634000  0.55122000  0.33948000  1.0
  C  C55  1  0.14366000  0.44878000  0.66052000  1.0
  C  C56  1  0.92703000  0.43048000  0.37504000  1.0
  C  C57  1  0.07297000  0.56952000  0.62496000  1.0
  C  C58  1  0.87394000  0.39429000  0.46836000  1.0
  C  C59  1  0.12606000  0.60571000  0.53164000  1.0
  C  C60  1  0.82677000  0.28787000  0.88935000  1.0
  C  C61  1  0.17323000  0.71213000  0.11065000  1.0
  C  C62  1  0.62744000  0.89195000  0.84037000  1.0
  C  C63  1  0.37255000  0.10805000  0.15963000  1.0
  C  C64  1  0.83722000  0.20982000  0.97784000  1.0
  C  C65  1  0.16279000  0.79018000  0.02216000  1.0
  C  C66  1  0.54782000  0.61364000  0.87433000  1.0
  C  C67  1  0.45217000  0.38637000  0.12567000  1.0
  C  C68  1  0.66170000  0.82284000  0.91708000  1.0
  C  C69  1  0.33829000  0.17717000  0.08292000  1.0
  C  C70  1  0.62273000  0.68081000  0.93422000  1.0
  C  C71  1  0.37727000  0.31920000  0.06579000  1.0
  C  C72  1  0.35139000  0.19775000  0.80625000  1.0
  C  C73  1  0.64862000  0.80226000  0.19375000  1.0
  C  C74  1  0.22485000  0.08656000  0.84320000  1.0
  C  C75  1  0.77515000  0.91345000  0.15680000  1.0
  C  C76  1  0.90085000  0.98879000  0.61978000  1.0
  C  C77  1  0.09915000  0.01119000  0.38022000  1.0
  C  C78  1  0.06561000  0.03250000  0.62795000  1.0
  C  C79  1  0.93439000  0.96750000  0.37205000  1.0
  S  S80  1  0.44104000  0.80684000  0.54768000  1.0
  S  S81  1  0.55896000  0.19315000  0.45232000  1.0
  N  N82  1  0.68035000  0.59604000  0.49097000  1.0
  N  N83  1  0.31964000  0.40395000  0.50903000  1.0
  N  N84  1  0.55503000  0.58502000  0.64073000  1.0
  N  N85  1  0.44498000  0.41498000  0.35927000  1.0
  N  N86  1  0.55760000  0.82660000  0.78182000  1.0
  N  N87  1  0.44239000  0.17340000  0.21818000  1.0
  O  O88  1  0.75692000  0.21380000  0.83647000  1.0
  O  O89  1  0.24308000  0.78620000  0.16353000  1.0
  O  O90  1  0.45524000  0.17579000  0.72427000  1.0
  O  O91  1  0.54477000  0.82421000  0.27573000  1.0
  O  O92  1  0.87630000  0.40972000  0.87032000  1.0
  O  O93  1  0.12371000  0.59028000  0.12968000  1.0
  O  O94  1  0.35218000  0.30822000  0.85213000  1.0
  O  O95  1  0.64782000  0.69179000  0.14787000  1.0
  O  O96  1  0.78770000  0.08960000  0.63258000  1.0
  O  O97  1  0.21231000  0.91039000  0.36742000  1.0
  O  O98  1  0.87730000  0.86357000  0.60060000  1.0
  O  O99  1  0.12272000  0.13642000  0.39940000  1.0
