# generated using pymatgen
data_CuH18C14(NO)4
_symmetry_space_group_name_H-M   'P 1'
_cell_length_a   9.23725000
_cell_length_b   9.23727000
_cell_length_c   9.48619000
_cell_angle_alpha   96.60400000
_cell_angle_beta   96.60350000
_cell_angle_gamma   96.09530000
_symmetry_Int_Tables_number   1
_chemical_formula_structural   CuH18C14(NO)4
_chemical_formula_sum   'Cu2 H36 C28 N8 O8'
_cell_volume   792.85335676
_cell_formula_units_Z   2
loop_
 _symmetry_equiv_pos_site_id
 _symmetry_equiv_pos_as_xyz
  1  'x, y, z'
loop_
 _atom_site_type_symbol
 _atom_site_label
 _atom_site_symmetry_multiplicity
 _atom_site_fract_x
 _atom_site_fract_y
 _atom_site_fract_z
 _atom_site_occupancy
  Cu  Cu0  1  0.61043000  0.38957000  0.75000000  1.0
  Cu  Cu1  1  0.38957000  0.61044000  0.25000000  1.0
  H  H2  1  0.71704000  0.21372000  0.01475000  1.0
  H  H3  1  0.78627000  0.28294000  0.48526000  1.0
  H  H4  1  0.28294000  0.78628000  0.98526000  1.0
  H  H5  1  0.21372000  0.71706000  0.51474000  1.0
  H  H6  1  0.49899000  0.06851000  0.60053000  1.0
  H  H7  1  0.93149000  0.50101000  0.89947000  1.0
  H  H8  1  0.50102000  0.93150000  0.39947000  1.0
  H  H9  1  0.06851000  0.49899000  0.10053000  1.0
  H  H10  1  0.55630000  0.82225000  0.73572000  1.0
  H  H11  1  0.17775000  0.44371000  0.76428000  1.0
  H  H12  1  0.44372000  0.17775000  0.26428000  1.0
  H  H13  1  0.82225000  0.55629000  0.23572000  1.0
  H  H14  1  0.62208000  0.81845000  0.02944000  1.0
  H  H15  1  0.18155000  0.37792000  0.47055000  1.0
  H  H16  1  0.37792000  0.18155000  0.97056000  1.0
  H  H17  1  0.81845000  0.62208000  0.52944000  1.0
  H  H18  1  0.73663000  0.97600000  0.11577000  1.0
  H  H19  1  0.02400000  0.26337000  0.38423000  1.0
  H  H20  1  0.26337000  0.02400000  0.88422000  1.0
  H  H21  1  0.97599000  0.73663000  0.61578000  1.0
  H  H22  1  0.80353000  0.75362000  0.87175000  1.0
  H  H23  1  0.24638000  0.19647000  0.62825000  1.0
  H  H24  1  0.19647000  0.24638000  0.12825000  1.0
  H  H25  1  0.75362000  0.80353000  0.37176000  1.0
  H  H26  1  0.88170000  0.77141000  0.05185000  1.0
  H  H27  1  0.22860000  0.11830000  0.44814000  1.0
  H  H28  1  0.11830000  0.22859000  0.94814000  1.0
  H  H29  1  0.77141000  0.88170000  0.55186000  1.0
  H  H30  1  0.04845000  0.88379000  0.89125000  1.0
  H  H31  1  0.11622000  0.95155000  0.60875000  1.0
  H  H32  1  0.95155000  0.11622000  0.10874000  1.0
  H  H33  1  0.88379000  0.04845000  0.39125000  1.0
  H  H34  1  0.92241000  0.00686000  0.84938000  1.0
  H  H35  1  0.99315000  0.07758000  0.65061000  1.0
  H  H36  1  0.07758000  0.99314000  0.15060000  1.0
  H  H37  1  0.00686000  0.92241000  0.34939000  1.0
  C  C38  1  0.47950000  0.42285000  0.45405000  1.0
  C  C39  1  0.57715000  0.52051000  0.04596000  1.0
  C  C40  1  0.52051000  0.57714000  0.54596000  1.0
  C  C41  1  0.42286000  0.47950000  0.95405000  1.0
  C  C42  1  0.66490000  0.14157000  0.92018000  1.0
  C  C43  1  0.85843000  0.33509000  0.57983000  1.0
  C  C44  1  0.33509000  0.85843000  0.07983000  1.0
  C  C45  1  0.14157000  0.66491000  0.42017000  1.0
  C  C46  1  0.55195000  0.06035000  0.70675000  1.0
  C  C47  1  0.93965000  0.44805000  0.79325000  1.0
  C  C48  1  0.44806000  0.93965000  0.29324000  1.0
  C  C49  1  0.06035000  0.55195000  0.20676000  1.0
  C  C50  1  0.57746000  0.93901000  0.77338000  1.0
  C  C51  1  0.06099000  0.42254000  0.72661000  1.0
  C  C52  1  0.42255000  0.06099000  0.22661000  1.0
  C  C53  1  0.93901000  0.57745000  0.27339000  1.0
  C  C54  1  0.70860000  0.90371000  0.01387000  1.0
  C  C55  1  0.09629000  0.29140000  0.48612000  1.0
  C  C56  1  0.29140000  0.09629000  0.98612000  1.0
  C  C57  1  0.90370000  0.70860000  0.51388000  1.0
  C  C58  1  0.84134000  0.83443000  0.96687000  1.0
  C  C59  1  0.16557000  0.15865000  0.53313000  1.0
  C  C60  1  0.15865000  0.16557000  0.03312000  1.0
  C  C61  1  0.83443000  0.84134000  0.46688000  1.0
  C  C62  1  0.96458000  0.94555000  0.93524000  1.0
  C  C63  1  0.05446000  0.03542000  0.56476000  1.0
  C  C64  1  0.03541000  0.05446000  0.06475000  1.0
  C  C65  1  0.94555000  0.96458000  0.43525000  1.0
  N  N66  1  0.64828000  0.99256000  0.90851000  1.0
  N  N67  1  0.00744000  0.35171000  0.59149000  1.0
  N  N68  1  0.35171000  0.00744000  0.09149000  1.0
  N  N69  1  0.99256000  0.64829000  0.40851000  1.0
  N  N70  1  0.60690000  0.18521000  0.79942000  1.0
  N  N71  1  0.81479000  0.39309000  0.70058000  1.0
  N  N72  1  0.39310000  0.81480000  0.20059000  1.0
  N  N73  1  0.18521000  0.60691000  0.29942000  1.0
  O  O74  1  0.51334000  0.31142000  0.50837000  1.0
  O  O75  1  0.68858000  0.48666000  0.99163000  1.0
  O  O76  1  0.48667000  0.68858000  0.49163000  1.0
  O  O77  1  0.31142000  0.51334000  0.00838000  1.0
  O  O78  1  0.41233000  0.41870000  0.32743000  1.0
  O  O79  1  0.58130000  0.58767000  0.17257000  1.0
  O  O80  1  0.58768000  0.58130000  0.67258000  1.0
  O  O81  1  0.41870000  0.41233000  0.82742000  1.0
