# generated using pymatgen
data_CdH12C18(NO)6
_symmetry_space_group_name_H-M   'P 1'
_cell_length_a   8.37083000
_cell_length_b   9.83692000
_cell_length_c   11.02020000
_cell_angle_alpha   83.98630000
_cell_angle_beta   89.68960000
_cell_angle_gamma   84.06620000
_symmetry_Int_Tables_number   1
_chemical_formula_structural   CdH12C18(NO)6
_chemical_formula_sum   'Cd2 H24 C36 N12 O12'
_cell_volume   897.59588433
_cell_formula_units_Z   2
loop_
 _symmetry_equiv_pos_site_id
 _symmetry_equiv_pos_as_xyz
  1  'x, y, z'
loop_
 _atom_site_type_symbol
 _atom_site_label
 _atom_site_symmetry_multiplicity
 _atom_site_fract_x
 _atom_site_fract_y
 _atom_site_fract_z
 _atom_site_occupancy
  Cd  Cd0  1  0.37364000  0.92420000  0.13156000  1.0
  Cd  Cd1  1  0.62636000  0.07580000  0.86844000  1.0
  H  H2  1  0.75566000  0.94312000  0.52252000  1.0
  H  H3  1  0.24434000  0.05688000  0.47748000  1.0
  H  H4  1  0.96013000  0.60721000  0.53485000  1.0
  H  H5  1  0.03987000  0.39279000  0.46515000  1.0
  H  H6  1  0.28279000  0.68884000  0.34093000  1.0
  H  H7  1  0.71721000  0.31116000  0.65907000  1.0
  H  H8  1  0.27802000  0.53351000  0.53397000  1.0
  H  H9  1  0.72198000  0.46649000  0.46603000  1.0
  H  H10  1  0.46146000  0.54963000  0.70517000  1.0
  H  H11  1  0.53854000  0.45037000  0.29483000  1.0
  H  H12  1  0.66131000  0.72245000  0.69022000  1.0
  H  H13  1  0.33869000  0.27755000  0.30978000  1.0
  H  H14  1  0.66194000  0.07729000  0.18295000  1.0
  H  H15  1  0.33806000  0.92271000  0.81705000  1.0
  H  H16  1  0.67990000  0.16458000  0.31507000  1.0
  H  H17  1  0.32010000  0.83542000  0.68493000  1.0
  H  H18  1  0.94107000  0.94256000  0.11020000  1.0
  H  H19  1  0.05893000  0.05744000  0.88980000  1.0
  H  H20  1  0.34364000  0.44624000  0.10478000  1.0
  H  H21  1  0.65637000  0.55376000  0.89523000  1.0
  H  H22  1  0.18626000  0.25467000  0.79939000  1.0
  H  H23  1  0.81374000  0.74533000  0.20061000  1.0
  H  H24  1  0.07429000  0.68981000  0.81332000  1.0
  H  H25  1  0.92571000  0.31019000  0.18668000  1.0
  C  C26  1  0.47701000  0.79234000  0.40724000  1.0
  C  C27  1  0.52299000  0.20766000  0.59275000  1.0
  C  C28  1  0.36259000  0.69776000  0.41683000  1.0
  C  C29  1  0.63741000  0.30224000  0.58317000  1.0
  C  C30  1  0.35990000  0.61273000  0.52567000  1.0
  C  C31  1  0.64010000  0.38727000  0.47433000  1.0
  C  C32  1  0.46671000  0.62061000  0.62261000  1.0
  C  C33  1  0.53330000  0.37939000  0.37739000  1.0
  C  C34  1  0.58109000  0.71447000  0.61456000  1.0
  C  C35  1  0.41891000  0.28553000  0.38544000  1.0
  C  C36  1  0.58264000  0.80063000  0.50559000  1.0
  C  C37  1  0.41736000  0.19937000  0.49441000  1.0
  C  C38  1  0.62981000  0.95399000  0.35069000  1.0
  C  C39  1  0.37019000  0.04601000  0.64931000  1.0
  C  C40  1  0.70598000  0.06588000  0.27695000  1.0
  C  C41  1  0.29402000  0.93412000  0.72305000  1.0
  C  C42  1  0.97826000  0.97695000  0.19480000  1.0
  C  C43  1  0.02174000  0.02305000  0.80520000  1.0
  C  C44  1  0.23818000  0.71125000  0.02095000  1.0
  C  C45  1  0.76182000  0.28874000  0.97906000  1.0
  C  C46  1  0.21268000  0.58195000  0.96470000  1.0
  C  C47  1  0.78732000  0.41805000  0.03530000  1.0
  C  C48  1  0.27890000  0.45354000  0.01854000  1.0
  C  C49  1  0.72110000  0.54646000  0.98147000  1.0
  C  C50  1  0.26476000  0.33448000  0.96167000  1.0
  C  C51  1  0.73524000  0.66552000  0.03833000  1.0
  C  C52  1  0.32762000  0.19730000  0.02423000  1.0
  C  C53  1  0.67238000  0.80270000  0.97577000  1.0
  C  C54  1  0.19040000  0.34520000  0.84753000  1.0
  C  C55  1  0.80959000  0.65480000  0.15248000  1.0
  C  C56  1  0.12113000  0.47279000  0.79374000  1.0
  C  C57  1  0.87887000  0.52722000  0.20626000  1.0
  C  C58  1  0.05166000  0.48129000  0.66918000  1.0
  C  C59  1  0.94833000  0.51872000  0.33082000  1.0
  C  C60  1  0.12909000  0.59057000  0.85404000  1.0
  C  C61  1  0.87091000  0.40943000  0.14596000  1.0
  N  N62  1  0.51143000  0.88866000  0.31160000  1.0
  N  N63  1  0.48857000  0.11134000  0.68840000  1.0
  N  N64  1  0.67565000  0.90508000  0.46665000  1.0
  N  N65  1  0.32435000  0.09493000  0.53335000  1.0
  N  N66  1  0.88017000  0.03614000  0.27558000  1.0
  N  N67  1  0.11983000  0.96386000  0.72442000  1.0
  N  N68  1  0.96870000  0.06714000  0.36896000  1.0
  N  N69  1  0.03131000  0.93286000  0.63104000  1.0
  N  N70  1  0.11669000  0.02790000  0.34485000  1.0
  N  N71  1  0.88331000  0.97210000  0.65515000  1.0
  N  N72  1  0.12697000  0.97135000  0.23720000  1.0
  N  N73  1  0.87303000  0.02865000  0.76280000  1.0
  O  O74  1  0.15118000  0.82127000  0.98768000  1.0
  O  O75  1  0.84882000  0.17873000  0.01232000  1.0
  O  O76  1  0.35444000  0.70261000  0.09843000  1.0
  O  O77  1  0.64556000  0.29739000  0.90157000  1.0
  O  O78  1  0.36208000  0.18517000  0.13610000  1.0
  O  O79  1  0.63793000  0.81483000  0.86390000  1.0
  O  O80  1  0.34055000  0.09200000  0.96111000  1.0
  O  O81  1  0.65945000  0.90800000  0.03889000  1.0
  O  O82  1  0.06525000  0.38019000  0.60851000  1.0
  O  O83  1  0.93474000  0.61981000  0.39149000  1.0
  O  O84  1  0.98188000  0.60384000  0.62683000  1.0
  O  O85  1  0.01812000  0.39617000  0.37317000  1.0
