# generated using pymatgen
data_Cu2H24C35(NO7)2
_symmetry_space_group_name_H-M   'P 1'
_cell_length_a   9.59895000
_cell_length_b   10.28780000
_cell_length_c   10.89730000
_cell_angle_alpha   70.78070000
_cell_angle_beta   66.14500000
_cell_angle_gamma   63.29430000
_symmetry_Int_Tables_number   1
_chemical_formula_structural   Cu2H24C35(NO7)2
_chemical_formula_sum   'Cu2 H24 C35 N2 O14'
_cell_volume   864.77759415
_cell_formula_units_Z   1
loop_
 _symmetry_equiv_pos_site_id
 _symmetry_equiv_pos_as_xyz
  1  'x, y, z'
loop_
 _atom_site_type_symbol
 _atom_site_label
 _atom_site_symmetry_multiplicity
 _atom_site_fract_x
 _atom_site_fract_y
 _atom_site_fract_z
 _atom_site_occupancy
  Cu  Cu0  1  0.87220000  0.48825000  0.50239000  1.0
  Cu  Cu1  1  0.12781000  0.51176000  0.49761000  1.0
  H  H2  1  0.12227000  0.33879000  0.91621000  1.0
  H  H3  1  0.87774000  0.66121000  0.08379000  1.0
  H  H4  1  0.08395000  0.21217000  0.15987000  1.0
  H  H5  1  0.91606000  0.78782000  0.84012000  1.0
  H  H6  1  0.88412000  0.08441000  0.27240000  1.0
  H  H7  1  0.11590000  0.91557000  0.72759000  1.0
  H  H8  1  0.72074000  0.08641000  0.14233000  1.0
  H  H9  1  0.27926000  0.91359000  0.85768000  1.0
  H  H10  1  0.75891000  0.21458000  0.90038000  1.0
  H  H11  1  0.24109000  0.78543000  0.09962000  1.0
  H  H12  1  0.06249000  0.06264000  0.39267000  1.0
  H  H13  1  0.93749000  0.93738000  0.60733000  1.0
  H  H14  1  0.22964000  0.81358000  0.32534000  1.0
  H  H15  1  0.77034000  0.18643000  0.67467000  1.0
  H  H16  1  0.53239000  0.71441000  0.27799000  1.0
  H  H17  1  0.46758000  0.28559000  0.72201000  1.0
  H  H18  1  0.66504000  0.85463000  0.30782000  1.0
  H  H19  1  0.33495000  0.14537000  0.69217000  1.0
  H  H20  1  0.49537000  0.10624000  0.37248000  1.0
  H  H21  1  0.50463000  0.89377000  0.62751000  1.0
  H  H22  1  0.76075000  0.37551000  0.34325000  1.0
  H  H23  1  0.23925000  0.62449000  0.65675000  1.0
  H  H24  1  0.49067000  0.39829000  0.33210000  1.0
  H  H25  1  0.50933000  0.60171000  0.66790000  1.0
  C  C26  1  0.62887000  0.57948000  0.99037000  1.0
  C  C27  1  0.37116000  0.42051000  0.00962000  1.0
  C  C28  1  0.49999000  0.99997000  0.00001000  1.0
  C  C29  1  0.96417000  0.36222000  0.74897000  1.0
  C  C30  1  0.03584000  0.63779000  0.25104000  1.0
  C  C31  1  0.94310000  0.28372000  0.89403000  1.0
  C  C32  1  0.05691000  0.71628000  0.10596000  1.0
  C  C33  1  0.03550000  0.28241000  0.96691000  1.0
  C  C34  1  0.96451000  0.71758000  0.03309000  1.0
  C  C35  1  0.01354000  0.21164000  0.10280000  1.0
  C  C36  1  0.98647000  0.78835000  0.89720000  1.0
  C  C37  1  0.90067000  0.14064000  0.16619000  1.0
  C  C38  1  0.09934000  0.85935000  0.83381000  1.0
  C  C39  1  0.80890000  0.14138000  0.09366000  1.0
  C  C40  1  0.19111000  0.85862000  0.90633000  1.0
  C  C41  1  0.82966000  0.21300000  0.95811000  1.0
  C  C42  1  0.17035000  0.78700000  0.04188000  1.0
  C  C43  1  0.16862000  0.24850000  0.42268000  1.0
  C  C44  1  0.83138000  0.75151000  0.57732000  1.0
  C  C45  1  0.26988000  0.09910000  0.38433000  1.0
  C  C46  1  0.73011000  0.90091000  0.61567000  1.0
  C  C47  1  0.19477000  0.01643000  0.37190000  1.0
  C  C48  1  0.80521000  0.98358000  0.62809000  1.0
  C  C49  1  0.28853000  0.87814000  0.33389000  1.0
  C  C50  1  0.71145000  0.12187000  0.66611000  1.0
  C  C51  1  0.45811000  0.82177000  0.30909000  1.0
  C  C52  1  0.54187000  0.17824000  0.69091000  1.0
  C  C53  1  0.53332000  0.90214000  0.32412000  1.0
  C  C54  1  0.46666000  0.09786000  0.67587000  1.0
  C  C55  1  0.43953000  0.04108000  0.36098000  1.0
  C  C56  1  0.56046000  0.95893000  0.63901000  1.0
  C  C57  1  0.64355000  0.43070000  0.41340000  1.0
  C  C58  1  0.35645000  0.56930000  0.58660000  1.0
  C  C59  1  0.49592000  0.44364000  0.40682000  1.0
  C  C60  1  0.50408000  0.55636000  0.59318000  1.0
  N  N61  1  0.64684000  0.48705000  0.50651000  1.0
  N  N62  1  0.35317000  0.51295000  0.49349000  1.0
  O  O63  1  0.66692000  0.55736000  0.08744000  1.0
  O  O64  1  0.33308000  0.44266000  0.91255000  1.0
  O  O65  1  0.59077000  0.60236000  0.89328000  1.0
  O  O66  1  0.40928000  0.39762000  0.10670000  1.0
  O  O67  1  0.50554000  0.89288000  0.97840000  1.0
  O  O68  1  0.49444000  0.10706000  0.02162000  1.0
  O  O69  1  0.08369000  0.40729000  0.69190000  1.0
  O  O70  1  0.91631000  0.59271000  0.30811000  1.0
  O  O71  1  0.86121000  0.37865000  0.69390000  1.0
  O  O72  1  0.13880000  0.62136000  0.30610000  1.0
  O  O73  1  0.01557000  0.29641000  0.43831000  1.0
  O  O74  1  0.98443000  0.70360000  0.56169000  1.0
  O  O75  1  0.24259000  0.31614000  0.43752000  1.0
  O  O76  1  0.75741000  0.68386000  0.56249000  1.0
