# generated using pymatgen
data_DyH14C11NO8
_symmetry_space_group_name_H-M   'P 1'
_cell_length_a   8.34391000
_cell_length_b   11.91520000
_cell_length_c   13.25530000
_cell_angle_alpha   90.00000000
_cell_angle_beta   90.00000000
_cell_angle_gamma   96.43680000
_symmetry_Int_Tables_number   1
_chemical_formula_structural   DyH14C11NO8
_chemical_formula_sum   'Dy4 H56 C44 N4 O32'
_cell_volume   1309.52593146
_cell_formula_units_Z   4
loop_
 _symmetry_equiv_pos_site_id
 _symmetry_equiv_pos_as_xyz
  1  'x, y, z'
loop_
 _atom_site_type_symbol
 _atom_site_label
 _atom_site_symmetry_multiplicity
 _atom_site_fract_x
 _atom_site_fract_y
 _atom_site_fract_z
 _atom_site_occupancy
  Dy  Dy0  1  0.00492000  0.33527000  0.59522000  1.0
  Dy  Dy1  1  0.49508000  0.66473000  0.09522000  1.0
  Dy  Dy2  1  0.99508000  0.66473000  0.40478000  1.0
  Dy  Dy3  1  0.50492000  0.33528000  0.90478000  1.0
  H  H4  1  0.80286000  0.52153000  0.61421000  1.0
  H  H5  1  0.69714000  0.47847000  0.11421000  1.0
  H  H6  1  0.19714000  0.47847000  0.38579000  1.0
  H  H7  1  0.30286000  0.52153000  0.88579000  1.0
  H  H8  1  0.77885000  0.46792000  0.72566000  1.0
  H  H9  1  0.72115000  0.53208000  0.22566000  1.0
  H  H10  1  0.22115000  0.53208000  0.27434000  1.0
  H  H11  1  0.27885000  0.46792000  0.77434000  1.0
  H  H12  1  0.93555000  0.26410000  0.80752000  1.0
  H  H13  1  0.56445000  0.73590000  0.30752000  1.0
  H  H14  1  0.06445000  0.73590000  0.19248000  1.0
  H  H15  1  0.43555000  0.26410000  0.69248000  1.0
  H  H16  1  0.12542000  0.25447000  0.79795000  1.0
  H  H17  1  0.37458000  0.74553000  0.29795000  1.0
  H  H18  1  0.87459000  0.74553000  0.20205000  1.0
  H  H19  1  0.62542000  0.25447000  0.70205000  1.0
  H  H20  1  0.15674000  0.20082000  0.37977000  1.0
  H  H21  1  0.34326000  0.79918000  0.87977000  1.0
  H  H22  1  0.84326000  0.79918000  0.62023000  1.0
  H  H23  1  0.65674000  0.20082000  0.12023000  1.0
  H  H24  1  0.06397000  0.05163000  0.25273000  1.0
  H  H25  1  0.43603000  0.94837000  0.75273000  1.0
  H  H26  1  0.93603000  0.94836000  0.74727000  1.0
  H  H27  1  0.56397000  0.05163000  0.24727000  1.0
  H  H28  1  0.81016000  0.92614000  0.28546000  1.0
  H  H29  1  0.68984000  0.07386000  0.78546000  1.0
  H  H30  1  0.18984000  0.07386000  0.71454000  1.0
  H  H31  1  0.31016000  0.92614000  0.21454000  1.0
  H  H32  1  0.65195000  0.95878000  0.44405000  1.0
  H  H33  1  0.84805000  0.04122000  0.94405000  1.0
  H  H34  1  0.34804000  0.04122000  0.55595000  1.0
  H  H35  1  0.15195000  0.95878000  0.05595000  1.0
  H  H36  1  0.52006000  0.22792000  0.50075000  1.0
  H  H37  1  0.97993000  0.77208000  0.00075000  1.0
  H  H38  1  0.47994000  0.77208000  0.49925000  1.0
  H  H39  1  0.02007000  0.22792000  0.99925000  1.0
  H  H40  1  0.56942000  0.37193000  0.52569000  1.0
  H  H41  1  0.93057000  0.62807000  0.02569000  1.0
  H  H42  1  0.43058000  0.62807000  0.47431000  1.0
  H  H43  1  0.06943000  0.37193000  0.97431000  1.0
  H  H44  1  0.47768000  0.41750000  0.34741000  1.0
  H  H45  1  0.02232000  0.58250000  0.84741000  1.0
  H  H46  1  0.52233000  0.58250000  0.65259000  1.0
  H  H47  1  0.97768000  0.41750000  0.15259000  1.0
  H  H48  1  0.42868000  0.27143000  0.32560000  1.0
  H  H49  1  0.07132000  0.72857000  0.82560000  1.0
  H  H50  1  0.57132000  0.72857000  0.67440000  1.0
  H  H51  1  0.92868000  0.27143000  0.17440000  1.0
  H  H52  1  0.71900000  0.24029000  0.35524000  1.0
  H  H53  1  0.78100000  0.75971000  0.85524000  1.0
  H  H54  1  0.28100000  0.75971000  0.64476000  1.0
  H  H55  1  0.21900000  0.24029000  0.14476000  1.0
  H  H56  1  0.68817000  0.32933000  0.25046000  1.0
  H  H57  1  0.81183000  0.67067000  0.75045000  1.0
  H  H58  1  0.31183000  0.67067000  0.74955000  1.0
  H  H59  1  0.18817000  0.32933000  0.24954000  1.0
  C  C60  1  0.04568000  0.14519000  0.39137000  1.0
  C  C61  1  0.45432000  0.85481000  0.89137000  1.0
  C  C62  1  0.95432000  0.85481000  0.60863000  1.0
  C  C63  1  0.54568000  0.14519000  0.10863000  1.0
  C  C64  1  0.99441000  0.06200000  0.32092000  1.0
  C  C65  1  0.50559000  0.93800000  0.82092000  1.0
  C  C66  1  0.00559000  0.93800000  0.67908000  1.0
  C  C67  1  0.49441000  0.06200000  0.17908000  1.0
  C  C68  1  0.85192000  0.99208000  0.33907000  1.0
  C  C69  1  0.64808000  0.00792000  0.83907000  1.0
  C  C70  1  0.14808000  0.00792000  0.66093000  1.0
  C  C71  1  0.35192000  0.99208000  0.16093000  1.0
  C  C72  1  0.76577000  0.00870000  0.42667000  1.0
  C  C73  1  0.73423000  0.99131000  0.92667000  1.0
  C  C74  1  0.23423000  0.99131000  0.57333000  1.0
  C  C75  1  0.26577000  0.00870000  0.07333000  1.0
  C  C76  1  0.82430000  0.09501000  0.49246000  1.0
  C  C77  1  0.67570000  0.90499000  0.99246000  1.0
  C  C78  1  0.17570000  0.90499000  0.50754000  1.0
  C  C79  1  0.32430000  0.09501000  0.00754000  1.0
  C  C80  1  0.72814000  0.11893000  0.58473000  1.0
  C  C81  1  0.77186000  0.88107000  0.08473000  1.0
  C  C82  1  0.27186000  0.88107000  0.41527000  1.0
  C  C83  1  0.22814000  0.11893000  0.91527000  1.0
  C  C84  1  0.31956000  0.31864000  0.52027000  1.0
  C  C85  1  0.18044000  0.68136000  0.02027000  1.0
  C  C86  1  0.68044000  0.68136000  0.47973000  1.0
  C  C87  1  0.81956000  0.31864000  0.97973000  1.0
  C  C88  1  0.48761000  0.31201000  0.48094000  1.0
  C  C89  1  0.01239000  0.68799000  0.98094000  1.0
  C  C90  1  0.51239000  0.68799000  0.51906000  1.0
  C  C91  1  0.98761000  0.31201000  0.01906000  1.0
  C  C92  1  0.50991000  0.33350000  0.36802000  1.0
  C  C93  1  0.99010000  0.66650000  0.86802000  1.0
  C  C94  1  0.49010000  0.66650000  0.63198000  1.0
  C  C95  1  0.00991000  0.33350000  0.13198000  1.0
  C  C96  1  0.68340000  0.32272000  0.33302000  1.0
  C  C97  1  0.81660000  0.67728000  0.83302000  1.0
  C  C98  1  0.31660000  0.67728000  0.66698000  1.0
  C  C99  1  0.18340000  0.32272000  0.16698000  1.0
  C  C100  1  0.80063000  0.41586000  0.37743000  1.0
  C  C101  1  0.69936000  0.58414000  0.87742000  1.0
  C  C102  1  0.19937000  0.58414000  0.62257000  1.0
  C  C103  1  0.30063000  0.41586000  0.12257000  1.0
  N  N104  1  0.96258000  0.16307000  0.47575000  1.0
  N  N105  1  0.53742000  0.83693000  0.97575000  1.0
  N  N106  1  0.03742000  0.83693000  0.52425000  1.0
  N  N107  1  0.46258000  0.16307000  0.02425000  1.0
  O  O108  1  0.60908000  0.05261000  0.60929000  1.0
  O  O109  1  0.89091000  0.94739000  0.10929000  1.0
  O  O110  1  0.39092000  0.94740000  0.39071000  1.0
  O  O111  1  0.10908000  0.05261000  0.89071000  1.0
  O  O112  1  0.77698000  0.21296000  0.63138000  1.0
  O  O113  1  0.72302000  0.78704000  0.13138000  1.0
  O  O114  1  0.22302000  0.78704000  0.36863000  1.0
  O  O115  1  0.27698000  0.21296000  0.86863000  1.0
  O  O116  1  0.21817000  0.37065000  0.47100000  1.0
  O  O117  1  0.28183000  0.62934000  0.97100000  1.0
  O  O118  1  0.78183000  0.62934000  0.52900000  1.0
  O  O119  1  0.71817000  0.37066000  0.02900000  1.0
  O  O120  1  0.27605000  0.27088000  0.60389000  1.0
  O  O121  1  0.22395000  0.72912000  0.10389000  1.0
  O  O122  1  0.72395000  0.72912000  0.39611000  1.0
  O  O123  1  0.77605000  0.27088000  0.89611000  1.0
  O  O124  1  0.87865000  0.39837000  0.45675000  1.0
  O  O125  1  0.62135000  0.60163000  0.95675000  1.0
  O  O126  1  0.12135000  0.60163000  0.54325000  1.0
  O  O127  1  0.37865000  0.39837000  0.04325000  1.0
  O  O128  1  0.81306000  0.51260000  0.33435000  1.0
  O  O129  1  0.68694000  0.48740000  0.83435000  1.0
  O  O130  1  0.18694000  0.48740000  0.66565000  1.0
  O  O131  1  0.31306000  0.51260000  0.16565000  1.0
  O  O132  1  0.82986000  0.45902000  0.65808000  1.0
  O  O133  1  0.67015000  0.54098000  0.15808000  1.0
  O  O134  1  0.17014000  0.54098000  0.34192000  1.0
  O  O135  1  0.32985000  0.45902000  0.84192000  1.0
  O  O136  1  0.02946000  0.27839000  0.76149000  1.0
  O  O137  1  0.47054000  0.72161000  0.26149000  1.0
  O  O138  1  0.97054000  0.72161000  0.23851000  1.0
  O  O139  1  0.52946000  0.27839000  0.73851000  1.0
