# generated using pymatgen
data_Zn8H40C75(Br3O13)2
_symmetry_space_group_name_H-M   'P 1'
_cell_length_a   18.32440000
_cell_length_b   18.32550000
_cell_length_c   18.36360000
_cell_angle_alpha   90.25460000
_cell_angle_beta   119.62400000
_cell_angle_gamma   119.84800000
_symmetry_Int_Tables_number   1
_chemical_formula_structural   Zn8H40C75(Br3O13)2
_chemical_formula_sum   'Zn8 H40 C75 Br6 O26'
_cell_volume   4385.41894002
_cell_formula_units_Z   1
loop_
 _symmetry_equiv_pos_site_id
 _symmetry_equiv_pos_as_xyz
  1  'x, y, z'
loop_
 _atom_site_type_symbol
 _atom_site_label
 _atom_site_symmetry_multiplicity
 _atom_site_fract_x
 _atom_site_fract_y
 _atom_site_fract_z
 _atom_site_occupancy
  Zn  Zn0  1  0.58910000  0.54125000  0.45687000  1.0
  Zn  Zn1  1  0.41147000  0.54173000  0.45456000  1.0
  Zn  Zn2  1  0.58333000  0.54396000  0.62894000  1.0
  Zn  Zn3  1  0.41446000  0.36769000  0.45347000  1.0
  Zn  Zn4  1  0.41038000  0.95425000  0.04297000  1.0
  Zn  Zn5  1  0.41243000  0.95471000  0.87003000  1.0
  Zn  Zn6  1  0.58683000  0.95680000  0.04617000  1.0
  Zn  Zn7  1  0.58869000  0.13150000  0.04512000  1.0
  H  H8  1  0.66663000  0.27527000  0.32005000  1.0
  H  H9  1  0.09565000  0.11904000  0.48832000  1.0
  H  H10  1  0.80976000  0.05758000  0.26453000  1.0
  H  H11  1  0.90462000  0.28966000  0.13978000  1.0
  H  H12  1  0.51075000  0.63281000  0.78094000  1.0
  H  H13  1  0.49480000  0.76063000  0.55015000  1.0
  H  H14  1  0.36973000  0.09111000  0.21641000  1.0
  H  H15  1  0.51394000  0.72995000  0.88023000  1.0
  H  H16  1  0.24306000  0.45152000  0.03008000  1.0
  H  H17  1  0.25159000  0.55450000  0.94251000  1.0
  H  H18  1  0.36984000  0.71776000  0.01969000  1.0
  H  H19  1  0.19405000  0.96891000  0.91274000  1.0
  H  H20  1  0.32798000  0.22058000  0.17326000  1.0
  H  H21  1  0.45107000  0.27744000  0.10570000  1.0
  H  H22  1  0.62478000  0.40490000  0.27672000  1.0
  H  H23  1  0.89955000  0.60788000  0.63924000  1.0
  H  H24  1  0.81178000  0.78377000  0.72705000  1.0
  H  H25  1  0.91141000  0.93479000  0.83034000  1.0
  H  H26  1  0.93909000  0.98866000  0.45349000  1.0
  H  H27  1  0.85865000  0.02319000  0.43548000  1.0
  H  H28  1  0.82268000  0.94443000  0.34695000  1.0
  H  H29  1  0.49431000  0.84775000  0.46025000  1.0
  H  H30  1  0.33357000  0.31307000  0.62175000  1.0
  H  H31  1  0.45866000  0.91978000  0.47113000  1.0
  H  H32  1  0.58894000  0.96436000  0.51918000  1.0
  H  H33  1  0.55348000  0.02811000  0.80075000  1.0
  H  H34  1  0.63971000  0.00261000  0.87487000  1.0
  H  H35  1  0.67406000  0.07610000  0.81786000  1.0
  H  H36  1  0.28367000  0.41681000  0.15096000  1.0
  H  H37  1  0.41341000  0.48657000  0.24363000  1.0
  H  H38  1  0.31755000  0.48901000  0.24335000  1.0
  H  H39  1  0.57432000  0.96212000  0.30809000  1.0
  H  H40  1  0.67280000  0.96114000  0.40120000  1.0
  H  H41  1  0.19058000  0.23442000  0.63842000  1.0
  H  H42  1  0.67536000  0.97352000  0.30639000  1.0
  H  H43  1  0.32549000  0.11165000  0.80372000  1.0
  H  H44  1  0.64271000  0.23518000  0.83110000  1.0
  H  H45  1  0.09641000  0.38419000  0.23300000  1.0
  H  H46  1  0.54338000  0.21841000  0.38748000  1.0
  H  H47  1  0.19084000  0.24401000  0.45052000  1.0
  C  C48  1  0.22286000  0.35934000  0.36364000  1.0
  C  C49  1  0.11056000  0.92789000  0.87118000  1.0
  C  C50  1  0.05496000  0.84143000  0.81169000  1.0
  C  C51  1  0.77544000  0.64146000  0.63902000  1.0
  C  C52  1  0.94475000  0.78803000  0.75814000  1.0
  C  C53  1  0.89027000  0.70263000  0.69640000  1.0
  C  C54  1  0.94223000  0.67249000  0.68762000  1.0
  C  C55  1  0.05011000  0.72450000  0.74210000  1.0
  C  C56  1  0.10678000  0.80743000  0.80336000  1.0
  C  C57  1  0.33283000  0.26945000  0.66197000  1.0
  C  C58  1  0.25251000  0.22555000  0.67082000  1.0
  C  C59  1  0.42629000  0.16101000  0.23026000  1.0
  C  C60  1  0.25095000  0.16836000  0.72223000  1.0
  C  C61  1  0.32872000  0.15657000  0.76499000  1.0
  C  C62  1  0.41282000  0.20225000  0.75772000  1.0
  C  C63  1  0.50198000  0.63540000  0.35998000  1.0
  C  C64  1  0.41460000  0.25908000  0.70417000  1.0
  C  C65  1  0.49805000  0.30385000  0.69527000  1.0
  C  C66  1  0.57693000  0.29326000  0.73980000  1.0
  C  C67  1  0.57836000  0.24073000  0.79560000  1.0
  C  C68  1  0.49754000  0.19544000  0.80380000  1.0
  C  C69  1  0.10752000  0.20461000  0.41005000  1.0
  C  C70  1  0.40312000  0.23206000  0.20507000  1.0
  C  C71  1  0.05381000  0.13407000  0.43086000  1.0
  C  C72  1  0.94521000  0.08015000  0.37914000  1.0
  C  C73  1  0.89329000  0.09936000  0.30578000  1.0
  C  C74  1  0.94538000  0.17182000  0.28216000  1.0
  C  C75  1  0.49876000  0.36159000  0.63734000  1.0
  C  C76  1  0.05599000  0.22648000  0.33589000  1.0
  C  C77  1  0.10867000  0.30209000  0.31458000  1.0
  C  C78  1  0.05442000  0.32502000  0.24641000  1.0
  C  C79  1  0.94676000  0.27194000  0.19409000  1.0
  C  C80  1  0.89261000  0.19553000  0.20942000  1.0
  C  C81  1  0.47170000  0.26527000  0.16902000  1.0
  C  C82  1  0.51270000  0.80951000  0.60115000  1.0
  C  C83  1  0.52853000  0.88912000  0.58888000  1.0
  C  C84  1  0.55784000  0.95368000  0.65898000  1.0
  C  C85  1  0.56477000  0.93908000  0.73563000  1.0
  C  C86  1  0.53480000  0.85170000  0.74149000  1.0
  C  C87  1  0.49745000  0.64311000  0.63353000  1.0
  C  C88  1  0.51667000  0.78868000  0.67664000  1.0
  C  C89  1  0.50800000  0.70921000  0.69287000  1.0
  C  C90  1  0.51360000  0.69186000  0.76818000  1.0
  C  C91  1  0.51832000  0.74761000  0.82525000  1.0
  C  C92  1  0.56832000  0.33498000  0.26294000  1.0
  C  C93  1  0.52560000  0.82456000  0.81120000  1.0
  C  C94  1  0.35690000  0.55317000  0.15701000  1.0
  C  C95  1  0.29646000  0.52334000  0.06493000  1.0
  C  C96  1  0.30088000  0.58155000  0.01489000  1.0
  C  C97  1  0.36675000  0.67213000  0.05777000  1.0
  C  C98  1  0.43071000  0.70713000  0.15198000  1.0
  C  C99  1  0.50072000  0.35986000  0.35728000  1.0
  C  C100  1  0.42782000  0.64797000  0.20353000  1.0
  C  C101  1  0.49727000  0.68890000  0.29803000  1.0
  C  C102  1  0.56204000  0.78096000  0.33708000  1.0
  C  C103  1  0.50067000  0.30314000  0.29958000  1.0
  C  C104  1  0.56195000  0.84008000  0.28771000  1.0
  C  C105  1  0.49701000  0.80080000  0.19609000  1.0
  C  C106  1  0.50020000  0.13810000  0.86186000  1.0
  C  C107  1  0.49809000  0.86074000  0.14055000  1.0
  C  C108  1  0.22179000  0.86219000  0.86106000  1.0
  C  C109  1  0.77831000  0.13937000  0.14651000  1.0
  C  C110  1  0.51144000  0.86953000  0.86623000  1.0
  C  C111  1  0.52289000  0.23072000  0.32422000  1.0
  C  C112  1  0.49379000  0.13616000  0.13578000  1.0
  C  C113  1  0.59154000  0.26393000  0.28816000  1.0
  C  C114  1  0.89520000  0.82398000  0.76663000  1.0
  C  C115  1  0.49403000  0.19288000  0.19370000  1.0
  C  C116  1  0.88859000  0.00501000  0.40490000  1.0
  C  C117  1  0.51697000  0.90587000  0.50520000  1.0
  C  C118  1  0.60980000  0.01499000  0.81152000  1.0
  C  C119  1  0.34279000  0.48323000  0.20173000  1.0
  C  C120  1  0.62501000  0.93966000  0.32863000  1.0
  C  C121  1  0.95044000  0.90811000  0.82453000  1.0
  C  C122  1  0.05865000  0.95947000  0.87674000  1.0
  Br  Br123  1  0.13439000  0.07553000  0.95682000  1.0
  Br  Br124  1  0.11523000  0.67462000  0.73101000  1.0
  Br  Br125  1  0.68633000  0.34737000  0.72536000  1.0
  Br  Br126  1  0.13839000  0.10637000  0.73218000  1.0
  Br  Br127  1  0.59193000  0.06807000  0.64666000  1.0
  Br  Br128  1  0.65722000  0.83005000  0.46408000  1.0
  O  O129  1  0.49962000  0.49880000  0.49870000  1.0
  O  O130  1  0.73277000  0.05499000  0.12121000  1.0
  O  O131  1  0.44351000  0.88513000  0.82456000  1.0
  O  O132  1  0.26853000  0.32058000  0.38656000  1.0
  O  O133  1  0.55704000  0.17673000  0.11465000  1.0
  O  O134  1  0.56439000  0.88387000  0.94963000  1.0
  O  O135  1  0.43042000  0.05178000  0.11198000  1.0
  O  O136  1  0.26396000  0.87556000  0.94390000  1.0
  O  O137  1  0.73540000  0.18046000  0.12141000  1.0
  O  O138  1  0.43343000  0.05440000  0.82222000  1.0
  O  O139  1  0.56398000  0.88645000  0.12248000  1.0
  O  O140  1  0.56589000  0.61553000  0.38374000  1.0
  O  O141  1  0.73378000  0.60509000  0.55744000  1.0
  O  O142  1  0.44175000  0.61649000  0.38348000  1.0
  O  O143  1  0.55944000  0.44538000  0.67755000  1.0
  O  O144  1  0.43614000  0.62035000  0.54955000  1.0
  O  O145  1  0.44046000  0.31902000  0.38141000  1.0
  O  O146  1  0.55115000  0.61324000  0.67341000  1.0
  O  O147  1  0.56029000  0.44419000  0.37789000  1.0
  O  O148  1  0.43762000  0.32099000  0.55405000  1.0
  O  O149  1  0.26570000  0.44305000  0.37724000  1.0
  O  O150  1  0.72943000  0.62954000  0.67657000  1.0
  O  O151  1  0.49911000  0.99992000  0.00047000  1.0
  O  O152  1  0.56912000  0.17812000  0.94480000  1.0
  O  O153  1  0.43402000  0.88047000  0.11685000  1.0
  O  O154  1  0.26621000  0.89098000  0.82184000  1.0
