# generated using pymatgen
data_HgH9C12Br2N2Cl
_symmetry_space_group_name_H-M   'P 1'
_cell_length_a   4.74195000
_cell_length_b   16.48310000
_cell_length_c   17.61320000
_cell_angle_alpha   89.99990000
_cell_angle_beta   90.00000000
_cell_angle_gamma   89.99980000
_symmetry_Int_Tables_number   1
_chemical_formula_structural   HgH9C12Br2N2Cl
_chemical_formula_sum   'Hg4 H36 C48 Br8 N8 Cl4'
_cell_volume   1376.68357326
_cell_formula_units_Z   4
loop_
 _symmetry_equiv_pos_site_id
 _symmetry_equiv_pos_as_xyz
  1  'x, y, z'
loop_
 _atom_site_type_symbol
 _atom_site_label
 _atom_site_symmetry_multiplicity
 _atom_site_fract_x
 _atom_site_fract_y
 _atom_site_fract_z
 _atom_site_occupancy
  Hg  Hg0  1  0.02466000  0.14611000  0.52517000  1.0
  Hg  Hg1  1  0.47534000  0.85389000  0.02517000  1.0
  Hg  Hg2  1  0.52466000  0.35389000  0.47483000  1.0
  Hg  Hg3  1  0.97534000  0.64611000  0.97483000  1.0
  H  H4  1  0.62724000  0.99346000  0.56211000  1.0
  H  H5  1  0.87277000  0.00654000  0.06211000  1.0
  H  H6  1  0.12723000  0.50654000  0.43789000  1.0
  H  H7  1  0.37277000  0.49346000  0.93789000  1.0
  H  H8  1  0.26417000  0.90036000  0.50673000  1.0
  H  H9  1  0.23583000  0.09964000  0.00673000  1.0
  H  H10  1  0.76416000  0.59964000  0.49327000  1.0
  H  H11  1  0.73583000  0.40035000  0.99327000  1.0
  H  H12  1  0.39543000  0.01950000  0.29093000  1.0
  H  H13  1  0.10457000  0.98049000  0.79092000  1.0
  H  H14  1  0.89544000  0.48049000  0.70907000  1.0
  H  H15  1  0.60457000  0.51951000  0.20907000  1.0
  H  H16  1  0.74580000  0.10892000  0.35565000  1.0
  H  H17  1  0.75420000  0.89108000  0.85565000  1.0
  H  H18  1  0.24581000  0.39108000  0.64435000  1.0
  H  H19  1  0.25420000  0.60892000  0.14435000  1.0
  H  H20  1  0.05870000  0.90606000  0.29725000  1.0
  H  H21  1  0.44130000  0.09394000  0.79725000  1.0
  H  H22  1  0.55870000  0.59394000  0.70274000  1.0
  H  H23  1  0.94131000  0.40606000  0.20275000  1.0
  H  H24  1  0.73117000  0.83779000  0.25257000  1.0
  H  H25  1  0.76882000  0.16221000  0.75257000  1.0
  H  H26  1  0.23118000  0.66221000  0.74743000  1.0
  H  H27  1  0.26883000  0.33779000  0.24743000  1.0
  H  H28  1  0.37051000  0.74040000  0.21245000  1.0
  H  H29  1  0.12949000  0.25960000  0.71245000  1.0
  H  H30  1  0.87051000  0.75961000  0.78755000  1.0
  H  H31  1  0.62950000  0.24040000  0.28755000  1.0
  H  H32  1  0.33889000  0.64105000  0.43925000  1.0
  H  H33  1  0.16111000  0.35895000  0.93925000  1.0
  H  H34  1  0.83889000  0.85895000  0.56075000  1.0
  H  H35  1  0.66112000  0.14105000  0.06075000  1.0
  H  H36  1  0.69856000  0.74022000  0.48034000  1.0
  H  H37  1  0.80144000  0.25978000  0.98034000  1.0
  H  H38  1  0.19856000  0.75978000  0.51966000  1.0
  H  H39  1  0.30144000  0.24022000  0.01966000  1.0
  C  C40  1  0.56848000  0.99687000  0.50229000  1.0
  C  C41  1  0.93152000  0.00314000  0.00229000  1.0
  C  C42  1  0.06848000  0.50313000  0.49771000  1.0
  C  C43  1  0.43152000  0.49686000  0.99771000  1.0
  C  C44  1  0.36761000  0.94549000  0.47143000  1.0
  C  C45  1  0.13239000  0.05451000  0.97143000  1.0
  C  C46  1  0.86761000  0.55450000  0.52857000  1.0
  C  C47  1  0.63239000  0.44549000  0.02857000  1.0
  C  C48  1  0.29774000  0.95226000  0.39415000  1.0
  C  C49  1  0.20226000  0.04774000  0.89415000  1.0
  C  C50  1  0.79774000  0.54774000  0.60585000  1.0
  C  C51  1  0.70227000  0.45226000  0.10585000  1.0
  C  C52  1  0.43800000  0.01174000  0.35136000  1.0
  C  C53  1  0.06199000  0.98826000  0.85136000  1.0
  C  C54  1  0.93801000  0.48826000  0.64864000  1.0
  C  C55  1  0.56199000  0.51174000  0.14864000  1.0
  C  C56  1  0.63429000  0.06170000  0.38689000  1.0
  C  C57  1  0.86571000  0.93830000  0.88689000  1.0
  C  C58  1  0.13429000  0.43830000  0.61311000  1.0
  C  C59  1  0.36571000  0.56170000  0.11311000  1.0
  C  C60  1  0.08728000  0.89911000  0.35905000  1.0
  C  C61  1  0.41272000  0.10089000  0.85905000  1.0
  C  C62  1  0.58728000  0.60089000  0.64095000  1.0
  C  C63  1  0.91273000  0.39911000  0.14095000  1.0
  C  C64  1  0.74740000  0.79523000  0.36991000  1.0
  C  C65  1  0.75259000  0.20477000  0.86991000  1.0
  C  C66  1  0.24740000  0.70477000  0.63009000  1.0
  C  C67  1  0.25261000  0.29522000  0.13009000  1.0
  C  C68  1  0.65101000  0.79465000  0.29420000  1.0
  C  C69  1  0.84897000  0.20535000  0.79420000  1.0
  C  C70  1  0.15101000  0.70535000  0.70580000  1.0
  C  C71  1  0.34899000  0.29465000  0.20580000  1.0
  C  C72  1  0.44653000  0.73948000  0.27083000  1.0
  C  C73  1  0.05347000  0.26052000  0.77084000  1.0
  C  C74  1  0.94653000  0.76052000  0.72916000  1.0
  C  C75  1  0.55348000  0.23948000  0.22917000  1.0
  C  C76  1  0.33811000  0.68354000  0.32296000  1.0
  C  C77  1  0.16188000  0.31646000  0.82296000  1.0
  C  C78  1  0.83811000  0.81646000  0.67704000  1.0
  C  C79  1  0.66189000  0.18354000  0.17704000  1.0
  C  C80  1  0.42740000  0.68362000  0.39844000  1.0
  C  C81  1  0.07260000  0.31638000  0.89844000  1.0
  C  C82  1  0.92740000  0.81638000  0.60156000  1.0
  C  C83  1  0.57261000  0.18362000  0.10156000  1.0
  C  C84  1  0.62965000  0.73943000  0.42133000  1.0
  C  C85  1  0.87035000  0.26057000  0.92133000  1.0
  C  C86  1  0.12966000  0.76057000  0.57867000  1.0
  C  C87  1  0.37035000  0.23943000  0.07867000  1.0
  Br  Br88  1  0.11676000  0.06886000  0.64587000  1.0
  Br  Br89  1  0.38324000  0.93114000  0.14587000  1.0
  Br  Br90  1  0.61676000  0.43114000  0.35413000  1.0
  Br  Br91  1  0.88324000  0.56886000  0.85413000  1.0
  Br  Br92  1  0.12864000  0.23272000  0.40793000  1.0
  Br  Br93  1  0.37135000  0.76728000  0.90793000  1.0
  Br  Br94  1  0.62864000  0.26728000  0.59207000  1.0
  Br  Br95  1  0.87136000  0.73272000  0.09207000  1.0
  N  N96  1  0.69821000  0.05450000  0.46083000  1.0
  N  N97  1  0.80179000  0.94550000  0.96083000  1.0
  N  N98  1  0.19821000  0.44550000  0.53917000  1.0
  N  N99  1  0.30179000  0.55450000  0.03917000  1.0
  N  N100  1  0.95059000  0.84778000  0.40011000  1.0
  N  N101  1  0.54940000  0.15222000  0.90011000  1.0
  N  N102  1  0.45060000  0.65222000  0.59989000  1.0
  N  N103  1  0.04940000  0.34778000  0.09989000  1.0
  Cl  Cl104  1  0.08686000  0.61339000  0.29501000  1.0
  Cl  Cl105  1  0.41313000  0.38661000  0.79501000  1.0
  Cl  Cl106  1  0.58686000  0.88661000  0.70499000  1.0
  Cl  Cl107  1  0.91314000  0.11339000  0.20499000  1.0
