# generated using pymatgen
data_CoH24C26N4O7
_symmetry_space_group_name_H-M   'P 1'
_cell_length_a   9.69921000
_cell_length_b   11.04380000
_cell_length_c   11.45530000
_cell_angle_alpha   92.12360000
_cell_angle_beta   93.18760000
_cell_angle_gamma   97.48240000
_symmetry_Int_Tables_number   1
_chemical_formula_structural   CoH24C26N4O7
_chemical_formula_sum   'Co2 H48 C52 N8 O14'
_cell_volume   1213.50008418
_cell_formula_units_Z   2
loop_
 _symmetry_equiv_pos_site_id
 _symmetry_equiv_pos_as_xyz
  1  'x, y, z'
loop_
 _atom_site_type_symbol
 _atom_site_label
 _atom_site_symmetry_multiplicity
 _atom_site_fract_x
 _atom_site_fract_y
 _atom_site_fract_z
 _atom_site_occupancy
  Co  Co0  1  0.29377000  0.10923000  0.29508000  1.0
  Co  Co1  1  0.70622000  0.89077000  0.70492000  1.0
  H  H2  1  0.43457000  0.20568000  0.62634000  1.0
  H  H3  1  0.56543000  0.79432000  0.37366000  1.0
  H  H4  1  0.08315000  0.04869000  0.07540000  1.0
  H  H5  1  0.91685000  0.95131000  0.92459000  1.0
  H  H6  1  0.07802000  0.17753000  0.77981000  1.0
  H  H7  1  0.92199000  0.82247000  0.22019000  1.0
  H  H8  1  0.04338000  0.29157000  0.88215000  1.0
  H  H9  1  0.95662000  0.70842000  0.11785000  1.0
  H  H10  1  0.74476000  0.08427000  0.31934000  1.0
  H  H11  1  0.25524000  0.91573000  0.68066000  1.0
  H  H12  1  0.50992000  0.81917000  0.96545000  1.0
  H  H13  1  0.49008000  0.18083000  0.03455000  1.0
  H  H14  1  0.41280000  0.85524000  0.83805000  1.0
  H  H15  1  0.58720000  0.14476000  0.16195000  1.0
  H  H16  1  0.12806000  0.62630000  0.58082000  1.0
  H  H17  1  0.87193000  0.37371000  0.41918000  1.0
  H  H18  1  0.38153000  0.63471000  0.84637000  1.0
  H  H19  1  0.61847000  0.36529000  0.15364000  1.0
  H  H20  1  0.22263000  0.68518000  0.87916000  1.0
  H  H21  1  0.77737000  0.31482000  0.12085000  1.0
  H  H22  1  0.65302000  0.22953000  0.65731000  1.0
  H  H23  1  0.34699000  0.77046000  0.34269000  1.0
  H  H24  1  0.97772000  0.47369000  0.68514000  1.0
  H  H25  1  0.02228000  0.52630000  0.31487000  1.0
  H  H26  1  0.07558000  0.18683000  0.58162000  1.0
  H  H27  1  0.92442000  0.81316000  0.41838000  1.0
  H  H28  1  0.37847000  0.60206000  0.55909000  1.0
  H  H29  1  0.62152000  0.39795000  0.44090000  1.0
  H  H30  1  0.15187000  0.91339000  0.88074000  1.0
  H  H31  1  0.84813000  0.08661000  0.11925000  1.0
  H  H32  1  0.46559000  0.91879000  0.15611000  1.0
  H  H33  1  0.53441000  0.08121000  0.84389000  1.0
  H  H34  1  0.47404000  0.42494000  0.64425000  1.0
  H  H35  1  0.52596000  0.57507000  0.35574000  1.0
  H  H36  1  0.44389000  0.60676000  0.05336000  1.0
  H  H37  1  0.55611000  0.39323000  0.94664000  1.0
  H  H38  1  0.30408000  0.68125000  0.09904000  1.0
  H  H39  1  0.69593000  0.31874000  0.90097000  1.0
  H  H40  1  0.13209000  0.51442000  0.01023000  1.0
  H  H41  1  0.86791000  0.48558000  0.98977000  1.0
  H  H42  1  0.26561000  0.43999000  0.95064000  1.0
  H  H43  1  0.73439000  0.56001000  0.04937000  1.0
  H  H44  1  0.27678000  0.25504000  0.05300000  1.0
  H  H45  1  0.72322000  0.74496000  0.94700000  1.0
  H  H46  1  0.28888000  0.37708000  0.40816000  1.0
  H  H47  1  0.71111000  0.62291000  0.59185000  1.0
  H  H48  1  0.24897000  0.57131000  0.26547000  1.0
  H  H49  1  0.75103000  0.42869000  0.73453000  1.0
  C  C50  1  0.91974000  0.13360000  0.44409000  1.0
  C  C51  1  0.08026000  0.86640000  0.55591000  1.0
  C  C52  1  0.13973000  0.36381000  0.72784000  1.0
  C  C53  1  0.86027000  0.63619000  0.27216000  1.0
  C  C54  1  0.17229000  0.00153000  0.06181000  1.0
  C  C55  1  0.82771000  0.99847000  0.93819000  1.0
  C  C56  1  0.68166000  0.15549000  0.48381000  1.0
  C  C57  1  0.31834000  0.84451000  0.51619000  1.0
  C  C58  1  0.28099000  0.35097000  0.71532000  1.0
  C  C59  1  0.71901000  0.64903000  0.28467000  1.0
  C  C60  1  0.86787000  0.21341000  0.63371000  1.0
  C  C61  1  0.13213000  0.78659000  0.36629000  1.0
  C  C62  1  0.04440000  0.26874000  0.78801000  1.0
  C  C63  1  0.95561000  0.73126000  0.21198000  1.0
  C  C64  1  0.53152000  0.15213000  0.44385000  1.0
  C  C65  1  0.46848000  0.84787000  0.55615000  1.0
  C  C66  1  0.77862000  0.12034000  0.40735000  1.0
  C  C67  1  0.22137000  0.87966000  0.59265000  1.0
  C  C68  1  0.40449000  0.81612000  0.92450000  1.0
  C  C69  1  0.59551000  0.18388000  0.07550000  1.0
  C  C70  1  0.34395000  0.25112000  0.77422000  1.0
  C  C71  1  0.65606000  0.74889000  0.22578000  1.0
  C  C72  1  0.17175000  0.54912000  0.61802000  1.0
  C  C73  1  0.82824000  0.45088000  0.38197000  1.0
  C  C74  1  0.33114000  0.68482000  0.91316000  1.0
  C  C75  1  0.66887000  0.31518000  0.08684000  1.0
  C  C76  1  0.72692000  0.20233000  0.59667000  1.0
  C  C77  1  0.27308000  0.79766000  0.40333000  1.0
  C  C78  1  0.08714000  0.46346000  0.67803000  1.0
  C  C79  1  0.91286000  0.53653000  0.32197000  1.0
  C  C80  1  0.96477000  0.17890000  0.55746000  1.0
  C  C81  1  0.03523000  0.82110000  0.44254000  1.0
  C  C82  1  0.31144000  0.53564000  0.60563000  1.0
  C  C83  1  0.68855000  0.46436000  0.39437000  1.0
  C  C84  1  0.20502000  0.93403000  0.96678000  1.0
  C  C85  1  0.79499000  0.06597000  0.03321000  1.0
  C  C86  1  0.37111000  0.93736000  0.10878000  1.0
  C  C87  1  0.62889000  0.06265000  0.89122000  1.0
  C  C88  1  0.02653000  0.10573000  0.36061000  1.0
  C  C89  1  0.97347000  0.89427000  0.63939000  1.0
  C  C90  1  0.36518000  0.43613000  0.65349000  1.0
  C  C91  1  0.63482000  0.56388000  0.34651000  1.0
  C  C92  1  0.33605000  0.62149000  0.02926000  1.0
  C  C93  1  0.66396000  0.37851000  0.97074000  1.0
  C  C94  1  0.24196000  0.49956000  0.02377000  1.0
  C  C95  1  0.75804000  0.50044000  0.97623000  1.0
  C  C96  1  0.27585000  0.31220000  0.13200000  1.0
  C  C97  1  0.72415000  0.68780000  0.86801000  1.0
  C  C98  1  0.28069000  0.38079000  0.31367000  1.0
  C  C99  1  0.71931000  0.61920000  0.68634000  1.0
  C  C100  1  0.26137000  0.47706000  0.24456000  1.0
  C  C101  1  0.73863000  0.52294000  0.75544000  1.0
  N  N102  1  0.33103000  0.89457000  0.99787000  1.0
  N  N103  1  0.66897000  0.10543000  0.00214000  1.0
  N  N104  1  0.27655000  0.00335000  0.14981000  1.0
  N  N105  1  0.72344000  0.99665000  0.85018000  1.0
  N  N106  1  0.25879000  0.43208000  0.12994000  1.0
  N  N107  1  0.74121000  0.56792000  0.87006000  1.0
  N  N108  1  0.28986000  0.27869000  0.24232000  1.0
  N  N109  1  0.71014000  0.72130000  0.75768000  1.0
  O  O110  1  0.90113000  0.26179000  0.74571000  1.0
  O  O111  1  0.09887000  0.73821000  0.25429000  1.0
  O  O112  1  0.45177000  0.21186000  0.50106000  1.0
  O  O113  1  0.54823000  0.78815000  0.49894000  1.0
  O  O114  1  0.15132000  0.10298000  0.40698000  1.0
  O  O115  1  0.84867000  0.89702000  0.59302000  1.0
  O  O116  1  0.99418000  0.09006000  0.25311000  1.0
  O  O117  1  0.00582000  0.90994000  0.74688000  1.0
  O  O118  1  0.48807000  0.09201000  0.34779000  1.0
  O  O119  1  0.51193000  0.90798000  0.65221000  1.0
  O  O120  1  0.32145000  0.22813000  0.87691000  1.0
  O  O121  1  0.67856000  0.77188000  0.12308000  1.0
  O  O122  1  0.42831000  0.18971000  0.71575000  1.0
  O  O123  1  0.57169000  0.81030000  0.28424000  1.0
