# generated using pymatgen
data_Hg2H31C19N3(Cl2O)2
_symmetry_space_group_name_H-M   'P 1'
_cell_length_a   7.16552000
_cell_length_b   11.14300000
_cell_length_c   17.53160000
_cell_angle_alpha   80.49350000
_cell_angle_beta   84.30260000
_cell_angle_gamma   73.11680000
_symmetry_Int_Tables_number   1
_chemical_formula_structural   Hg2H31C19N3(Cl2O)2
_chemical_formula_sum   'Hg4 H62 C38 N6 Cl8 O4'
_cell_volume   1319.13447111
_cell_formula_units_Z   2
loop_
 _symmetry_equiv_pos_site_id
 _symmetry_equiv_pos_as_xyz
  1  'x, y, z'
loop_
 _atom_site_type_symbol
 _atom_site_label
 _atom_site_symmetry_multiplicity
 _atom_site_fract_x
 _atom_site_fract_y
 _atom_site_fract_z
 _atom_site_occupancy
  Hg  Hg0  1  0.08123000  0.38436000  0.59690000  1.0
  Hg  Hg1  1  0.91877000  0.61564000  0.40310000  1.0
  Hg  Hg2  1  0.78392000  0.90527000  0.50331000  1.0
  Hg  Hg3  1  0.21609000  0.09472000  0.49669000  1.0
  H  H4  1  0.67443000  0.56864000  0.55651000  1.0
  H  H5  1  0.32557000  0.43136000  0.44349000  1.0
  H  H6  1  0.33706000  0.63006000  0.61585000  1.0
  H  H7  1  0.66294000  0.36993000  0.38415000  1.0
  H  H8  1  0.85961000  0.28277000  0.74028000  1.0
  H  H9  1  0.14040000  0.71723000  0.25972000  1.0
  H  H10  1  0.45858000  0.22083000  0.73240000  1.0
  H  H11  1  0.54141000  0.77917000  0.26760000  1.0
  H  H12  1  0.14890000  0.21740000  0.80807000  1.0
  H  H13  1  0.85111000  0.78259000  0.19193000  1.0
  H  H14  1  0.25253000  0.05499000  0.84710000  1.0
  H  H15  1  0.74748000  0.94500000  0.15290000  1.0
  H  H16  1  0.22610000  0.09866000  0.74580000  1.0
  H  H17  1  0.77390000  0.90134000  0.25420000  1.0
  H  H18  1  0.76640000  0.05282000  0.76061000  1.0
  H  H19  1  0.23360000  0.94719000  0.23939000  1.0
  H  H20  1  0.59552000  0.99411000  0.72255000  1.0
  H  H21  1  0.40448000  0.00590000  0.27745000  1.0
  H  H22  1  0.63582000  0.95781000  0.82321000  1.0
  H  H23  1  0.36419000  0.04220000  0.17679000  1.0
  H  H24  1  0.48113000  0.05287000  0.92204000  1.0
  H  H25  1  0.51886000  0.94714000  0.07797000  1.0
  H  H26  1  0.20092000  0.23074000  0.95761000  1.0
  H  H27  1  0.79907000  0.76926000  0.04239000  1.0
  H  H28  1  0.36530000  0.30040000  0.99162000  1.0
  H  H29  1  0.63468000  0.69961000  0.00838000  1.0
  H  H30  1  0.34141000  0.15023000  0.03836000  1.0
  H  H31  1  0.65858000  0.84978000  0.96164000  1.0
  H  H32  1  0.82192000  0.05722000  0.92022000  1.0
  H  H33  1  0.17807000  0.94278000  0.07979000  1.0
  H  H34  1  0.71828000  0.05757000  0.01666000  1.0
  H  H35  1  0.28172000  0.94243000  0.98335000  1.0
  H  H36  1  0.74886000  0.20063000  0.96195000  1.0
  H  H37  1  0.25114000  0.79937000  0.03805000  1.0
  H  H38  1  0.91240000  0.71987000  0.85874000  1.0
  H  H39  1  0.08759000  0.28013000  0.14125000  1.0
  H  H40  1  0.01028000  0.50774000  0.93662000  1.0
  H  H41  1  0.98971000  0.49227000  0.06338000  1.0
  H  H42  1  0.91980000  0.44192000  0.86685000  1.0
  H  H43  1  0.08019000  0.55808000  0.13315000  1.0
  H  H44  1  0.75568000  0.55320000  0.92019000  1.0
  H  H45  1  0.24431000  0.44680000  0.07981000  1.0
  H  H46  1  0.80725000  0.74865000  0.72321000  1.0
  H  H47  1  0.19275000  0.25135000  0.27678000  1.0
  H  H48  1  0.63404000  0.70998000  0.79534000  1.0
  H  H49  1  0.36596000  0.29002000  0.20466000  1.0
  H  H50  1  0.78158000  0.59269000  0.74026000  1.0
  H  H51  1  0.21843000  0.40731000  0.25974000  1.0
  H  H52  1  0.39940000  0.64647000  0.78363000  1.0
  H  H53  1  0.60061000  0.35352000  0.21638000  1.0
  H  H54  1  0.32921000  0.59601000  0.92374000  1.0
  H  H55  1  0.67079000  0.40399000  0.07626000  1.0
  H  H56  1  0.13019000  0.73736000  0.92218000  1.0
  H  H57  1  0.86981000  0.26264000  0.07782000  1.0
  H  H58  1  0.37135000  0.74742000  0.89938000  1.0
  H  H59  1  0.62865000  0.25258000  0.10062000  1.0
  H  H60  1  0.16911000  0.81919000  0.70050000  1.0
  H  H61  1  0.83090000  0.18081000  0.29950000  1.0
  H  H62  1  0.27885000  0.87921000  0.76634000  1.0
  H  H63  1  0.72116000  0.12079000  0.23366000  1.0
  H  H64  1  0.03358000  0.87340000  0.78469000  1.0
  H  H65  1  0.96643000  0.12660000  0.21531000  1.0
  C  C66  1  0.63598000  0.51856000  0.61178000  1.0
  C  C67  1  0.36402000  0.48144000  0.38821000  1.0
  C  C68  1  0.44880000  0.55387000  0.64616000  1.0
  C  C69  1  0.55119000  0.44613000  0.35384000  1.0
  C  C70  1  0.40691000  0.48925000  0.71806000  1.0
  C  C71  1  0.59309000  0.51075000  0.28194000  1.0
  C  C72  1  0.55573000  0.38923000  0.75325000  1.0
  C  C73  1  0.44428000  0.61076000  0.24675000  1.0
  C  C74  1  0.73913000  0.35861000  0.71494000  1.0
  C  C75  1  0.26087000  0.64139000  0.28506000  1.0
  C  C76  1  0.53186000  0.32865000  0.83582000  1.0
  C  C77  1  0.46814000  0.67136000  0.16418000  1.0
  C  C78  1  0.46205000  0.15198000  0.78520000  1.0
  C  C79  1  0.53794000  0.84802000  0.21480000  1.0
  C  C80  1  0.25996000  0.12931000  0.79797000  1.0
  C  C81  1  0.74005000  0.87069000  0.20203000  1.0
  C  C82  1  0.62460000  0.03221000  0.77262000  1.0
  C  C83  1  0.37540000  0.96780000  0.22737000  1.0
  C  C84  1  0.50766000  0.14300000  0.92810000  1.0
  C  C85  1  0.49233000  0.85700000  0.07190000  1.0
  C  C86  1  0.34383000  0.21074000  0.98218000  1.0
  C  C87  1  0.65616000  0.78927000  0.01782000  1.0
  C  C88  1  0.71181000  0.11299000  0.95853000  1.0
  C  C89  1  0.28818000  0.88701000  0.04147000  1.0
  C  C90  1  0.20189000  0.51286000  0.75397000  1.0
  C  C91  1  0.79811000  0.48714000  0.24603000  1.0
  C  C92  1  0.92963000  0.63629000  0.83018000  1.0
  C  C93  1  0.07037000  0.36371000  0.16982000  1.0
  C  C94  1  0.90306000  0.52799000  0.89234000  1.0
  C  C95  1  0.09693000  0.47201000  0.10766000  1.0
  C  C96  1  0.77995000  0.67383000  0.76815000  1.0
  C  C97  1  0.22005000  0.32618000  0.23185000  1.0
  C  C98  1  0.25281000  0.69072000  0.80755000  1.0
  C  C99  1  0.74719000  0.30928000  0.19245000  1.0
  C  C100  1  0.27059000  0.69218000  0.89345000  1.0
  C  C101  1  0.72941000  0.30782000  0.10655000  1.0
  C  C102  1  0.17871000  0.82285000  0.76208000  1.0
  C  C103  1  0.82130000  0.17714000  0.23792000  1.0
  N  N104  1  0.77741000  0.42285000  0.64606000  1.0
  N  N105  1  0.22259000  0.57715000  0.35394000  1.0
  N  N106  1  0.50224000  0.21237000  0.84844000  1.0
  N  N107  1  0.49776000  0.78762000  0.15157000  1.0
  N  N108  1  0.13245000  0.60858000  0.79574000  1.0
  N  N109  1  0.86755000  0.39142000  0.20426000  1.0
  Cl  Cl110  1  0.03254000  0.63631000  0.54954000  1.0
  Cl  Cl111  1  0.96746000  0.36368000  0.45046000  1.0
  Cl  Cl112  1  0.41260000  0.26668000  0.57943000  1.0
  Cl  Cl113  1  0.58740000  0.73332000  0.42057000  1.0
  Cl  Cl114  1  0.02344000  0.92850000  0.40458000  1.0
  Cl  Cl115  1  0.97656000  0.07150000  0.59542000  1.0
  Cl  Cl116  1  0.53645000  0.89354000  0.59998000  1.0
  Cl  Cl117  1  0.46355000  0.10646000  0.40001000  1.0
  O  O118  1  0.54882000  0.38826000  0.88772000  1.0
  O  O119  1  0.45118000  0.61174000  0.11228000  1.0
  O  O120  1  0.10816000  0.43851000  0.74308000  1.0
  O  O121  1  0.89185000  0.56149000  0.25692000  1.0
