# generated using pymatgen
data_CuH10C6(N4Cl)2
_symmetry_space_group_name_H-M   'P 1'
_cell_length_a   6.65256000
_cell_length_b   7.32740000
_cell_length_c   11.24060000
_cell_angle_alpha   84.92230000
_cell_angle_beta   89.99980000
_cell_angle_gamma   89.99950000
_symmetry_Int_Tables_number   1
_chemical_formula_structural   CuH10C6(N4Cl)2
_chemical_formula_sum   'Cu2 H20 C12 N16 Cl4'
_cell_volume   545.78361122
_cell_formula_units_Z   2
loop_
 _symmetry_equiv_pos_site_id
 _symmetry_equiv_pos_as_xyz
  1  'x, y, z'
loop_
 _atom_site_type_symbol
 _atom_site_label
 _atom_site_symmetry_multiplicity
 _atom_site_fract_x
 _atom_site_fract_y
 _atom_site_fract_z
 _atom_site_occupancy
  Cu  Cu0  1  0.00000000  0.00000000  0.00000000  1.0
  Cu  Cu1  1  0.50000000  0.50000000  0.00000000  1.0
  H  H2  1  0.53896000  0.99943000  0.88548000  1.0
  H  H3  1  0.03897000  0.50057000  0.11451000  1.0
  H  H4  1  0.46103000  0.00057000  0.11451000  1.0
  H  H5  1  0.96103000  0.49943000  0.88549000  1.0
  H  H6  1  0.46236000  0.27769000  0.59627000  1.0
  H  H7  1  0.96237000  0.22231000  0.40373000  1.0
  H  H8  1  0.53764000  0.72231000  0.40373000  1.0
  H  H9  1  0.03763000  0.77769000  0.59627000  1.0
  H  H10  1  0.32691000  0.13394000  0.70439000  1.0
  H  H11  1  0.82692000  0.36606000  0.29561000  1.0
  H  H12  1  0.67308000  0.86606000  0.29561000  1.0
  H  H13  1  0.17309000  0.63395000  0.70439000  1.0
  H  H14  1  0.27231000  0.03456000  0.50635000  1.0
  H  H15  1  0.77232000  0.46545000  0.49365000  1.0
  H  H16  1  0.72769000  0.96544000  0.49364000  1.0
  H  H17  1  0.22769000  0.53456000  0.50636000  1.0
  H  H18  1  0.40301000  0.86219000  0.59424000  1.0
  H  H19  1  0.90302000  0.63781000  0.40576000  1.0
  H  H20  1  0.59699000  0.13781000  0.40576000  1.0
  H  H21  1  0.09699000  0.36219000  0.59424000  1.0
  C  C22  1  0.65996000  0.04113000  0.82403000  1.0
  C  C23  1  0.15998000  0.45887000  0.17597000  1.0
  C  C24  1  0.34003000  0.95887000  0.17597000  1.0
  C  C25  1  0.84002000  0.54113000  0.82403000  1.0
  C  C26  1  0.45095000  0.13790000  0.63986000  1.0
  C  C27  1  0.95095000  0.36209000  0.36014000  1.0
  C  C28  1  0.54905000  0.86210000  0.36014000  1.0
  C  C29  1  0.04905000  0.63790000  0.63986000  1.0
  C  C30  1  0.41843000  0.99967000  0.54788000  1.0
  C  C31  1  0.91843000  0.50033000  0.45212000  1.0
  C  C32  1  0.58157000  0.00033000  0.45212000  1.0
  C  C33  1  0.08157000  0.49967000  0.54789000  1.0
  N  N34  1  0.85695000  0.03846000  0.84528000  1.0
  N  N35  1  0.35695000  0.46154000  0.15472000  1.0
  N  N36  1  0.14304000  0.96154000  0.15472000  1.0
  N  N37  1  0.64305000  0.53846000  0.84528000  1.0
  N  N38  1  0.95138000  0.10040000  0.74251000  1.0
  N  N39  1  0.45138000  0.39959000  0.25749000  1.0
  N  N40  1  0.04862000  0.89959000  0.25749000  1.0
  N  N41  1  0.54862000  0.60041000  0.74252000  1.0
  N  N42  1  0.81855000  0.14164000  0.66001000  1.0
  N  N43  1  0.31855000  0.35836000  0.33998000  1.0
  N  N44  1  0.18145000  0.85836000  0.33998000  1.0
  N  N45  1  0.68145000  0.64164000  0.66002000  1.0
  N  N46  1  0.63515000  0.10466000  0.70944000  1.0
  N  N47  1  0.13515000  0.39534000  0.29056000  1.0
  N  N48  1  0.36485000  0.89533000  0.29056000  1.0
  N  N49  1  0.86485000  0.60466000  0.70945000  1.0
  Cl  Cl50  1  0.22442000  0.80215000  0.92016000  1.0
  Cl  Cl51  1  0.72441000  0.69785000  0.07984000  1.0
  Cl  Cl52  1  0.77558000  0.19785000  0.07984000  1.0
  Cl  Cl53  1  0.27559000  0.30215000  0.92015000  1.0
