# generated using pymatgen
data_SmCuH8C14(NO4)2
_symmetry_space_group_name_H-M   'P 1'
_cell_length_a   9.21390000
_cell_length_b   9.57365000
_cell_length_c   21.58500000
_cell_angle_alpha   90.00000000
_cell_angle_beta   90.00000000
_cell_angle_gamma   115.87900000
_symmetry_Int_Tables_number   1
_chemical_formula_structural   SmCuH8C14(NO4)2
_chemical_formula_sum   'Sm4 Cu4 H32 C56 N8 O32'
_cell_volume   1713.08697645
_cell_formula_units_Z   4
loop_
 _symmetry_equiv_pos_site_id
 _symmetry_equiv_pos_as_xyz
  1  'x, y, z'
loop_
 _atom_site_type_symbol
 _atom_site_label
 _atom_site_symmetry_multiplicity
 _atom_site_fract_x
 _atom_site_fract_y
 _atom_site_fract_z
 _atom_site_occupancy
  Sm  Sm0  1  0.37777000  0.14426000  0.00911000  1.0
  Sm  Sm1  1  0.12223000  0.85573000  0.50911000  1.0
  Sm  Sm2  1  0.62223000  0.85573000  0.99089000  1.0
  Sm  Sm3  1  0.87777000  0.14427000  0.49089000  1.0
  Cu  Cu4  1  0.04410000  0.19318000  0.14543000  1.0
  Cu  Cu5  1  0.45590000  0.80683000  0.64543000  1.0
  Cu  Cu6  1  0.95589000  0.80682000  0.85457000  1.0
  Cu  Cu7  1  0.54410000  0.19318000  0.35457000  1.0
  H  H8  1  0.39318000  0.19877000  0.83878000  1.0
  H  H9  1  0.10682000  0.80123000  0.33878000  1.0
  H  H10  1  0.60682000  0.80123000  0.16122000  1.0
  H  H11  1  0.89319000  0.19877000  0.66122000  1.0
  H  H12  1  0.92905000  0.71496000  0.06836000  1.0
  H  H13  1  0.57095000  0.28504000  0.56836000  1.0
  H  H14  1  0.07095000  0.28504000  0.93164000  1.0
  H  H15  1  0.42906000  0.71496000  0.43164000  1.0
  H  H16  1  0.71964000  0.49410000  0.12824000  1.0
  H  H17  1  0.78036000  0.50590000  0.62824000  1.0
  H  H18  1  0.28036000  0.50590000  0.87176000  1.0
  H  H19  1  0.21964000  0.49410000  0.37176000  1.0
  H  H20  1  0.22361000  0.46731000  0.07126000  1.0
  H  H21  1  0.27639000  0.53270000  0.57126000  1.0
  H  H22  1  0.77638000  0.53268000  0.92874000  1.0
  H  H23  1  0.72362000  0.46731000  0.42874000  1.0
  H  H24  1  0.34446000  0.24392000  0.72634000  1.0
  H  H25  1  0.15554000  0.75608000  0.22634000  1.0
  H  H26  1  0.65554000  0.75608000  0.27366000  1.0
  H  H27  1  0.84446000  0.24393000  0.77366000  1.0
  H  H28  1  0.78184000  0.27694000  0.16197000  1.0
  H  H29  1  0.71816000  0.72307000  0.66197000  1.0
  H  H30  1  0.21815000  0.72307000  0.83803000  1.0
  H  H31  1  0.28185000  0.27694000  0.33803000  1.0
  H  H32  1  0.50471000  0.83071000  0.77574000  1.0
  H  H33  1  0.99529000  0.16929000  0.27574000  1.0
  H  H34  1  0.49529000  0.16929000  0.22426000  1.0
  H  H35  1  0.00471000  0.83071000  0.72426000  1.0
  H  H36  1  0.37008000  0.07109000  0.64479000  1.0
  H  H37  1  0.12992000  0.92892000  0.14479000  1.0
  H  H38  1  0.62993000  0.92892000  0.35520000  1.0
  H  H39  1  0.87007000  0.07108000  0.85521000  1.0
  C  C40  1  0.45343000  0.01133000  0.81448000  1.0
  C  C41  1  0.04658000  0.98867000  0.31448000  1.0
  C  C42  1  0.54658000  0.98867000  0.18551000  1.0
  C  C43  1  0.95342000  0.01132000  0.68552000  1.0
  C  C44  1  0.49047000  0.97690000  0.87880000  1.0
  C  C45  1  0.00954000  0.02311000  0.37880000  1.0
  C  C46  1  0.50953000  0.02310000  0.12120000  1.0
  C  C47  1  0.99047000  0.97690000  0.62120000  1.0
  C  C48  1  0.40636000  0.12871000  0.80121000  1.0
  C  C49  1  0.09364000  0.87129000  0.30121000  1.0
  C  C50  1  0.59364000  0.87129000  0.19879000  1.0
  C  C51  1  0.90636000  0.12871000  0.69879000  1.0
  C  C52  1  0.22381000  0.73919000  0.03050000  1.0
  C  C53  1  0.27619000  0.26081000  0.53050000  1.0
  C  C54  1  0.77618000  0.26080000  0.96950000  1.0
  C  C55  1  0.72382000  0.73919000  0.46950000  1.0
  C  C56  1  0.09324000  0.60842000  0.06576000  1.0
  C  C57  1  0.40676000  0.39158000  0.56576000  1.0
  C  C58  1  0.90675000  0.39158000  0.93424000  1.0
  C  C59  1  0.59325000  0.60842000  0.43424000  1.0
  C  C60  1  0.95029000  0.61633000  0.08254000  1.0
  C  C61  1  0.54970000  0.38366000  0.58254000  1.0
  C  C62  1  0.04970000  0.38366000  0.91746000  1.0
  C  C63  1  0.45030000  0.61634000  0.41746000  1.0
  C  C64  1  0.83507000  0.49515000  0.11658000  1.0
  C  C65  1  0.66493000  0.50484000  0.61658000  1.0
  C  C66  1  0.16492000  0.50484000  0.88342000  1.0
  C  C67  1  0.33508000  0.49516000  0.38342000  1.0
  C  C68  1  0.11523000  0.47907000  0.08402000  1.0
  C  C69  1  0.38477000  0.52093000  0.58402000  1.0
  C  C70  1  0.88476000  0.52093000  0.91598000  1.0
  C  C71  1  0.61524000  0.47907000  0.41599000  1.0
  C  C72  1  0.37886000  0.15255000  0.73937000  1.0
  C  C73  1  0.12114000  0.84745000  0.23937000  1.0
  C  C74  1  0.62114000  0.84745000  0.26063000  1.0
  C  C75  1  0.87886000  0.15255000  0.76063000  1.0
  C  C76  1  0.86759000  0.37239000  0.13440000  1.0
  C  C77  1  0.63241000  0.62761000  0.63440000  1.0
  C  C78  1  0.13240000  0.62760000  0.86560000  1.0
  C  C79  1  0.36760000  0.37240000  0.36560000  1.0
  C  C80  1  0.46768000  0.92201000  0.76594000  1.0
  C  C81  1  0.03232000  0.07799000  0.26594000  1.0
  C  C82  1  0.53232000  0.07799000  0.23406000  1.0
  C  C83  1  0.96767000  0.92201000  0.73406000  1.0
  C  C84  1  0.39394000  0.05764000  0.69334000  1.0
  C  C85  1  0.10606000  0.94236000  0.19334000  1.0
  C  C86  1  0.60607000  0.94237000  0.30666000  1.0
  C  C87  1  0.89393000  0.05764000  0.80666000  1.0
  C  C88  1  0.51081000  0.50768000  0.03586000  1.0
  C  C89  1  0.98919000  0.49232000  0.53586000  1.0
  C  C90  1  0.48919000  0.49232000  0.96414000  1.0
  C  C91  1  0.01081000  0.50768000  0.46414000  1.0
  C  C92  1  0.99488000  0.02157000  0.03403000  1.0
  C  C93  1  0.50512000  0.97843000  0.53403000  1.0
  C  C94  1  0.00512000  0.97843000  0.96597000  1.0
  C  C95  1  0.49489000  0.02157000  0.46597000  1.0
  N  N96  1  0.00564000  0.36316000  0.11871000  1.0
  N  N97  1  0.49436000  0.63684000  0.61871000  1.0
  N  N98  1  0.99434000  0.63683000  0.88129000  1.0
  N  N99  1  0.50565000  0.36317000  0.38129000  1.0
  N  N100  1  0.43663000  0.94204000  0.70632000  1.0
  N  N101  1  0.06337000  0.05796000  0.20632000  1.0
  N  N102  1  0.56337000  0.05796000  0.29368000  1.0
  N  N103  1  0.93662000  0.94204000  0.79368000  1.0
  O  O104  1  0.12586000  0.11987000  0.05864000  1.0
  O  O105  1  0.37414000  0.88013000  0.55864000  1.0
  O  O106  1  0.87414000  0.88013000  0.94136000  1.0
  O  O107  1  0.62586000  0.11987000  0.44136000  1.0
  O  O108  1  0.21556000  0.86817000  0.03133000  1.0
  O  O109  1  0.28444000  0.13182000  0.53133000  1.0
  O  O110  1  0.78445000  0.13182000  0.96867000  1.0
  O  O111  1  0.71556000  0.86818000  0.46867000  1.0
  O  O112  1  0.45126000  0.03682000  0.92436000  1.0
  O  O113  1  0.04874000  0.96318000  0.42436000  1.0
  O  O114  1  0.54873000  0.96318000  0.07564000  1.0
  O  O115  1  0.95126000  0.03682000  0.57564000  1.0
  O  O116  1  0.44695000  0.38380000  0.06696000  1.0
  O  O117  1  0.05305000  0.61620000  0.56696000  1.0
  O  O118  1  0.55305000  0.61620000  0.93304000  1.0
  O  O119  1  0.94695000  0.38380000  0.43304000  1.0
  O  O120  1  0.33191000  0.71187000  0.00422000  1.0
  O  O121  1  0.16809000  0.28814000  0.50422000  1.0
  O  O122  1  0.66809000  0.28813000  0.99578000  1.0
  O  O123  1  0.83192000  0.71187000  0.49578000  1.0
  O  O124  1  0.55956000  0.88835000  0.88405000  1.0
  O  O125  1  0.94045000  0.11165000  0.38405000  1.0
  O  O126  1  0.44044000  0.11165000  0.11595000  1.0
  O  O127  1  0.05956000  0.88835000  0.61595000  1.0
  O  O128  1  0.59068000  0.64325000  0.05764000  1.0
  O  O129  1  0.90930000  0.35675000  0.55764000  1.0
  O  O130  1  0.40932000  0.35675000  0.94236000  1.0
  O  O131  1  0.09070000  0.64325000  0.44236000  1.0
  O  O132  1  0.86040000  0.95914000  0.06091000  1.0
  O  O133  1  0.63960000  0.04086000  0.56091000  1.0
  O  O134  1  0.13960000  0.04086000  0.93909000  1.0
  O  O135  1  0.36040000  0.95914000  0.43909000  1.0
