# generated using pymatgen
data_ZnH22C24NO10
_symmetry_space_group_name_H-M   'P 1'
_cell_length_a   13.94710000
_cell_length_b   15.13060000
_cell_length_c   15.87410000
_cell_angle_alpha   89.70710000
_cell_angle_beta   89.91460000
_cell_angle_gamma   89.29230000
_symmetry_Int_Tables_number   1
_chemical_formula_structural   ZnH22C24NO10
_chemical_formula_sum   'Zn2 H44 C48 N2 O20'
_cell_volume   3349.57672219
_cell_formula_units_Z   2
loop_
 _symmetry_equiv_pos_site_id
 _symmetry_equiv_pos_as_xyz
  1  'x, y, z'
loop_
 _atom_site_type_symbol
 _atom_site_label
 _atom_site_symmetry_multiplicity
 _atom_site_fract_x
 _atom_site_fract_y
 _atom_site_fract_z
 _atom_site_occupancy
  Zn  Zn0  1  0.39021000  0.50262000  0.51185000  1.0
  Zn  Zn1  1  0.59448000  0.51041000  0.50259000  1.0
  H  H2  1  0.35763000  0.06608000  0.41375000  1.0
  H  H3  1  0.53588000  0.96588000  0.62776000  1.0
  H  H4  1  0.43359000  0.92720000  0.37363000  1.0
  H  H5  1  0.62894000  0.06760000  0.54514000  1.0
  H  H6  1  0.74468000  0.58557000  0.39352000  1.0
  H  H7  1  0.23814000  0.63044000  0.54315000  1.0
  H  H8  1  0.74137000  0.42866000  0.60693000  1.0
  H  H9  1  0.24549000  0.36730000  0.47561000  1.0
  H  H10  1  0.25101000  0.45915000  0.03240000  1.0
  H  H11  1  0.29210000  0.51877000  0.12363000  1.0
  H  H12  1  0.22212000  0.42096000  0.13677000  1.0
  H  H13  1  0.69267000  0.43559000  0.80851000  1.0
  H  H14  1  0.73987000  0.37610000  0.89800000  1.0
  H  H15  1  0.80243000  0.47003000  0.85708000  1.0
  H  H16  1  0.39207000  0.24422000  0.93213000  1.0
  H  H17  1  0.43063000  0.30083000  0.83785000  1.0
  H  H18  1  0.30575000  0.28330000  0.85616000  1.0
  H  H19  1  0.74775000  0.41007000  0.12662000  1.0
  H  H20  1  0.67774000  0.46157000  0.20894000  1.0
  H  H21  1  0.78629000  0.51161000  0.17260000  1.0
  H  H22  1  0.38859000  0.35706000  0.34516000  1.0
  H  H23  1  0.29961000  0.30127000  0.28572000  1.0
  H  H24  1  0.42204000  0.26573000  0.27831000  1.0
  H  H25  1  0.51547000  0.73317000  0.77656000  1.0
  H  H26  1  0.55139000  0.66997000  0.68637000  1.0
  H  H27  1  0.43119000  0.71342000  0.69372000  1.0
  H  H28  1  0.28919000  0.72278000  0.41589000  1.0
  H  H29  1  0.32814000  0.70336000  0.30997000  1.0
  H  H30  1  0.30305000  0.81454000  0.34400000  1.0
  H  H31  1  0.78896000  0.27808000  0.50548000  1.0
  H  H32  1  0.70393000  0.29245000  0.42189000  1.0
  H  H33  1  0.75266000  0.18383000  0.44566000  1.0
  H  H34  1  0.85263000  0.69750000  0.34850000  1.0
  H  H35  1  0.84300000  0.60465000  0.27906000  1.0
  H  H36  1  0.94854000  0.67122000  0.27685000  1.0
  H  H37  1  0.13735000  0.74989000  0.51234000  1.0
  H  H38  1  0.13436000  0.71690000  0.62126000  1.0
  H  H39  1  0.03494000  0.77704000  0.57641000  1.0
  H  H40  1  0.83770000  0.31212000  0.65373000  1.0
  H  H41  1  0.84096000  0.40712000  0.72091000  1.0
  H  H42  1  0.93841000  0.32847000  0.72212000  1.0
  H  H43  1  0.14374000  0.24932000  0.50203000  1.0
  H  H44  1  0.15243000  0.27722000  0.39252000  1.0
  H  H45  1  0.04910000  0.21986000  0.43114000  1.0
  C  C46  1  0.49497000  0.33924000  0.47240000  1.0
  C  C47  1  0.48138000  0.67510000  0.53298000  1.0
  C  C48  1  0.49072000  0.05475000  0.48408000  1.0
  C  C49  1  0.48472000  0.95861000  0.49914000  1.0
  C  C50  1  0.88884000  0.54809000  0.43741000  1.0
  C  C51  1  0.09501000  0.57587000  0.52328000  1.0
  C  C52  1  0.88683000  0.45471000  0.56096000  1.0
  C  C53  1  0.09921000  0.42230000  0.48330000  1.0
  C  C54  1  0.78842000  0.55042000  0.43981000  1.0
  C  C55  1  0.19519000  0.57356000  0.52671000  1.0
  C  C56  1  0.78660000  0.46047000  0.56015000  1.0
  C  C57  1  0.19951000  0.42444000  0.48818000  1.0
  C  C58  1  0.93962000  0.49984000  0.49915000  1.0
  C  C59  1  0.04540000  0.49911000  0.50117000  1.0
  C  C60  1  0.49431000  0.52943000  0.34511000  1.0
  C  C61  1  0.50282000  0.46897000  0.66751000  1.0
  C  C62  1  0.44091000  0.41279000  0.96834000  1.0
  C  C63  1  0.59876000  0.48805000  0.05245000  1.0
  C  C64  1  0.43706000  0.42572000  0.05537000  1.0
  C  C65  1  0.60332000  0.47445000  0.96499000  1.0
  C  C66  1  0.52233000  0.44106000  0.92179000  1.0
  C  C67  1  0.51381000  0.46754000  0.09707000  1.0
  C  C68  1  0.51784000  0.44438000  0.83315000  1.0
  C  C69  1  0.50370000  0.49070000  0.18247000  1.0
  C  C70  1  0.49586000  0.51419000  0.25550000  1.0
  C  C71  1  0.51063000  0.45264000  0.75696000  1.0
  C  C72  1  0.41907000  0.10064000  0.43949000  1.0
  C  C73  1  0.51294000  0.92305000  0.57683000  1.0
  C  C74  1  0.45209000  0.90185000  0.43597000  1.0
  C  C75  1  0.56986000  0.10168000  0.51335000  1.0
  C  C76  1  0.42276000  0.19222000  0.42907000  1.0
  C  C77  1  0.50967000  0.83191000  0.59282000  1.0
  C  C78  1  0.45083000  0.81125000  0.45101000  1.0
  C  C79  1  0.57531000  0.19265000  0.50140000  1.0
  C  C80  1  0.49968000  0.24094000  0.46270000  1.0
  C  C81  1  0.47909000  0.77432000  0.52897000  1.0
  C  C82  1  0.27657000  0.45307000  0.09772000  1.0
  C  C83  1  0.73152000  0.44172000  0.86832000  1.0
  C  C84  1  0.37454000  0.29692000  0.88637000  1.0
  C  C85  1  0.72360000  0.47347000  0.15376000  1.0
  C  C86  1  0.36677000  0.29264000  0.32086000  1.0
  C  C87  1  0.50696000  0.72561000  0.70836000  1.0
  C  C88  1  0.33170000  0.74919000  0.36308000  1.0
  C  C89  1  0.72896000  0.24770000  0.47226000  1.0
  C  C90  1  0.89262000  0.64370000  0.31731000  1.0
  C  C91  1  0.09090000  0.72738000  0.56415000  1.0
  C  C92  1  0.88458000  0.36153000  0.68252000  1.0
  C  C93  1  0.10275000  0.26967000  0.44587000  1.0
  N  N94  1  0.74058000  0.50758000  0.50060000  1.0
  N  N95  1  0.24421000  0.49905000  0.50938000  1.0
  O  O96  1  0.41469000  0.37019000  0.49819000  1.0
  O  O97  1  0.56345000  0.63808000  0.53772000  1.0
  O  O98  1  0.40120000  0.63629000  0.52823000  1.0
  O  O99  1  0.56967000  0.38402000  0.45828000  1.0
  O  O100  1  0.41457000  0.51754000  0.38249000  1.0
  O  O101  1  0.58107000  0.46573000  0.62565000  1.0
  O  O102  1  0.41949000  0.48633000  0.63955000  1.0
  O  O103  1  0.57399000  0.54964000  0.37856000  1.0
  O  O104  1  0.36063000  0.39704000  0.10228000  1.0
  O  O105  1  0.68439000  0.50208000  0.92497000  1.0
  O  O106  1  0.36151000  0.37998000  0.92921000  1.0
  O  O107  1  0.67545000  0.52645000  0.09077000  1.0
  O  O108  1  0.34606000  0.23001000  0.38712000  1.0
  O  O109  1  0.53753000  0.80785000  0.67232000  1.0
  O  O110  1  0.43066000  0.75372000  0.38602000  1.0
  O  O111  1  0.65477000  0.23452000  0.53389000  1.0
  O  O112  1  0.94221000  0.58934000  0.37774000  1.0
  O  O113  1  0.04110000  0.64859000  0.54166000  1.0
  O  O114  1  0.93777000  0.40875000  0.61979000  1.0
  O  O115  1  0.04917000  0.34973000  0.46111000  1.0
