# generated using pymatgen
data_SrH22C16(N5O4)2
_symmetry_space_group_name_H-M   'P 1'
_cell_length_a   8.18202000
_cell_length_b   11.84110000
_cell_length_c   11.84040000
_cell_angle_alpha   87.81750000
_cell_angle_beta   87.81330000
_cell_angle_gamma   87.81740000
_symmetry_Int_Tables_number   1
_chemical_formula_structural   SrH22C16(N5O4)2
_chemical_formula_sum   'Sr2 H44 C32 N20 O16'
_cell_volume   1144.70877825
_cell_formula_units_Z   2
loop_
 _symmetry_equiv_pos_site_id
 _symmetry_equiv_pos_as_xyz
  1  'x, y, z'
loop_
 _atom_site_type_symbol
 _atom_site_label
 _atom_site_symmetry_multiplicity
 _atom_site_fract_x
 _atom_site_fract_y
 _atom_site_fract_z
 _atom_site_occupancy
  Sr  Sr0  1  0.75000000  0.01846000  0.98153000  1.0
  Sr  Sr1  1  0.25000000  0.98154000  0.01846000  1.0
  H  H2  1  0.57214000  0.25228000  0.31996000  1.0
  H  H3  1  0.92794000  0.68003000  0.74768000  1.0
  H  H4  1  0.42788000  0.74772000  0.68004000  1.0
  H  H5  1  0.07205000  0.31997000  0.25233000  1.0
  H  H6  1  0.52397000  0.13153000  0.40384000  1.0
  H  H7  1  0.97605000  0.59616000  0.86846000  1.0
  H  H8  1  0.47606000  0.86847000  0.59615000  1.0
  H  H9  1  0.02394000  0.40384000  0.13154000  1.0
  H  H10  1  0.79168000  0.35995000  0.35235000  1.0
  H  H11  1  0.70830000  0.64770000  0.64003000  1.0
  H  H12  1  0.20831000  0.64004000  0.64765000  1.0
  H  H13  1  0.29169000  0.35230000  0.35996000  1.0
  H  H14  1  0.97638000  0.42735000  0.48927000  1.0
  H  H15  1  0.52359000  0.51076000  0.57264000  1.0
  H  H16  1  0.02362000  0.57265000  0.51074000  1.0
  H  H17  1  0.47640000  0.48924000  0.42736000  1.0
  H  H18  1  0.86848000  0.12999000  0.70381000  1.0
  H  H19  1  0.63158000  0.29621000  0.86997000  1.0
  H  H20  1  0.13154000  0.87001000  0.29620000  1.0
  H  H21  1  0.36840000  0.70380000  0.13003000  1.0
  H  H22  1  0.69419000  0.06974000  0.55606000  1.0
  H  H23  1  0.80586000  0.44393000  0.93021000  1.0
  H  H24  1  0.30583000  0.93026000  0.44392000  1.0
  H  H25  1  0.19411000  0.55607000  0.06979000  1.0
  H  H26  1  0.23574000  0.34328000  0.91368000  1.0
  H  H27  1  0.26427000  0.08634000  0.65673000  1.0
  H  H28  1  0.76424000  0.65673000  0.08633000  1.0
  H  H29  1  0.73573000  0.91365000  0.34328000  1.0
  H  H30  1  0.45233000  0.14673000  0.85633000  1.0
  H  H31  1  0.04770000  0.14368000  0.85328000  1.0
  H  H32  1  0.54766000  0.85327000  0.14367000  1.0
  H  H33  1  0.95231000  0.85633000  0.14672000  1.0
  H  H34  1  0.42920000  0.19194000  0.98144000  1.0
  H  H35  1  0.07081000  0.01859000  0.80806000  1.0
  H  H36  1  0.57081000  0.80806000  0.01857000  1.0
  H  H37  1  0.92919000  0.98142000  0.19194000  1.0
  H  H38  1  0.93213000  0.21505000  0.06002000  1.0
  H  H39  1  0.56789000  0.94002000  0.78493000  1.0
  H  H40  1  0.06786000  0.78496000  0.93996000  1.0
  H  H41  1  0.43214000  0.05999000  0.21506000  1.0
  H  H42  1  0.74428000  0.24364000  0.08751000  1.0
  H  H43  1  0.75573000  0.91250000  0.75635000  1.0
  H  H44  1  0.25570000  0.75635000  0.91247000  1.0
  H  H45  1  0.24430000  0.08751000  0.24364000  1.0
  C  C46  1  0.70894000  0.09946000  0.27519000  1.0
  C  C47  1  0.79108000  0.72483000  0.90050000  1.0
  C  C48  1  0.29107000  0.90055000  0.72481000  1.0
  C  C49  1  0.20890000  0.27517000  0.09951000  1.0
  C  C50  1  0.62704000  0.17690000  0.36318000  1.0
  C  C51  1  0.87300000  0.63684000  0.82309000  1.0
  C  C52  1  0.37297000  0.82310000  0.63683000  1.0
  C  C53  1  0.12700000  0.36316000  0.17692000  1.0
  C  C54  1  0.81609000  0.31137000  0.43007000  1.0
  C  C55  1  0.68393000  0.56995000  0.68864000  1.0
  C  C56  1  0.18394000  0.68863000  0.56994000  1.0
  C  C57  1  0.31607000  0.43005000  0.31138000  1.0
  C  C58  1  0.91687000  0.34841000  0.50880000  1.0
  C  C59  1  0.58311000  0.49119000  0.65158000  1.0
  C  C60  1  0.08313000  0.65158000  0.49120000  1.0
  C  C61  1  0.41688000  0.50880000  0.34842000  1.0
  C  C62  1  0.94124000  0.28699000  0.61301000  1.0
  C  C63  1  0.55882000  0.38698000  0.71300000  1.0
  C  C64  1  0.05878000  0.71300000  0.38699000  1.0
  C  C65  1  0.44118000  0.61301000  0.28700000  1.0
  C  C66  1  0.85839000  0.18302000  0.62728000  1.0
  C  C67  1  0.64165000  0.37271000  0.81695000  1.0
  C  C68  1  0.14160000  0.81697000  0.37272000  1.0
  C  C69  1  0.35834000  0.62729000  0.18305000  1.0
  C  C70  1  0.75958000  0.14803000  0.54611000  1.0
  C  C71  1  0.74050000  0.45389000  0.85195000  1.0
  C  C72  1  0.24045000  0.85196000  0.45390000  1.0
  C  C73  1  0.25950000  0.54612000  0.14806000  1.0
  C  C74  1  0.03514000  0.33238000  0.69799000  1.0
  C  C75  1  0.46489000  0.30202000  0.66760000  1.0
  C  C76  1  0.96486000  0.66762000  0.30201000  1.0
  C  C77  1  0.53509000  0.69797000  0.33240000  1.0
  N  N78  1  0.08271000  0.27899000  0.79627000  1.0
  N  N79  1  0.41732000  0.20375000  0.72099000  1.0
  N  N80  1  0.91729000  0.72101000  0.20372000  1.0
  N  N81  1  0.58267000  0.79625000  0.27902000  1.0
  N  N82  1  0.17472000  0.45479000  0.78229000  1.0
  N  N83  1  0.32530000  0.21771000  0.54520000  1.0
  N  N84  1  0.82527000  0.54521000  0.21771000  1.0
  N  N85  1  0.67470000  0.78228000  0.45480000  1.0
  N  N86  1  0.16493000  0.35916000  0.84428000  1.0
  N  N87  1  0.33511000  0.15573000  0.64085000  1.0
  N  N88  1  0.83509000  0.64085000  0.15571000  1.0
  N  N89  1  0.66489000  0.84428000  0.35917000  1.0
  N  N90  1  0.09336000  0.44114000  0.69082000  1.0
  N  N91  1  0.40667000  0.30918000  0.55885000  1.0
  N  N92  1  0.90664000  0.55887000  0.30918000  1.0
  N  N93  1  0.59332000  0.69081000  0.44115000  1.0
  N  N94  1  0.73353000  0.21213000  0.44826000  1.0
  N  N95  1  0.76650000  0.55173000  0.78787000  1.0
  N  N96  1  0.26647000  0.78785000  0.55174000  1.0
  N  N97  1  0.23348000  0.44826000  0.21214000  1.0
  O  O98  1  0.63014000  0.08818000  0.18533000  1.0
  O  O99  1  0.86988000  0.81469000  0.91175000  1.0
  O  O100  1  0.36989000  0.91184000  0.81466000  1.0
  O  O101  1  0.13010000  0.18531000  0.08824000  1.0
  O  O102  1  0.84319000  0.04822000  0.29802000  1.0
  O  O103  1  0.65684000  0.70202000  0.95173000  1.0
  O  O104  1  0.15681000  0.95176000  0.70198000  1.0
  O  O105  1  0.34315000  0.29799000  0.04827000  1.0
  O  O106  1  0.46932000  0.12345000  0.93825000  1.0
  O  O107  1  0.03070000  0.06175000  0.87656000  1.0
  O  O108  1  0.53068000  0.87655000  0.06175000  1.0
  O  O109  1  0.96930000  0.93824000  0.12343000  1.0
  O  O110  1  0.82187000  0.22403000  0.02631000  1.0
  O  O111  1  0.67816000  0.97371000  0.77595000  1.0
  O  O112  1  0.17812000  0.77598000  0.97367000  1.0
  O  O113  1  0.32186000  0.02630000  0.22404000  1.0
