# generated using pymatgen
data_CdH18C27N4O5
_symmetry_space_group_name_H-M   'P 1'
_cell_length_a   9.47353000
_cell_length_b   10.66040000
_cell_length_c   13.59100000
_cell_angle_alpha   93.86410000
_cell_angle_beta   102.44200000
_cell_angle_gamma   104.85400000
_symmetry_Int_Tables_number   1
_chemical_formula_structural   CdH18C27N4O5
_chemical_formula_sum   'Cd2 H36 C54 N8 O10'
_cell_volume   1284.57104209
_cell_formula_units_Z   2
loop_
 _symmetry_equiv_pos_site_id
 _symmetry_equiv_pos_as_xyz
  1  'x, y, z'
loop_
 _atom_site_type_symbol
 _atom_site_label
 _atom_site_symmetry_multiplicity
 _atom_site_fract_x
 _atom_site_fract_y
 _atom_site_fract_z
 _atom_site_occupancy
  Cd  Cd0  1  0.56000000  0.65619000  0.17905000  1.0
  Cd  Cd1  1  0.44000000  0.34380000  0.82095000  1.0
  H  H2  1  0.58903000  0.74446000  0.01123000  1.0
  H  H3  1  0.41097000  0.25555000  0.98878000  1.0
  H  H4  1  0.42487000  0.64689000  0.97221000  1.0
  H  H5  1  0.57514000  0.35311000  0.02779000  1.0
  H  H6  1  0.85112000  0.58907000  0.36035000  1.0
  H  H7  1  0.14889000  0.41094000  0.63966000  1.0
  H  H8  1  0.51712000  0.34373000  0.17835000  1.0
  H  H9  1  0.48289000  0.65627000  0.82166000  1.0
  H  H10  1  0.33168000  0.14148000  0.20353000  1.0
  H  H11  1  0.66833000  0.85852000  0.79647000  1.0
  H  H12  1  0.09986000  0.16501000  0.25829000  1.0
  H  H13  1  0.90014000  0.83499000  0.74170000  1.0
  H  H14  1  0.03511000  0.79042000  0.33588000  1.0
  H  H15  1  0.96488000  0.20958000  0.66412000  1.0
  H  H16  1  0.23118000  0.96956000  0.29441000  1.0
  H  H17  1  0.76883000  0.03044000  0.70559000  1.0
  H  H18  1  0.43808000  0.91194000  0.22604000  1.0
  H  H19  1  0.56192000  0.08806000  0.77396000  1.0
  H  H20  1  0.69929000  0.13212000  0.33572000  1.0
  H  H21  1  0.30071000  0.86788000  0.66428000  1.0
  H  H22  1  0.49488000  0.02882000  0.41631000  1.0
  H  H23  1  0.50512000  0.97118000  0.58369000  1.0
  H  H24  1  0.39592000  0.16708000  0.52439000  1.0
  H  H25  1  0.60408000  0.83293000  0.47561000  1.0
  H  H26  1  0.50193000  0.40831000  0.55067000  1.0
  H  H27  1  0.49806000  0.59169000  0.44933000  1.0
  H  H28  1  0.70727000  0.51290000  0.47072000  1.0
  H  H29  1  0.29274000  0.48711000  0.52929000  1.0
  H  H30  1  0.81723000  0.33401000  0.06465000  1.0
  H  H31  1  0.18277000  0.66599000  0.93535000  1.0
  H  H32  1  0.98561000  0.72978000  0.00736000  1.0
  H  H33  1  0.01438000  0.27022000  0.99264000  1.0
  H  H34  1  0.89395000  0.77146000  0.53129000  1.0
  H  H35  1  0.10605000  0.22854000  0.46870000  1.0
  H  H36  1  0.90706000  0.07286000  0.33461000  1.0
  H  H37  1  0.09294000  0.92713000  0.66539000  1.0
  C  C38  1  0.41386000  0.34878000  0.19927000  1.0
  C  C39  1  0.58614000  0.65122000  0.80074000  1.0
  C  C40  1  0.31002000  0.23627000  0.21471000  1.0
  C  C41  1  0.68998000  0.76373000  0.78529000  1.0
  C  C42  1  0.18365000  0.24921000  0.24496000  1.0
  C  C43  1  0.81635000  0.75079000  0.75503000  1.0
  C  C44  1  0.16307000  0.37476000  0.26013000  1.0
  C  C45  1  0.83693000  0.62524000  0.73987000  1.0
  C  C46  1  0.04063000  0.39998000  0.29590000  1.0
  C  C47  1  0.95937000  0.60002000  0.70410000  1.0
  C  C48  1  0.02803000  0.52756000  0.31219000  1.0
  C  C49  1  0.97196000  0.47244000  0.68780000  1.0
  C  C50  1  0.13164000  0.63862000  0.29087000  1.0
  C  C51  1  0.86836000  0.36138000  0.70913000  1.0
  C  C52  1  0.12474000  0.76874000  0.30555000  1.0
  C  C53  1  0.87525000  0.23126000  0.69445000  1.0
  C  C54  1  0.23328000  0.86812000  0.28212000  1.0
  C  C55  1  0.76672000  0.13188000  0.71789000  1.0
  C  C56  1  0.34845000  0.83688000  0.24418000  1.0
  C  C57  1  0.65154000  0.16312000  0.75582000  1.0
  C  C58  1  0.27090000  0.48353000  0.23977000  1.0
  C  C59  1  0.72910000  0.51647000  0.76023000  1.0
  C  C60  1  0.25323000  0.61528000  0.25292000  1.0
  C  C61  1  0.74677000  0.38472000  0.74707000  1.0
  C  C62  1  0.84493000  0.38408000  0.35541000  1.0
  C  C63  1  0.15507000  0.61592000  0.64459000  1.0
  C  C64  1  0.71715000  0.32905000  0.39781000  1.0
  C  C65  1  0.28286000  0.67095000  0.60219000  1.0
  C  C66  1  0.65531000  0.19227000  0.38257000  1.0
  C  C67  1  0.34469000  0.80774000  0.61744000  1.0
  C  C68  1  0.54066000  0.13489000  0.42791000  1.0
  C  C69  1  0.45935000  0.86512000  0.57209000  1.0
  C  C70  1  0.48510000  0.21232000  0.48843000  1.0
  C  C71  1  0.51490000  0.78768000  0.51157000  1.0
  C  C72  1  0.54455000  0.34826000  0.50278000  1.0
  C  C73  1  0.45545000  0.65175000  0.49722000  1.0
  C  C74  1  0.65986000  0.40680000  0.45780000  1.0
  C  C75  1  0.34014000  0.59320000  0.54221000  1.0
  C  C76  1  0.89674000  0.40645000  0.03583000  1.0
  C  C77  1  0.10326000  0.59355000  0.96417000  1.0
  C  C78  1  0.88897000  0.53642000  0.03966000  1.0
  C  C79  1  0.11102000  0.46358000  0.96034000  1.0
  C  C80  1  0.99323000  0.62937000  0.00369000  1.0
  C  C81  1  0.00677000  0.37063000  0.99631000  1.0
  C  C82  1  0.93998000  0.87158000  0.51766000  1.0
  C  C83  1  0.06002000  0.12841000  0.48233000  1.0
  C  C84  1  0.88790000  0.91230000  0.42404000  1.0
  C  C85  1  0.11210000  0.08770000  0.57595000  1.0
  C  C86  1  0.94884000  0.04102000  0.40692000  1.0
  C  C87  1  0.05117000  0.95897000  0.59307000  1.0
  C  C88  1  0.77274000  0.57851000  0.08276000  1.0
  C  C89  1  0.22726000  0.42149000  0.91724000  1.0
  C  C90  1  0.76838000  0.82084000  0.34137000  1.0
  C  C91  1  0.23163000  0.17915000  0.65862000  1.0
  N  N92  1  0.39330000  0.46759000  0.20975000  1.0
  N  N93  1  0.60670000  0.53241000  0.79025000  1.0
  N  N94  1  0.35720000  0.71451000  0.23046000  1.0
  N  N95  1  0.64280000  0.28549000  0.76953000  1.0
  N  N96  1  0.92630000  0.31226000  0.32219000  1.0
  N  N97  1  0.07370000  0.68774000  0.67780000  1.0
  N  N98  1  0.90309000  0.51555000  0.35062000  1.0
  N  N99  1  0.09691000  0.48445000  0.64939000  1.0
  O  O100  1  0.78374000  0.69939000  0.09931000  1.0
  O  O101  1  0.21626000  0.30061000  0.90069000  1.0
  O  O102  1  0.66509000  0.49013000  0.10285000  1.0
  O  O103  1  0.33491000  0.50987000  0.89715000  1.0
  O  O104  1  0.69756000  0.86832000  0.27017000  1.0
  O  O105  1  0.30244000  0.13168000  0.72982000  1.0
  O  O106  1  0.74146000  0.69644000  0.34500000  1.0
  O  O107  1  0.25855000  0.30355000  0.65500000  1.0
  O  O108  1  0.48666000  0.72752000  0.02093000  1.0
  O  O109  1  0.51334000  0.27248000  0.97907000  1.0
