# generated using pymatgen
data_CaH8C10(BrN)2
_symmetry_space_group_name_H-M   'P 1'
_cell_length_a   7.55961000
_cell_length_b   9.60197000
_cell_length_c   9.60279588
_cell_angle_alpha   61.42229583
_cell_angle_beta   76.35859956
_cell_angle_gamma   76.34500000
_symmetry_Int_Tables_number   1
_chemical_formula_structural   CaH8C10(BrN)2
_chemical_formula_sum   'Ca2 H16 C20 Br4 N4'
_cell_volume   588.61403493
_cell_formula_units_Z   2
loop_
 _symmetry_equiv_pos_site_id
 _symmetry_equiv_pos_as_xyz
  1  'x, y, z'
loop_
 _atom_site_type_symbol
 _atom_site_label
 _atom_site_symmetry_multiplicity
 _atom_site_fract_x
 _atom_site_fract_y
 _atom_site_fract_z
 _atom_site_occupancy
  Ca  Ca0  1  0.25001000  0.09005000  0.90980000  1.0
  Ca  Ca1  1  0.74999000  0.90995000  0.09020000  1.0
  H  H2  1  0.16716000  0.70428000  0.41471000  1.0
  H  H3  1  0.33296000  0.58527000  0.29569000  1.0
  H  H4  1  0.83284000  0.29573000  0.58529000  1.0
  H  H5  1  0.66704000  0.41473000  0.70431000  1.0
  H  H6  1  0.93690000  0.83012000  0.56448000  1.0
  H  H7  1  0.56322000  0.43545000  0.16995000  1.0
  H  H8  1  0.06310000  0.16987000  0.43553000  1.0
  H  H9  1  0.43679000  0.56456000  0.83005000  1.0
  H  H10  1  0.81334000  0.65912000  0.85184000  1.0
  H  H11  1  0.68682000  0.14805000  0.34093000  1.0
  H  H12  1  0.18666000  0.34088000  0.14816000  1.0
  H  H13  1  0.31318000  0.85195000  0.65907000  1.0
  H  H14  1  0.93357000  0.36438000  0.97417000  1.0
  H  H15  1  0.56653000  0.02566000  0.63561000  1.0
  H  H16  1  0.06643000  0.63561000  0.02583000  1.0
  H  H17  1  0.43347000  0.97434000  0.36439000  1.0
  C  C18  1  0.17886000  0.46594000  0.61639000  1.0
  C  C19  1  0.32116000  0.38353000  0.53402000  1.0
  C  C20  1  0.82114000  0.53406000  0.38361000  1.0
  C  C21  1  0.67884000  0.61648000  0.46597000  1.0
  C  C22  1  0.11543000  0.63041000  0.53920000  1.0
  C  C23  1  0.38464000  0.46074000  0.36960000  1.0
  C  C24  1  0.88458000  0.36960000  0.46079000  1.0
  C  C25  1  0.61535000  0.53926000  0.63040000  1.0
  C  C26  1  0.98489000  0.70185000  0.62349000  1.0
  C  C27  1  0.51520000  0.37644000  0.29817000  1.0
  C  C28  1  0.01511000  0.29815000  0.37651000  1.0
  C  C29  1  0.48480000  0.62356000  0.70183000  1.0
  C  C30  1  0.91740000  0.60766000  0.78263000  1.0
  C  C31  1  0.58273000  0.21727000  0.39236000  1.0
  C  C32  1  0.08260000  0.39233000  0.21737000  1.0
  C  C33  1  0.41727000  0.78273000  0.60764000  1.0
  C  C34  1  0.98409000  0.44445000  0.85074000  1.0
  C  C35  1  0.51597000  0.14912000  0.55553000  1.0
  C  C36  1  0.01591000  0.55555000  0.14926000  1.0
  C  C37  1  0.48403000  0.85088000  0.44447000  1.0
  Br  Br38  1  0.99537000  0.01764000  0.19980000  1.0
  Br  Br39  1  0.50474000  0.80011000  0.98260000  1.0
  Br  Br40  1  0.00463000  0.98236000  0.80020000  1.0
  Br  Br41  1  0.49526000  0.19989000  0.01740000  1.0
  N  N42  1  0.11259000  0.37460000  0.77119000  1.0
  N  N43  1  0.38744000  0.22867000  0.62535000  1.0
  N  N44  1  0.88741000  0.62540000  0.22881000  1.0
  N  N45  1  0.61256000  0.77133000  0.37465000  1.0
