# generated using pymatgen
data_CdH10C14(NO2)2
_symmetry_space_group_name_H-M   'P 1'
_cell_length_a   10.59030000
_cell_length_b   10.59030000
_cell_length_c   18.09930000
_cell_angle_alpha   89.99990000
_cell_angle_beta   89.99990000
_cell_angle_gamma   91.48530000
_symmetry_Int_Tables_number   1
_chemical_formula_structural   CdH10C14(NO2)2
_chemical_formula_sum   'Cd4 H40 C56 N8 O16'
_cell_volume   2029.23507524
_cell_formula_units_Z   4
loop_
 _symmetry_equiv_pos_site_id
 _symmetry_equiv_pos_as_xyz
  1  'x, y, z'
loop_
 _atom_site_type_symbol
 _atom_site_label
 _atom_site_symmetry_multiplicity
 _atom_site_fract_x
 _atom_site_fract_y
 _atom_site_fract_z
 _atom_site_occupancy
  Cd  Cd0  1  0.10918000  0.12949000  0.46286000  1.0
  Cd  Cd1  1  0.87051000  0.89082000  0.53714000  1.0
  Cd  Cd2  1  0.37051000  0.39082000  0.96286000  1.0
  Cd  Cd3  1  0.60918000  0.62949000  0.03714000  1.0
  H  H4  1  0.25127000  0.86257000  0.18637000  1.0
  H  H5  1  0.13743000  0.74873000  0.81363000  1.0
  H  H6  1  0.63743000  0.24873000  0.68637000  1.0
  H  H7  1  0.75127000  0.36257000  0.31363000  1.0
  H  H8  1  0.46597000  0.83717000  0.94650000  1.0
  H  H9  1  0.16283000  0.53403000  0.05350000  1.0
  H  H10  1  0.66283000  0.03403000  0.44650000  1.0
  H  H11  1  0.96597000  0.33717000  0.55350000  1.0
  H  H12  1  0.08315000  0.02657000  0.30633000  1.0
  H  H13  1  0.97343000  0.91685000  0.69367000  1.0
  H  H14  1  0.47343000  0.41685000  0.80633000  1.0
  H  H15  1  0.58315000  0.52657000  0.19367000  1.0
  H  H16  1  0.75849000  0.77751000  0.28209000  1.0
  H  H17  1  0.22249000  0.24151000  0.71791000  1.0
  H  H18  1  0.72249000  0.74151000  0.78209000  1.0
  H  H19  1  0.25849000  0.27750000  0.21791000  1.0
  H  H20  1  0.96777000  0.89732000  0.08981000  1.0
  H  H21  1  0.10268000  0.03223000  0.91019000  1.0
  H  H22  1  0.60268000  0.53223000  0.58981000  1.0
  H  H23  1  0.46777000  0.39732000  0.41019000  1.0
  H  H24  1  0.09896000  0.04993000  0.05189000  1.0
  H  H25  1  0.95007000  0.90104000  0.94811000  1.0
  H  H26  1  0.45007000  0.40104000  0.55189000  1.0
  H  H27  1  0.59896000  0.54993000  0.44811000  1.0
  H  H28  1  0.22592000  0.14551000  0.08121000  1.0
  H  H29  1  0.85449000  0.77408000  0.91879000  1.0
  H  H30  1  0.35449000  0.27408000  0.58121000  1.0
  H  H31  1  0.72592000  0.64551000  0.41879000  1.0
  H  H32  1  0.41137000  0.70045000  0.15893000  1.0
  H  H33  1  0.29955000  0.58863000  0.84107000  1.0
  H  H34  1  0.79955000  0.08863000  0.65893000  1.0
  H  H35  1  0.91137000  0.20045000  0.34107000  1.0
  H  H36  1  0.30845000  0.00762000  0.96584000  1.0
  H  H37  1  0.99238000  0.69155000  0.03416000  1.0
  H  H38  1  0.49238000  0.19155000  0.46584000  1.0
  H  H39  1  0.80845000  0.50762000  0.53416000  1.0
  H  H40  1  0.17805000  0.10719000  0.20511000  1.0
  H  H41  1  0.89281000  0.82195000  0.79489000  1.0
  H  H42  1  0.39281000  0.32195000  0.70511000  1.0
  H  H43  1  0.67805000  0.60719000  0.29489000  1.0
  C  C44  1  0.03483000  0.97777000  0.19411000  1.0
  C  C45  1  0.02223000  0.96517000  0.80589000  1.0
  C  C46  1  0.52223000  0.46517000  0.69411000  1.0
  C  C47  1  0.53483000  0.47777000  0.30589000  1.0
  C  C48  1  0.90494000  0.89757000  0.38453000  1.0
  C  C49  1  0.10242000  0.09506000  0.61547000  1.0
  C  C50  1  0.60243000  0.59506000  0.88453000  1.0
  C  C51  1  0.40494000  0.39757000  0.11547000  1.0
  C  C52  1  0.85821000  0.82725000  0.18153000  1.0
  C  C53  1  0.17275000  0.14179000  0.81847000  1.0
  C  C54  1  0.67275000  0.64179000  0.68153000  1.0
  C  C55  1  0.35821000  0.32725000  0.31847000  1.0
  C  C56  1  0.29590000  0.86011000  0.13223000  1.0
  C  C57  1  0.13989000  0.70410000  0.86777000  1.0
  C  C58  1  0.63989000  0.20410000  0.63223000  1.0
  C  C59  1  0.79590000  0.36011000  0.36777000  1.0
  C  C60  1  0.41479000  0.84585000  0.99854000  1.0
  C  C61  1  0.15415000  0.58521000  0.00146000  1.0
  C  C62  1  0.65415000  0.08521000  0.49854000  1.0
  C  C63  1  0.91479000  0.34585000  0.50146000  1.0
  C  C64  1  0.77371000  0.74627000  0.13389000  1.0
  C  C65  1  0.25373000  0.22629000  0.86611000  1.0
  C  C66  1  0.75372000  0.72629000  0.63389000  1.0
  C  C67  1  0.27371000  0.24627000  0.36611000  1.0
  C  C68  1  0.01848000  0.97218000  0.27137000  1.0
  C  C69  1  0.02782000  0.98152000  0.72863000  1.0
  C  C70  1  0.52782000  0.48152000  0.77137000  1.0
  C  C71  1  0.51848000  0.47218000  0.22863000  1.0
  C  C72  1  0.83784000  0.82942000  0.25778000  1.0
  C  C73  1  0.17057000  0.16216000  0.74222000  1.0
  C  C74  1  0.67057000  0.66216000  0.75778000  1.0
  C  C75  1  0.33784000  0.32942000  0.24222000  1.0
  C  C76  1  0.95606000  0.90048000  0.14951000  1.0
  C  C77  1  0.09952000  0.04394000  0.85049000  1.0
  C  C78  1  0.59952000  0.54394000  0.64951000  1.0
  C  C79  1  0.45606000  0.40048000  0.35049000  1.0
  C  C80  1  0.26652000  0.94863000  0.07797000  1.0
  C  C81  1  0.05137000  0.73348000  0.92203000  1.0
  C  C82  1  0.55137000  0.23348000  0.57797000  1.0
  C  C83  1  0.76652000  0.44864000  0.42203000  1.0
  C  C84  1  0.92070000  0.90038000  0.30277000  1.0
  C  C85  1  0.09962000  0.07930000  0.69723000  1.0
  C  C86  1  0.59962000  0.57930000  0.80277000  1.0
  C  C87  1  0.42070000  0.40038000  0.19723000  1.0
  C  C88  1  0.17650000  0.05485000  0.09253000  1.0
  C  C89  1  0.94515000  0.82350000  0.90747000  1.0
  C  C90  1  0.44515000  0.32350000  0.59253000  1.0
  C  C91  1  0.67650000  0.55486000  0.40747000  1.0
  C  C92  1  0.38466000  0.76916000  0.11720000  1.0
  C  C93  1  0.23085000  0.61534000  0.88280000  1.0
  C  C94  1  0.73084000  0.11534000  0.61720000  1.0
  C  C95  1  0.88466000  0.26916000  0.38280000  1.0
  C  C96  1  0.32711000  0.93928000  0.00936000  1.0
  C  C97  1  0.06072000  0.67289000  0.99064000  1.0
  C  C98  1  0.56072000  0.17289000  0.50936000  1.0
  C  C99  1  0.82711000  0.43928000  0.49064000  1.0
  N  N100  1  0.12674000  0.05897000  0.16644000  1.0
  N  N101  1  0.94103000  0.87326000  0.83356000  1.0
  N  N102  1  0.44103000  0.37326000  0.66644000  1.0
  N  N103  1  0.62674000  0.55897000  0.33355000  1.0
  N  N104  1  0.44397000  0.76215000  0.05163000  1.0
  N  N105  1  0.23785000  0.55603000  0.94837000  1.0
  N  N106  1  0.73785000  0.05604000  0.55163000  1.0
  N  N107  1  0.94397000  0.26216000  0.44837000  1.0
  O  O108  1  0.68064000  0.68611000  0.16324000  1.0
  O  O109  1  0.31389000  0.31936000  0.83676000  1.0
  O  O110  1  0.81389000  0.81936000  0.66324000  1.0
  O  O111  1  0.18064000  0.18611000  0.33676000  1.0
  O  O112  1  0.99155000  0.94649000  0.42712000  1.0
  O  O113  1  0.05351000  0.00845000  0.57288000  1.0
  O  O114  1  0.55351000  0.50845000  0.92712000  1.0
  O  O115  1  0.49155000  0.44649000  0.07288000  1.0
  O  O116  1  0.79590000  0.73994000  0.06433000  1.0
  O  O117  1  0.26006000  0.20410000  0.93568000  1.0
  O  O118  1  0.76007000  0.70410000  0.56433000  1.0
  O  O119  1  0.29590000  0.23994000  0.43568000  1.0
  O  O120  1  0.80700000  0.84530000  0.41252000  1.0
  O  O121  1  0.15470000  0.19300000  0.58748000  1.0
  O  O122  1  0.65470000  0.69300000  0.91252000  1.0
  O  O123  1  0.30700000  0.34530000  0.08748000  1.0
