# generated using pymatgen
data_RbH(CO)4
_symmetry_space_group_name_H-M   'P 1'
_cell_length_a   4.18735000
_cell_length_b   8.06407000
_cell_length_c   16.04810000
_cell_angle_alpha   90.00010000
_cell_angle_beta   90.00010000
_cell_angle_gamma   83.35820000
_symmetry_Int_Tables_number   1
_chemical_formula_structural   RbH(CO)4
_chemical_formula_sum   'Rb4 H4 C16 O16'
_cell_volume   538.26066847
_cell_formula_units_Z   4
loop_
 _symmetry_equiv_pos_site_id
 _symmetry_equiv_pos_as_xyz
  1  'x, y, z'
loop_
 _atom_site_type_symbol
 _atom_site_label
 _atom_site_symmetry_multiplicity
 _atom_site_fract_x
 _atom_site_fract_y
 _atom_site_fract_z
 _atom_site_occupancy
  Rb  Rb0  1  0.71551000  0.23866000  0.43334000  1.0
  Rb  Rb1  1  0.28450000  0.26134000  0.93334000  1.0
  Rb  Rb2  1  0.28449000  0.76134000  0.56666000  1.0
  Rb  Rb3  1  0.71550000  0.73866000  0.06666000  1.0
  H  H4  1  0.49187000  0.48334000  0.23730000  1.0
  H  H5  1  0.50813000  0.01666000  0.73730000  1.0
  H  H6  1  0.50813000  0.51666000  0.76270000  1.0
  H  H7  1  0.49187000  0.98334000  0.26270000  1.0
  C  C8  1  0.85440000  0.30068000  0.21025000  1.0
  C  C9  1  0.14560000  0.19932000  0.71025000  1.0
  C  C10  1  0.14560000  0.69932000  0.78975000  1.0
  C  C11  1  0.85440000  0.80068000  0.28975000  1.0
  C  C12  1  0.10347000  0.16480000  0.22215000  1.0
  C  C13  1  0.89654000  0.33520000  0.72215000  1.0
  C  C14  1  0.89654000  0.83520000  0.77785000  1.0
  C  C15  1  0.10346000  0.66480000  0.27785000  1.0
  C  C16  1  0.11529000  0.13434000  0.13062000  1.0
  C  C17  1  0.88472000  0.36566000  0.63062000  1.0
  C  C18  1  0.88472000  0.86566000  0.86938000  1.0
  C  C19  1  0.11527000  0.63434000  0.36938000  1.0
  C  C20  1  0.86910000  0.28441000  0.11961000  1.0
  C  C21  1  0.13090000  0.21560000  0.61962000  1.0
  C  C22  1  0.13090000  0.71560000  0.88039000  1.0
  C  C23  1  0.86910000  0.78440000  0.38038000  1.0
  O  O24  1  0.68601000  0.39437000  0.26387000  1.0
  O  O25  1  0.31399000  0.10562000  0.76387000  1.0
  O  O26  1  0.31399000  0.60562000  0.73613000  1.0
  O  O27  1  0.68601000  0.89438000  0.23613000  1.0
  O  O28  1  0.24921000  0.10009000  0.28634000  1.0
  O  O29  1  0.75079000  0.39991000  0.78635000  1.0
  O  O30  1  0.75079000  0.89991000  0.71366000  1.0
  O  O31  1  0.24921000  0.60009000  0.21365000  1.0
  O  O32  1  0.25666000  0.03008000  0.08255000  1.0
  O  O33  1  0.74334000  0.46992000  0.58255000  1.0
  O  O34  1  0.74334000  0.96992000  0.91745000  1.0
  O  O35  1  0.25666000  0.53008000  0.41745000  1.0
  O  O36  1  0.74010000  0.36165000  0.05859000  1.0
  O  O37  1  0.25990000  0.13835000  0.55859000  1.0
  O  O38  1  0.25990000  0.63835000  0.94141000  1.0
  O  O39  1  0.74010000  0.86165000  0.44141000  1.0
