# generated using pymatgen
data_Li2H7(C2O3)2
_symmetry_space_group_name_H-M   'P 1'
_cell_length_a   5.10877000
_cell_length_b   7.41663000
_cell_length_c   9.36577000
_cell_angle_alpha   74.73800000
_cell_angle_beta   85.02430000
_cell_angle_gamma   87.19300000
_symmetry_Int_Tables_number   1
_chemical_formula_structural   Li2H7(C2O3)2
_chemical_formula_sum   'Li4 H14 C8 O12'
_cell_volume   340.93597870
_cell_formula_units_Z   2
loop_
 _symmetry_equiv_pos_site_id
 _symmetry_equiv_pos_as_xyz
  1  'x, y, z'
loop_
 _atom_site_type_symbol
 _atom_site_label
 _atom_site_symmetry_multiplicity
 _atom_site_fract_x
 _atom_site_fract_y
 _atom_site_fract_z
 _atom_site_occupancy
  Li  Li0  1  0.44569000  0.18440000  0.39733000  1.0
  Li  Li1  1  0.55432000  0.81560000  0.60267000  1.0
  Li  Li2  1  0.93910000  0.77489000  0.87117000  1.0
  Li  Li3  1  0.06090000  0.22511000  0.12883000  1.0
  H  H4  1  0.11320000  0.19839000  0.64824000  1.0
  H  H5  1  0.88680000  0.80161000  0.35177000  1.0
  H  H6  1  0.92072000  0.33176000  0.74903000  1.0
  H  H7  1  0.07927000  0.66825000  0.25097000  1.0
  H  H8  1  0.69981000  0.49909000  0.52073000  1.0
  H  H9  1  0.30019000  0.50091000  0.47926000  1.0
  H  H10  1  0.40033000  0.91562000  0.88223000  1.0
  H  H11  1  0.59967000  0.08438000  0.11777000  1.0
  H  H12  1  0.23384000  0.89860000  0.03256000  1.0
  H  H13  1  0.76616000  0.10140000  0.96744000  1.0
  H  H14  1  0.70572000  0.53258000  0.12017000  1.0
  H  H15  1  0.29428000  0.46742000  0.87983000  1.0
  H  H16  1  0.52219000  0.66885000  0.01035000  1.0
  H  H17  1  0.47780000  0.33115000  0.98965000  1.0
  C  C18  1  0.71584000  0.12231000  0.69089000  1.0
  C  C19  1  0.28416000  0.87768000  0.30911000  1.0
  C  C20  1  0.92081000  0.27191000  0.65329000  1.0
  C  C21  1  0.07918000  0.72809000  0.34671000  1.0
  C  C22  1  0.89120000  0.42755000  0.51093000  1.0
  C  C23  1  0.10880000  0.57244000  0.48907000  1.0
  C  C24  1  0.89718000  0.35213000  0.37326000  1.0
  C  C25  1  0.10282000  0.64786000  0.62674000  1.0
  O  O26  1  0.24984000  0.84671000  0.94400000  1.0
  O  O27  1  0.75016000  0.15329000  0.05600000  1.0
  O  O28  1  0.70727000  0.62870000  0.02435000  1.0
  O  O29  1  0.29272000  0.37130000  0.97565000  1.0
  O  O30  1  0.69299000  0.37830000  0.30002000  1.0
  O  O31  1  0.30702000  0.62170000  0.69999000  1.0
  O  O32  1  0.56917000  0.09971000  0.59476000  1.0
  O  O33  1  0.43083000  0.90029000  0.40524000  1.0
  O  O34  1  0.10464000  0.26975000  0.33443000  1.0
  O  O35  1  0.89536000  0.73025000  0.66556000  1.0
  O  O36  1  0.70621000  0.01444000  0.82285000  1.0
  O  O37  1  0.29379000  0.98555000  0.17716000  1.0
