# generated using pymatgen
data_CuAg2MoH6C10N4(O3F2)2
_symmetry_space_group_name_H-M   'P 1'
_cell_length_a   7.25627000
_cell_length_b   8.14160000
_cell_length_c   13.86890000
_cell_angle_alpha   89.99910000
_cell_angle_beta   86.38100000
_cell_angle_gamma   89.99990000
_symmetry_Int_Tables_number   1
_chemical_formula_structural   CuAg2MoH6C10N4(O3F2)2
_chemical_formula_sum   'Cu2 Ag4 Mo2 H12 C20 N8 O12 F8'
_cell_volume   817.70810026
_cell_formula_units_Z   2
loop_
 _symmetry_equiv_pos_site_id
 _symmetry_equiv_pos_as_xyz
  1  'x, y, z'
loop_
 _atom_site_type_symbol
 _atom_site_label
 _atom_site_symmetry_multiplicity
 _atom_site_fract_x
 _atom_site_fract_y
 _atom_site_fract_z
 _atom_site_occupancy
  Cu  Cu0  1  0.50003000  0.50006000  0.49999000  1.0
  Cu  Cu1  1  0.99999000  0.00002000  0.00001000  1.0
  Ag  Ag2  1  0.04703000  0.19061000  0.50963000  1.0
  Ag  Ag3  1  0.45295000  0.69063000  0.99036000  1.0
  Ag  Ag4  1  0.95292000  0.80932000  0.49037000  1.0
  Ag  Ag5  1  0.54705000  0.30933000  0.00964000  1.0
  Mo  Mo6  1  0.49997000  0.00005000  0.50000000  1.0
  Mo  Mo7  1  1.00000000  0.50002000  1.00000000  1.0
  H  H8  1  0.80571000  0.29368000  0.19586000  1.0
  H  H9  1  0.69428000  0.79368000  0.30414000  1.0
  H  H10  1  0.19431000  0.70632000  0.80414000  1.0
  H  H11  1  0.30569000  0.20632000  0.69586000  1.0
  H  H12  1  0.25244000  0.40650000  0.16561000  1.0
  H  H13  1  0.24755000  0.90648000  0.33439000  1.0
  H  H14  1  0.74757000  0.59344000  0.83440000  1.0
  H  H15  1  0.75245000  0.09340000  0.66560000  1.0
  H  H16  1  0.22080000  0.50263000  0.34016000  1.0
  H  H17  1  0.27921000  0.00260000  0.15985000  1.0
  H  H18  1  0.77924000  0.49742000  0.65984000  1.0
  H  H19  1  0.72077000  0.99739000  0.84016000  1.0
  C  C20  1  0.65789000  0.39225000  0.32339000  1.0
  C  C21  1  0.84212000  0.89223000  0.17661000  1.0
  C  C22  1  0.34216000  0.60779000  0.67660000  1.0
  C  C23  1  0.15786000  0.10778000  0.82340000  1.0
  C  C24  1  0.67479000  0.33943000  0.22779000  1.0
  C  C25  1  0.82521000  0.83942000  0.27221000  1.0
  C  C26  1  0.32524000  0.66058000  0.77221000  1.0
  C  C27  1  0.17477000  0.16056000  0.72779000  1.0
  C  C28  1  0.36837000  0.40163000  0.21173000  1.0
  C  C29  1  0.13162000  0.90161000  0.28828000  1.0
  C  C30  1  0.63165000  0.59835000  0.78828000  1.0
  C  C31  1  0.86837000  0.09832000  0.71172000  1.0
  C  C32  1  0.35087000  0.45720000  0.30693000  1.0
  C  C33  1  0.14913000  0.95718000  0.19307000  1.0
  C  C34  1  0.64916000  0.54283000  0.69306000  1.0
  C  C35  1  0.85085000  0.04280000  0.80694000  1.0
  C  C36  1  0.80656000  0.37848000  0.39349000  1.0
  C  C37  1  0.69344000  0.87848000  0.10651000  1.0
  C  C38  1  0.19346000  0.62155000  0.60651000  1.0
  C  C39  1  0.30654000  0.12153000  0.89349000  1.0
  N  N40  1  0.49573000  0.45030000  0.36172000  1.0
  N  N41  1  0.00428000  0.95028000  0.13828000  1.0
  N  N42  1  0.50432000  0.54976000  0.63827000  1.0
  N  N43  1  0.99570000  0.04974000  0.86173000  1.0
  N  N44  1  0.52940000  0.34267000  0.17249000  1.0
  N  N45  1  0.97060000  0.84265000  0.32752000  1.0
  N  N46  1  0.47062000  0.65730000  0.82752000  1.0
  N  N47  1  0.02939000  0.15727000  0.67248000  1.0
  O  O48  1  0.76430000  0.43586000  0.47864000  1.0
  O  O49  1  0.73571000  0.93585000  0.02136000  1.0
  O  O50  1  0.23574000  0.56419000  0.52135000  1.0
  O  O51  1  0.26428000  0.06416000  0.97864000  1.0
  O  O52  1  0.95643000  0.30861000  0.36830000  1.0
  O  O53  1  0.54357000  0.80862000  0.13171000  1.0
  O  O54  1  0.04359000  0.69135000  0.63171000  1.0
  O  O55  1  0.45642000  0.19138000  0.86829000  1.0
  O  O56  1  0.25420000  0.96842000  0.49301000  1.0
  O  O57  1  0.24580000  0.46847000  0.00700000  1.0
  O  O58  1  0.74581000  0.03144000  0.50700000  1.0
  O  O59  1  0.75418000  0.53147000  0.99301000  1.0
  F  F60  1  0.44992000  0.22137000  0.54833000  1.0
  F  F61  1  0.05005000  0.72134000  0.95165000  1.0
  F  F62  1  0.55005000  0.77871000  0.45164000  1.0
  F  F63  1  0.94994000  0.27868000  0.04835000  1.0
  F  F64  1  0.51402000  0.07641000  0.36804000  1.0
  F  F65  1  0.98595000  0.57636000  0.13196000  1.0
  F  F66  1  0.48593000  0.92377000  0.63199000  1.0
  F  F67  1  0.01405000  0.42370000  0.86802000  1.0
