# generated using pymatgen
data_H12PbC20(O2F3)2
_symmetry_space_group_name_H-M   'P 1'
_cell_length_a   8.15661000
_cell_length_b   11.00680000
_cell_length_c   12.10080000
_cell_angle_alpha   62.95600000
_cell_angle_beta   84.52840000
_cell_angle_gamma   89.96590000
_symmetry_Int_Tables_number   1
_chemical_formula_structural   H12PbC20(O2F3)2
_chemical_formula_sum   'H24 Pb2 C40 O8 F12'
_cell_volume   962.06990920
_cell_formula_units_Z   2
loop_
 _symmetry_equiv_pos_site_id
 _symmetry_equiv_pos_as_xyz
  1  'x, y, z'
loop_
 _atom_site_type_symbol
 _atom_site_label
 _atom_site_symmetry_multiplicity
 _atom_site_fract_x
 _atom_site_fract_y
 _atom_site_fract_z
 _atom_site_occupancy
  H  H0  1  0.31551000  0.42899000  0.73002000  1.0
  H  H1  1  0.18437000  0.15890000  0.26972000  1.0
  H  H2  1  0.68449000  0.57101000  0.26998000  1.0
  H  H3  1  0.81563000  0.84110000  0.73027000  1.0
  H  H4  1  0.32195000  0.51194000  0.54686000  1.0
  H  H5  1  0.17739000  0.05897000  0.45287000  1.0
  H  H6  1  0.67804000  0.48805000  0.45315000  1.0
  H  H7  1  0.82261000  0.94103000  0.54713000  1.0
  H  H8  1  0.23411000  0.62767000  0.33613000  1.0
  H  H9  1  0.26531000  0.96430000  0.66364000  1.0
  H  H10  1  0.76589000  0.37233000  0.66387000  1.0
  H  H11  1  0.73469000  0.03570000  0.33636000  1.0
  H  H12  1  0.05832000  0.50154000  0.26064000  1.0
  H  H13  1  0.44138000  0.76279000  0.73927000  1.0
  H  H14  1  0.94168000  0.49846000  0.73936000  1.0
  H  H15  1  0.55862000  0.23721000  0.26073000  1.0
  H  H16  1  0.96518000  0.25981000  0.40119000  1.0
  H  H17  1  0.53457000  0.66116000  0.59900000  1.0
  H  H18  1  0.03482000  0.74019000  0.59881000  1.0
  H  H19  1  0.46543000  0.33885000  0.40100000  1.0
  H  H20  1  0.05555000  0.14236000  0.61538000  1.0
  H  H21  1  0.44414000  0.75747000  0.38486000  1.0
  H  H22  1  0.94444000  0.85764000  0.38462000  1.0
  H  H23  1  0.55586000  0.24253000  0.61514000  1.0
  Pb  Pb24  1  0.25014000  0.94611000  0.99990000  1.0
  Pb  Pb25  1  0.74987000  0.05389000  0.00010000  1.0
  C  C26  1  0.40640000  0.26450000  0.88072000  1.0
  C  C27  1  0.09340000  0.14530000  0.11901000  1.0
  C  C28  1  0.59360000  0.73551000  0.11928000  1.0
  C  C29  1  0.90660000  0.85470000  0.88099000  1.0
  C  C30  1  0.32145000  0.31870000  0.77678000  1.0
  C  C31  1  0.17828000  0.09535000  0.22301000  1.0
  C  C32  1  0.67855000  0.68130000  0.22322000  1.0
  C  C33  1  0.82172000  0.90465000  0.77699000  1.0
  C  C34  1  0.24636000  0.24254000  0.72374000  1.0
  C  C35  1  0.25322000  0.96605000  0.27619000  1.0
  C  C36  1  0.75364000  0.75746000  0.27626000  1.0
  C  C37  1  0.74678000  0.03395000  0.72381000  1.0
  C  C38  1  0.19435000  0.31793000  0.59602000  1.0
  C  C39  1  0.30518000  0.91389000  0.40392000  1.0
  C  C40  1  0.80565000  0.68206000  0.40399000  1.0
  C  C41  1  0.69482000  0.08611000  0.59608000  1.0
  C  C42  1  0.24385000  0.45526000  0.51633000  1.0
  C  C43  1  0.25555000  0.97174000  0.48351000  1.0
  C  C44  1  0.75615000  0.54473000  0.48367000  1.0
  C  C45  1  0.74445000  0.02825000  0.51649000  1.0
  C  C46  1  0.19545000  0.52093000  0.39639000  1.0
  C  C47  1  0.30404000  0.91772000  0.60341000  1.0
  C  C48  1  0.80454000  0.47906000  0.60361000  1.0
  C  C49  1  0.69596000  0.08229000  0.39659000  1.0
  C  C50  1  0.09627000  0.45034000  0.35443000  1.0
  C  C51  1  0.40342000  0.80519000  0.64549000  1.0
  C  C52  1  0.90373000  0.54966000  0.64557000  1.0
  C  C53  1  0.59658000  0.19481000  0.35451000  1.0
  C  C54  1  0.04527000  0.31400000  0.43306000  1.0
  C  C55  1  0.45443000  0.74726000  0.56701000  1.0
  C  C56  1  0.95473000  0.68599000  0.56694000  1.0
  C  C57  1  0.54557000  0.25274000  0.43299000  1.0
  C  C58  1  0.09442000  0.24830000  0.55267000  1.0
  C  C59  1  0.40525000  0.80092000  0.44742000  1.0
  C  C60  1  0.90558000  0.75169000  0.44733000  1.0
  C  C61  1  0.59475000  0.19908000  0.55258000  1.0
  C  C62  1  0.48830000  0.36592000  0.91622000  1.0
  C  C63  1  0.01162000  0.28235000  0.08357000  1.0
  C  C64  1  0.51170000  0.63408000  0.08377000  1.0
  C  C65  1  0.98838000  0.71765000  0.91643000  1.0
  O  O66  1  0.43446000  0.13909000  0.95384000  1.0
  O  O67  1  0.06529000  0.09309000  0.04586000  1.0
  O  O68  1  0.56554000  0.86092000  0.04616000  1.0
  O  O69  1  0.93470000  0.90691000  0.95414000  1.0
  O  O70  1  0.22296000  0.11349000  0.77926000  1.0
  O  O71  1  0.27667000  0.89231000  0.22080000  1.0
  O  O72  1  0.77704000  0.88650000  0.22074000  1.0
  O  O73  1  0.72333000  0.10768000  0.77920000  1.0
  F  F74  1  0.45390000  0.32792000  0.04030000  1.0
  F  F75  1  0.04608000  0.36847000  0.95951000  1.0
  F  F76  1  0.54610000  0.67209000  0.95969000  1.0
  F  F77  1  0.95391000  0.63153000  0.04049000  1.0
  F  F78  1  0.65706000  0.36788000  0.89350000  1.0
  F  F79  1  0.84287000  0.26182000  0.10627000  1.0
  F  F80  1  0.34294000  0.63212000  0.10650000  1.0
  F  F81  1  0.15713000  0.73818000  0.89373000  1.0
  F  F82  1  0.44279000  0.49639000  0.85290000  1.0
  F  F83  1  0.05726000  0.34934000  0.14696000  1.0
  F  F84  1  0.55721000  0.50362000  0.14709000  1.0
  F  F85  1  0.94274000  0.65066000  0.85304000  1.0
