# generated using pymatgen
data_CdH16C20S2(NO2)4
_symmetry_space_group_name_H-M   'P 1'
_cell_length_a   7.13737000
_cell_length_b   9.54177000
_cell_length_c   16.37100000
_cell_angle_alpha   82.71740000
_cell_angle_beta   82.22800000
_cell_angle_gamma   86.22480000
_symmetry_Int_Tables_number   1
_chemical_formula_structural   CdH16C20S2(NO2)4
_chemical_formula_sum   'Cd2 H32 C40 S4 N8 O16'
_cell_volume   1094.41751702
_cell_formula_units_Z   2
loop_
 _symmetry_equiv_pos_site_id
 _symmetry_equiv_pos_as_xyz
  1  'x, y, z'
loop_
 _atom_site_type_symbol
 _atom_site_label
 _atom_site_symmetry_multiplicity
 _atom_site_fract_x
 _atom_site_fract_y
 _atom_site_fract_z
 _atom_site_occupancy
  Cd  Cd0  1  0.68044000  0.00104000  0.23212000  1.0
  Cd  Cd1  1  0.31955000  0.99898000  0.76787000  1.0
  H  H2  1  0.81712000  0.67702000  0.30251000  1.0
  H  H3  1  0.18286000  0.32298000  0.69749000  1.0
  H  H4  1  0.91931000  0.54652000  0.43022000  1.0
  H  H5  1  0.08069000  0.45348000  0.56977000  1.0
  H  H6  1  0.89852000  0.67475000  0.55921000  1.0
  H  H7  1  0.10149000  0.32523000  0.44078000  1.0
  H  H8  1  0.79664000  0.92739000  0.54806000  1.0
  H  H9  1  0.20337000  0.07259000  0.45193000  1.0
  H  H10  1  0.73278000  0.13334000  0.53227000  1.0
  H  H11  1  0.26723000  0.86663000  0.46773000  1.0
  H  H12  1  0.63504000  0.38621000  0.50770000  1.0
  H  H13  1  0.36497000  0.61376000  0.49232000  1.0
  H  H14  1  0.51532000  0.48149000  0.37145000  1.0
  H  H15  1  0.48468000  0.51851000  0.62857000  1.0
  H  H16  1  0.51460000  0.31671000  0.26502000  1.0
  H  H17  1  0.48539000  0.68330000  0.73499000  1.0
  H  H18  1  0.80729000  0.31272000  0.14282000  1.0
  H  H19  1  0.19273000  0.68730000  0.85717000  1.0
  H  H20  1  0.88926000  0.43699000  0.00018000  1.0
  H  H21  1  0.11079000  0.56301000  0.99981000  1.0
  H  H22  1  0.89463000  0.30179000  0.87829000  1.0
  H  H23  1  0.10538000  0.69821000  0.12170000  1.0
  H  H24  1  0.80657000  0.05150000  0.90321000  1.0
  H  H25  1  0.19341000  0.94851000  0.09679000  1.0
  H  H26  1  0.71287000  0.86054000  0.92608000  1.0
  H  H27  1  0.28712000  0.13947000  0.07392000  1.0
  H  H28  1  0.63031000  0.61422000  0.96030000  1.0
  H  H29  1  0.36970000  0.38577000  0.03971000  1.0
  H  H30  1  0.54873000  0.51601000  0.11305000  1.0
  H  H31  1  0.45127000  0.48400000  0.88696000  1.0
  H  H32  1  0.57459000  0.67312000  0.21993000  1.0
  H  H33  1  0.42540000  0.32691000  0.78008000  1.0
  C  C34  1  0.80918000  0.72908000  0.35865000  1.0
  C  C35  1  0.19080000  0.27092000  0.64135000  1.0
  C  C36  1  0.86727000  0.65614000  0.43084000  1.0
  C  C37  1  0.13272000  0.34385000  0.56915000  1.0
  C  C38  1  0.86024000  0.72785000  0.50034000  1.0
  C  C39  1  0.13976000  0.27214000  0.49965000  1.0
  C  C40  1  0.80036000  0.87020000  0.49447000  1.0
  C  C41  1  0.19964000  0.12978000  0.50553000  1.0
  C  C42  1  0.74437000  0.93732000  0.41989000  1.0
  C  C43  1  0.25562000  0.06267000  0.58011000  1.0
  C  C44  1  0.68335000  0.08995000  0.40991000  1.0
  C  C45  1  0.31664000  0.91003000  0.59010000  1.0
  C  C46  1  0.68678000  0.17582000  0.47301000  1.0
  C  C47  1  0.31321000  0.82416000  0.52700000  1.0
  C  C48  1  0.63010000  0.31840000  0.45927000  1.0
  C  C49  1  0.36990000  0.68158000  0.54074000  1.0
  C  C50  1  0.56627000  0.37190000  0.38423000  1.0
  C  C51  1  0.43373000  0.62809000  0.61579000  1.0
  C  C52  1  0.56620000  0.28064000  0.32425000  1.0
  C  C53  1  0.43379000  0.71936000  0.67576000  1.0
  C  C54  1  0.80415000  0.25849000  0.08834000  1.0
  C  C55  1  0.19587000  0.74152000  0.91166000  1.0
  C  C56  1  0.85230000  0.32696000  0.00872000  1.0
  C  C57  1  0.14772000  0.67305000  0.99127000  1.0
  C  C58  1  0.85337000  0.25155000  0.94115000  1.0
  C  C59  1  0.14664000  0.74846000  0.05884000  1.0
  C  C60  1  0.80337000  0.11136000  0.95554000  1.0
  C  C61  1  0.19662000  0.88865000  0.04445000  1.0
  C  C62  1  0.75369000  0.04903000  0.03714000  1.0
  C  C63  1  0.24629000  0.95098000  0.96285000  1.0
  C  C64  1  0.69852000  0.89962000  0.05508000  1.0
  C  C65  1  0.30147000  0.10039000  0.94492000  1.0
  C  C66  1  0.68606000  0.81740000  0.99109000  1.0
  C  C67  1  0.31393000  0.18261000  0.00891000  1.0
  C  C68  1  0.63583000  0.67751000  0.01080000  1.0
  C  C69  1  0.36417000  0.32249000  0.98921000  1.0
  C  C70  1  0.59448000  0.62299000  0.09385000  1.0
  C  C71  1  0.40552000  0.37702000  0.90616000  1.0
  C  C72  1  0.60771000  0.71106000  0.15418000  1.0
  C  C73  1  0.39229000  0.28896000  0.84582000  1.0
  S  S74  1  0.19262000  0.02025000  0.26376000  1.0
  S  S75  1  0.80737000  0.97974000  0.73624000  1.0
  S  S76  1  0.11864000  0.42108000  0.23708000  1.0
  S  S77  1  0.88137000  0.57892000  0.76292000  1.0
  N  N78  1  0.74627000  0.86510000  0.35381000  1.0
  N  N79  1  0.25371000  0.13490000  0.64619000  1.0
  N  N80  1  0.62564000  0.14433000  0.33666000  1.0
  N  N81  1  0.37436000  0.85568000  0.66335000  1.0
  N  N82  1  0.75653000  0.12293000  0.10208000  1.0
  N  N83  1  0.24347000  0.87708000  0.89792000  1.0
  N  N84  1  0.66032000  0.84487000  0.13562000  1.0
  N  N85  1  0.33967000  0.15515000  0.86438000  1.0
  O  O86  1  0.04034000  0.97910000  0.22206000  1.0
  O  O87  1  0.95965000  0.02089000  0.77795000  1.0
  O  O88  1  0.35587000  0.06545000  0.20382000  1.0
  O  O89  1  0.64413000  0.93455000  0.79618000  1.0
  O  O90  1  0.23999000  0.92703000  0.33605000  1.0
  O  O91  1  0.76001000  0.07297000  0.66396000  1.0
  O  O92  1  0.14609000  0.45817000  0.31791000  1.0
  O  O93  1  0.85392000  0.54183000  0.68209000  1.0
  O  O94  1  0.29323000  0.39732000  0.18215000  1.0
  O  O95  1  0.70679000  0.60267000  0.81785000  1.0
  O  O96  1  0.96602000  0.49998000  0.19743000  1.0
  O  O97  1  0.03399000  0.50001000  0.80257000  1.0
  O  O98  1  0.00880000  0.26485000  0.25552000  1.0
  O  O99  1  0.99121000  0.73515000  0.74449000  1.0
  O  O100  1  0.10862000  0.15959000  0.31210000  1.0
  O  O101  1  0.89138000  0.84041000  0.68790000  1.0
