# generated using pymatgen
data_CdH10C12N4O9
_symmetry_space_group_name_H-M   'P 1'
_cell_length_a   7.94475000
_cell_length_b   10.02313605
_cell_length_c   10.28100000
_cell_angle_alpha   71.77229696
_cell_angle_beta   89.34520000
_cell_angle_gamma   67.62390896
_symmetry_Int_Tables_number   1
_chemical_formula_structural   CdH10C12N4O9
_chemical_formula_sum   'Cd2 H20 C24 N8 O18'
_cell_volume   713.63717960
_cell_formula_units_Z   2
loop_
 _symmetry_equiv_pos_site_id
 _symmetry_equiv_pos_as_xyz
  1  'x, y, z'
loop_
 _atom_site_type_symbol
 _atom_site_label
 _atom_site_symmetry_multiplicity
 _atom_site_fract_x
 _atom_site_fract_y
 _atom_site_fract_z
 _atom_site_occupancy
  Cd  Cd0  1  0.73797000  0.93839000  0.43683000  1.0
  Cd  Cd1  1  0.26203000  0.06161000  0.56317000  1.0
  H  H2  1  0.65292000  0.82017000  0.14628000  1.0
  H  H3  1  0.34708000  0.17983000  0.85372000  1.0
  H  H4  1  0.85329000  0.78946000  0.73054000  1.0
  H  H5  1  0.14671000  0.21054000  0.26946000  1.0
  H  H6  1  0.87219000  0.95421000  0.69197000  1.0
  H  H7  1  0.12781000  0.04579000  0.30803000  1.0
  H  H8  1  0.41495000  0.05648000  0.25854000  1.0
  H  H9  1  0.58505000  0.94352000  0.74146000  1.0
  H  H10  1  0.55490000  0.11480000  0.16963000  1.0
  H  H11  1  0.44511000  0.88519000  0.83037000  1.0
  H  H12  1  0.09004000  0.91854000  0.91016000  1.0
  H  H13  1  0.90996000  0.08146000  0.08984000  1.0
  H  H14  1  0.39593000  0.45432000  0.05159000  1.0
  H  H15  1  0.60407000  0.54568000  0.94841000  1.0
  H  H16  1  0.20931000  0.48663000  0.43124000  1.0
  H  H17  1  0.79068000  0.51337000  0.56875000  1.0
  H  H18  1  0.74258000  0.41021000  0.29722000  1.0
  H  H19  1  0.25742000  0.58979000  0.70277000  1.0
  H  H20  1  0.33977000  0.87156000  0.21071000  1.0
  H  H21  1  0.66023000  0.12844000  0.78929000  1.0
  C  C22  1  0.53493000  0.26116000  0.41943000  1.0
  C  C23  1  0.46508000  0.73883000  0.58057000  1.0
  C  C24  1  0.48041000  0.43132000  0.36678000  1.0
  C  C25  1  0.51958000  0.56869000  0.63321000  1.0
  C  C26  1  0.07380000  0.79529000  0.34523000  1.0
  C  C27  1  0.92621000  0.20471000  0.65478000  1.0
  C  C28  1  0.25746000  0.68979000  0.32551000  1.0
  C  C29  1  0.74254000  0.31021000  0.67449000  1.0
  C  C30  1  0.30669000  0.53131000  0.37978000  1.0
  C  C31  1  0.69331000  0.46869000  0.62022000  1.0
  C  C32  1  0.60610000  0.48872000  0.30356000  1.0
  C  C33  1  0.39390000  0.51128000  0.69643000  1.0
  C  C34  1  0.55604000  0.64696000  0.24889000  1.0
  C  C35  1  0.44396000  0.35304000  0.75110000  1.0
  C  C36  1  0.96973000  0.64258000  0.10918000  1.0
  C  C37  1  0.03027000  0.35742000  0.89082000  1.0
  C  C38  1  0.95218000  0.79769000  0.03485000  1.0
  C  C39  1  0.04782000  0.20231000  0.96515000  1.0
  C  C40  1  0.26637000  0.69173000  0.97808000  1.0
  C  C41  1  0.73363000  0.30827000  0.02192000  1.0
  C  C42  1  0.13505000  0.51181000  0.10835000  1.0
  C  C43  1  0.86496000  0.48818000  0.89166000  1.0
  C  C44  1  0.38079000  0.74854000  0.25731000  1.0
  C  C45  1  0.61921000  0.25146000  0.74269000  1.0
  N  N46  1  0.68342000  0.70373000  0.18282000  1.0
  N  N47  1  0.31658000  0.29627000  0.81718000  1.0
  N  N48  1  0.84012000  0.60535000  0.17201000  1.0
  N  N49  1  0.15989000  0.39465000  0.82799000  1.0
  N  N50  1  0.10246000  0.81082000  0.96973000  1.0
  N  N51  1  0.89754000  0.18918000  0.03027000  1.0
  N  N52  1  0.27422000  0.54757000  0.04457000  1.0
  N  N53  1  0.72578000  0.45244000  0.95543000  1.0
  O  O54  1  0.69714000  0.17913000  0.40363000  1.0
  O  O55  1  0.30286000  0.82087000  0.59637000  1.0
  O  O56  1  0.41756000  0.21120000  0.47314000  1.0
  O  O57  1  0.58244000  0.78880000  0.52686000  1.0
  O  O58  1  0.02017000  0.94034000  0.28864000  1.0
  O  O59  1  0.97984000  0.05965000  0.71136000  1.0
  O  O60  1  0.40167000  0.71237000  0.92733000  1.0
  O  O61  1  0.59833000  0.28763000  0.07267000  1.0
  O  O62  1  0.15895000  0.37542000  0.15824000  1.0
  O  O63  1  0.84106000  0.62458000  0.84176000  1.0
  O  O64  1  0.79689000  0.89926000  0.67432000  1.0
  O  O65  1  0.20310000  0.10074000  0.32568000  1.0
  O  O66  1  0.54145000  0.02260000  0.23143000  1.0
  O  O67  1  0.45854000  0.97740000  0.76858000  1.0
  O  O68  1  0.97535000  0.73457000  0.41974000  1.0
  O  O69  1  0.02465000  0.26543000  0.58026000  1.0
  O  O70  1  0.81228000  0.91350000  0.02664000  1.0
  O  O71  1  0.18772000  0.08651000  0.97335000  1.0
