# generated using pymatgen
data_Zn2H25C43N3O10
_symmetry_space_group_name_H-M   'P 1'
_cell_length_a   9.73935000
_cell_length_b   10.92260000
_cell_length_c   14.93390000
_cell_angle_alpha   88.03580000
_cell_angle_beta   75.72720000
_cell_angle_gamma   88.94390000
_symmetry_Int_Tables_number   1
_chemical_formula_structural   Zn2H25C43N3O10
_chemical_formula_sum   'Zn2 H25 C43 N3 O10'
_cell_volume   1538.63022064
_cell_formula_units_Z   1
loop_
 _symmetry_equiv_pos_site_id
 _symmetry_equiv_pos_as_xyz
  1  'x, y, z'
loop_
 _atom_site_type_symbol
 _atom_site_label
 _atom_site_symmetry_multiplicity
 _atom_site_fract_x
 _atom_site_fract_y
 _atom_site_fract_z
 _atom_site_occupancy
  Zn  Zn0  1  0.13966000  0.48558000  0.50215000  1.0
  Zn  Zn1  1  0.85252000  0.49421000  0.49510000  1.0
  H  H2  1  0.74149000  0.74527000  0.07228000  1.0
  H  H3  1  0.71020000  0.32490000  0.62820000  1.0
  H  H4  1  0.55492000  0.16151000  0.71644000  1.0
  H  H5  1  0.30464000  0.14623000  0.70535000  1.0
  H  H6  1  0.20709000  0.29551000  0.60850000  1.0
  H  H7  1  0.38758000  0.63442000  0.42357000  1.0
  H  H8  1  0.91275000  0.48773000  0.19082000  1.0
  H  H9  1  0.95239000  0.72310000  0.94249000  1.0
  H  H10  1  0.67614000  0.48882000  0.76987000  1.0
  H  H11  1  0.49578000  0.69192000  0.14763000  1.0
  H  H12  1  0.46809000  0.47872000  0.81881000  1.0
  H  H13  1  0.01027000  0.46895000  0.02023000  1.0
  H  H14  1  0.49355000  0.43307000  0.17409000  1.0
  H  H15  1  0.37827000  0.39374000  0.28560000  1.0
  H  H16  1  0.51987000  0.50082000  0.27573000  1.0
  H  H17  1  0.27982000  0.25389000  0.87409000  1.0
  H  H18  1  0.10886000  0.27963000  0.85115000  1.0
  H  H19  1  0.12851000  0.28320000  0.96762000  1.0
  H  H20  1  0.83088000  0.09472000  0.60997000  1.0
  H  H21  1  0.16451000  0.23126000  0.33454000  1.0
  H  H22  1  0.32183000  0.12898000  0.20179000  1.0
  H  H23  1  0.33594000  0.90031000  0.19873000  1.0
  H  H24  1  0.19557000  0.77492000  0.32813000  1.0
  H  H25  1  0.84199000  0.86609000  0.60654000  1.0
  H  H26  1  0.64740000  0.64224000  0.42647000  1.0
  C  C27  1  0.98605000  0.25499000  0.49051000  1.0
  C  C28  1  0.22467000  0.51024000  0.02483000  1.0
  C  C29  1  0.31500000  0.55215000  0.07963000  1.0
  C  C30  1  0.93528000  0.51364000  0.67510000  1.0
  C  C31  1  0.07862000  0.49201000  0.06483000  1.0
  C  C32  1  0.02484000  0.50188000  0.15871000  1.0
  C  C33  1  0.25887000  0.54816000  0.17758000  1.0
  C  C34  1  0.17132000  0.13144000  0.33339000  1.0
  C  C35  1  0.25908000  0.07430000  0.25948000  1.0
  C  C36  1  0.26714000  0.94493000  0.25785000  1.0
  C  C37  1  0.18803000  0.87440000  0.33000000  1.0
  C  C38  1  0.66436000  0.58128000  0.89843000  1.0
  C  C39  1  0.09574000  0.92997000  0.40734000  1.0
  C  C40  1  0.08733000  0.06154000  0.40849000  1.0
  C  C41  1  0.99178000  0.11850000  0.48387000  1.0
  C  C42  1  0.00774000  0.72491000  0.48816000  1.0
  C  C43  1  0.90456000  0.04934000  0.55347000  1.0
  C  C44  1  0.91105000  0.92091000  0.55189000  1.0
  C  C45  1  0.00589000  0.86158000  0.48175000  1.0
  C  C46  1  0.60132000  0.31698000  0.62346000  1.0
  C  C47  1  0.51374000  0.22744000  0.67280000  1.0
  C  C48  1  0.37141000  0.21920000  0.66713000  1.0
  C  C49  1  0.74707000  0.64730000  0.94719000  1.0
  C  C50  1  0.31585000  0.30235000  0.61388000  1.0
  C  C51  1  0.40273000  0.39579000  0.56268000  1.0
  C  C52  1  0.54819000  0.40251000  0.56664000  1.0
  C  C53  1  0.57734000  0.57213000  0.46600000  1.0
  C  C54  1  0.05891000  0.50554000  0.31939000  1.0
  C  C55  1  0.43383000  0.56709000  0.46352000  1.0
  C  C56  1  0.87529000  0.56091000  0.76976000  1.0
  C  C57  1  0.11619000  0.52196000  0.21691000  1.0
  C  C58  1  0.89105000  0.67091000  0.90525000  1.0
  C  C59  1  0.95655000  0.62930000  0.81776000  1.0
  C  C60  1  0.51629000  0.55730000  0.94075000  1.0
  C  C61  1  0.73314000  0.54007000  0.81017000  1.0
  C  C62  1  0.43993000  0.46704000  0.24251000  1.0
  C  C63  1  0.17900000  0.30522000  0.89449000  1.0
  C  C64  1  0.10159000  0.66143000  0.78007000  1.0
  C  C65  1  0.45884000  0.58839000  0.03437000  1.0
  C  C66  1  0.54353000  0.65952000  0.07885000  1.0
  C  C67  1  0.68089000  0.68930000  0.03688000  1.0
  C  C68  1  0.42749000  0.50270000  0.89071000  1.0
  C  C69  1  0.28674000  0.48301000  0.93015000  1.0
  N  N70  1  0.63347000  0.49089000  0.51504000  1.0
  N  N71  1  0.34990000  0.47938000  0.50905000  1.0
  N  N72  1  0.21829000  0.69584000  0.75668000  1.0
  O  O73  1  0.08618000  0.30329000  0.51738000  1.0
  O  O74  1  0.20271000  0.43442000  0.87831000  1.0
  O  O75  1  0.88124000  0.31135000  0.47136000  1.0
  O  O76  1  0.06731000  0.52503000  0.63985000  1.0
  O  O77  1  0.84847000  0.46590000  0.63528000  1.0
  O  O78  1  0.12718000  0.66952000  0.47075000  1.0
  O  O79  1  0.88704000  0.67344000  0.51359000  1.0
  O  O80  1  0.14331000  0.46021000  0.36498000  1.0
  O  O81  1  0.92912000  0.53335000  0.35329000  1.0
  O  O82  1  0.34761000  0.56928000  0.23447000  1.0
