# generated using pymatgen
data_H28Pb5C20N4(ClO9)2
_symmetry_space_group_name_H-M   'P 1'
_cell_length_a   7.59059000
_cell_length_b   8.90520000
_cell_length_c   13.34880000
_cell_angle_alpha   73.22220000
_cell_angle_beta   80.84410000
_cell_angle_gamma   75.23090000
_symmetry_Int_Tables_number   1
_chemical_formula_structural   H28Pb5C20N4(ClO9)2
_chemical_formula_sum   'H28 Pb5 C20 N4 Cl2 O18'
_cell_volume   831.79549326
_cell_formula_units_Z   1
loop_
 _symmetry_equiv_pos_site_id
 _symmetry_equiv_pos_as_xyz
  1  'x, y, z'
loop_
 _atom_site_type_symbol
 _atom_site_label
 _atom_site_symmetry_multiplicity
 _atom_site_fract_x
 _atom_site_fract_y
 _atom_site_fract_z
 _atom_site_occupancy
  H  H0  1  0.82328000  0.26379000  0.69973000  1.0
  H  H1  1  0.17670000  0.73624000  0.30026000  1.0
  H  H2  1  0.70073000  0.41245000  0.60031000  1.0
  H  H3  1  0.29922000  0.58755000  0.39968000  1.0
  H  H4  1  0.69112000  0.53278000  0.74832000  1.0
  H  H5  1  0.30886000  0.46722000  0.25165000  1.0
  H  H6  1  0.49024000  0.53030000  0.83534000  1.0
  H  H7  1  0.50974000  0.46974000  0.16464000  1.0
  H  H8  1  0.20150000  0.99640000  0.96939000  1.0
  H  H9  1  0.79847000  0.00365000  0.03065000  1.0
  H  H10  1  0.38288000  0.99842000  0.86693000  1.0
  H  H11  1  0.61710000  0.00158000  0.13311000  1.0
  H  H12  1  0.65572000  0.24798000  0.89268000  1.0
  H  H13  1  0.34425000  0.75205000  0.10731000  1.0
  H  H14  1  0.58890000  0.11972000  0.83341000  1.0
  H  H15  1  0.41107000  0.88029000  0.16660000  1.0
  H  H16  1  0.02273000  0.26805000  0.99901000  1.0
  H  H17  1  0.97723000  0.73199000  0.00098000  1.0
  H  H18  1  0.93668000  0.24908000  0.88924000  1.0
  H  H19  1  0.06330000  0.75088000  0.11078000  1.0
  H  H20  1  0.38334000  0.18039000  0.99543000  1.0
  H  H21  1  0.61662000  0.81966000  0.00458000  1.0
  H  H22  1  0.32240000  0.38275000  0.92489000  1.0
  H  H23  1  0.67757000  0.61729000  0.07511000  1.0
  H  H24  1  0.61445000  0.82336000  0.75193000  1.0
  H  H25  1  0.38552000  0.17670000  0.24804000  1.0
  H  H26  1  0.75275000  0.73231000  0.84131000  1.0
  H  H27  1  0.24712000  0.26771000  0.15868000  1.0
  Pb  Pb28  1  0.22677000  0.37244000  0.66635000  1.0
  Pb  Pb29  1  0.77334000  0.62746000  0.33366000  1.0
  Pb  Pb30  1  0.00796000  0.84765000  0.67164000  1.0
  Pb  Pb31  1  0.99232000  0.15237000  0.32850000  1.0
  Pb  Pb32  1  0.50060000  0.99979000  0.49994000  1.0
  C  C33  1  0.65133000  0.18001000  0.62596000  1.0
  C  C34  1  0.34870000  0.81996000  0.37404000  1.0
  C  C35  1  0.44509000  0.66059000  0.67805000  1.0
  C  C36  1  0.55488000  0.33939000  0.32192000  1.0
  C  C37  1  0.68832000  0.30889000  0.66816000  1.0
  C  C38  1  0.31167000  0.69111000  0.33183000  1.0
  C  C39  1  0.54894000  0.51833000  0.75657000  1.0
  C  C40  1  0.45104000  0.48168000  0.24340000  1.0
  C  C41  1  0.23906000  0.05414000  0.88633000  1.0
  C  C42  1  0.76092000  0.94587000  0.11371000  1.0
  C  C43  1  0.97613000  0.48212000  0.87047000  1.0
  C  C44  1  0.02380000  0.51788000  0.12950000  1.0
  C  C45  1  0.54884000  0.23964000  0.84822000  1.0
  C  C46  1  0.45114000  0.76038000  0.15179000  1.0
  C  C47  1  0.12916000  0.01244000  0.81581000  1.0
  C  C48  1  0.87085000  0.98755000  0.18425000  1.0
  C  C49  1  0.03716000  0.29992000  0.91247000  1.0
  C  C50  1  0.96280000  0.70009000  0.08752000  1.0
  C  C51  1  0.36685000  0.26006000  0.91529000  1.0
  C  C52  1  0.63312000  0.73998000  0.08472000  1.0
  N  N53  1  0.54169000  0.36083000  0.74558000  1.0
  N  N54  1  0.45829000  0.63916000  0.25442000  1.0
  N  N55  1  0.22009000  0.22793000  0.86904000  1.0
  N  N56  1  0.77989000  0.77209000  0.13096000  1.0
  Cl  Cl57  1  0.83776000  0.71262000  0.54144000  1.0
  Cl  Cl58  1  0.16217000  0.28757000  0.45849000  1.0
  O  O59  1  0.77979000  0.09954000  0.57711000  1.0
  O  O60  1  0.22027000  0.90044000  0.42290000  1.0
  O  O61  1  0.36068000  0.63809000  0.61106000  1.0
  O  O62  1  0.63928000  0.36185000  0.38893000  1.0
  O  O63  1  0.06829000  0.55128000  0.78812000  1.0
  O  O64  1  0.93165000  0.44874000  0.21186000  1.0
  O  O65  1  0.09014000  0.11325000  0.72816000  1.0
  O  O66  1  0.90976000  0.88674000  0.27191000  1.0
  O  O67  1  0.44614000  0.80003000  0.68685000  1.0
  O  O68  1  0.55384000  0.19998000  0.31307000  1.0
  O  O69  1  0.48739000  0.15893000  0.63911000  1.0
  O  O70  1  0.51267000  0.84097000  0.36090000  1.0
  O  O71  1  0.71221000  0.83857000  0.78814000  1.0
  O  O72  1  0.28772000  0.16147000  0.21187000  1.0
  O  O73  1  0.83385000  0.55129000  0.91572000  1.0
  O  O74  1  0.16604000  0.44869000  0.08424000  1.0
  O  O75  1  0.08815000  0.87609000  0.84680000  1.0
  O  O76  1  0.91200000  0.12383000  0.15324000  1.0
