# generated using pymatgen
data_CdH20C28(NO4)2
_symmetry_space_group_name_H-M   'P 1'
_cell_length_a   11.61480000
_cell_length_b   11.61810000
_cell_length_c   12.20584817
_cell_angle_alpha   64.03348801
_cell_angle_beta   64.02006444
_cell_angle_gamma   73.78200000
_symmetry_Int_Tables_number   1
_chemical_formula_structural   CdH20C28(NO4)2
_chemical_formula_sum   'Cd2 H40 C56 N4 O16'
_cell_volume   1323.34543977
_cell_formula_units_Z   2
loop_
 _symmetry_equiv_pos_site_id
 _symmetry_equiv_pos_as_xyz
  1  'x, y, z'
loop_
 _atom_site_type_symbol
 _atom_site_label
 _atom_site_symmetry_multiplicity
 _atom_site_fract_x
 _atom_site_fract_y
 _atom_site_fract_z
 _atom_site_occupancy
  Cd  Cd0  1  0.16774000  0.33221000  0.25000000  1.0
  Cd  Cd1  1  0.83226000  0.66779000  0.74999000  1.0
  H  H2  1  0.70439000  0.03280000  0.49236000  1.0
  H  H3  1  0.46691000  0.79581000  0.00738000  1.0
  H  H4  1  0.29560000  0.96718000  0.50764000  1.0
  H  H5  1  0.53310000  0.20419000  0.99261000  1.0
  H  H6  1  0.47808000  0.11514000  0.48799000  1.0
  H  H7  1  0.38481000  0.02197000  0.01218000  1.0
  H  H8  1  0.52193000  0.88486000  0.51200000  1.0
  H  H9  1  0.61520000  0.97802000  0.98781000  1.0
  H  H10  1  0.65394000  0.32563000  0.07336000  1.0
  H  H11  1  0.17478000  0.84598000  0.42690000  1.0
  H  H12  1  0.34606000  0.67439000  0.92663000  1.0
  H  H13  1  0.82522000  0.15402000  0.57310000  1.0
  H  H14  1  0.86549000  0.25424000  0.09597000  1.0
  H  H15  1  0.24587000  0.63461000  0.40410000  1.0
  H  H16  1  0.13450000  0.74578000  0.90404000  1.0
  H  H17  1  0.75412000  0.36540000  0.59589000  1.0
  H  H18  1  0.98505000  0.16091000  0.22270000  1.0
  H  H19  1  0.33873000  0.51536000  0.27679000  1.0
  H  H20  1  0.01494000  0.83910000  0.77729000  1.0
  H  H21  1  0.66128000  0.48462000  0.72322000  1.0
  H  H22  1  0.91683000  0.07348000  0.39387000  1.0
  H  H23  1  0.42629000  0.58368000  0.10566000  1.0
  H  H24  1  0.08318000  0.92652000  0.60613000  1.0
  H  H25  1  0.57370000  0.41629000  0.89436000  1.0
  H  H26  1  0.06573000  0.04930000  0.06607000  1.0
  H  H27  1  0.45026000  0.43462000  0.43378000  1.0
  H  H28  1  0.93427000  0.95071000  0.93393000  1.0
  H  H29  1  0.54975000  0.56535000  0.56623000  1.0
  H  H30  1  0.14641000  0.83881000  0.03562000  1.0
  H  H31  1  0.66081000  0.35407000  0.46417000  1.0
  H  H32  1  0.85360000  0.16120000  0.96438000  1.0
  H  H33  1  0.33921000  0.64593000  0.53581000  1.0
  H  H34  1  0.95147000  0.63850000  0.44696000  1.0
  H  H35  1  0.86142000  0.54831000  0.05290000  1.0
  H  H36  1  0.04853000  0.36151000  0.55303000  1.0
  H  H37  1  0.13858000  0.45170000  0.94709000  1.0
  H  H38  1  0.86927000  0.84815000  0.47775000  1.0
  H  H39  1  0.65173000  0.63042000  0.02194000  1.0
  H  H40  1  0.13073000  0.15185000  0.52226000  1.0
  H  H41  1  0.34826000  0.36956000  0.97806000  1.0
  C  C42  1  0.68497000  0.09862000  0.40400000  1.0
  C  C43  1  0.40132000  0.81514000  0.09587000  1.0
  C  C44  1  0.31502000  0.90139000  0.59600000  1.0
  C  C45  1  0.59868000  0.18485000  0.90413000  1.0
  C  C46  1  0.56301000  0.14170000  0.39921000  1.0
  C  C47  1  0.35825000  0.93700000  0.10089000  1.0
  C  C48  1  0.43698000  0.85831000  0.60079000  1.0
  C  C49  1  0.64175000  0.06298000  0.89911000  1.0
  C  C50  1  0.54810000  0.22156000  0.27965000  1.0
  C  C51  1  0.27850000  0.95184000  0.22055000  1.0
  C  C52  1  0.45189000  0.77845000  0.72035000  1.0
  C  C53  1  0.72151000  0.04815000  0.77944000  1.0
  C  C54  1  0.65801000  0.26101000  0.16857000  1.0
  C  C55  1  0.23917000  0.84190000  0.33158000  1.0
  C  C56  1  0.34198000  0.73899000  0.83143000  1.0
  C  C57  1  0.76083000  0.15810000  0.66842000  1.0
  C  C58  1  0.77785000  0.22129000  0.17898000  1.0
  C  C59  1  0.27886000  0.72216000  0.32098000  1.0
  C  C60  1  0.22215000  0.77871000  0.82101000  1.0
  C  C61  1  0.72114000  0.27784000  0.67903000  1.0
  C  C62  1  0.41540000  0.26681000  0.27216000  1.0
  C  C63  1  0.23327000  0.08454000  0.22816000  1.0
  C  C64  1  0.58459000  0.73318000  0.72787000  1.0
  C  C65  1  0.76674000  0.91546000  0.77184000  1.0
  C  C66  1  0.92102000  0.08686000  0.29770000  1.0
  C  C67  1  0.41288000  0.57929000  0.20189000  1.0
  C  C68  1  0.07899000  0.91314000  0.70229000  1.0
  C  C69  1  0.58710000  0.42071000  0.79813000  1.0
  C  C70  1  0.96357000  0.96170000  0.27481000  1.0
  C  C71  1  0.53799000  0.53656000  0.22496000  1.0
  C  C72  1  0.03642000  0.03831000  0.72520000  1.0
  C  C73  1  0.46201000  0.46344000  0.77505000  1.0
  C  C74  1  0.03881000  0.95955000  0.14921000  1.0
  C  C75  1  0.54003000  0.46156000  0.35059000  1.0
  C  C76  1  0.96119000  0.04045000  0.85079000  1.0
  C  C77  1  0.45996000  0.53844000  0.64942000  1.0
  C  C78  1  0.08393000  0.84200000  0.13194000  1.0
  C  C79  1  0.65761000  0.41638000  0.36789000  1.0
  C  C80  1  0.91608000  0.15800000  0.86806000  1.0
  C  C81  1  0.34240000  0.58361000  0.63210000  1.0
  C  C82  1  0.05473000  0.72568000  0.23883000  1.0
  C  C83  1  0.77404000  0.44524000  0.26101000  1.0
  C  C84  1  0.94527000  0.27432000  0.76117000  1.0
  C  C85  1  0.22595000  0.55476000  0.73899000  1.0
  C  C86  1  0.97419000  0.72856000  0.36338000  1.0
  C  C87  1  0.77126000  0.52565000  0.13643000  1.0
  C  C88  1  0.02581000  0.27145000  0.63662000  1.0
  C  C89  1  0.22874000  0.47436000  0.86357000  1.0
  C  C90  1  0.92919000  0.84612000  0.38056000  1.0
  C  C91  1  0.65366000  0.57071000  0.11921000  1.0
  C  C92  1  0.07081000  0.15389000  0.61944000  1.0
  C  C93  1  0.34633000  0.42930000  0.88080000  1.0
  C  C94  1  0.11561000  0.59913000  0.22056000  1.0
  C  C95  1  0.90057000  0.38419000  0.27946000  1.0
  C  C96  1  0.88440000  0.40087000  0.77942000  1.0
  C  C97  1  0.09943000  0.61581000  0.72055000  1.0
  N  N98  1  0.78985000  0.13895000  0.29405000  1.0
  N  N99  1  0.36097000  0.71028000  0.20576000  1.0
  N  N100  1  0.21014000  0.86105000  0.70595000  1.0
  N  N101  1  0.63904000  0.28971000  0.79424000  1.0
  O  O102  1  0.32153000  0.26539000  0.37677000  1.0
  O  O103  1  0.23445000  0.17831000  0.12356000  1.0
  O  O104  1  0.67846000  0.73458000  0.62325000  1.0
  O  O105  1  0.76554000  0.82169000  0.87644000  1.0
  O  O106  1  0.40826000  0.30354000  0.16006000  1.0
  O  O107  1  0.19668000  0.09170000  0.34023000  1.0
  O  O108  1  0.59172000  0.69648000  0.83996000  1.0
  O  O109  1  0.80336000  0.90831000  0.65977000  1.0
  O  O110  1  0.18235000  0.59878000  0.10654000  1.0
  O  O111  1  0.90075000  0.31751000  0.39352000  1.0
  O  O112  1  0.81766000  0.40123000  0.89344000  1.0
  O  O113  1  0.09926000  0.68251000  0.60649000  1.0
  O  O114  1  0.09848000  0.49765000  0.32518000  1.0
  O  O115  1  0.00219000  0.40118000  0.17490000  1.0
  O  O116  1  0.90152000  0.50236000  0.67481000  1.0
  O  O117  1  0.99781000  0.59880000  0.82510000  1.0
