# generated using pymatgen
data_CdH12(C7O3)2
_symmetry_space_group_name_H-M   'P 1'
_cell_length_a   7.37409000
_cell_length_b   11.81510000
_cell_length_c   15.69690000
_cell_angle_alpha   90.00000000
_cell_angle_beta   95.35990000
_cell_angle_gamma   89.99970000
_symmetry_Int_Tables_number   1
_chemical_formula_structural   CdH12(C7O3)2
_chemical_formula_sum   'Cd4 H48 C56 O24'
_cell_volume   1361.62227603
_cell_formula_units_Z   4
loop_
 _symmetry_equiv_pos_site_id
 _symmetry_equiv_pos_as_xyz
  1  'x, y, z'
loop_
 _atom_site_type_symbol
 _atom_site_label
 _atom_site_symmetry_multiplicity
 _atom_site_fract_x
 _atom_site_fract_y
 _atom_site_fract_z
 _atom_site_occupancy
  Cd  Cd0  1  0.74950000  0.70074000  0.74735000  1.0
  Cd  Cd1  1  0.75050000  0.20074000  0.25264000  1.0
  Cd  Cd2  1  0.25050000  0.29926000  0.25264000  1.0
  Cd  Cd3  1  0.24950000  0.79926000  0.74735000  1.0
  H  H4  1  0.29402000  0.59837000  0.00065000  1.0
  H  H5  1  0.20598000  0.09837000  0.99935000  1.0
  H  H6  1  0.70598000  0.40163000  0.99935000  1.0
  H  H7  1  0.79402000  0.90163000  0.00065000  1.0
  H  H8  1  0.47356000  0.53833000  0.81900000  1.0
  H  H9  1  0.02644000  0.03833000  0.18100000  1.0
  H  H10  1  0.52644000  0.46166000  0.18100000  1.0
  H  H11  1  0.97357000  0.96167000  0.81900000  1.0
  H  H12  1  0.51423000  0.50152000  0.92917000  1.0
  H  H13  1  0.98577000  0.00152000  0.07083000  1.0
  H  H14  1  0.48577000  0.49848000  0.07083000  1.0
  H  H15  1  0.01423000  0.99849000  0.92917000  1.0
  H  H16  1  0.59283000  0.34342000  0.77858000  1.0
  H  H17  1  0.90717000  0.84342000  0.22142000  1.0
  H  H18  1  0.40717000  0.65657000  0.22143000  1.0
  H  H19  1  0.09283000  0.15658000  0.77857000  1.0
  H  H20  1  0.42203000  0.30195000  0.94870000  1.0
  H  H21  1  0.07797000  0.80195000  0.05131000  1.0
  H  H22  1  0.57796000  0.69805000  0.05131000  1.0
  H  H23  1  0.92203000  0.19805000  0.94869000  1.0
  H  H24  1  0.46047000  0.19709000  0.86460000  1.0
  H  H25  1  0.03954000  0.69709000  0.13540000  1.0
  H  H26  1  0.53952000  0.80291000  0.13541000  1.0
  H  H27  1  0.96047000  0.30291000  0.86460000  1.0
  H  H28  1  0.23255000  0.62482000  0.48006000  1.0
  H  H29  1  0.26745000  0.12482000  0.51993000  1.0
  H  H30  1  0.76745000  0.37518000  0.51993000  1.0
  H  H31  1  0.73255000  0.87518000  0.48006000  1.0
  H  H32  1  0.80051000  0.33926000  0.66086000  1.0
  H  H33  1  0.69949000  0.83926000  0.33914000  1.0
  H  H34  1  0.19949000  0.66074000  0.33914000  1.0
  H  H35  1  0.30051000  0.16074000  0.66086000  1.0
  H  H36  1  0.89803000  0.43498000  0.74109000  1.0
  H  H37  1  0.60197000  0.93498000  0.25891000  1.0
  H  H38  1  0.10196000  0.56502000  0.25891000  1.0
  H  H39  1  0.39803000  0.06502000  0.74109000  1.0
  H  H40  1  0.08041000  0.52611000  0.62552000  1.0
  H  H41  1  0.41960000  0.02612000  0.37448000  1.0
  H  H42  1  0.91960000  0.47388000  0.37448000  1.0
  H  H43  1  0.58041000  0.97388000  0.62552000  1.0
  H  H44  1  0.04509000  0.27065000  0.58298000  1.0
  H  H45  1  0.45491000  0.77065000  0.41702000  1.0
  H  H46  1  0.95490000  0.72935000  0.41702000  1.0
  H  H47  1  0.54509000  0.22935000  0.58298000  1.0
  H  H48  1  0.22714000  0.36751000  0.55343000  1.0
  H  H49  1  0.27286000  0.86752000  0.44657000  1.0
  H  H50  1  0.77286000  0.63248000  0.44657000  1.0
  H  H51  1  0.72714000  0.13248000  0.55343000  1.0
  C  C52  1  0.10064000  0.63952000  0.85964000  1.0
  C  C53  1  0.39936000  0.13953000  0.14036000  1.0
  C  C54  1  0.89936000  0.36048000  0.14036000  1.0
  C  C55  1  0.60064000  0.86048000  0.85964000  1.0
  C  C56  1  0.04046000  0.56752000  0.93004000  1.0
  C  C57  1  0.45954000  0.06752000  0.06995000  1.0
  C  C58  1  0.95954000  0.43248000  0.06996000  1.0
  C  C59  1  0.54046000  0.93248000  0.93004000  1.0
  C  C60  1  0.86807000  0.51469000  0.92883000  1.0
  C  C61  1  0.63193000  0.01469000  0.07117000  1.0
  C  C62  1  0.13192000  0.48531000  0.07117000  1.0
  C  C63  1  0.36808000  0.98531000  0.92883000  1.0
  C  C64  1  0.16705000  0.55212000  0.00131000  1.0
  C  C65  1  0.33295000  0.05212000  0.99868000  1.0
  C  C66  1  0.83295000  0.44788000  0.99869000  1.0
  C  C67  1  0.66705000  0.94788000  0.00131000  1.0
  C  C68  1  0.55780000  0.48636000  0.86508000  1.0
  C  C69  1  0.94220000  0.98636000  0.13492000  1.0
  C  C70  1  0.44220000  0.51364000  0.13492000  1.0
  C  C71  1  0.05780000  0.01364000  0.86508000  1.0
  C  C72  1  0.54441000  0.36439000  0.84037000  1.0
  C  C73  1  0.95559000  0.86439000  0.15963000  1.0
  C  C74  1  0.45559000  0.63561000  0.15963000  1.0
  C  C75  1  0.04441000  0.13561000  0.84037000  1.0
  C  C76  1  0.47256000  0.28429000  0.88681000  1.0
  C  C77  1  0.02744000  0.78429000  0.11319000  1.0
  C  C78  1  0.52743000  0.71571000  0.11319000  1.0
  C  C79  1  0.97257000  0.21571000  0.88681000  1.0
  C  C80  1  0.39154000  0.65336000  0.63017000  1.0
  C  C81  1  0.10846000  0.15336000  0.36982000  1.0
  C  C82  1  0.60846000  0.34664000  0.36982000  1.0
  C  C83  1  0.89154000  0.84664000  0.63017000  1.0
  C  C84  1  0.45793000  0.57539000  0.56517000  1.0
  C  C85  1  0.04207000  0.07539000  0.43482000  1.0
  C  C86  1  0.54207000  0.42461000  0.43482000  1.0
  C  C87  1  0.95793000  0.92461000  0.56517000  1.0
  C  C88  1  0.61155000  0.50362000  0.57890000  1.0
  C  C89  1  0.88845000  0.00362000  0.42110000  1.0
  C  C90  1  0.38845000  0.49638000  0.42110000  1.0
  C  C91  1  0.11155000  0.99638000  0.57890000  1.0
  C  C92  1  0.35139000  0.57027000  0.48655000  1.0
  C  C93  1  0.14861000  0.07027000  0.51345000  1.0
  C  C94  1  0.64861000  0.42973000  0.51345000  1.0
  C  C95  1  0.85139000  0.92973000  0.48655000  1.0
  C  C96  1  0.86060000  0.42386000  0.67231000  1.0
  C  C97  1  0.63940000  0.92386000  0.32769000  1.0
  C  C98  1  0.13940000  0.57614000  0.32769000  1.0
  C  C99  1  0.36060000  0.07614000  0.67231000  1.0
  C  C100  1  0.02465000  0.44041000  0.62439000  1.0
  C  C101  1  0.47535000  0.94041000  0.37561000  1.0
  C  C102  1  0.97535000  0.55959000  0.37561000  1.0
  C  C103  1  0.52465000  0.05959000  0.62439000  1.0
  C  C104  1  0.10383000  0.35564000  0.58557000  1.0
  C  C105  1  0.39617000  0.85564000  0.41443000  1.0
  C  C106  1  0.89617000  0.64436000  0.41443000  1.0
  C  C107  1  0.60383000  0.14436000  0.58557000  1.0
  O  O108  1  0.02838000  0.62558000  0.78262000  1.0
  O  O109  1  0.47162000  0.12558000  0.21739000  1.0
  O  O110  1  0.97162000  0.37442000  0.21738000  1.0
  O  O111  1  0.52837000  0.87443000  0.78261000  1.0
  O  O112  1  0.22773000  0.71072000  0.87783000  1.0
  O  O113  1  0.27227000  0.21072000  0.12217000  1.0
  O  O114  1  0.77227000  0.28927000  0.12216000  1.0
  O  O115  1  0.72773000  0.78928000  0.87783000  1.0
  O  O116  1  0.74073000  0.53179000  0.86034000  1.0
  O  O117  1  0.75927000  0.03179000  0.13966000  1.0
  O  O118  1  0.25927000  0.46821000  0.13966000  1.0
  O  O119  1  0.24073000  0.96821000  0.86034000  1.0
  O  O120  1  0.45960000  0.64781000  0.70914000  1.0
  O  O121  1  0.04040000  0.14781000  0.29086000  1.0
  O  O122  1  0.54040000  0.35219000  0.29086000  1.0
  O  O123  1  0.95960000  0.85219000  0.70914000  1.0
  O  O124  1  0.26241000  0.72112000  0.60836000  1.0
  O  O125  1  0.23758000  0.22112000  0.39164000  1.0
  O  O126  1  0.73759000  0.27888000  0.39164000  1.0
  O  O127  1  0.76242000  0.77888000  0.60836000  1.0
  O  O128  1  0.71944000  0.50928000  0.65481000  1.0
  O  O129  1  0.78056000  0.00928000  0.34519000  1.0
  O  O130  1  0.28056000  0.49072000  0.34519000  1.0
  O  O131  1  0.21944000  0.99072000  0.65481000  1.0
