# generated using pymatgen
data_Mg2H4C5(NO3)2
_symmetry_space_group_name_H-M   'P 1'
_cell_length_a   8.34188000
_cell_length_b   15.30110000
_cell_length_c   15.30110000
_cell_angle_alpha   89.99990000
_cell_angle_beta   90.00010000
_cell_angle_gamma   89.99990000
_symmetry_Int_Tables_number   1
_chemical_formula_structural   Mg2H4C5(NO3)2
_chemical_formula_sum   'Mg16 H32 C40 N16 O48'
_cell_volume   1953.03148697
_cell_formula_units_Z   8
loop_
 _symmetry_equiv_pos_site_id
 _symmetry_equiv_pos_as_xyz
  1  'x, y, z'
loop_
 _atom_site_type_symbol
 _atom_site_label
 _atom_site_symmetry_multiplicity
 _atom_site_fract_x
 _atom_site_fract_y
 _atom_site_fract_z
 _atom_site_occupancy
  Mg  Mg0  1  0.36981000  0.11045000  0.99907000  1.0
  Mg  Mg1  1  0.86981000  0.88955000  0.00093000  1.0
  Mg  Mg2  1  0.61981000  0.50093000  0.61045000  1.0
  Mg  Mg3  1  0.11981000  0.49907000  0.38955000  1.0
  Mg  Mg4  1  0.88019000  0.38955000  0.49907000  1.0
  Mg  Mg5  1  0.38019000  0.61045000  0.50093000  1.0
  Mg  Mg6  1  0.63019000  0.99907000  0.11045000  1.0
  Mg  Mg7  1  0.13019000  0.00093000  0.88955000  1.0
  Mg  Mg8  1  0.00000000  0.09991000  0.09991000  1.0
  Mg  Mg9  1  0.00000000  0.24733000  0.24733000  1.0
  Mg  Mg10  1  0.50000000  0.90009000  0.90009000  1.0
  Mg  Mg11  1  0.50000000  0.75267000  0.75267000  1.0
  Mg  Mg12  1  0.25000000  0.40009000  0.59991000  1.0
  Mg  Mg13  1  0.25000000  0.25267000  0.74733000  1.0
  Mg  Mg14  1  0.75000000  0.59991000  0.40009000  1.0
  Mg  Mg15  1  0.75000000  0.74733000  0.25267000  1.0
  H  H16  1  0.93122000  0.37302000  0.12971000  1.0
  H  H17  1  0.85505000  0.28445000  0.09864000  1.0
  H  H18  1  0.92933000  0.95605000  0.14480000  1.0
  H  H19  1  0.55479000  0.37236000  0.17980000  1.0
  H  H20  1  0.43122000  0.62698000  0.87029000  1.0
  H  H21  1  0.35506000  0.71555000  0.90136000  1.0
  H  H22  1  0.42933000  0.04395000  0.85520000  1.0
  H  H23  1  0.05478000  0.62764000  0.82020000  1.0
  H  H24  1  0.18122000  0.37029000  0.87302000  1.0
  H  H25  1  0.10506000  0.40136000  0.78445000  1.0
  H  H26  1  0.17933000  0.35520000  0.45605000  1.0
  H  H27  1  0.80478000  0.32019000  0.87235000  1.0
  H  H28  1  0.68122000  0.62971000  0.12698000  1.0
  H  H29  1  0.60506000  0.59864000  0.21555000  1.0
  H  H30  1  0.67933000  0.64480000  0.54395000  1.0
  H  H31  1  0.30478000  0.67981000  0.12765000  1.0
  H  H32  1  0.31878000  0.12698000  0.62971000  1.0
  H  H33  1  0.39495000  0.21555000  0.59864000  1.0
  H  H34  1  0.32067000  0.54395000  0.64480000  1.0
  H  H35  1  0.69522000  0.12765000  0.67981000  1.0
  H  H36  1  0.81878000  0.87302000  0.37029000  1.0
  H  H37  1  0.89495000  0.78445000  0.40136000  1.0
  H  H38  1  0.82067000  0.45605000  0.35520000  1.0
  H  H39  1  0.19522000  0.87235000  0.32019000  1.0
  H  H40  1  0.06878000  0.12971000  0.37302000  1.0
  H  H41  1  0.14495000  0.09864000  0.28445000  1.0
  H  H42  1  0.07067000  0.14480000  0.95605000  1.0
  H  H43  1  0.44521000  0.17980000  0.37236000  1.0
  H  H44  1  0.56878000  0.87029000  0.62698000  1.0
  H  H45  1  0.64495000  0.90136000  0.71555000  1.0
  H  H46  1  0.57067000  0.85520000  0.04395000  1.0
  H  H47  1  0.94521000  0.82020000  0.62764000  1.0
  C  C48  1  0.27743000  0.24465000  0.13437000  1.0
  C  C49  1  0.45985000  0.49686000  0.33158000  1.0
  C  C50  1  0.38526000  0.42665000  0.27990000  1.0
  C  C51  1  0.30713000  0.31827000  0.19490000  1.0
  C  C52  1  0.43816000  0.37321000  0.21107000  1.0
  C  C53  1  0.77743000  0.75535000  0.86563000  1.0
  C  C54  1  0.95985000  0.50314000  0.66842000  1.0
  C  C55  1  0.88525000  0.57334000  0.72011000  1.0
  C  C56  1  0.80713000  0.68173000  0.80510000  1.0
  C  C57  1  0.93816000  0.62679000  0.78894000  1.0
  C  C58  1  0.52743000  0.36563000  0.74465000  1.0
  C  C59  1  0.70985000  0.16842000  0.99685000  1.0
  C  C60  1  0.63525000  0.22011000  0.92665000  1.0
  C  C61  1  0.55713000  0.30510000  0.81827000  1.0
  C  C62  1  0.68816000  0.28894000  0.87321000  1.0
  C  C63  1  0.02744000  0.63437000  0.25535000  1.0
  C  C64  1  0.20986000  0.83158000  0.00314000  1.0
  C  C65  1  0.13525000  0.77990000  0.07335000  1.0
  C  C66  1  0.05712000  0.69490000  0.18173000  1.0
  C  C67  1  0.18816000  0.71106000  0.12679000  1.0
  C  C68  1  0.97257000  0.25535000  0.63437000  1.0
  C  C69  1  0.79015000  0.00314000  0.83159000  1.0
  C  C70  1  0.86474000  0.07335000  0.77990000  1.0
  C  C71  1  0.94287000  0.18173000  0.69490000  1.0
  C  C72  1  0.81184000  0.12679000  0.71107000  1.0
  C  C73  1  0.47256000  0.74465000  0.36563000  1.0
  C  C74  1  0.29015000  0.99685000  0.16842000  1.0
  C  C75  1  0.36475000  0.92665000  0.22010000  1.0
  C  C76  1  0.44288000  0.81827000  0.30510000  1.0
  C  C77  1  0.31184000  0.87321000  0.28893000  1.0
  C  C78  1  0.72257000  0.13437000  0.24465000  1.0
  C  C79  1  0.54014000  0.33159000  0.49686000  1.0
  C  C80  1  0.61474000  0.27990000  0.42665000  1.0
  C  C81  1  0.69287000  0.19490000  0.31827000  1.0
  C  C82  1  0.56184000  0.21106000  0.37321000  1.0
  C  C83  1  0.22257000  0.86563000  0.75535000  1.0
  C  C84  1  0.04015000  0.66841000  0.50315000  1.0
  C  C85  1  0.11475000  0.72011000  0.57334000  1.0
  C  C86  1  0.19287000  0.80510000  0.68173000  1.0
  C  C87  1  0.06184000  0.78893000  0.62679000  1.0
  N  N88  1  0.23217000  0.40432000  0.30247000  1.0
  N  N89  1  0.18506000  0.33917000  0.25135000  1.0
  N  N90  1  0.73216000  0.59568000  0.69754000  1.0
  N  N91  1  0.68506000  0.66083000  0.74865000  1.0
  N  N92  1  0.48216000  0.19753000  0.90432000  1.0
  N  N93  1  0.43506000  0.24865000  0.83917000  1.0
  N  N94  1  0.98216000  0.80247000  0.09568000  1.0
  N  N95  1  0.93506000  0.75135000  0.16083000  1.0
  N  N96  1  0.01783000  0.09568000  0.80247000  1.0
  N  N97  1  0.06494000  0.16083000  0.75135000  1.0
  N  N98  1  0.51784000  0.90432000  0.19753000  1.0
  N  N99  1  0.56494000  0.83917000  0.24865000  1.0
  N  N100  1  0.76783000  0.30247000  0.40432000  1.0
  N  N101  1  0.81494000  0.25135000  0.33917000  1.0
  N  N102  1  0.26784000  0.69754000  0.59568000  1.0
  N  N103  1  0.31494000  0.74865000  0.66082000  1.0
  O  O104  1  0.37970000  0.22168000  0.07882000  1.0
  O  O105  1  0.87312000  0.98581000  0.09757000  1.0
  O  O106  1  0.13848000  0.20732000  0.14396000  1.0
  O  O107  1  0.37627000  0.52446000  0.39664000  1.0
  O  O108  1  0.86657000  0.32406000  0.14973000  1.0
  O  O109  1  0.59846000  0.52608000  0.31188000  1.0
  O  O110  1  0.87970000  0.77832000  0.92118000  1.0
  O  O111  1  0.37313000  0.01419000  0.90243000  1.0
  O  O112  1  0.63849000  0.79268000  0.85604000  1.0
  O  O113  1  0.87627000  0.47554000  0.60336000  1.0
  O  O114  1  0.36657000  0.67593000  0.85027000  1.0
  O  O115  1  0.09846000  0.47391000  0.68813000  1.0
  O  O116  1  0.62968000  0.42118000  0.72169000  1.0
  O  O117  1  0.12312000  0.40242000  0.48582000  1.0
  O  O118  1  0.38847000  0.35604000  0.70732000  1.0
  O  O119  1  0.62626000  0.10336000  0.02447000  1.0
  O  O120  1  0.11657000  0.35028000  0.82407000  1.0
  O  O121  1  0.84844000  0.18812000  0.02608000  1.0
  O  O122  1  0.12968000  0.57883000  0.27831000  1.0
  O  O123  1  0.62312000  0.59757000  0.51419000  1.0
  O  O124  1  0.88848000  0.64397000  0.29268000  1.0
  O  O125  1  0.12627000  0.89664000  0.97554000  1.0
  O  O126  1  0.61657000  0.64972000  0.17594000  1.0
  O  O127  1  0.34845000  0.81187000  0.97392000  1.0
  O  O128  1  0.87032000  0.27831000  0.57883000  1.0
  O  O129  1  0.37687000  0.51419000  0.59757000  1.0
  O  O130  1  0.11152000  0.29268000  0.64397000  1.0
  O  O131  1  0.87373000  0.97554000  0.89664000  1.0
  O  O132  1  0.38343000  0.17594000  0.64973000  1.0
  O  O133  1  0.65155000  0.97392000  0.81188000  1.0
  O  O134  1  0.37031000  0.72169000  0.42117000  1.0
  O  O135  1  0.87688000  0.48582000  0.40242000  1.0
  O  O136  1  0.61153000  0.70732000  0.35603000  1.0
  O  O137  1  0.37373000  0.02446000  0.10335000  1.0
  O  O138  1  0.88343000  0.82406000  0.35027000  1.0
  O  O139  1  0.15156000  0.02608000  0.18812000  1.0
  O  O140  1  0.62030000  0.07882000  0.22168000  1.0
  O  O141  1  0.12688000  0.09757000  0.98581000  1.0
  O  O142  1  0.86152000  0.14396000  0.20732000  1.0
  O  O143  1  0.62373000  0.39664000  0.52446000  1.0
  O  O144  1  0.13343000  0.14972000  0.32406000  1.0
  O  O145  1  0.40154000  0.31188000  0.52608000  1.0
  O  O146  1  0.12032000  0.92118000  0.77832000  1.0
  O  O147  1  0.62688000  0.90243000  0.01419000  1.0
  O  O148  1  0.36152000  0.85604000  0.79267000  1.0
  O  O149  1  0.12372000  0.60336000  0.47554000  1.0
  O  O150  1  0.63343000  0.85028000  0.67593000  1.0
  O  O151  1  0.90154000  0.68812000  0.47392000  1.0
