# generated using pymatgen
data_NiH12C17(NO)5
_symmetry_space_group_name_H-M   'P 1'
_cell_length_a   8.48999000
_cell_length_b   10.96390000
_cell_length_c   11.20410000
_cell_angle_alpha   77.32790000
_cell_angle_beta   81.49280000
_cell_angle_gamma   68.59900000
_symmetry_Int_Tables_number   1
_chemical_formula_structural   NiH12C17(NO)5
_chemical_formula_sum   'Ni2 H24 C34 N10 O10'
_cell_volume   944.70453798
_cell_formula_units_Z   2
loop_
 _symmetry_equiv_pos_site_id
 _symmetry_equiv_pos_as_xyz
  1  'x, y, z'
loop_
 _atom_site_type_symbol
 _atom_site_label
 _atom_site_symmetry_multiplicity
 _atom_site_fract_x
 _atom_site_fract_y
 _atom_site_fract_z
 _atom_site_occupancy
  Ni  Ni0  1  0.50000000  0.50000000  0.50000000  1.0
  Ni  Ni1  1  0.50000000  0.00000000  0.50000000  1.0
  H  H2  1  0.80587000  0.75716000  0.47472000  1.0
  H  H3  1  0.19414000  0.24285000  0.52527000  1.0
  H  H4  1  0.03319000  0.59149000  0.60324000  1.0
  H  H5  1  0.96681000  0.40850000  0.39675000  1.0
  H  H6  1  0.58917000  0.97235000  0.75269000  1.0
  H  H7  1  0.41082000  0.02764000  0.24731000  1.0
  H  H8  1  0.82037000  0.82329000  0.89139000  1.0
  H  H9  1  0.17961000  0.17670000  0.10862000  1.0
  H  H10  1  0.18946000  0.65219000  0.36882000  1.0
  H  H11  1  0.81053000  0.34782000  0.63117000  1.0
  H  H12  1  0.61433000  0.33403000  0.29070000  1.0
  H  H13  1  0.38567000  0.66598000  0.70931000  1.0
  H  H14  1  0.06975000  0.67232000  0.17033000  1.0
  H  H15  1  0.93025000  0.32768000  0.82966000  1.0
  H  H16  1  0.51107000  0.33030000  0.10102000  1.0
  H  H17  1  0.48893000  0.66970000  0.89898000  1.0
  H  H18  1  0.37926000  0.31901000  0.58308000  1.0
  H  H19  1  0.62074000  0.68099000  0.41692000  1.0
  H  H20  1  0.09383000  0.88258000  0.32258000  1.0
  H  H21  1  0.90618000  0.11742000  0.67742000  1.0
  H  H22  1  0.37327000  0.35006000  0.92284000  1.0
  H  H23  1  0.62674000  0.64995000  0.07716000  1.0
  H  H24  1  0.27795000  0.42680000  0.67321000  1.0
  H  H25  1  0.72205000  0.57320000  0.32678000  1.0
  C  C26  1  0.67067000  0.20308000  0.51478000  1.0
  C  C27  1  0.32934000  0.79691000  0.48522000  1.0
  C  C28  1  0.83874000  0.09446000  0.50738000  1.0
  C  C29  1  0.16127000  0.90553000  0.49262000  1.0
  C  C30  1  0.76924000  0.05456000  0.30883000  1.0
  C  C31  1  0.23076000  0.94544000  0.69118000  1.0
  C  C32  1  0.81092000  0.76553000  0.56893000  1.0
  C  C33  1  0.18907000  0.23447000  0.43106000  1.0
  C  C34  1  0.93794000  0.67416000  0.64090000  1.0
  C  C35  1  0.06206000  0.32584000  0.35911000  1.0
  C  C36  1  0.69224000  0.88774000  0.72408000  1.0
  C  C37  1  0.30775000  0.11225000  0.27592000  1.0
  C  C38  1  0.81726000  0.80352000  0.80084000  1.0
  C  C39  1  0.18273000  0.19647000  0.19916000  1.0
  C  C40  1  0.94238000  0.69307000  0.75981000  1.0
  C  C41  1  0.05761000  0.30692000  0.24020000  1.0
  C  C42  1  0.25669000  0.58604000  0.30414000  1.0
  C  C43  1  0.74331000  0.41397000  0.69586000  1.0
  C  C44  1  0.49302000  0.40700000  0.26312000  1.0
  C  C45  1  0.50698000  0.59300000  0.73688000  1.0
  C  C46  1  0.05155000  0.93404000  0.40082000  1.0
  C  C47  1  0.94845000  0.06596000  0.59918000  1.0
  C  C48  1  0.21278000  0.52155000  0.00012000  1.0
  C  C49  1  0.78723000  0.47846000  0.99988000  1.0
  C  C50  1  0.28084000  0.50561000  0.11667000  1.0
  C  C51  1  0.71917000  0.49439000  0.88332000  1.0
  C  C52  1  0.19040000  0.59587000  0.19524000  1.0
  C  C53  1  0.80960000  0.40413000  0.80475000  1.0
  C  C54  1  0.88884000  0.02852000  0.40676000  1.0
  C  C55  1  0.11116000  0.97148000  0.59325000  1.0
  C  C56  1  0.43354000  0.40703000  0.15386000  1.0
  C  C57  1  0.56647000  0.59297000  0.84614000  1.0
  C  C58  1  0.07069000  0.60197000  0.84212000  1.0
  C  C59  1  0.92930000  0.39802000  0.15788000  1.0
  N  N60  1  0.68885000  0.86965000  0.60951000  1.0
  N  N61  1  0.31114000  0.13034000  0.39049000  1.0
  N  N62  1  0.40859000  0.49593000  0.33672000  1.0
  N  N63  1  0.59142000  0.50407000  0.66328000  1.0
  N  N64  1  0.18789000  0.48723000  0.81609000  1.0
  N  N65  1  0.81211000  0.51276000  0.18391000  1.0
  N  N66  1  0.27595000  0.43837000  0.91711000  1.0
  N  N67  1  0.72406000  0.56163000  0.08289000  1.0
  N  N68  1  0.08162000  0.62479000  0.95476000  1.0
  N  N69  1  0.91839000  0.37521000  0.04524000  1.0
  O  O70  1  0.78605000  0.12724000  0.20856000  1.0
  O  O71  1  0.21394000  0.87279000  0.79147000  1.0
  O  O72  1  0.31611000  0.41491000  0.58696000  1.0
  O  O73  1  0.68388000  0.58509000  0.41304000  1.0
  O  O74  1  0.67991000  0.31912000  0.49726000  1.0
  O  O75  1  0.32011000  0.68088000  0.50274000  1.0
  O  O76  1  0.65868000  0.99529000  0.33748000  1.0
  O  O77  1  0.34132000  0.00471000  0.66252000  1.0
  O  O78  1  0.53254000  0.17814000  0.53791000  1.0
  O  O79  1  0.46746000  0.82185000  0.46209000  1.0
