# generated using pymatgen
data_AlH3C15I2N2O5
_symmetry_space_group_name_H-M   'P 1'
_cell_length_a   6.69195000
_cell_length_b   20.20970000
_cell_length_c   20.28200000
_cell_angle_alpha   79.19400000
_cell_angle_beta   90.09100000
_cell_angle_gamma   90.05210000
_symmetry_Int_Tables_number   1
_chemical_formula_structural   AlH3C15I2N2O5
_chemical_formula_sum   'Al4 H12 C60 I8 N8 O20'
_cell_volume   2694.34081356
_cell_formula_units_Z   4
loop_
 _symmetry_equiv_pos_site_id
 _symmetry_equiv_pos_as_xyz
  1  'x, y, z'
loop_
 _atom_site_type_symbol
 _atom_site_label
 _atom_site_symmetry_multiplicity
 _atom_site_fract_x
 _atom_site_fract_y
 _atom_site_fract_z
 _atom_site_occupancy
  Al  Al0  1  0.72275000  0.24826000  0.25037000  1.0
  Al  Al1  1  0.27726000  0.75176000  0.74963000  1.0
  Al  Al2  1  0.22275000  0.25168000  0.24954000  1.0
  Al  Al3  1  0.77726000  0.74833000  0.75046000  1.0
  H  H4  1  0.93314000  0.43652000  0.61317000  1.0
  H  H5  1  0.06686000  0.56347000  0.38685000  1.0
  H  H6  1  0.43496000  0.06334000  0.88664000  1.0
  H  H7  1  0.56504000  0.93664000  0.11338000  1.0
  H  H8  1  0.65359000  0.45825000  0.50671000  1.0
  H  H9  1  0.34641000  0.54174000  0.49330000  1.0
  H  H10  1  0.15360000  0.04161000  0.99231000  1.0
  H  H11  1  0.84640000  0.95837000  0.00771000  1.0
  H  H12  1  0.47555000  0.27294000  0.32740000  1.0
  H  H13  1  0.52445000  0.72705000  0.67260000  1.0
  H  H14  1  0.97472000  0.22701000  0.17249000  1.0
  H  H15  1  0.02529000  0.77300000  0.82750000  1.0
  C  C16  1  0.46924000  0.16773000  0.17866000  1.0
  C  C17  1  0.53078000  0.83228000  0.82133000  1.0
  C  C18  1  0.97059000  0.33221000  0.32123000  1.0
  C  C19  1  0.02943000  0.66778000  0.67878000  1.0
  C  C20  1  0.47691000  0.34666000  0.15986000  1.0
  C  C21  1  0.52310000  0.65337000  0.84015000  1.0
  C  C22  1  0.97706000  0.15326000  0.34002000  1.0
  C  C23  1  0.02294000  0.84674000  0.65995000  1.0
  C  C24  1  0.01422000  0.90948000  0.60632000  1.0
  C  C25  1  0.98578000  0.09051000  0.39365000  1.0
  C  C26  1  0.51452000  0.59062000  0.89378000  1.0
  C  C27  1  0.48547000  0.40941000  0.10623000  1.0
  C  C28  1  0.02931000  0.96807000  0.41859000  1.0
  C  C29  1  0.97067000  0.03192000  0.58139000  1.0
  C  C30  1  0.52796000  0.53193000  0.08148000  1.0
  C  C31  1  0.47201000  0.46810000  0.91852000  1.0
  C  C32  1  0.00614000  0.02838000  0.37195000  1.0
  C  C33  1  0.99386000  0.97161000  0.62802000  1.0
  C  C34  1  0.50481000  0.47155000  0.12801000  1.0
  C  C35  1  0.49519000  0.52848000  0.87200000  1.0
  C  C36  1  0.99142000  0.09296000  0.46140000  1.0
  C  C37  1  0.00855000  0.90702000  0.53857000  1.0
  C  C38  1  0.49195000  0.40701000  0.03849000  1.0
  C  C39  1  0.50800000  0.59303000  0.96152000  1.0
  C  C40  1  0.99051000  0.03219000  0.51104000  1.0
  C  C41  1  0.00946000  0.96780000  0.48894000  1.0
  C  C42  1  0.49095000  0.46782000  0.98891000  1.0
  C  C43  1  0.50899000  0.53221000  0.01109000  1.0
  C  C44  1  0.12525000  0.44740000  0.51371000  1.0
  C  C45  1  0.87477000  0.55259000  0.48631000  1.0
  C  C46  1  0.62537000  0.05264000  0.98664000  1.0
  C  C47  1  0.37462000  0.94734000  0.01338000  1.0
  C  C48  1  0.96137000  0.46432000  0.56248000  1.0
  C  C49  1  0.03864000  0.53567000  0.43753000  1.0
  C  C50  1  0.46233000  0.03562000  0.93743000  1.0
  C  C51  1  0.53767000  0.96435000  0.06259000  1.0
  C  C52  1  0.03512000  0.62101000  0.63388000  1.0
  C  C53  1  0.96488000  0.37899000  0.36613000  1.0
  C  C54  1  0.53686000  0.87904000  0.86624000  1.0
  C  C55  1  0.46316000  0.12096000  0.13376000  1.0
  C  C56  1  0.19326000  0.52270000  0.49636000  1.0
  C  C57  1  0.80675000  0.47729000  0.50365000  1.0
  C  C58  1  0.69326000  0.97735000  0.00420000  1.0
  C  C59  1  0.30674000  0.02263000  0.99582000  1.0
  C  C60  1  0.03059000  0.54054000  0.54663000  1.0
  C  C61  1  0.96942000  0.45945000  0.45338000  1.0
  C  C62  1  0.53140000  0.95945000  0.95350000  1.0
  C  C63  1  0.46860000  0.04053000  0.04652000  1.0
  C  C64  1  0.04524000  0.58274000  0.59430000  1.0
  C  C65  1  0.95477000  0.41725000  0.40571000  1.0
  C  C66  1  0.54663000  0.91728000  0.90586000  1.0
  C  C67  1  0.45337000  0.08271000  0.09415000  1.0
  C  C68  1  0.98429000  0.97137000  0.69842000  1.0
  C  C69  1  0.01575000  0.02862000  0.30155000  1.0
  C  C70  1  0.48654000  0.52876000  0.80157000  1.0
  C  C71  1  0.51350000  0.47126000  0.19845000  1.0
  C  C72  1  0.09162000  0.91204000  0.39003000  1.0
  C  C73  1  0.90838000  0.08795000  0.60995000  1.0
  C  C74  1  0.58905000  0.58802000  0.11025000  1.0
  C  C75  1  0.41093000  0.41201000  0.88974000  1.0
  I  I76  1  0.96828000  0.81004000  0.51609000  1.0
  I  I77  1  0.03167000  0.18995000  0.48389000  1.0
  I  I78  1  0.46652000  0.68992000  0.98402000  1.0
  I  I79  1  0.53337000  0.31011000  0.01599000  1.0
  I  I80  1  0.31168000  0.36131000  0.53384000  1.0
  I  I81  1  0.68832000  0.63868000  0.46618000  1.0
  I  I82  1  0.81211000  0.13878000  0.96706000  1.0
  I  I83  1  0.18790000  0.86119000  0.03295000  1.0
  N  N84  1  0.97882000  0.96916000  0.75635000  1.0
  N  N85  1  0.02125000  0.03083000  0.24362000  1.0
  N  N86  1  0.48182000  0.53098000  0.74362000  1.0
  N  N87  1  0.51822000  0.46904000  0.25638000  1.0
  N  N88  1  0.15535000  0.87448000  0.35792000  1.0
  N  N89  1  0.84467000  0.12551000  0.64207000  1.0
  N  N90  1  0.65159000  0.62563000  0.14263000  1.0
  N  N91  1  0.34837000  0.37439000  0.85738000  1.0
  O  O92  1  0.30406000  0.32607000  0.17885000  1.0
  O  O93  1  0.69596000  0.67394000  0.82115000  1.0
  O  O94  1  0.80413000  0.17375000  0.32095000  1.0
  O  O95  1  0.19588000  0.82625000  0.67903000  1.0
  O  O96  1  0.64088000  0.18489000  0.19717000  1.0
  O  O97  1  0.35913000  0.81514000  0.80281000  1.0
  O  O98  1  0.14198000  0.31518000  0.30264000  1.0
  O  O99  1  0.85803000  0.68481000  0.69737000  1.0
  O  O100  1  0.64532000  0.32302000  0.18043000  1.0
  O  O101  1  0.35470000  0.67702000  0.81959000  1.0
  O  O102  1  0.14538000  0.17701000  0.31956000  1.0
  O  O103  1  0.85463000  0.82299000  0.68043000  1.0
  O  O104  1  0.80263000  0.31060000  0.30459000  1.0
  O  O105  1  0.19738000  0.68940000  0.69542000  1.0
  O  O106  1  0.30150000  0.18922000  0.19538000  1.0
  O  O107  1  0.69851000  0.81079000  0.80460000  1.0
  O  O108  1  0.47264000  0.24893000  0.29016000  1.0
  O  O109  1  0.52737000  0.75107000  0.70984000  1.0
  O  O110  1  0.97227000  0.25102000  0.20974000  1.0
  O  O111  1  0.02773000  0.74900000  0.79025000  1.0
