# generated using pymatgen
data_CoH6C3O2
_symmetry_space_group_name_H-M   'P 1'
_cell_length_a   10.37450000
_cell_length_b   11.04845247
_cell_length_c   11.11503523
_cell_angle_alpha   117.13293387
_cell_angle_beta   95.08215182
_cell_angle_gamma   115.05764062
_symmetry_Int_Tables_number   1
_chemical_formula_structural   CoH6C3O2
_chemical_formula_sum   'Co8 H48 C24 O16'
_cell_volume   962.34958624
_cell_formula_units_Z   8
loop_
 _symmetry_equiv_pos_site_id
 _symmetry_equiv_pos_as_xyz
  1  'x, y, z'
loop_
 _atom_site_type_symbol
 _atom_site_label
 _atom_site_symmetry_multiplicity
 _atom_site_fract_x
 _atom_site_fract_y
 _atom_site_fract_z
 _atom_site_occupancy
  Co  Co0  1  0.21949000  0.37109000  0.54510000  1.0
  Co  Co1  1  0.05788000  0.85710000  0.88321000  1.0
  Co  Co2  1  0.15938000  0.61495000  0.77771000  1.0
  Co  Co3  1  0.08525000  0.13127000  0.20827000  1.0
  Co  Co4  1  0.16117000  0.35918000  0.81996000  1.0
  Co  Co5  1  0.05059000  0.15928000  0.93949000  1.0
  Co  Co6  1  0.83089000  0.85449000  0.94593000  1.0
  Co  Co7  1  0.47202000  0.60712000  0.81651000  1.0
  H  H8  1  0.24348000  0.12425000  0.61004000  1.0
  H  H9  1  0.95875000  0.85482000  0.60716000  1.0
  H  H10  1  0.48753000  0.82048000  0.10730000  1.0
  H  H11  1  0.75887000  0.12055000  0.13985000  1.0
  H  H12  1  0.88598000  0.14426000  0.54094000  1.0
  H  H13  1  0.36614000  0.11721000  0.99186000  1.0
  H  H14  1  0.83159000  0.79831000  0.24292000  1.0
  H  H15  1  0.30905000  0.78941000  0.65363000  1.0
  H  H16  1  0.41251000  0.25889000  0.76484000  1.0
  H  H17  1  0.79702000  0.86808000  0.63201000  1.0
  H  H18  1  0.40430000  0.65086000  0.11949000  1.0
  H  H19  1  0.77020000  0.16753000  0.00674000  1.0
  H  H20  1  0.87481000  0.29015000  0.52008000  1.0
  H  H21  1  0.37824000  0.15727000  0.16811000  1.0
  H  H22  1  0.02704000  0.87128000  0.26589000  1.0
  H  H23  1  0.27352000  0.61876000  0.48850000  1.0
  H  H24  1  0.43088000  0.18024000  0.35530000  1.0
  H  H25  1  0.80816000  0.45150000  0.53991000  1.0
  H  H26  1  0.19493000  0.91888000  0.15648000  1.0
  H  H27  1  0.06072000  0.50665000  0.44705000  1.0
  H  H28  1  0.78026000  0.23943000  0.86670000  1.0
  H  H29  1  0.46026000  0.51158000  0.07723000  1.0
  H  H30  1  0.68168000  0.44002000  0.86964000  1.0
  H  H31  1  0.71977000  0.97546000  0.80228000  1.0
  H  H32  1  0.28394000  0.03703000  0.37295000  1.0
  H  H33  1  0.93866000  0.59524000  0.51113000  1.0
  H  H34  1  0.37325000  0.96780000  0.13250000  1.0
  H  H35  1  0.89780000  0.31872000  0.38093000  1.0
  H  H36  1  0.76563000  0.08227000  0.70383000  1.0
  H  H37  1  0.42417000  0.32041000  0.94714000  1.0
  H  H38  1  0.63424000  0.53784000  0.02002000  1.0
  H  H39  1  0.55453000  0.95054000  0.84750000  1.0
  H  H40  1  0.53070000  0.37739000  0.61902000  1.0
  H  H41  1  0.70606000  0.62573000  0.65479000  1.0
  H  H42  1  0.15360000  0.64074000  0.07686000  1.0
  H  H43  1  0.03854000  0.41115000  0.18330000  1.0
  H  H44  1  0.87624000  0.42184000  0.78090000  1.0
  H  H45  1  0.35127000  0.39648000  0.22513000  1.0
  H  H46  1  0.94797000  0.67553000  0.99545000  1.0
  H  H47  1  0.53765000  0.69023000  0.56704000  1.0
  H  H48  1  0.50802000  0.19286000  0.57678000  1.0
  H  H49  1  0.70128000  0.58547000  0.47974000  1.0
  H  H50  1  0.30151000  0.80646000  0.24324000  1.0
  H  H51  1  0.88099000  0.41926000  0.22839000  1.0
  H  H52  1  0.70769000  0.24097000  0.64788000  1.0
  H  H53  1  0.52310000  0.40911000  0.20454000  1.0
  H  H54  1  0.88953000  0.58468000  0.09357000  1.0
  H  H55  1  0.52959000  0.85247000  0.57826000  1.0
  C  C56  1  0.34964000  0.24276000  0.66827000  1.0
  C  C57  1  0.86953000  0.82610000  0.65456000  1.0
  C  C58  1  0.37952000  0.70967000  0.07122000  1.0
  C  C59  1  0.83884000  0.18130000  0.09856000  1.0
  C  C60  1  0.91066000  0.26812000  0.60005000  1.0
  C  C61  1  0.33258000  0.17052000  0.08500000  1.0
  C  C62  1  0.91493000  0.81651000  0.18725000  1.0
  C  C63  1  0.34080000  0.69862000  0.60468000  1.0
  C  C64  1  0.35209000  0.16624000  0.41584000  1.0
  C  C65  1  0.87941000  0.58085000  0.58588000  1.0
  C  C66  1  0.25601000  0.86828000  0.09516000  1.0
  C  C67  1  0.00005000  0.37960000  0.35941000  1.0
  C  C68  1  0.83390000  0.21252000  0.78409000  1.0
  C  C69  1  0.38460000  0.38283000  0.03010000  1.0
  C  C70  1  0.70727000  0.55861000  0.95683000  1.0
  C  C71  1  0.60638000  0.88537000  0.78469000  1.0
  C  C72  1  0.44523000  0.25108000  0.57315000  1.0
  C  C73  1  0.77761000  0.64798000  0.59102000  1.0
  C  C74  1  0.26547000  0.75098000  0.12533000  1.0
  C  C75  1  0.94373000  0.35722000  0.21594000  1.0
  C  C76  1  0.82762000  0.29287000  0.70590000  1.0
  C  C77  1  0.40062000  0.34717000  0.14555000  1.0
  C  C78  1  0.87184000  0.65552000  0.05633000  1.0
  C  C79  1  0.50801000  0.78020000  0.62576000  1.0
  O  O80  1  0.31072000  0.36217000  0.71179000  1.0
  O  O81  1  0.93989000  0.91391000  0.80762000  1.0
  O  O82  1  0.32556000  0.60827000  0.91765000  1.0
  O  O83  1  0.92235000  0.10555000  0.05087000  1.0
  O  O84  1  0.07094000  0.37561000  0.67318000  1.0
  O  O85  1  0.16939000  0.08478000  0.03970000  1.0
  O  O86  1  0.91687000  0.92276000  0.14806000  1.0
  O  O87  1  0.30373000  0.60906000  0.67095000  1.0
  O  O88  1  0.25558000  0.21884000  0.39361000  1.0
  O  O89  1  0.98725000  0.65316000  0.72143000  1.0
  O  O90  1  0.18213000  0.79922000  0.94743000  1.0
  O  O91  1  0.09510000  0.31956000  0.36387000  1.0
  O  O92  1  0.98264000  0.25686000  0.85132000  1.0
  O  O93  1  0.23439000  0.33669000  0.96756000  1.0
  O  O94  1  0.67310000  0.63450000  0.89614000  1.0
  O  O95  1  0.62570000  0.79757000  0.83723000  1.0
