# generated using pymatgen
data_SmH7C8NO8
_symmetry_space_group_name_H-M   'P 1'
_cell_length_a   5.93035000
_cell_length_b   10.44353132
_cell_length_c   10.85405059
_cell_angle_alpha   65.99548716
_cell_angle_beta   89.03010871
_cell_angle_gamma   73.78640494
_symmetry_Int_Tables_number   1
_chemical_formula_structural   SmH7C8NO8
_chemical_formula_sum   'Sm2 H14 C16 N2 O16'
_cell_volume   586.07825159
_cell_formula_units_Z   2
loop_
 _symmetry_equiv_pos_site_id
 _symmetry_equiv_pos_as_xyz
  1  'x, y, z'
loop_
 _atom_site_type_symbol
 _atom_site_label
 _atom_site_symmetry_multiplicity
 _atom_site_fract_x
 _atom_site_fract_y
 _atom_site_fract_z
 _atom_site_occupancy
  Sm  Sm0  1  0.46287000  0.22420000  0.45564000  1.0
  Sm  Sm1  1  0.53712000  0.77582000  0.54436000  1.0
  H  H2  1  0.51739000  0.90794000  0.92504000  1.0
  H  H3  1  0.48264000  0.09205000  0.07497000  1.0
  H  H4  1  0.31733000  0.56342000  0.01887000  1.0
  H  H5  1  0.68269000  0.43657000  0.98114000  1.0
  H  H6  1  0.67602000  0.70006000  0.15373000  1.0
  H  H7  1  0.32398000  0.29993000  0.84627000  1.0
  H  H8  1  0.07836000  0.47739000  0.23570000  1.0
  H  H9  1  0.92164000  0.52262000  0.76428000  1.0
  H  H10  1  0.95448000  0.39182000  0.36448000  1.0
  H  H11  1  0.04551000  0.60819000  0.63551000  1.0
  H  H12  1  0.02793000  0.19027000  0.62080000  1.0
  H  H13  1  0.97208000  0.80971000  0.37923000  1.0
  H  H14  1  0.16351000  0.04055000  0.61730000  1.0
  H  H15  1  0.83651000  0.95945000  0.38270000  1.0
  C  C16  1  0.69678000  0.83433000  0.94253000  1.0
  C  C17  1  0.30323000  0.16566000  0.05747000  1.0
  C  C18  1  0.84172000  0.85377000  0.83738000  1.0
  C  C19  1  0.15829000  0.14621000  0.16263000  1.0
  C  C20  1  0.07112000  0.75608000  0.86382000  1.0
  C  C21  1  0.92888000  0.24390000  0.13619000  1.0
  C  C22  1  0.14190000  0.64307000  0.99433000  1.0
  C  C23  1  0.85811000  0.35691000  0.00568000  1.0
  C  C24  1  0.73688000  0.97716000  0.70171000  1.0
  C  C25  1  0.26314000  0.02284000  0.29829000  1.0
  C  C26  1  0.23794000  0.76602000  0.75795000  1.0
  C  C27  1  0.76206000  0.23397000  0.24205000  1.0
  C  C28  1  0.39076000  0.49729000  0.53986000  1.0
  C  C29  1  0.60920000  0.50275000  0.46012000  1.0
  C  C30  1  0.78337000  0.71882000  0.06898000  1.0
  C  C31  1  0.21662000  0.28117000  0.93102000  1.0
  N  N32  1  0.00212000  0.62445000  0.09424000  1.0
  N  N33  1  0.99789000  0.37554000  0.90576000  1.0
  O  O34  1  0.73267000  0.10664000  0.67840000  1.0
  O  O35  1  0.26735000  0.89337000  0.32161000  1.0
  O  O36  1  0.63231000  0.94974000  0.61730000  1.0
  O  O37  1  0.36767000  0.05028000  0.38271000  1.0
  O  O38  1  0.17098000  0.87100000  0.63822000  1.0
  O  O39  1  0.82901000  0.12900000  0.36178000  1.0
  O  O40  1  0.43998000  0.67176000  0.78616000  1.0
  O  O41  1  0.56002000  0.32823000  0.21383000  1.0
  O  O42  1  0.10731000  0.38427000  0.32414000  1.0
  O  O43  1  0.89270000  0.61571000  0.67585000  1.0
  O  O44  1  0.18292000  0.13542000  0.60911000  1.0
  O  O45  1  0.81709000  0.86459000  0.39089000  1.0
  O  O46  1  0.31176000  0.39043000  0.56641000  1.0
  O  O47  1  0.68820000  0.60962000  0.43357000  1.0
  O  O48  1  0.30845000  0.60458000  0.57254000  1.0
  O  O49  1  0.69153000  0.39545000  0.42745000  1.0
