# generated using pymatgen
data_CdH36C38S2(N2O3)2
_symmetry_space_group_name_H-M   'P 1'
_cell_length_a   8.79933000
_cell_length_b   10.83470000
_cell_length_c   11.24890000
_cell_angle_alpha   113.77100000
_cell_angle_beta   93.70720000
_cell_angle_gamma   106.78100000
_symmetry_Int_Tables_number   1
_chemical_formula_structural   CdH36C38S2(N2O3)2
_chemical_formula_sum   'Cd1 H36 C38 S2 N4 O6'
_cell_volume   919.39516144
_cell_formula_units_Z   1
loop_
 _symmetry_equiv_pos_site_id
 _symmetry_equiv_pos_as_xyz
  1  'x, y, z'
loop_
 _atom_site_type_symbol
 _atom_site_label
 _atom_site_symmetry_multiplicity
 _atom_site_fract_x
 _atom_site_fract_y
 _atom_site_fract_z
 _atom_site_occupancy
  Cd  Cd0  1  0.50000000  0.50000000  0.00000000  1.0
  H  H1  1  0.99426000  0.15889000  0.16778000  1.0
  H  H2  1  0.00573000  0.84112000  0.83222000  1.0
  H  H3  1  0.43008000  0.52026000  0.39009000  1.0
  H  H4  1  0.56992000  0.47974000  0.60991000  1.0
  H  H5  1  0.28153000  0.63500000  0.54988000  1.0
  H  H6  1  0.71848000  0.36501000  0.45013000  1.0
  H  H7  1  0.83965000  0.27381000  0.32532000  1.0
  H  H8  1  0.16036000  0.72620000  0.67470000  1.0
  H  H9  1  0.32059000  0.46781000  0.72674000  1.0
  H  H10  1  0.67942000  0.53218000  0.27326000  1.0
  H  H11  1  0.22173000  0.29819000  0.48689000  1.0
  H  H12  1  0.77828000  0.70181000  0.51311000  1.0
  H  H13  1  0.37600000  0.99228000  0.56947000  1.0
  H  H14  1  0.62399000  0.00772000  0.43053000  1.0
  H  H15  1  0.46063000  0.17131000  0.80816000  1.0
  H  H16  1  0.53936000  0.82868000  0.19185000  1.0
  H  H17  1  0.30209000  0.95129000  0.33710000  1.0
  H  H18  1  0.69792000  0.04871000  0.66290000  1.0
  H  H19  1  0.26548000  0.08625000  0.30199000  1.0
  H  H20  1  0.73453000  0.91375000  0.69801000  1.0
  H  H21  1  0.98723000  0.02052000  0.36029000  1.0
  H  H22  1  0.01277000  0.97948000  0.63971000  1.0
  H  H23  1  0.02514000  0.87843000  0.38065000  1.0
  H  H24  1  0.97485000  0.12157000  0.61934000  1.0
  H  H25  1  0.86379000  0.78477000  0.15569000  1.0
  H  H26  1  0.13621000  0.21523000  0.84430000  1.0
  H  H27  1  0.99904000  0.91931000  0.12559000  1.0
  H  H28  1  0.00097000  0.08069000  0.87441000  1.0
  H  H29  1  0.18967000  0.85808000  0.99980000  1.0
  H  H30  1  0.81033000  0.14192000  0.00020000  1.0
  H  H31  1  0.35438000  0.70125000  0.91288000  1.0
  H  H32  1  0.64563000  0.29875000  0.08711000  1.0
  H  H33  1  0.19805000  0.48442000  0.13804000  1.0
  H  H34  1  0.80195000  0.51558000  0.86195000  1.0
  H  H35  1  0.02135000  0.62778000  0.22911000  1.0
  H  H36  1  0.97865000  0.37222000  0.77088000  1.0
  C  C37  1  0.05511000  0.26458000  0.25069000  1.0
  C  C38  1  0.94489000  0.73543000  0.74932000  1.0
  C  C39  1  0.29993000  0.46777000  0.37479000  1.0
  C  C40  1  0.70008000  0.53224000  0.62522000  1.0
  C  C41  1  0.21373000  0.53269000  0.46521000  1.0
  C  C42  1  0.78628000  0.46732000  0.53480000  1.0
  C  C43  1  0.04576000  0.46579000  0.45106000  1.0
  C  C44  1  0.95424000  0.53421000  0.54895000  1.0
  C  C45  1  0.96910000  0.33045000  0.34133000  1.0
  C  C46  1  0.03091000  0.66955000  0.65868000  1.0
  C  C47  1  0.22121000  0.33333333  0.26691000  1.0
  C  C48  1  0.77879000  0.66666667  0.73309000  1.0
  C  C49  1  0.32742000  0.36004000  0.68862000  1.0
  C  C50  1  0.67258000  0.63995000  0.31138000  1.0
  C  C51  1  0.27437000  0.26566000  0.55456000  1.0
  C  C52  1  0.72563000  0.73434000  0.44544000  1.0
  C  C53  1  0.29266000  0.13083000  0.50683000  1.0
  C  C54  1  0.70734000  0.86916000  0.49317000  1.0
  C  C55  1  0.36055000  0.09639000  0.60025000  1.0
  C  C56  1  0.63945000  0.90360000  0.39975000  1.0
  C  C57  1  0.40879000  0.19589000  0.73326000  1.0
  C  C58  1  0.59121000  0.80411000  0.26674000  1.0
  C  C59  1  0.23662000  0.02793000  0.36270000  1.0
  C  C60  1  0.76338000  0.97207000  0.63730000  1.0
  C  C61  1  0.05316000  0.94457000  0.32664000  1.0
  C  C62  1  0.94684000  0.05543000  0.67335000  1.0
  C  C63  1  0.99213000  0.85072000  0.17643000  1.0
  C  C64  1  0.00787000  0.14928000  0.82356000  1.0
  C  C65  1  0.08856000  0.75480000  0.11991000  1.0
  C  C66  1  0.91144000  0.24520000  0.88008000  1.0
  C  C67  1  0.18376000  0.77284000  0.02917000  1.0
  C  C68  1  0.81624000  0.22716000  0.97082000  1.0
  C  C69  1  0.27760000  0.68696000  0.98215000  1.0
  C  C70  1  0.72240000  0.31304000  0.01784000  1.0
  C  C71  1  0.19075000  0.56716000  0.10874000  1.0
  C  C72  1  0.80925000  0.43284000  0.89126000  1.0
  C  C73  1  0.09302000  0.64806000  0.15911000  1.0
  C  C74  1  0.90698000  0.35194000  0.84088000  1.0
  S  S75  1  0.33386000  0.25022000  0.15166000  1.0
  S  S76  1  0.66613000  0.74978000  0.84834000  1.0
  N  N77  1  0.39458000  0.32655000  0.77716000  1.0
  N  N78  1  0.60541000  0.67344000  0.22284000  1.0
  N  N79  1  0.28262000  0.58604000  0.02184000  1.0
  N  N80  1  0.71738000  0.41395000  0.97815000  1.0
  O  O81  1  0.23294000  0.09908000  0.07795000  1.0
  O  O82  1  0.76705000  0.90092000  0.92205000  1.0
  O  O83  1  0.35374000  0.32535000  0.06522000  1.0
  O  O84  1  0.64626000  0.67465000  0.93478000  1.0
  O  O85  1  0.48898000  0.27922000  0.23270000  1.0
  O  O86  1  0.51101000  0.72077000  0.76729000  1.0
