# generated using pymatgen
data_CoH18C20N6O5
_symmetry_space_group_name_H-M   'P 1'
_cell_length_a   8.95181000
_cell_length_b   9.61553000
_cell_length_c   12.40792561
_cell_angle_alpha   112.79249223
_cell_angle_beta   103.64347759
_cell_angle_gamma   90.01930000
_symmetry_Int_Tables_number   1
_chemical_formula_structural   CoH18C20N6O5
_chemical_formula_sum   'Co2 H36 C40 N12 O10'
_cell_volume   951.82012335
_cell_formula_units_Z   2
loop_
 _symmetry_equiv_pos_site_id
 _symmetry_equiv_pos_as_xyz
  1  'x, y, z'
loop_
 _atom_site_type_symbol
 _atom_site_label
 _atom_site_symmetry_multiplicity
 _atom_site_fract_x
 _atom_site_fract_y
 _atom_site_fract_z
 _atom_site_occupancy
  Co  Co0  1  0.00000000  0.00000000  0.00000000  1.0
  Co  Co1  1  0.50000000  0.00000000  0.00000000  1.0
  H  H2  1  0.46286000  0.19984000  0.34154000  1.0
  H  H3  1  0.03708000  0.85818000  0.65845000  1.0
  H  H4  1  0.53714000  0.80015000  0.65845000  1.0
  H  H5  1  0.96292000  0.14182000  0.34155000  1.0
  H  H6  1  0.46565000  0.31622000  0.55861000  1.0
  H  H7  1  0.03379000  0.75769000  0.44126000  1.0
  H  H8  1  0.53435000  0.68379000  0.44139000  1.0
  H  H9  1  0.96620000  0.24231000  0.55874000  1.0
  H  H10  1  0.82844000  0.04794000  0.63666000  1.0
  H  H11  1  0.67110000  0.41122000  0.36345000  1.0
  H  H12  1  0.17156000  0.95205000  0.36334000  1.0
  H  H13  1  0.32890000  0.58877000  0.63654000  1.0
  H  H14  1  0.82278000  0.93075000  0.41904000  1.0
  H  H15  1  0.67728000  0.51137000  0.58121000  1.0
  H  H16  1  0.17722000  0.06925000  0.58096000  1.0
  H  H17  1  0.32272000  0.48863000  0.41879000  1.0
  H  H18  1  0.53512000  0.23472000  0.75618000  1.0
  H  H19  1  0.96447000  0.47985000  0.24380000  1.0
  H  H20  1  0.46488000  0.76528000  0.24382000  1.0
  H  H21  1  0.03553000  0.52016000  0.75621000  1.0
  H  H22  1  0.64700000  0.39498000  0.76996000  1.0
  H  H23  1  0.85170000  0.62578000  0.23027000  1.0
  H  H24  1  0.35300000  0.60502000  0.23004000  1.0
  H  H25  1  0.14830000  0.37422000  0.76973000  1.0
  H  H26  1  0.69703000  0.03178000  0.82545000  1.0
  H  H27  1  0.80283000  0.20669000  0.17463000  1.0
  H  H28  1  0.30297000  0.96822000  0.17455000  1.0
  H  H29  1  0.19718000  0.79331000  0.82537000  1.0
  H  H30  1  0.09522000  0.34252000  0.02049000  1.0
  H  H31  1  0.40481000  0.32163000  0.97891000  1.0
  H  H32  1  0.90477000  0.65748000  0.97951000  1.0
  H  H33  1  0.59519000  0.67837000  0.02109000  1.0
  H  H34  1  0.23875000  0.08684000  0.92599000  1.0
  H  H35  1  0.26105000  0.16108000  0.07385000  1.0
  H  H36  1  0.76125000  0.91316000  0.07401000  1.0
  H  H37  1  0.73895000  0.83892000  0.92615000  1.0
  C  C38  1  0.64495000  0.99130000  0.23556000  1.0
  C  C39  1  0.85533000  0.75543000  0.76458000  1.0
  C  C40  1  0.35506000  0.00869000  0.76444000  1.0
  C  C41  1  0.14467000  0.24457000  0.23542000  1.0
  C  C42  1  0.64294000  0.05731000  0.36622000  1.0
  C  C43  1  0.85706000  0.69080000  0.63385000  1.0
  C  C44  1  0.35706000  0.94269000  0.63378000  1.0
  C  C45  1  0.14294000  0.30920000  0.36615000  1.0
  C  C46  1  0.54187000  0.16604000  0.40643000  1.0
  C  C47  1  0.95801000  0.75948000  0.59359000  1.0
  C  C48  1  0.45814000  0.83396000  0.59357000  1.0
  C  C49  1  0.04199000  0.24052000  0.40641000  1.0
  C  C50  1  0.54501000  0.23220000  0.52831000  1.0
  C  C51  1  0.95461000  0.70390000  0.47168000  1.0
  C  C52  1  0.45500000  0.76779000  0.47168000  1.0
  C  C53  1  0.04538000  0.29611000  0.52832000  1.0
  C  C54  1  0.64871000  0.19256000  0.61304000  1.0
  C  C55  1  0.85081000  0.57958000  0.38698000  1.0
  C  C56  1  0.35129000  0.80744000  0.38696000  1.0
  C  C57  1  0.14919000  0.42044000  0.61303000  1.0
  C  C58  1  0.74771000  0.08234000  0.57289000  1.0
  C  C59  1  0.75196000  0.50933000  0.42717000  1.0
  C  C60  1  0.25229000  0.91765000  0.42711000  1.0
  C  C61  1  0.24804000  0.49066000  0.57282000  1.0
  C  C62  1  0.74478000  0.01554000  0.45034000  1.0
  C  C63  1  0.75515000  0.56492000  0.54978000  1.0
  C  C64  1  0.25522000  0.98446000  0.54966000  1.0
  C  C65  1  0.24485000  0.43508000  0.45022000  1.0
  C  C66  1  0.64382000  0.27186000  0.74380000  1.0
  C  C67  1  0.85550000  0.52859000  0.25618000  1.0
  C  C68  1  0.35618000  0.72814000  0.25620000  1.0
  C  C69  1  0.14450000  0.47141000  0.74382000  1.0
  C  C70  1  0.78583000  0.12589000  0.85827000  1.0
  C  C71  1  0.71401000  0.26782000  0.14165000  1.0
  C  C72  1  0.21417000  0.87411000  0.14173000  1.0
  C  C73  1  0.28599000  0.73218000  0.85835000  1.0
  C  C74  1  0.98578000  0.28723000  0.95698000  1.0
  C  C75  1  0.51415000  0.33006000  0.04259000  1.0
  C  C76  1  0.01422000  0.71277000  0.04302000  1.0
  C  C77  1  0.48584000  0.66994000  0.95741000  1.0
  N  N78  1  0.77038000  0.24715000  0.82967000  1.0
  N  N79  1  0.72926000  0.41766000  0.17021000  1.0
  N  N80  1  0.22962000  0.75285000  0.17033000  1.0
  N  N81  1  0.27074000  0.58233000  0.82978000  1.0
  N  N82  1  0.89661000  0.35089000  0.89098000  1.0
  N  N83  1  0.60312000  0.45985000  0.10866000  1.0
  N  N84  1  0.10339000  0.64911000  0.10902000  1.0
  N  N85  1  0.39688000  0.54015000  0.89134000  1.0
  N  N86  1  0.92205000  0.14780000  0.93901000  1.0
  N  N87  1  0.57796000  0.20875000  0.06069000  1.0
  N  N88  1  0.07795000  0.85220000  0.06099000  1.0
  N  N89  1  0.42205000  0.79125000  0.93931000  1.0
  O  O90  1  0.53236000  0.02417000  0.16556000  1.0
  O  O91  1  0.96789000  0.85837000  0.83443000  1.0
  O  O92  1  0.46764000  0.97583000  0.83444000  1.0
  O  O93  1  0.03211000  0.14163000  0.16557000  1.0
  O  O94  1  0.75284000  0.91363000  0.20327000  1.0
  O  O95  1  0.74769000  0.70982000  0.79698000  1.0
  O  O96  1  0.24716000  0.08637000  0.79673000  1.0
  O  O97  1  0.25231000  0.29017000  0.20302000  1.0
  O  O98  1  0.24998000  0.06322000  0.00003000  1.0
  O  O99  1  0.75002000  0.93679000  0.99997000  1.0
