# generated using pymatgen
data_AgH10C12N5O3
_symmetry_space_group_name_H-M   'P 1'
_cell_length_a   7.89099000
_cell_length_b   9.34087000
_cell_length_c   9.91991000
_cell_angle_alpha   66.13750000
_cell_angle_beta   80.30640000
_cell_angle_gamma   69.51640000
_symmetry_Int_Tables_number   1
_chemical_formula_structural   AgH10C12N5O3
_chemical_formula_sum   'Ag2 H20 C24 N10 O6'
_cell_volume   626.09538788
_cell_formula_units_Z   2
loop_
 _symmetry_equiv_pos_site_id
 _symmetry_equiv_pos_as_xyz
  1  'x, y, z'
loop_
 _atom_site_type_symbol
 _atom_site_label
 _atom_site_symmetry_multiplicity
 _atom_site_fract_x
 _atom_site_fract_y
 _atom_site_fract_z
 _atom_site_occupancy
  Ag  Ag0  1  0.15911000  0.61056000  0.30634000  1.0
  Ag  Ag1  1  0.84089000  0.38944000  0.69366000  1.0
  H  H2  1  0.13642000  0.45091000  0.14513000  1.0
  H  H3  1  0.86358000  0.54909000  0.85487000  1.0
  H  H4  1  0.39533000  0.25997000  0.06512000  1.0
  H  H5  1  0.60467000  0.74003000  0.93488000  1.0
  H  H6  1  0.53950000  0.35460000  0.81437000  1.0
  H  H7  1  0.46050000  0.64540000  0.18563000  1.0
  H  H8  1  0.18303000  0.84945000  0.73545000  1.0
  H  H9  1  0.81697000  0.15055000  0.26455000  1.0
  H  H10  1  0.86478000  0.92473000  0.78412000  1.0
  H  H11  1  0.13522000  0.07528000  0.21588000  1.0
  H  H12  1  0.63421000  0.09153000  0.95352000  1.0
  H  H13  1  0.36579000  0.90846000  0.04648000  1.0
  H  H14  1  0.78340000  0.92085000  0.22992000  1.0
  H  H15  1  0.21660000  0.07915000  0.77008000  1.0
  H  H16  1  0.23527000  0.89252000  0.51221000  1.0
  H  H17  1  0.76473000  0.10748000  0.48779000  1.0
  H  H18  1  0.46010000  0.90744000  0.26974000  1.0
  H  H19  1  0.53990000  0.09256000  0.73026000  1.0
  H  H20  1  0.75011000  0.62106000  0.36710000  1.0
  H  H21  1  0.24989000  0.37894000  0.63290000  1.0
  C  C22  1  0.14630000  0.66264000  0.94439000  1.0
  C  C23  1  0.85370000  0.33736000  0.05561000  1.0
  C  C24  1  0.20422000  0.49727000  0.03886000  1.0
  C  C25  1  0.79578000  0.50273000  0.96114000  1.0
  C  C26  1  0.34912000  0.38891000  0.99179000  1.0
  C  C27  1  0.65088000  0.61109000  0.00821000  1.0
  C  C28  1  0.43033000  0.44122000  0.85219000  1.0
  C  C29  1  0.56967000  0.55878000  0.14781000  1.0
  C  C30  1  0.36870000  0.60693000  0.75855000  1.0
  C  C31  1  0.63129000  0.39307000  0.24145000  1.0
  C  C32  1  0.22848000  0.71935000  0.80562000  1.0
  C  C33  1  0.77151000  0.28065000  0.19438000  1.0
  C  C34  1  0.86800000  0.90539000  0.89928000  1.0
  C  C35  1  0.13199000  0.09461000  0.10072000  1.0
  C  C36  1  0.75372000  0.98513000  0.98727000  1.0
  C  C37  1  0.24628000  0.01487000  0.01273000  1.0
  C  C38  1  0.82632000  0.89876000  0.12845000  1.0
  C  C39  1  0.17368000  0.10123000  0.87155000  1.0
  C  C40  1  0.36532000  0.80611000  0.50025000  1.0
  C  C41  1  0.63468000  0.19389000  0.49975000  1.0
  C  C42  1  0.48093000  0.81109000  0.37842000  1.0
  C  C43  1  0.51907000  0.18891000  0.62158000  1.0
  C  C44  1  0.62883000  0.66666667  0.42667000  1.0
  C  C45  1  0.37117000  0.33333333  0.57333000  1.0
  N  N46  1  0.99921000  0.77779000  0.98725000  1.0
  N  N47  1  0.00079000  0.22221000  0.01275000  1.0
  N  N48  1  0.97524000  0.77276000  0.12847000  1.0
  N  N49  1  0.02476000  0.22724000  0.87153000  1.0
  N  N50  1  0.44415000  0.66466000  0.61422000  1.0
  N  N51  1  0.55585000  0.33534000  0.38578000  1.0
  N  N52  1  0.60695000  0.57793000  0.56967000  1.0
  N  N53  1  0.39305000  0.42207000  0.43033000  1.0
  N  N54  1  0.93042000  0.77004000  0.54425000  1.0
  N  N55  1  0.06958000  0.22996000  0.45575000  1.0
  O  O56  1  0.02147000  0.62045000  0.56255000  1.0
  O  O57  1  0.97853000  0.37956000  0.43745000  1.0
  O  O58  1  0.94283000  0.88341000  0.42073000  1.0
  O  O59  1  0.05717000  0.11659000  0.57927000  1.0
  O  O60  1  0.83061000  0.80272000  0.64799000  1.0
  O  O61  1  0.16939000  0.19729000  0.35201000  1.0
