# generated using pymatgen
data_ZnH17C16N4ClO2
_symmetry_space_group_name_H-M   'P 1'
_cell_length_a   7.28050000
_cell_length_b   8.30914000
_cell_length_c   13.73230000
_cell_angle_alpha   90.00060000
_cell_angle_beta   90.00060000
_cell_angle_gamma   92.26760000
_symmetry_Int_Tables_number   1
_chemical_formula_structural   ZnH17C16N4ClO2
_chemical_formula_sum   'Zn2 H34 C32 N8 Cl2 O4'
_cell_volume   830.08076188
_cell_formula_units_Z   2
loop_
 _symmetry_equiv_pos_site_id
 _symmetry_equiv_pos_as_xyz
  1  'x, y, z'
loop_
 _atom_site_type_symbol
 _atom_site_label
 _atom_site_symmetry_multiplicity
 _atom_site_fract_x
 _atom_site_fract_y
 _atom_site_fract_z
 _atom_site_occupancy
  Zn  Zn0  1  0.19660000  0.02011000  0.75000000  1.0
  Zn  Zn1  1  0.80340000  0.97988000  0.25000000  1.0
  H  H2  1  0.79610000  0.00595000  0.85209000  1.0
  H  H3  1  0.20390000  0.99406000  0.35209000  1.0
  H  H4  1  0.20390000  0.99407000  0.14791000  1.0
  H  H5  1  0.79609000  0.00595000  0.64791000  1.0
  H  H6  1  0.28582000  0.26490000  0.92823000  1.0
  H  H7  1  0.71419000  0.73510000  0.42823000  1.0
  H  H8  1  0.71419000  0.73509000  0.07177000  1.0
  H  H9  1  0.28581000  0.26490000  0.57177000  1.0
  H  H10  1  0.00718000  0.35272000  0.05399000  1.0
  H  H11  1  0.99283000  0.64729000  0.55399000  1.0
  H  H12  1  0.99283000  0.64727000  0.94602000  1.0
  H  H13  1  0.00717000  0.35273000  0.44602000  1.0
  H  H14  1  0.67692000  0.14912000  0.08660000  1.0
  H  H15  1  0.32308000  0.85087000  0.58661000  1.0
  H  H16  1  0.32308000  0.85087000  0.91339000  1.0
  H  H17  1  0.67691000  0.14912000  0.41339000  1.0
  H  H18  1  0.57907000  0.10116000  0.97049000  1.0
  H  H19  1  0.42093000  0.89885000  0.47050000  1.0
  H  H20  1  0.42094000  0.89885000  0.02950000  1.0
  H  H21  1  0.57906000  0.10117000  0.52951000  1.0
  H  H22  1  0.67406000  0.40136000  0.85788000  1.0
  H  H23  1  0.32593000  0.59864000  0.35788000  1.0
  H  H24  1  0.32595000  0.59864000  0.14212000  1.0
  H  H25  1  0.67405000  0.40137000  0.64211000  1.0
  H  H26  1  0.47764000  0.33671000  0.15180000  1.0
  H  H27  1  0.52235000  0.66330000  0.65180000  1.0
  H  H28  1  0.52236000  0.66330000  0.84820000  1.0
  H  H29  1  0.47762000  0.33671000  0.34819000  1.0
  H  H30  1  0.91492000  0.46811000  0.75000000  1.0
  H  H31  1  0.08510000  0.53187000  0.24999000  1.0
  H  H32  1  0.12943000  0.48567000  0.81382000  1.0
  H  H33  1  0.87060000  0.51432000  0.31382000  1.0
  H  H34  1  0.87059000  0.51431000  0.18617000  1.0
  H  H35  1  0.12943000  0.48567000  0.68617000  1.0
  C  C36  1  0.89277000  0.08735000  0.88936000  1.0
  C  C37  1  0.10723000  0.91265000  0.38936000  1.0
  C  C38  1  0.10723000  0.91266000  0.11064000  1.0
  C  C39  1  0.89276000  0.08735000  0.61064000  1.0
  C  C40  1  0.14288000  0.22404000  0.93171000  1.0
  C  C41  1  0.85712000  0.77596000  0.43171000  1.0
  C  C42  1  0.85712000  0.77595000  0.06829000  1.0
  C  C43  1  0.14287000  0.22404000  0.56829000  1.0
  C  C44  1  0.00631000  0.26931000  0.99356000  1.0
  C  C45  1  0.99370000  0.73069000  0.49357000  1.0
  C  C46  1  0.99370000  0.73069000  0.00644000  1.0
  C  C47  1  0.00630000  0.26931000  0.50644000  1.0
  C  C48  1  0.66797000  0.18840000  0.01049000  1.0
  C  C49  1  0.33202000  0.81161000  0.51049000  1.0
  C  C50  1  0.33203000  0.81161000  0.98951000  1.0
  C  C51  1  0.66796000  0.18840000  0.48951000  1.0
  C  C52  1  0.59953000  0.44553000  0.92065000  1.0
  C  C53  1  0.40046000  0.55448000  0.42066000  1.0
  C  C54  1  0.40048000  0.55447000  0.07935000  1.0
  C  C55  1  0.59953000  0.44554000  0.57935000  1.0
  C  C56  1  0.58730000  0.35268000  0.00568000  1.0
  C  C57  1  0.41270000  0.64732000  0.50568000  1.0
  C  C58  1  0.41271000  0.64733000  0.99433000  1.0
  C  C59  1  0.58729000  0.35268000  0.49432000  1.0
  C  C60  1  0.48736000  0.40821000  0.08523000  1.0
  C  C61  1  0.51263000  0.59180000  0.58523000  1.0
  C  C62  1  0.51264000  0.59180000  0.91477000  1.0
  C  C63  1  0.48735000  0.40821000  0.41476000  1.0
  C  C64  1  0.04410000  0.70780000  0.75000000  1.0
  C  C65  1  0.95592000  0.29217000  0.25000000  1.0
  C  C66  1  0.05265000  0.52584000  0.75000000  1.0
  C  C67  1  0.94737000  0.47415000  0.24999000  1.0
  N  N68  1  0.07022000  0.11051000  0.86725000  1.0
  N  N69  1  0.92978000  0.88949000  0.36724000  1.0
  N  N70  1  0.92978000  0.88949000  0.13275000  1.0
  N  N71  1  0.07021000  0.11051000  0.63276000  1.0
  N  N72  1  0.84926000  0.18194000  0.96561000  1.0
  N  N73  1  0.15074000  0.81807000  0.46561000  1.0
  N  N74  1  0.15074000  0.81806000  0.03439000  1.0
  N  N75  1  0.84925000  0.18195000  0.53439000  1.0
  Cl  Cl76  1  0.49247000  0.11172000  0.75000000  1.0
  Cl  Cl77  1  0.50753000  0.88827000  0.25000000  1.0
  O  O78  1  0.20536000  0.78291000  0.75000000  1.0
  O  O79  1  0.79464000  0.21709000  0.25000000  1.0
  O  O80  1  0.89449000  0.77650000  0.75001000  1.0
  O  O81  1  0.10550000  0.22348000  0.25001000  1.0
