# generated using pymatgen
data_Cd3H26C40S6(N4O)4
_symmetry_space_group_name_H-M   'P 1'
_cell_length_a   11.38410000
_cell_length_b   11.68670000
_cell_length_c   15.14840000
_cell_angle_alpha   94.59520000
_cell_angle_beta   108.05400000
_cell_angle_gamma   117.30700000
_symmetry_Int_Tables_number   1
_chemical_formula_structural   Cd3H26C40S6(N4O)4
_chemical_formula_sum   'Cd3 H26 C40 S6 N16 O4'
_cell_volume   1642.62340116
_cell_formula_units_Z   1
loop_
 _symmetry_equiv_pos_site_id
 _symmetry_equiv_pos_as_xyz
  1  'x, y, z'
loop_
 _atom_site_type_symbol
 _atom_site_label
 _atom_site_symmetry_multiplicity
 _atom_site_fract_x
 _atom_site_fract_y
 _atom_site_fract_z
 _atom_site_occupancy
  Cd  Cd0  1  0.22412000  0.28300000  0.37835000  1.0
  Cd  Cd1  1  0.77588000  0.71700000  0.62164000  1.0
  Cd  Cd2  1  0.00000000  0.00000000  0.00000000  1.0
  H  H3  1  0.67867000  0.63120000  0.14193000  1.0
  H  H4  1  0.51048000  0.28178000  0.38895000  1.0
  H  H5  1  0.74062000  0.36675000  0.46914000  1.0
  H  H6  1  0.28972000  0.42805000  0.20858000  1.0
  H  H7  1  0.18770000  0.23761000  0.57938000  1.0
  H  H8  1  0.96315000  0.32049000  0.34650000  1.0
  H  H9  1  0.81890000  0.76417000  0.07261000  1.0
  H  H10  1  0.70025000  0.50291000  0.20964000  1.0
  H  H11  1  0.03710000  0.24672000  0.66972000  1.0
  H  H12  1  0.38004000  0.67476000  0.98922000  1.0
  H  H13  1  0.85111000  0.30572000  0.59534000  1.0
  H  H14  1  0.67645000  0.94770000  0.87915000  1.0
  H  H15  1  0.42802000  0.82728000  0.88148000  1.0
  H  H16  1  0.32133000  0.36879000  0.85807000  1.0
  H  H17  1  0.48952000  0.71821000  0.61105000  1.0
  H  H18  1  0.25937000  0.63324000  0.53086000  1.0
  H  H19  1  0.71028000  0.57195000  0.79142000  1.0
  H  H20  1  0.81229000  0.76239000  0.42061000  1.0
  H  H21  1  0.03684000  0.67950000  0.65350000  1.0
  H  H22  1  0.18111000  0.23583000  0.92739000  1.0
  H  H23  1  0.29975000  0.49709000  0.79037000  1.0
  H  H24  1  0.96290000  0.75329000  0.33028000  1.0
  H  H25  1  0.61996000  0.32524000  0.01078000  1.0
  H  H26  1  0.14889000  0.69428000  0.40466000  1.0
  H  H27  1  0.32356000  0.05231000  0.12086000  1.0
  H  H28  1  0.57198000  0.17272000  0.11852000  1.0
  C  C29  1  0.51183000  0.34164000  0.33719000  1.0
  C  C30  1  0.47118000  0.62093000  0.44188000  1.0
  C  C31  1  0.62486000  0.39758000  0.30640000  1.0
  C  C32  1  0.01311000  0.23030000  0.15501000  1.0
  C  C33  1  0.75139000  0.37819000  0.33645000  1.0
  C  C34  1  0.59603000  0.70792000  0.03987000  1.0
  C  C35  1  0.12443000  0.00275000  0.23962000  1.0
  C  C36  1  0.38565000  0.42025000  0.23532000  1.0
  C  C37  1  0.10188000  0.25890000  0.54938000  1.0
  C  C38  1  0.46664000  0.54683000  0.12186000  1.0
  C  C39  1  0.89342000  0.32042000  0.46544000  1.0
  C  C40  1  0.97750000  0.30755000  0.41864000  1.0
  C  C41  1  0.49291000  0.47856000  0.19911000  1.0
  C  C42  1  0.72926000  0.77609000  0.03182000  1.0
  C  C43  1  0.61367000  0.46619000  0.23573000  1.0
  C  C44  1  0.02055000  0.26691000  0.59932000  1.0
  C  C45  1  0.48474000  0.72651000  0.98506000  1.0
  C  C46  1  0.91595000  0.29854000  0.55755000  1.0
  C  C47  1  0.64898000  0.87798000  0.92313000  1.0
  C  C48  1  0.51305000  0.81246000  0.92580000  1.0
  C  C49  1  0.48817000  0.65836000  0.66281000  1.0
  C  C50  1  0.52880000  0.37907000  0.55812000  1.0
  C  C51  1  0.37514000  0.60242000  0.69360000  1.0
  C  C52  1  0.98689000  0.76970000  0.84499000  1.0
  C  C53  1  0.24861000  0.62181000  0.66355000  1.0
  C  C54  1  0.40397000  0.29207000  0.96013000  1.0
  C  C55  1  0.87558000  0.99725000  0.76038000  1.0
  C  C56  1  0.61435000  0.57975000  0.76468000  1.0
  C  C57  1  0.89812000  0.74110000  0.45062000  1.0
  C  C58  1  0.53337000  0.45317000  0.87814000  1.0
  C  C59  1  0.10658000  0.67958000  0.53456000  1.0
  C  C60  1  0.02250000  0.69245000  0.58136000  1.0
  C  C61  1  0.50709000  0.52144000  0.80089000  1.0
  C  C62  1  0.27075000  0.22392000  0.96818000  1.0
  C  C63  1  0.38633000  0.53381000  0.76427000  1.0
  C  C64  1  0.97944000  0.73309000  0.40068000  1.0
  C  C65  1  0.51527000  0.27349000  0.01494000  1.0
  C  C66  1  0.08405000  0.70146000  0.44245000  1.0
  C  C67  1  0.35103000  0.12202000  0.07687000  1.0
  C  C68  1  0.48696000  0.18754000  0.07420000  1.0
  S  S69  1  0.29852000  0.56206000  0.39597000  1.0
  S  S70  1  0.20291000  0.04256000  0.35693000  1.0
  S  S71  1  0.96554000  0.21253000  0.03962000  1.0
  S  S72  1  0.70147000  0.43794000  0.60402000  1.0
  S  S73  1  0.79710000  0.95744000  0.64306000  1.0
  S  S74  1  0.03447000  0.78748000  0.96038000  1.0
  N  N75  1  0.07886000  0.27828000  0.46097000  1.0
  N  N76  1  0.39564000  0.35400000  0.30271000  1.0
  N  N77  1  0.59628000  0.66100000  0.47314000  1.0
  N  N78  1  0.58569000  0.62761000  0.10400000  1.0
  N  N79  1  0.78746000  0.35204000  0.42445000  1.0
  N  N80  1  0.75489000  0.85939000  0.97589000  1.0
  N  N81  1  0.04703000  0.24443000  0.23923000  1.0
  N  N82  1  0.06718000  0.97263000  0.15479000  1.0
  N  N83  1  0.92113000  0.72171000  0.53903000  1.0
  N  N84  1  0.60436000  0.64600000  0.69729000  1.0
  N  N85  1  0.40370000  0.33900000  0.52686000  1.0
  N  N86  1  0.41431000  0.37239000  0.89600000  1.0
  N  N87  1  0.21253000  0.64795000  0.57554000  1.0
  N  N88  1  0.24512000  0.14062000  0.02412000  1.0
  N  N89  1  0.95297000  0.75557000  0.76077000  1.0
  N  N90  1  0.93283000  0.02737000  0.84520000  1.0
  O  O91  1  0.34663000  0.53087000  0.07878000  1.0
  O  O92  1  0.81438000  0.38428000  0.28191000  1.0
  O  O93  1  0.65337000  0.46914000  0.92122000  1.0
  O  O94  1  0.18562000  0.61572000  0.71809000  1.0
