# generated using pymatgen
data_ZnH22C26(NO2)2
_symmetry_space_group_name_H-M   'P 1'
_cell_length_a   10.29780000
_cell_length_b   10.44310000
_cell_length_c   11.98970000
_cell_angle_alpha   94.85530000
_cell_angle_beta   95.26490000
_cell_angle_gamma   109.44700000
_symmetry_Int_Tables_number   1
_chemical_formula_structural   ZnH22C26(NO2)2
_chemical_formula_sum   'Zn2 H44 C52 N4 O8'
_cell_volume   1201.55008612
_cell_formula_units_Z   2
loop_
 _symmetry_equiv_pos_site_id
 _symmetry_equiv_pos_as_xyz
  1  'x, y, z'
loop_
 _atom_site_type_symbol
 _atom_site_label
 _atom_site_symmetry_multiplicity
 _atom_site_fract_x
 _atom_site_fract_y
 _atom_site_fract_z
 _atom_site_occupancy
  Zn  Zn0  1  0.94386000  0.05438000  0.74641000  1.0
  Zn  Zn1  1  0.05612000  0.94563000  0.25361000  1.0
  H  H2  1  0.74082000  0.74880000  0.44909000  1.0
  H  H3  1  0.25089000  0.25751000  0.04489000  1.0
  H  H4  1  0.25918000  0.25121000  0.55094000  1.0
  H  H5  1  0.74911000  0.74251000  0.95509000  1.0
  H  H6  1  0.62419000  0.52700000  0.32999000  1.0
  H  H7  1  0.47388000  0.37608000  0.16640000  1.0
  H  H8  1  0.37585000  0.47302000  0.67001000  1.0
  H  H9  1  0.52612000  0.62393000  0.83358000  1.0
  H  H10  1  0.51234000  0.18689000  0.44205000  1.0
  H  H11  1  0.82206000  0.48672000  0.05965000  1.0
  H  H12  1  0.48774000  0.81311000  0.55793000  1.0
  H  H13  1  0.17793000  0.51328000  0.94033000  1.0
  H  H14  1  0.64307000  0.24282000  0.35240000  1.0
  H  H15  1  0.76171000  0.36209000  0.15270000  1.0
  H  H16  1  0.35697000  0.75720000  0.64755000  1.0
  H  H17  1  0.23830000  0.63790000  0.84727000  1.0
  H  H18  1  0.48417000  0.27275000  0.32531000  1.0
  H  H19  1  0.73207000  0.51968000  0.17215000  1.0
  H  H20  1  0.51585000  0.72724000  0.67469000  1.0
  H  H21  1  0.26793000  0.48031000  0.82782000  1.0
  H  H22  1  0.63230000  0.31415000  0.62107000  1.0
  H  H23  1  0.69561000  0.37058000  0.87976000  1.0
  H  H24  1  0.36773000  0.68583000  0.37890000  1.0
  H  H25  1  0.30438000  0.62940000  0.12022000  1.0
  H  H26  1  0.74885000  0.53876000  0.74139000  1.0
  H  H27  1  0.46940000  0.25188000  0.75697000  1.0
  H  H28  1  0.25115000  0.46120000  0.25861000  1.0
  H  H29  1  0.53058000  0.74813000  0.24301000  1.0
  H  H30  1  0.64396000  0.00544000  0.69890000  1.0
  H  H31  1  0.99408000  0.34743000  0.79732000  1.0
  H  H32  1  0.35605000  0.99452000  0.30113000  1.0
  H  H33  1  0.00589000  0.65257000  0.20268000  1.0
  H  H34  1  0.43913000  0.97044000  0.80046000  1.0
  H  H35  1  0.03007000  0.55332000  0.69979000  1.0
  H  H36  1  0.56087000  0.02957000  0.19955000  1.0
  H  H37  1  0.96993000  0.44668000  0.30021000  1.0
  H  H38  1  0.72062000  0.06681000  0.11221000  1.0
  H  H39  1  0.93249000  0.28563000  0.38392000  1.0
  H  H40  1  0.27935000  0.93321000  0.88782000  1.0
  H  H41  1  0.06753000  0.71437000  0.61608000  1.0
  H  H42  1  0.91320000  0.10051000  0.99671000  1.0
  H  H43  1  0.89751000  0.09136000  0.49545000  1.0
  H  H44  1  0.08679000  0.89954000  0.00334000  1.0
  H  H45  1  0.10245000  0.90864000  0.50456000  1.0
  C  C46  1  0.83456000  0.78848000  0.67590000  1.0
  C  C47  1  0.21493000  0.16347000  0.81909000  1.0
  C  C48  1  0.16541000  0.21149000  0.32413000  1.0
  C  C49  1  0.78505000  0.83655000  0.18089000  1.0
  C  C50  1  0.75460000  0.65706000  0.60301000  1.0
  C  C51  1  0.34691000  0.24491000  0.89304000  1.0
  C  C52  1  0.24541000  0.34293000  0.39700000  1.0
  C  C53  1  0.65307000  0.75510000  0.10694000  1.0
  C  C54  1  0.71703000  0.65352000  0.48696000  1.0
  C  C55  1  0.34830000  0.28235000  0.00853000  1.0
  C  C56  1  0.28298000  0.34647000  0.51305000  1.0
  C  C57  1  0.65169000  0.71767000  0.99145000  1.0
  C  C58  1  0.65294000  0.52840000  0.42009000  1.0
  C  C59  1  0.47416000  0.34757000  0.07678000  1.0
  C  C60  1  0.34710000  0.47160000  0.57991000  1.0
  C  C61  1  0.52584000  0.65244000  0.92321000  1.0
  C  C62  1  0.62401000  0.40439000  0.46646000  1.0
  C  C63  1  0.60099000  0.37768000  0.03234000  1.0
  C  C64  1  0.37603000  0.59561000  0.53353000  1.0
  C  C65  1  0.39901000  0.62231000  0.96763000  1.0
  C  C66  1  0.56212000  0.26969000  0.39285000  1.0
  C  C67  1  0.73634000  0.44038000  0.10792000  1.0
  C  C68  1  0.43793000  0.73031000  0.60713000  1.0
  C  C69  1  0.26366000  0.55961000  0.89205000  1.0
  C  C70  1  0.65666000  0.40954000  0.58321000  1.0
  C  C71  1  0.59796000  0.34533000  0.91606000  1.0
  C  C72  1  0.34337000  0.59044000  0.41678000  1.0
  C  C73  1  0.40203000  0.65466000  0.08391000  1.0
  C  C74  1  0.72134000  0.53403000  0.65075000  1.0
  C  C75  1  0.47269000  0.27954000  0.84719000  1.0
  C  C76  1  0.27868000  0.46595000  0.34925000  1.0
  C  C77  1  0.52729000  0.72046000  0.15279000  1.0
  C  C78  1  0.65535000  0.01850000  0.79094000  1.0
  C  C79  1  0.98077000  0.33934000  0.70539000  1.0
  C  C80  1  0.34465000  0.98150000  0.20908000  1.0
  C  C81  1  0.01922000  0.66066000  0.29462000  1.0
  C  C82  1  0.54112000  0.99744000  0.84890000  1.0
  C  C83  1  0.00233000  0.45409000  0.64970000  1.0
  C  C84  1  0.45887000  0.00257000  0.15112000  1.0
  C  C85  1  0.99768000  0.54592000  0.35031000  1.0
  C  C86  1  0.55967000  0.01266000  0.96742000  1.0
  C  C87  1  0.98699000  0.43982000  0.53125000  1.0
  C  C88  1  0.44032000  0.98736000  0.03260000  1.0
  C  C89  1  0.01303000  0.56019000  0.46875000  1.0
  C  C90  1  0.69669000  0.05279000  0.02082000  1.0
  C  C91  1  0.94625000  0.30621000  0.47549000  1.0
  C  C92  1  0.30330000  0.94724000  0.97921000  1.0
  C  C93  1  0.05376000  0.69378000  0.52452000  1.0
  C  C94  1  0.80617000  0.07203000  0.95700000  1.0
  C  C95  1  0.92636000  0.19575000  0.53707000  1.0
  C  C96  1  0.19382000  0.92800000  0.04303000  1.0
  C  C97  1  0.07362000  0.80425000  0.46294000  1.0
  N  N98  1  0.78578000  0.05407000  0.84346000  1.0
  N  N99  1  0.94449000  0.21214000  0.65060000  1.0
  N  N100  1  0.21422000  0.94595000  0.15657000  1.0
  N  N101  1  0.05548000  0.78786000  0.34940000  1.0
  O  O102  1  0.85184000  0.89990000  0.62840000  1.0
  O  O103  1  0.10083000  0.14658000  0.86437000  1.0
  O  O104  1  0.14811000  0.10008000  0.37164000  1.0
  O  O105  1  0.89916000  0.85343000  0.13563000  1.0
  O  O106  1  0.88326000  0.78911000  0.77597000  1.0
  O  O107  1  0.21659000  0.11349000  0.72045000  1.0
  O  O108  1  0.11671000  0.21085000  0.22406000  1.0
  O  O109  1  0.78339000  0.88652000  0.27954000  1.0
