# generated using pymatgen
data_Cu2H5C2S(NO)5
_symmetry_space_group_name_H-M   'P 1'
_cell_length_a   8.05373000
_cell_length_b   8.39616000
_cell_length_c   12.26970000
_cell_angle_alpha   89.91340000
_cell_angle_beta   89.97750000
_cell_angle_gamma   110.20100000
_symmetry_Int_Tables_number   1
_chemical_formula_structural   Cu2H5C2S(NO)5
_chemical_formula_sum   'Cu8 H20 C8 S4 N20 O20'
_cell_volume   778.64459455
_cell_formula_units_Z   4
loop_
 _symmetry_equiv_pos_site_id
 _symmetry_equiv_pos_as_xyz
  1  'x, y, z'
loop_
 _atom_site_type_symbol
 _atom_site_label
 _atom_site_symmetry_multiplicity
 _atom_site_fract_x
 _atom_site_fract_y
 _atom_site_fract_z
 _atom_site_occupancy
  Cu  Cu0  1  0.61437000  0.27990000  0.96250000  1.0
  Cu  Cu1  1  0.88655000  0.22026000  0.46214000  1.0
  Cu  Cu2  1  0.38600000  0.72106000  0.03768000  1.0
  Cu  Cu3  1  0.11300000  0.77845000  0.53684000  1.0
  Cu  Cu4  1  0.97546000  0.40782000  0.11147000  1.0
  Cu  Cu5  1  0.52481000  0.09014000  0.60957000  1.0
  Cu  Cu6  1  0.02545000  0.59139000  0.88818000  1.0
  Cu  Cu7  1  0.47500000  0.90837000  0.39018000  1.0
  H  H8  1  0.92622000  0.28432000  0.93164000  1.0
  H  H9  1  0.57724000  0.21990000  0.43152000  1.0
  H  H10  1  0.07387000  0.71500000  0.06826000  1.0
  H  H11  1  0.42322000  0.78226000  0.57020000  1.0
  H  H12  1  0.22254000  0.45182000  0.58656000  1.0
  H  H13  1  0.27927000  0.04703000  0.08499000  1.0
  H  H14  1  0.77726000  0.54698000  0.41378000  1.0
  H  H15  1  0.72140000  0.95287000  0.91444000  1.0
  H  H16  1  0.25592000  0.53776000  0.71435000  1.0
  H  H17  1  0.24375000  0.96001000  0.21272000  1.0
  H  H18  1  0.74303000  0.46057000  0.28615000  1.0
  H  H19  1  0.75690000  0.04085000  0.78694000  1.0
  H  H20  1  0.49603000  0.36947000  0.78642000  1.0
  H  H21  1  0.00380000  0.12995000  0.28649000  1.0
  H  H22  1  0.50408000  0.63198000  0.21415000  1.0
  H  H23  1  0.99577000  0.86812000  0.71419000  1.0
  H  H24  1  0.65849000  0.52790000  0.84933000  1.0
  H  H25  1  0.84110000  0.97195000  0.34990000  1.0
  H  H26  1  0.34298000  0.47280000  0.15077000  1.0
  H  H27  1  0.15707000  0.02701000  0.64990000  1.0
  C  C28  1  0.74709000  0.39531000  0.74169000  1.0
  C  C29  1  0.75275000  0.10411000  0.24170000  1.0
  C  C30  1  0.25266000  0.60423000  0.25838000  1.0
  C  C31  1  0.24716000  0.89612000  0.75816000  1.0
  C  C32  1  0.00144000  0.43839000  0.66798000  1.0
  C  C33  1  0.49916000  0.06071000  0.16767000  1.0
  C  C34  1  0.99808000  0.56118000  0.33176000  1.0
  C  C35  1  0.50135000  0.93914000  0.83180000  1.0
  S  S36  1  0.22905000  0.27831000  0.95354000  1.0
  S  S37  1  0.27076000  0.22203000  0.45336000  1.0
  S  S38  1  0.77093000  0.72142000  0.04622000  1.0
  S  S39  1  0.72921000  0.77874000  0.54640000  1.0
  N  N40  1  0.92171000  0.48607000  0.75362000  1.0
  N  N41  1  0.57836000  0.01325000  0.25362000  1.0
  N  N42  1  0.07818000  0.51326000  0.24640000  1.0
  N  N43  1  0.42195000  0.98744000  0.74629000  1.0
  N  N44  1  0.17745000  0.51036000  0.64679000  1.0
  N  N45  1  0.32361000  0.98855000  0.14576000  1.0
  N  N46  1  0.82228000  0.48875000  0.35333000  1.0
  N  N47  1  0.67684000  0.01135000  0.85378000  1.0
  N  N48  1  0.62194000  0.40588000  0.81655000  1.0
  N  N49  1  0.87789000  0.09398000  0.31676000  1.0
  N  N50  1  0.37834000  0.59457000  0.18369000  1.0
  N  N51  1  0.12149000  0.90556000  0.68364000  1.0
  N  N52  1  0.88097000  0.32468000  0.60602000  1.0
  N  N53  1  0.61965000  0.17509000  0.10563000  1.0
  N  N54  1  0.11815000  0.67563000  0.39364000  1.0
  N  N55  1  0.38081000  0.82478000  0.89388000  1.0
  N  N56  1  0.71783000  0.29587000  0.65479000  1.0
  N  N57  1  0.78253000  0.20387000  0.15459000  1.0
  N  N58  1  0.28200000  0.70400000  0.34516000  1.0
  N  N59  1  0.21770000  0.79645000  0.84544000  1.0
  O  O60  1  0.87966000  0.37276000  0.96337000  1.0
  O  O61  1  0.62413000  0.13233000  0.46327000  1.0
  O  O62  1  0.12099000  0.62706000  0.03644000  1.0
  O  O63  1  0.37590000  0.87028000  0.53942000  1.0
  O  O64  1  0.35225000  0.17617000  0.94446000  1.0
  O  O65  1  0.14647000  0.32354000  0.44468000  1.0
  O  O66  1  0.64805000  0.82397000  0.05534000  1.0
  O  O67  1  0.85274000  0.67670000  0.55577000  1.0
  O  O68  1  0.06098000  0.17982000  0.89890000  1.0
  O  O69  1  0.43783000  0.32193000  0.39828000  1.0
  O  O70  1  0.93857000  0.81905000  0.10161000  1.0
  O  O71  1  0.56235000  0.68058000  0.60236000  1.0
  O  O72  1  0.19843000  0.29633000  0.07282000  1.0
  O  O73  1  0.30189000  0.20378000  0.57255000  1.0
  O  O74  1  0.80258000  0.70439000  0.92696000  1.0
  O  O75  1  0.69720000  0.79529000  0.42710000  1.0
  O  O76  1  0.31259000  0.44695000  0.90187000  1.0
  O  O77  1  0.18764000  0.05341000  0.40210000  1.0
  O  O78  1  0.68643000  0.55235000  0.09711000  1.0
  O  O79  1  0.81344000  0.94827000  0.59633000  1.0
