# generated using pymatgen
data_MgH6(C2O3)2
_symmetry_space_group_name_H-M   'P 1'
_cell_length_a   9.60809000
_cell_length_b   9.60809000
_cell_length_c   9.60809000
_cell_angle_alpha   96.62540000
_cell_angle_beta   96.62540000
_cell_angle_gamma   96.62540000
_symmetry_Int_Tables_number   1
_chemical_formula_structural   MgH6(C2O3)2
_chemical_formula_sum   'Mg6 H36 C24 O36'
_cell_volume   867.69162439
_cell_formula_units_Z   6
loop_
 _symmetry_equiv_pos_site_id
 _symmetry_equiv_pos_as_xyz
  1  'x, y, z'
loop_
 _atom_site_type_symbol
 _atom_site_label
 _atom_site_symmetry_multiplicity
 _atom_site_fract_x
 _atom_site_fract_y
 _atom_site_fract_z
 _atom_site_occupancy
  Mg  Mg0  1  0.62543000  0.83767000  0.21118000  1.0
  Mg  Mg1  1  0.83767000  0.21118000  0.62543000  1.0
  Mg  Mg2  1  0.21118000  0.62543000  0.83767000  1.0
  Mg  Mg3  1  0.37457000  0.16233000  0.78882000  1.0
  Mg  Mg4  1  0.16233000  0.78882000  0.37457000  1.0
  Mg  Mg5  1  0.78882000  0.37457000  0.16233000  1.0
  H  H6  1  0.41291000  0.62525000  0.17140000  1.0
  H  H7  1  0.62525000  0.17140000  0.41291000  1.0
  H  H8  1  0.17140000  0.41292000  0.62525000  1.0
  H  H9  1  0.58709000  0.37475000  0.82860000  1.0
  H  H10  1  0.37476000  0.82860000  0.58709000  1.0
  H  H11  1  0.82860000  0.58708000  0.37476000  1.0
  H  H12  1  0.43563000  0.68783000  0.33178000  1.0
  H  H13  1  0.68783000  0.33178000  0.43563000  1.0
  H  H14  1  0.33178000  0.43563000  0.68783000  1.0
  H  H15  1  0.56437000  0.31217000  0.66822000  1.0
  H  H16  1  0.31217000  0.66822000  0.56437000  1.0
  H  H17  1  0.66822000  0.56437000  0.31217000  1.0
  H  H18  1  0.83070000  0.02750000  0.30307000  1.0
  H  H19  1  0.02750000  0.30307000  0.83070000  1.0
  H  H20  1  0.30307000  0.83070000  0.02750000  1.0
  H  H21  1  0.16930000  0.97250000  0.69693000  1.0
  H  H22  1  0.97250000  0.69693000  0.16930000  1.0
  H  H23  1  0.69693000  0.16930000  0.97250000  1.0
  H  H24  1  0.81201000  0.05993000  0.14226000  1.0
  H  H25  1  0.05993000  0.14225000  0.81201000  1.0
  H  H26  1  0.14226000  0.81201000  0.05993000  1.0
  H  H27  1  0.18799000  0.94007000  0.85775000  1.0
  H  H28  1  0.94007000  0.85775000  0.18799000  1.0
  H  H29  1  0.85775000  0.18799000  0.94007000  1.0
  H  H30  1  0.87604000  0.92868000  0.72716000  1.0
  H  H31  1  0.92868000  0.72716000  0.87604000  1.0
  H  H32  1  0.72716000  0.87604000  0.92868000  1.0
  H  H33  1  0.12396000  0.07132000  0.27284000  1.0
  H  H34  1  0.07132000  0.27284000  0.12396000  1.0
  H  H35  1  0.27284000  0.12396000  0.07132000  1.0
  H  H36  1  0.57865000  0.77156000  0.62906000  1.0
  H  H37  1  0.77156000  0.62906000  0.57865000  1.0
  H  H38  1  0.62906000  0.57865000  0.77156000  1.0
  H  H39  1  0.42135000  0.22844000  0.37094000  1.0
  H  H40  1  0.22844000  0.37094000  0.42135000  1.0
  H  H41  1  0.37094000  0.42135000  0.22844000  1.0
  C  C42  1  0.78936000  0.89939000  0.50727000  1.0
  C  C43  1  0.89939000  0.50727000  0.78936000  1.0
  C  C44  1  0.50727000  0.78936000  0.89939000  1.0
  C  C45  1  0.21064000  0.10061000  0.49273000  1.0
  C  C46  1  0.10061000  0.49273000  0.21064000  1.0
  C  C47  1  0.49273000  0.21064000  0.10061000  1.0
  C  C48  1  0.80030000  0.85152000  0.65437000  1.0
  C  C49  1  0.85152000  0.65437000  0.80030000  1.0
  C  C50  1  0.65437000  0.80030000  0.85152000  1.0
  C  C51  1  0.19970000  0.14848000  0.34563000  1.0
  C  C52  1  0.14848000  0.34563000  0.19970000  1.0
  C  C53  1  0.34563000  0.19970000  0.14848000  1.0
  C  C54  1  0.65326000  0.84835000  0.70346000  1.0
  C  C55  1  0.84835000  0.70346000  0.65326000  1.0
  C  C56  1  0.70346000  0.65326000  0.84835000  1.0
  C  C57  1  0.34674000  0.15165000  0.29654000  1.0
  C  C58  1  0.15165000  0.29654000  0.34674000  1.0
  C  C59  1  0.29654000  0.34674000  0.15165000  1.0
  C  C60  1  0.59989000  0.99224000  0.70632000  1.0
  C  C61  1  0.99224000  0.70632000  0.59989000  1.0
  C  C62  1  0.70632000  0.59989000  0.99224000  1.0
  C  C63  1  0.40011000  0.00776000  0.29368000  1.0
  C  C64  1  0.00776000  0.29368000  0.40011000  1.0
  C  C65  1  0.29368000  0.40011000  0.00776000  1.0
  O  O66  1  0.72207000  0.81288000  0.40651000  1.0
  O  O67  1  0.81288000  0.40651000  0.72207000  1.0
  O  O68  1  0.40651000  0.72207000  0.81288000  1.0
  O  O69  1  0.27793000  0.18712000  0.59349000  1.0
  O  O70  1  0.18712000  0.59349000  0.27793000  1.0
  O  O71  1  0.59349000  0.27793000  0.18712000  1.0
  O  O72  1  0.84243000  0.02487000  0.49372000  1.0
  O  O73  1  0.02487000  0.49372000  0.84243000  1.0
  O  O74  1  0.49372000  0.84243000  0.02487000  1.0
  O  O75  1  0.15757000  0.97513000  0.50628000  1.0
  O  O76  1  0.97513000  0.50628000  0.15757000  1.0
  O  O77  1  0.50628000  0.15757000  0.97513000  1.0
  O  O78  1  0.68873000  0.10261000  0.72474000  1.0
  O  O79  1  0.10261000  0.72474000  0.68873000  1.0
  O  O80  1  0.72474000  0.68873000  0.10261000  1.0
  O  O81  1  0.31127000  0.89739000  0.27526000  1.0
  O  O82  1  0.89739000  0.27526000  0.31127000  1.0
  O  O83  1  0.27526000  0.31127000  0.89739000  1.0
  O  O84  1  0.46623000  0.99333000  0.69610000  1.0
  O  O85  1  0.99333000  0.69610000  0.46623000  1.0
  O  O86  1  0.69610000  0.46623000  0.99333000  1.0
  O  O87  1  0.53377000  0.00667000  0.30390000  1.0
  O  O88  1  0.00667000  0.30390000  0.53377000  1.0
  O  O89  1  0.30390000  0.53377000  0.00667000  1.0
  O  O90  1  0.48745000  0.66265000  0.25201000  1.0
  O  O91  1  0.66265000  0.25201000  0.48745000  1.0
  O  O92  1  0.25201000  0.48745000  0.66265000  1.0
  O  O93  1  0.51255000  0.33735000  0.74799000  1.0
  O  O94  1  0.33735000  0.74799000  0.51255000  1.0
  O  O95  1  0.74799000  0.51255000  0.33735000  1.0
  O  O96  1  0.81098000  0.98240000  0.20247000  1.0
  O  O97  1  0.98240000  0.20247000  0.81098000  1.0
  O  O98  1  0.20247000  0.81098000  0.98240000  1.0
  O  O99  1  0.18902000  0.01760000  0.79753000  1.0
  O  O100  1  0.01760000  0.79753000  0.18902000  1.0
  O  O101  1  0.79753000  0.18902000  0.01760000  1.0
