# generated using pymatgen
data_BiH10C6NO8
_symmetry_space_group_name_H-M   'P 1'
_cell_length_a   6.27983000
_cell_length_b   8.21966000
_cell_length_c   20.76210000
_cell_angle_alpha   89.99960000
_cell_angle_beta   89.99840000
_cell_angle_gamma   77.06900000
_symmetry_Int_Tables_number   1
_chemical_formula_structural   BiH10C6NO8
_chemical_formula_sum   'Bi4 H40 C24 N4 O32'
_cell_volume   1044.52145953
_cell_formula_units_Z   4
loop_
 _symmetry_equiv_pos_site_id
 _symmetry_equiv_pos_as_xyz
  1  'x, y, z'
loop_
 _atom_site_type_symbol
 _atom_site_label
 _atom_site_symmetry_multiplicity
 _atom_site_fract_x
 _atom_site_fract_y
 _atom_site_fract_z
 _atom_site_occupancy
  Bi  Bi0  1  0.08910000  0.57142000  0.09472000  1.0
  Bi  Bi1  1  0.41090000  0.92858000  0.59472000  1.0
  Bi  Bi2  1  0.91089000  0.42858000  0.90528000  1.0
  Bi  Bi3  1  0.58910000  0.07142000  0.40528000  1.0
  H  H4  1  0.79824000  0.88351000  0.14814000  1.0
  H  H5  1  0.70176000  0.61648000  0.64815000  1.0
  H  H6  1  0.20175000  0.11649000  0.85186000  1.0
  H  H7  1  0.29825000  0.38352000  0.35185000  1.0
  H  H8  1  0.84476000  0.90010000  0.07194000  1.0
  H  H9  1  0.65524000  0.59989000  0.57195000  1.0
  H  H10  1  0.15524000  0.09990000  0.92806000  1.0
  H  H11  1  0.34476000  0.40010000  0.42805000  1.0
  H  H12  1  0.49630000  0.69775000  0.06080000  1.0
  H  H13  1  0.00372000  0.80225000  0.56080000  1.0
  H  H14  1  0.50369000  0.30226000  0.93920000  1.0
  H  H15  1  0.99628000  0.19774000  0.43920000  1.0
  H  H16  1  0.32171000  0.85149000  0.02910000  1.0
  H  H17  1  0.17831000  0.64851000  0.52910000  1.0
  H  H18  1  0.67829000  0.14852000  0.97090000  1.0
  H  H19  1  0.82169000  0.35149000  0.47090000  1.0
  H  H20  1  0.04820000  0.21786000  0.24475000  1.0
  H  H21  1  0.45178000  0.28217000  0.74474000  1.0
  H  H22  1  0.95180000  0.78215000  0.75525000  1.0
  H  H23  1  0.54821000  0.71783000  0.25525000  1.0
  H  H24  1  0.30540000  0.24067000  0.21618000  1.0
  H  H25  1  0.19460000  0.25933000  0.71617000  1.0
  H  H26  1  0.69460000  0.75933000  0.78382000  1.0
  H  H27  1  0.80540000  0.74067000  0.28382000  1.0
  H  H28  1  0.37153000  0.15156000  0.12182000  1.0
  H  H29  1  0.12848000  0.34844000  0.62182000  1.0
  H  H30  1  0.62847000  0.84844000  0.87818000  1.0
  H  H31  1  0.87152000  0.65156000  0.37818000  1.0
  H  H32  1  0.16867000  0.03168000  0.12188000  1.0
  H  H33  1  0.33134000  0.46832000  0.62187000  1.0
  H  H34  1  0.83133000  0.96832000  0.87812000  1.0
  H  H35  1  0.66866000  0.53168000  0.37813000  1.0
  H  H36  1  0.81233000  0.19418000  0.09975000  1.0
  H  H37  1  0.68769000  0.30581000  0.59974000  1.0
  H  H38  1  0.18767000  0.80582000  0.90025000  1.0
  H  H39  1  0.31232000  0.69419000  0.40026000  1.0
  H  H40  1  0.77449000  0.21628000  0.18311000  1.0
  H  H41  1  0.72551000  0.28373000  0.68310000  1.0
  H  H42  1  0.22551000  0.78372000  0.81689000  1.0
  H  H43  1  0.27449000  0.71627000  0.31690000  1.0
  C  C44  1  0.09602000  0.46788000  0.24257000  1.0
  C  C45  1  0.40399000  0.03213000  0.74258000  1.0
  C  C46  1  0.90398000  0.53212000  0.75742000  1.0
  C  C47  1  0.59601000  0.96787000  0.25741000  1.0
  C  C48  1  0.12891000  0.29394000  0.21340000  1.0
  C  C49  1  0.37108000  0.20608000  0.71340000  1.0
  C  C50  1  0.87109000  0.70606000  0.78660000  1.0
  C  C51  1  0.62892000  0.79392000  0.28660000  1.0
  C  C52  1  0.17527000  0.17963000  0.03725000  1.0
  C  C53  1  0.32475000  0.32036000  0.53725000  1.0
  C  C54  1  0.82474000  0.82037000  0.96275000  1.0
  C  C55  1  0.67526000  0.67963000  0.46275000  1.0
  C  C56  1  0.20094000  0.15408000  0.10944000  1.0
  C  C57  1  0.29907000  0.34592000  0.60944000  1.0
  C  C58  1  0.79906000  0.84592000  0.89056000  1.0
  C  C59  1  0.70093000  0.65408000  0.39056000  1.0
  C  C60  1  0.65768000  0.43553000  0.12635000  1.0
  C  C61  1  0.84234000  0.06446000  0.62636000  1.0
  C  C62  1  0.34233000  0.56447000  0.87365000  1.0
  C  C63  1  0.15766000  0.93553000  0.37364000  1.0
  C  C64  1  0.82737000  0.27636000  0.14047000  1.0
  C  C65  1  0.67264000  0.22364000  0.64047000  1.0
  C  C66  1  0.17263000  0.72365000  0.85953000  1.0
  C  C67  1  0.32736000  0.77635000  0.35953000  1.0
  N  N68  1  0.05749000  0.29004000  0.14589000  1.0
  N  N69  1  0.44251000  0.20996000  0.64589000  1.0
  N  N70  1  0.94251000  0.70996000  0.85411000  1.0
  N  N71  1  0.55749000  0.79004000  0.35411000  1.0
  O  O72  1  0.06439000  0.59694000  0.20539000  1.0
  O  O73  1  0.43561000  0.90306000  0.70540000  1.0
  O  O74  1  0.93560000  0.40306000  0.79461000  1.0
  O  O75  1  0.56439000  0.09694000  0.29461000  1.0
  O  O76  1  0.10587000  0.47904000  0.30265000  1.0
  O  O77  1  0.39414000  0.02099000  0.80265000  1.0
  O  O78  1  0.89412000  0.52096000  0.69736000  1.0
  O  O79  1  0.60586000  0.97901000  0.19735000  1.0
  O  O80  1  0.09795000  0.32825000  0.01637000  1.0
  O  O81  1  0.40204000  0.17175000  0.51637000  1.0
  O  O82  1  0.90205000  0.67176000  0.98363000  1.0
  O  O83  1  0.59795000  0.82825000  0.48363000  1.0
  O  O84  1  0.23428000  0.05369000  0.00121000  1.0
  O  O85  1  0.26573000  0.44631000  0.50121000  1.0
  O  O86  1  0.76572000  0.94632000  0.99879000  1.0
  O  O87  1  0.73426000  0.55369000  0.49879000  1.0
  O  O88  1  0.71653000  0.56640000  0.10639000  1.0
  O  O89  1  0.78348000  0.93360000  0.60639000  1.0
  O  O90  1  0.28347000  0.43360000  0.89361000  1.0
  O  O91  1  0.21652000  0.06640000  0.39361000  1.0
  O  O92  1  0.46168000  0.42512000  0.13305000  1.0
  O  O93  1  0.03832000  0.07488000  0.63306000  1.0
  O  O94  1  0.53832000  0.57489000  0.86695000  1.0
  O  O95  1  0.96168000  0.92512000  0.36694000  1.0
  O  O96  1  0.91573000  0.85879000  0.11439000  1.0
  O  O97  1  0.58427000  0.64121000  0.61440000  1.0
  O  O98  1  0.08427000  0.14121000  0.88561000  1.0
  O  O99  1  0.41573000  0.35879000  0.38560000  1.0
  O  O100  1  0.35553000  0.72918000  0.03772000  1.0
  O  O101  1  0.14450000  0.77081000  0.53772000  1.0
  O  O102  1  0.64447000  0.27082000  0.96228000  1.0
  O  O103  1  0.85550000  0.22918000  0.46228000  1.0
