# generated using pymatgen
data_Zr3H5C30N9O16
_symmetry_space_group_name_H-M   'P 1'
_cell_length_a   16.43330000
_cell_length_b   16.44440000
_cell_length_c   16.52560000
_cell_angle_alpha   84.79460000
_cell_angle_beta   89.54520000
_cell_angle_gamma   89.70130000
_symmetry_Int_Tables_number   1
_chemical_formula_structural   Zr3H5C30N9O16
_chemical_formula_sum   'Zr6 H10 C60 N18 O32'
_cell_volume   4447.20502260
_cell_formula_units_Z   2
loop_
 _symmetry_equiv_pos_site_id
 _symmetry_equiv_pos_as_xyz
  1  'x, y, z'
loop_
 _atom_site_type_symbol
 _atom_site_label
 _atom_site_symmetry_multiplicity
 _atom_site_fract_x
 _atom_site_fract_y
 _atom_site_fract_z
 _atom_site_occupancy
  Zr  Zr0  1  0.96592000  0.79953000  0.15966000  1.0
  Zr  Zr1  1  0.84694000  0.75473000  0.99174000  1.0
  Zr  Zr2  1  0.99156000  0.00211000  0.07176000  1.0
  Zr  Zr3  1  0.79311000  0.92069000  0.10384000  1.0
  Zr  Zr4  1  0.04423000  0.83664000  0.95887000  1.0
  Zr  Zr5  1  0.87155000  0.95848000  0.90413000  1.0
  H  H6  1  0.80015000  0.75240000  0.15783000  1.0
  H  H7  1  0.11293000  0.87957000  0.10439000  1.0
  H  H8  1  0.84264000  0.07299000  0.02082000  1.0
  H  H9  1  0.92262000  0.81326000  0.84123000  1.0
  H  H10  1  0.93158000  0.47468000  0.51750000  1.0
  H  H11  1  0.91755000  0.28649000  0.54569000  1.0
  H  H12  1  0.32645000  0.36719000  0.02919000  1.0
  H  H13  1  0.51303000  0.39292000  0.02481000  1.0
  H  H14  1  0.40679000  0.88603000  0.62288000  1.0
  H  H15  1  0.43259000  0.87911000  0.43778000  1.0
  C  C16  1  0.20156000  0.93491000  0.45233000  1.0
  C  C17  1  0.30574000  0.91018000  0.54020000  1.0
  C  C18  1  0.17947000  0.94014000  0.58673000  1.0
  C  C19  1  0.63373000  0.82941000  0.61374000  1.0
  C  C20  1  0.66136000  0.82938000  0.47970000  1.0
  C  C21  1  0.53267000  0.85530000  0.52238000  1.0
  C  C22  1  0.49302000  0.16916000  0.96590000  1.0
  C  C23  1  0.40706000  0.26964000  0.99806000  1.0
  C  C24  1  0.35762000  0.14657000  0.96962000  1.0
  C  C25  1  0.34185000  0.58714000  0.08945000  1.0
  C  C26  1  0.43065000  0.48972000  0.05555000  1.0
  C  C27  1  0.47611000  0.61538000  0.08043000  1.0
  C  C28  1  0.98036000  0.47849000  0.74697000  1.0
  C  C29  1  0.95146000  0.41098000  0.63702000  1.0
  C  C30  1  0.97324000  0.34089000  0.75983000  1.0
  C  C31  1  0.86648000  0.27591000  0.31909000  1.0
  C  C32  1  0.89764000  0.34766000  0.42559000  1.0
  C  C33  1  0.87834000  0.41308000  0.30019000  1.0
  C  C34  1  0.07153000  0.92946000  0.24541000  1.0
  C  C35  1  0.89101000  0.62231000  0.14817000  1.0
  C  C36  1  0.81399000  0.83669000  0.28456000  1.0
  C  C37  1  0.13222000  0.71500000  0.09276000  1.0
  C  C38  1  0.75848000  0.83072000  0.82355000  1.0
  C  C39  1  0.95659000  0.13145000  0.91049000  1.0
  C  C40  1  0.66904000  0.76997000  0.06816000  1.0
  C  C41  1  0.98072000  0.66889000  0.88640000  1.0
  C  C42  1  0.16497000  0.99213000  0.98540000  1.0
  C  C43  1  0.86089000  0.08250000  0.18472000  1.0
  C  C44  1  0.69995000  0.03508000  0.96761000  1.0
  C  C45  1  0.02770000  0.93018000  0.78201000  1.0
  C  C46  1  0.85531000  0.20141000  0.28259000  1.0
  C  C47  1  0.85243000  0.14392000  0.24132000  1.0
  C  C48  1  0.88091000  0.54462000  0.19554000  1.0
  C  C49  1  0.87847000  0.48554000  0.24535000  1.0
  C  C50  1  0.97456000  0.26674000  0.81212000  1.0
  C  C51  1  0.97156000  0.20705000  0.86110000  1.0
  C  C52  1  0.98905000  0.55117000  0.78710000  1.0
  C  C53  1  0.99056000  0.60649000  0.83115000  1.0
  C  C54  1  0.93256000  0.41401000  0.55022000  1.0
  C  C55  1  0.91664000  0.34675000  0.51213000  1.0
  C  C56  1  0.26181000  0.61853000  0.10058000  1.0
  C  C57  1  0.19901000  0.65775000  0.10274000  1.0
  C  C58  1  0.59439000  0.72391000  0.07972000  1.0
  C  C59  1  0.54063000  0.67321000  0.08223000  1.0
  C  C60  1  0.23734000  0.04065000  0.96880000  1.0
  C  C61  1  0.29151000  0.09090000  0.96602000  1.0
  C  C62  1  0.57191000  0.13400000  0.95752000  1.0
  C  C63  1  0.63268000  0.09159000  0.95657000  1.0
  C  C64  1  0.39055000  0.35210000  0.02117000  1.0
  C  C65  1  0.44877000  0.40735000  0.03282000  1.0
  C  C66  1  0.66571000  0.82322000  0.69412000  1.0
  C  C67  1  0.70376000  0.82248000  0.75700000  1.0
  C  C68  1  0.71949000  0.82441000  0.41543000  1.0
  C  C69  1  0.76945000  0.82530000  0.36064000  1.0
  C  C70  1  0.07421000  0.94635000  0.70767000  1.0
  C  C71  1  0.12356000  0.94729000  0.65240000  1.0
  C  C72  1  0.12506000  0.93868000  0.31261000  1.0
  C  C73  1  0.16603000  0.93894000  0.37353000  1.0
  C  C74  1  0.39086000  0.88961000  0.55865000  1.0
  C  C75  1  0.44772000  0.87536000  0.50220000  1.0
  N  N76  1  0.28050000  0.91546000  0.46220000  1.0
  N  N77  1  0.25755000  0.92138000  0.60497000  1.0
  N  N78  1  0.14797000  0.94945000  0.51169000  1.0
  N  N79  1  0.69010000  0.81831000  0.55579000  1.0
  N  N80  1  0.58360000  0.84721000  0.45898000  1.0
  N  N81  1  0.55489000  0.84750000  0.60132000  1.0
  N  N82  1  0.48495000  0.24573000  0.98689000  1.0
  N  N83  1  0.34105000  0.22217000  0.99097000  1.0
  N  N84  1  0.43194000  0.11694000  0.95450000  1.0
  N  N85  1  0.35237000  0.51056000  0.06942000  1.0
  N  N86  1  0.49498000  0.53998000  0.05977000  1.0
  N  N87  1  0.40116000  0.64233000  0.09741000  1.0
  N  N88  1  0.96319000  0.48375000  0.66718000  1.0
  N  N89  1  0.95494000  0.33764000  0.68103000  1.0
  N  N90  1  0.98794000  0.40920000  0.79634000  1.0
  N  N91  1  0.88329000  0.27379000  0.39875000  1.0
  N  N92  1  0.89663000  0.41935000  0.37862000  1.0
  N  N93  1  0.86164000  0.34345000  0.26675000  1.0
  O  O94  1  0.06003000  0.98970000  0.19320000  1.0
  O  O95  1  0.85826000  0.63578000  0.07900000  1.0
  O  O96  1  0.88305000  0.80398000  0.27545000  1.0
  O  O97  1  0.08388000  0.72401000  0.15138000  1.0
  O  O98  1  0.13114000  0.75366000  0.02176000  1.0
  O  O99  1  0.77408000  0.88130000  0.23060000  1.0
  O  O100  1  0.93366000  0.67251000  0.18500000  1.0
  O  O101  1  0.04061000  0.85795000  0.24600000  1.0
  O  O102  1  0.96036000  0.77730000  0.03785000  1.0
  O  O103  1  0.91658000  0.91443000  0.13141000  1.0
  O  O104  1  0.83399000  0.78809000  0.12192000  1.0
  O  O105  1  0.05744000  0.87902000  0.08483000  1.0
  O  O106  1  0.77137000  0.76990000  0.87467000  1.0
  O  O107  1  0.98879000  0.11813000  0.97997000  1.0
  O  O108  1  0.67839000  0.83743000  0.09832000  1.0
  O  O109  1  0.03861000  0.71780000  0.89552000  1.0
  O  O110  1  0.15574000  0.92429000  0.95589000  1.0
  O  O111  1  0.80237000  0.03477000  0.17439000  1.0
  O  O112  1  0.74910000  0.02689000  0.90940000  1.0
  O  O113  1  0.95817000  0.96201000  0.79104000  1.0
  O  O114  1  0.70253000  0.99824000  0.03937000  1.0
  O  O115  1  0.06502000  0.88042000  0.83349000  1.0
  O  O116  1  0.72167000  0.73311000  0.02657000  1.0
  O  O117  1  0.93030000  0.08468000  0.14852000  1.0
  O  O118  1  0.11534000  0.02580000  0.03270000  1.0
  O  O119  1  0.91041000  0.66844000  0.92062000  1.0
  O  O120  1  0.79104000  0.90156000  0.82170000  1.0
  O  O121  1  0.90836000  0.08399000  0.87650000  1.0
  O  O122  1  0.98163000  0.94578000  0.96489000  1.0
  O  O123  1  0.81744000  0.87804000  0.99231000  1.0
  O  O124  1  0.86301000  0.01733000  0.02377000  1.0
  O  O125  1  0.92142000  0.83069000  0.89577000  1.0
