# generated using pymatgen
data_H10Pd(C6S)2
_symmetry_space_group_name_H-M   'P 1'
_cell_length_a   6.69988000
_cell_length_b   9.67575468
_cell_length_c   9.67615795
_cell_angle_alpha   84.25078827
_cell_angle_beta   89.99900747
_cell_angle_gamma   89.99847081
_symmetry_Int_Tables_number   1
_chemical_formula_structural   H10Pd(C6S)2
_chemical_formula_sum   'H20 Pd2 C24 S4'
_cell_volume   624.11520437
_cell_formula_units_Z   2
loop_
 _symmetry_equiv_pos_site_id
 _symmetry_equiv_pos_as_xyz
  1  'x, y, z'
loop_
 _atom_site_type_symbol
 _atom_site_label
 _atom_site_symmetry_multiplicity
 _atom_site_fract_x
 _atom_site_fract_y
 _atom_site_fract_z
 _atom_site_occupancy
  C  C0  1  0.77204000  0.14965500  0.24713500  1.0
  C  C1  1  0.77204500  0.75285000  0.85036000  1.0
  C  C2  1  0.27203500  0.24712500  0.14965500  1.0
  C  C3  1  0.27202500  0.85037500  0.75285500  1.0
  C  C4  1  0.70651500  0.03677500  0.33823500  1.0
  C  C5  1  0.70648000  0.66175000  0.96323000  1.0
  C  C6  1  0.20649500  0.33824000  0.03679000  1.0
  C  C7  1  0.20649500  0.96324500  0.66175500  1.0
  C  C8  1  0.70441000  0.04669000  0.48087000  1.0
  C  C9  1  0.70438000  0.51912500  0.95329500  1.0
  C  C10  1  0.20440500  0.48086500  0.04670500  1.0
  C  C11  1  0.20440000  0.95332000  0.51912000  1.0
  C  C12  1  0.77082000  0.16778000  0.53396000  1.0
  C  C13  1  0.77081500  0.46602500  0.83222500  1.0
  C  C14  1  0.27083500  0.53396000  0.16778000  1.0
  C  C15  1  0.27081000  0.83224000  0.46603000  1.0
  C  C16  1  0.84076500  0.27861000  0.44358000  1.0
  C  C17  1  0.84078000  0.55641000  0.72139000  1.0
  C  C18  1  0.34077500  0.44356000  0.27862000  1.0
  C  C19  1  0.34075000  0.72139500  0.55641500  1.0
  C  C20  1  0.84022000  0.27070500  0.30038500  1.0
  C  C21  1  0.84024000  0.69960500  0.72930500  1.0
  C  C22  1  0.34022000  0.30037000  0.27071000  1.0
  C  C23  1  0.34020500  0.72931000  0.69961000  1.0
  H  H24  1  0.65399000  0.94289000  0.29642000  1.0
  H  H25  1  0.65396000  0.70356000  0.05710000  1.0
  H  H26  1  0.15397000  0.29643000  0.94292000  1.0
  H  H27  1  0.15398000  0.05713000  0.70357000  1.0
  H  H28  1  0.65086500  0.95976000  0.55145000  1.0
  H  H29  1  0.65083500  0.44853000  0.04022000  1.0
  H  H30  1  0.15088000  0.55146500  0.95977500  1.0
  H  H31  1  0.15088000  0.04026000  0.44854000  1.0
  H  H32  1  0.76985000  0.17348000  0.64591000  1.0
  H  H33  1  0.76990000  0.35405500  0.82652500  1.0
  H  H34  1  0.26991000  0.64593000  0.17348000  1.0
  H  H35  1  0.26989000  0.82654000  0.35407000  1.0
  H  H36  1  0.89656500  0.37257500  0.48362500  1.0
  H  H37  1  0.89661000  0.51636000  0.62744000  1.0
  H  H38  1  0.39662000  0.48361500  0.37256500  1.0
  H  H39  1  0.39659000  0.62745000  0.51636000  1.0
  H  H40  1  0.89193500  0.35829000  0.22992000  1.0
  H  H41  1  0.89199000  0.77005500  0.64174500  1.0
  H  H42  1  0.39196500  0.22990500  0.35827500  1.0
  H  H43  1  0.39194500  0.64172500  0.77006500  1.0
  Pd  Pd44  1  0.01405000  0.00158500  0.99841500  1.0
  Pd  Pd45  1  0.51405000  0.99842000  0.00158000  1.0
  S  S46  1  0.76319500  0.14967000  0.06376000  1.0
  S  S47  1  0.76320000  0.93624500  0.85033500  1.0
  S  S48  1  0.26319500  0.06374500  0.14967500  1.0
  S  S49  1  0.26321000  0.85033500  0.93623500  1.0
