# generated using pymatgen
data_La2P5H40C23N5O19
_symmetry_space_group_name_H-M   'P 1'
_cell_length_a   13.00890000
_cell_length_b   13.39480000
_cell_length_c   15.09320000
_cell_angle_alpha   109.47900000
_cell_angle_beta   101.25100000
_cell_angle_gamma   110.74800000
_symmetry_Int_Tables_number   1
_chemical_formula_structural   La2P5H40C23N5O19
_chemical_formula_sum   'La4 P10 H80 C46 N10 O38'
_cell_volume   2167.39513577
_cell_formula_units_Z   2
loop_
 _symmetry_equiv_pos_site_id
 _symmetry_equiv_pos_as_xyz
  1  'x, y, z'
loop_
 _atom_site_type_symbol
 _atom_site_label
 _atom_site_symmetry_multiplicity
 _atom_site_fract_x
 _atom_site_fract_y
 _atom_site_fract_z
 _atom_site_occupancy
  La  La0  1  0.31618000  0.35821000  0.57550000  1.0
  La  La1  1  0.09891000  0.11016000  0.65704000  1.0
  La  La2  1  0.68382000  0.64178000  0.42450000  1.0
  La  La3  1  0.90109000  0.88984000  0.34296000  1.0
  P  P4  1  0.98233000  0.17374000  0.43992000  1.0
  P  P5  1  0.41775000  0.22031000  0.73049000  1.0
  P  P6  1  0.21652000  0.07968000  0.43745000  1.0
  P  P7  1  0.38433000  0.40800000  0.36711000  1.0
  P  P8  1  0.81815000  0.81426000  0.06738000  1.0
  P  P9  1  0.01767000  0.82626000  0.56008000  1.0
  P  P10  1  0.58225000  0.77969000  0.26951000  1.0
  P  P11  1  0.78347000  0.92031000  0.56255000  1.0
  P  P12  1  0.61567000  0.59200000  0.63288000  1.0
  P  P13  1  0.18185000  0.18574000  0.93263000  1.0
  H  H14  1  0.07204000  0.41890000  0.54735000  1.0
  H  H15  1  0.40550000  0.32568000  0.93986000  1.0
  H  H16  1  0.41526000  0.06644000  0.57712000  1.0
  H  H17  1  0.15395000  0.23152000  0.09973000  1.0
  H  H18  1  0.95919000  0.08264000  0.23915000  1.0
  H  H19  1  0.03450000  0.43724000  0.87511000  1.0
  H  H20  1  0.09779000  0.64793000  0.99712000  1.0
  H  H21  1  0.25063000  0.81436000  0.98556000  1.0
  H  H22  1  0.33671000  0.77189000  0.85188000  1.0
  H  H23  1  0.91156000  0.26886000  0.56422000  1.0
  H  H24  1  0.82118000  0.23384000  0.44040000  1.0
  H  H25  1  0.85409000  0.45020000  0.53348000  1.0
  H  H26  1  0.95876000  0.47117000  0.64363000  1.0
  H  H27  1  0.00278000  0.33625000  0.36902000  1.0
  H  H28  1  0.88190000  0.37215000  0.37064000  1.0
  H  H29  1  0.60863000  0.36317000  0.86477000  1.0
  H  H30  1  0.53133000  0.24423000  0.89238000  1.0
  H  H31  1  0.59096000  0.39481000  0.06232000  1.0
  H  H32  1  0.65826000  0.50760000  0.02452000  1.0
  H  H33  1  0.53435000  0.51716000  0.88182000  1.0
  H  H34  1  0.38345000  0.41143000  0.82190000  1.0
  H  H35  1  0.24271000  0.90624000  0.35521000  1.0
  H  H36  1  0.20722000  0.91337000  0.46420000  1.0
  H  H37  1  0.44599000  0.00630000  0.37119000  1.0
  H  H38  1  0.45949000  0.14509000  0.45563000  1.0
  H  H39  1  0.34578000  0.85629000  0.52489000  1.0
  H  H40  1  0.37780000  0.83501000  0.41163000  1.0
  H  H41  1  0.35251000  0.34007000  0.18968000  1.0
  H  H42  1  0.28883000  0.43631000  0.22879000  1.0
  H  H43  1  0.24590000  0.13234000  0.18612000  1.0
  H  H44  1  0.19663000  0.17726000  0.28733000  1.0
  H  H45  1  0.11270000  0.30798000  0.30130000  1.0
  H  H46  1  0.09173000  0.36203000  0.20848000  1.0
  H  H47  1  0.95176000  0.16312000  0.07695000  1.0
  H  H48  1  0.90090000  0.19944000  0.17936000  1.0
  H  H49  1  0.05634000  0.97363000  0.16751000  1.0
  H  H50  1  0.04182000  0.01201000  0.06499000  1.0
  H  H51  1  0.77780000  0.98344000  0.13397000  1.0
  H  H52  1  0.81528000  0.97486000  0.02464000  1.0
  H  H53  1  0.38731000  0.25401000  0.38282000  1.0
  H  H54  1  0.92796000  0.58110000  0.45265000  1.0
  H  H55  1  0.59450000  0.67431000  0.06014000  1.0
  H  H56  1  0.58474000  0.93356000  0.42288000  1.0
  H  H57  1  0.84605000  0.76848000  0.90027000  1.0
  H  H58  1  0.04081000  0.91736000  0.76085000  1.0
  H  H59  1  0.96551000  0.56277000  0.12489000  1.0
  H  H60  1  0.90221000  0.35208000  0.00288000  1.0
  H  H61  1  0.74938000  0.18565000  0.01444000  1.0
  H  H62  1  0.66330000  0.22812000  0.14812000  1.0
  H  H63  1  0.08844000  0.73114000  0.43578000  1.0
  H  H64  1  0.17881000  0.76616000  0.55961000  1.0
  H  H65  1  0.14591000  0.54980000  0.46652000  1.0
  H  H66  1  0.04123000  0.52883000  0.35637000  1.0
  H  H67  1  0.99722000  0.66375000  0.63098000  1.0
  H  H68  1  0.11810000  0.62785000  0.62936000  1.0
  H  H69  1  0.39137000  0.63683000  0.13523000  1.0
  H  H70  1  0.46866000  0.75577000  0.10762000  1.0
  H  H71  1  0.40903000  0.60518000  0.93768000  1.0
  H  H72  1  0.34174000  0.49240000  0.97549000  1.0
  H  H73  1  0.46565000  0.48284000  0.11818000  1.0
  H  H74  1  0.61655000  0.58857000  0.17810000  1.0
  H  H75  1  0.75729000  0.09376000  0.64479000  1.0
  H  H76  1  0.79277000  0.08663000  0.53579000  1.0
  H  H77  1  0.55400000  0.99370000  0.62880000  1.0
  H  H78  1  0.54050000  0.85491000  0.54436000  1.0
  H  H79  1  0.65422000  0.14370000  0.47511000  1.0
  H  H80  1  0.62219000  0.16499000  0.58836000  1.0
  H  H81  1  0.64749000  0.65992000  0.81032000  1.0
  H  H82  1  0.71117000  0.56369000  0.77121000  1.0
  H  H83  1  0.75410000  0.86766000  0.81388000  1.0
  H  H84  1  0.80337000  0.82274000  0.71267000  1.0
  H  H85  1  0.88730000  0.69202000  0.69870000  1.0
  H  H86  1  0.90827000  0.63796000  0.79152000  1.0
  H  H87  1  0.04824000  0.83688000  0.92305000  1.0
  H  H88  1  0.09910000  0.80056000  0.82065000  1.0
  H  H89  1  0.94366000  0.02637000  0.83250000  1.0
  H  H90  1  0.95818000  0.98798000  0.93501000  1.0
  H  H91  1  0.22220000  0.01656000  0.86603000  1.0
  H  H92  1  0.18472000  0.02514000  0.97536000  1.0
  H  H93  1  0.61269000  0.74599000  0.61718000  1.0
  C  C94  1  0.28762000  0.55438000  0.71045000  1.0
  C  C95  1  0.11492000  0.35985000  0.72970000  1.0
  C  C96  1  0.23400000  0.58200000  0.78937000  1.0
  C  C97  1  0.14904000  0.48740000  0.79653000  1.0
  C  C98  1  0.09960000  0.51210000  0.87082000  1.0
  C  C99  1  0.13560000  0.62920000  0.93873000  1.0
  C  C100  1  0.22124000  0.72271000  0.93208000  1.0
  C  C101  1  0.26965000  0.69933000  0.85725000  1.0
  C  C102  1  0.91106000  0.26654000  0.49071000  1.0
  C  C103  1  0.94705000  0.47673000  0.57171000  1.0
  C  C104  1  0.97419000  0.39870000  0.41058000  1.0
  C  C105  1  0.52198000  0.30569000  0.86190000  1.0
  C  C106  1  0.57716000  0.45556000  0.03311000  1.0
  C  C107  1  0.45661000  0.46467000  0.89388000  1.0
  C  C108  1  0.26367000  0.96502000  0.43417000  1.0
  C  C109  1  0.47048000  0.06627000  0.45060000  1.0
  C  C110  1  0.40389000  0.89797000  0.49041000  1.0
  C  C111  1  0.30013000  0.36129000  0.23536000  1.0
  C  C112  1  0.17708000  0.15313000  0.20678000  1.0
  C  C113  1  0.08994000  0.28507000  0.22059000  1.0
  C  C114  1  0.96928000  0.18036000  0.15619000  1.0
  C  C115  1  0.05877000  0.04453000  0.14576000  1.0
  C  C116  1  0.83820000  0.96796000  0.09572000  1.0
  C  C117  1  0.71238000  0.44562000  0.28954000  1.0
  C  C118  1  0.88509000  0.64015000  0.27030000  1.0
  C  C119  1  0.76601000  0.41800000  0.21063000  1.0
  C  C120  1  0.85097000  0.51261000  0.20347000  1.0
  C  C121  1  0.90042000  0.48791000  0.12919000  1.0
  C  C122  1  0.86441000  0.37081000  0.06127000  1.0
  C  C123  1  0.77877000  0.27729000  0.06791000  1.0
  C  C124  1  0.73036000  0.30068000  0.14275000  1.0
  C  C125  1  0.08894000  0.73346000  0.50929000  1.0
  C  C126  1  0.05295000  0.52327000  0.42829000  1.0
  C  C127  1  0.02580000  0.60130000  0.58942000  1.0
  C  C128  1  0.47802000  0.69431000  0.13810000  1.0
  C  C129  1  0.42284000  0.54444000  0.96689000  1.0
  C  C130  1  0.54339000  0.53533000  0.10612000  1.0
  C  C131  1  0.73633000  0.03498000  0.56583000  1.0
  C  C132  1  0.52951000  0.93372000  0.54940000  1.0
  C  C133  1  0.59610000  0.10203000  0.50959000  1.0
  C  C134  1  0.69987000  0.63871000  0.76464000  1.0
  C  C135  1  0.82292000  0.84687000  0.79322000  1.0
  C  C136  1  0.91006000  0.71493000  0.77941000  1.0
  C  C137  1  0.03073000  0.81965000  0.84381000  1.0
  C  C138  1  0.94123000  0.95547000  0.85424000  1.0
  C  C139  1  0.16180000  0.03204000  0.90428000  1.0
  N  N140  1  0.98184000  0.39123000  0.50823000  1.0
  N  N141  1  0.48344000  0.38264000  0.93087000  1.0
  N  N142  1  0.38798000  0.00352000  0.49220000  1.0
  N  N143  1  0.18093000  0.25681000  0.18835000  1.0
  N  N144  1  0.95893000  0.06881000  0.16376000  1.0
  N  N145  1  0.01815000  0.60877000  0.49177000  1.0
  N  N146  1  0.51656000  0.61736000  0.06914000  1.0
  N  N147  1  0.61201000  0.99647000  0.50780000  1.0
  N  N148  1  0.81907000  0.74319000  0.81165000  1.0
  N  N149  1  0.04107000  0.93119000  0.83624000  1.0
  O  O150  1  0.22183000  0.51166000  0.61790000  1.0
  O  O151  1  0.39095000  0.56700000  0.73715000  1.0
  O  O152  1  0.19351000  0.33661000  0.69877000  1.0
  O  O153  1  0.01378000  0.28041000  0.70859000  1.0
  O  O154  1  0.96869000  0.09386000  0.49438000  1.0
  O  O155  1  0.10580000  0.26673000  0.46504000  1.0
  O  O156  1  0.91248000  0.09503000  0.32695000  1.0
  O  O157  1  0.42933000  0.31240000  0.68938000  1.0
  O  O158  1  0.46216000  0.13186000  0.67974000  1.0
  O  O159  1  0.29914000  0.16196000  0.74110000  1.0
  O  O160  1  0.20899000  0.13581000  0.54136000  1.0
  O  O161  1  0.31110000  0.18089000  0.42858000  1.0
  O  O162  1  0.09975000  0.00930000  0.34990000  1.0
  O  O163  1  0.30096000  0.40014000  0.42509000  1.0
  O  O164  1  0.43260000  0.31236000  0.35939000  1.0
  O  O165  1  0.48421000  0.52859000  0.40002000  1.0
  O  O166  1  0.68557000  0.73671000  0.01828000  1.0
  O  O167  1  0.88464000  0.78990000  0.99405000  1.0
  O  O168  1  0.87889000  0.82002000  0.16733000  1.0
  O  O169  1  0.77817000  0.48834000  0.38210000  1.0
  O  O170  1  0.60906000  0.43301000  0.26285000  1.0
  O  O171  1  0.80650000  0.66339000  0.30123000  1.0
  O  O172  1  0.98623000  0.71960000  0.29142000  1.0
  O  O173  1  0.03131000  0.90614000  0.50562000  1.0
  O  O174  1  0.89420000  0.73327000  0.53496000  1.0
  O  O175  1  0.08752000  0.90496000  0.67305000  1.0
  O  O176  1  0.57067000  0.68760000  0.31062000  1.0
  O  O177  1  0.53783000  0.86813000  0.32026000  1.0
  O  O178  1  0.70085000  0.83803000  0.25890000  1.0
  O  O179  1  0.79101000  0.86419000  0.45864000  1.0
  O  O180  1  0.68889000  0.81910000  0.57142000  1.0
  O  O181  1  0.90025000  0.99070000  0.65010000  1.0
  O  O182  1  0.69904000  0.59986000  0.57491000  1.0
  O  O183  1  0.56740000  0.68764000  0.64061000  1.0
  O  O184  1  0.51579000  0.47141000  0.59998000  1.0
  O  O185  1  0.31443000  0.26329000  0.98172000  1.0
  O  O186  1  0.11536000  0.21010000  0.00595000  1.0
  O  O187  1  0.12110000  0.17998000  0.83267000  1.0
