# generated using pymatgen
data_TbH6C7(NO4)2
_symmetry_space_group_name_H-M   'P 1'
_cell_length_a   6.10016000
_cell_length_b   6.69214974
_cell_length_c   13.10070000
_cell_angle_alpha   91.33671727
_cell_angle_beta   97.87420000
_cell_angle_gamma   113.96982871
_symmetry_Int_Tables_number   1
_chemical_formula_structural   TbH6C7(NO4)2
_chemical_formula_sum   'Tb2 H12 C14 N4 O16'
_cell_volume   482.23551563
_cell_formula_units_Z   2
loop_
 _symmetry_equiv_pos_site_id
 _symmetry_equiv_pos_as_xyz
  1  'x, y, z'
loop_
 _atom_site_type_symbol
 _atom_site_label
 _atom_site_symmetry_multiplicity
 _atom_site_fract_x
 _atom_site_fract_y
 _atom_site_fract_z
 _atom_site_occupancy
  Tb  Tb0  1  0.57242000  0.37362000  0.22648000  1.0
  Tb  Tb1  1  0.42758000  0.62638000  0.77352000  1.0
  H  H2  1  0.61103000  0.96845000  0.03652000  1.0
  H  H3  1  0.05190000  0.82167000  0.60708000  1.0
  H  H4  1  0.35389000  0.05991000  0.39040000  1.0
  H  H5  1  0.48342000  0.93452000  0.33540000  1.0
  H  H6  1  0.07502000  0.61910000  0.17346000  1.0
  H  H7  1  0.10968000  0.78735000  0.26495000  1.0
  H  H8  1  0.38896000  0.03153000  0.96349000  1.0
  H  H9  1  0.94810000  0.17834000  0.39292000  1.0
  H  H10  1  0.64610000  0.94010000  0.60959000  1.0
  H  H11  1  0.51657000  0.06548000  0.66461000  1.0
  H  H12  1  0.92499000  0.38089000  0.82654000  1.0
  H  H13  1  0.89032000  0.21265000  0.73505000  1.0
  C  C14  1  0.97559000  0.17224000  0.19568000  1.0
  C  C15  1  0.98886000  0.07442000  0.09377000  1.0
  C  C16  1  0.78373000  0.98335000  0.01745000  1.0
  C  C17  1  0.70295000  0.72298000  0.43074000  1.0
  C  C18  1  0.86069000  0.60608000  0.46843000  1.0
  C  C19  1  0.02913000  0.67790000  0.55969000  1.0
  C  C20  1  0.41202000  0.54954000  0.01496000  1.0
  C  C21  1  0.02441000  0.82776000  0.80432000  1.0
  C  C22  1  0.01113000  0.92557000  0.90624000  1.0
  C  C23  1  0.21626000  0.01663000  0.98256000  1.0
  C  C24  1  0.29705000  0.27703000  0.56925000  1.0
  C  C25  1  0.13931000  0.39393000  0.53157000  1.0
  C  C26  1  0.97088000  0.32212000  0.44031000  1.0
  C  C27  1  0.58800000  0.45046000  0.98504000  1.0
  N  N28  1  0.20758000  0.09192000  0.07673000  1.0
  N  N29  1  0.83370000  0.42914000  0.40856000  1.0
  N  N30  1  0.79241000  0.90806000  0.92328000  1.0
  N  N31  1  0.16631000  0.57088000  0.59144000  1.0
  O  O32  1  0.17388000  0.28225000  0.25466000  1.0
  O  O33  1  0.76663000  0.14336000  0.21431000  1.0
  O  O34  1  0.59869000  0.67180000  0.33600000  1.0
  O  O35  1  0.68382000  0.86149000  0.49100000  1.0
  O  O36  1  0.39465000  0.56350000  0.10995000  1.0
  O  O37  1  0.30305000  0.61122000  0.94183000  1.0
  O  O38  1  0.38065000  0.01588000  0.32145000  1.0
  O  O39  1  0.98338000  0.66069000  0.21920000  1.0
  O  O40  1  0.82612000  0.71776000  0.74533000  1.0
  O  O41  1  0.23337000  0.85664000  0.78569000  1.0
  O  O42  1  0.40130000  0.32820000  0.66399000  1.0
  O  O43  1  0.31618000  0.13852000  0.50899000  1.0
  O  O44  1  0.60537000  0.43650000  0.89005000  1.0
  O  O45  1  0.69695000  0.38876000  0.05817000  1.0
  O  O46  1  0.61935000  0.98413000  0.67855000  1.0
  O  O47  1  0.01662000  0.33931000  0.78080000  1.0
