# generated using pymatgen
data_MnH14C18(N2O5)2
_symmetry_space_group_name_H-M   'P 1'
_cell_length_a   4.93352000
_cell_length_b   11.70770000
_cell_length_c   15.23320000
_cell_angle_alpha   91.86050000
_cell_angle_beta   90.42590000
_cell_angle_gamma   96.22160000
_symmetry_Int_Tables_number   1
_chemical_formula_structural   MnH14C18(N2O5)2
_chemical_formula_sum   'Mn2 H28 C36 N8 O20'
_cell_volume   874.17574913
_cell_formula_units_Z   2
loop_
 _symmetry_equiv_pos_site_id
 _symmetry_equiv_pos_as_xyz
  1  'x, y, z'
loop_
 _atom_site_type_symbol
 _atom_site_label
 _atom_site_symmetry_multiplicity
 _atom_site_fract_x
 _atom_site_fract_y
 _atom_site_fract_z
 _atom_site_occupancy
  Mn  Mn0  1  0.46074000  0.42509000  0.66738000  1.0
  Mn  Mn1  1  0.53926000  0.57494000  0.33265000  1.0
  H  H2  1  0.10277000  0.99062000  0.75446000  1.0
  H  H3  1  0.89719000  0.00944000  0.24551000  1.0
  H  H4  1  0.31331000  0.17547000  0.69530000  1.0
  H  H5  1  0.68661000  0.82454000  0.30466000  1.0
  H  H6  1  0.85702000  0.98924000  0.54019000  1.0
  H  H7  1  0.14290000  0.01077000  0.45977000  1.0
  H  H8  1  0.55028000  0.05151000  0.84912000  1.0
  H  H9  1  0.44969000  0.94846000  0.15088000  1.0
  H  H10  1  0.94172000  0.17126000  0.78372000  1.0
  H  H11  1  0.05827000  0.82870000  0.21628000  1.0
  H  H12  1  0.95252000  0.41372000  0.00221000  1.0
  H  H13  1  0.04755000  0.58622000  0.99780000  1.0
  H  H14  1  0.83273000  0.78511000  0.55048000  1.0
  H  H15  1  0.16737000  0.21491000  0.44952000  1.0
  H  H16  1  0.09440000  0.77979000  0.75862000  1.0
  H  H17  1  0.90559000  0.22022000  0.24135000  1.0
  H  H18  1  0.20590000  0.03388000  0.96053000  1.0
  H  H19  1  0.79407000  0.96612000  0.03947000  1.0
  H  H20  1  0.58888000  0.38598000  0.10762000  1.0
  H  H21  1  0.41117000  0.61398000  0.89239000  1.0
  H  H22  1  0.97738000  0.38292000  0.57588000  1.0
  H  H23  1  0.02270000  0.61709000  0.42418000  1.0
  H  H24  1  0.63957000  0.48146000  0.82163000  1.0
  H  H25  1  0.36029000  0.51847000  0.17838000  1.0
  H  H26  1  0.20489000  0.42203000  0.50529000  1.0
  H  H27  1  0.79534000  0.57798000  0.49476000  1.0
  H  H28  1  0.89847000  0.53761000  0.76661000  1.0
  H  H29  1  0.10151000  0.46236000  0.23341000  1.0
  C  C30  1  0.56774000  0.68165000  0.62495000  1.0
  C  C31  1  0.43230000  0.31836000  0.37503000  1.0
  C  C32  1  0.34284000  0.68116000  0.69081000  1.0
  C  C33  1  0.65723000  0.31886000  0.30919000  1.0
  C  C34  1  0.36422000  0.88763000  0.68174000  1.0
  C  C35  1  0.63576000  0.11239000  0.31823000  1.0
  C  C36  1  0.26759000  0.99192000  0.70715000  1.0
  C  C37  1  0.73235000  0.00812000  0.29282000  1.0
  C  C38  1  0.38509000  0.09454000  0.67350000  1.0
  C  C39  1  0.61486000  0.90548000  0.32647000  1.0
  C  C40  1  0.59927000  0.09457000  0.61313000  1.0
  C  C41  1  0.40068000  0.90546000  0.38684000  1.0
  C  C42  1  0.69336000  0.99052000  0.58729000  1.0
  C  C43  1  0.30663000  0.00949000  0.41268000  1.0
  C  C44  1  0.57902000  0.88759000  0.62122000  1.0
  C  C45  1  0.42101000  0.11244000  0.37876000  1.0
  C  C46  1  0.73504000  0.20192000  0.57393000  1.0
  C  C47  1  0.26488000  0.79812000  0.42604000  1.0
  C  C48  1  0.17448000  0.13807000  0.06995000  1.0
  C  C49  1  0.82553000  0.86192000  0.93005000  1.0
  C  C50  1  0.29828000  0.24651000  0.11754000  1.0
  C  C51  1  0.70176000  0.75347000  0.88246000  1.0
  C  C52  1  0.52535000  0.16802000  0.96031000  1.0
  C  C53  1  0.47462000  0.83196000  0.03968000  1.0
  C  C54  1  0.63992000  0.13059000  0.88219000  1.0
  C  C55  1  0.36004000  0.86940000  0.11779000  1.0
  C  C56  1  0.85855000  0.19652000  0.84637000  1.0
  C  C57  1  0.14144000  0.80345000  0.15361000  1.0
  C  C58  1  0.97425000  0.29887000  0.88891000  1.0
  C  C59  1  0.02573000  0.70110000  0.11109000  1.0
  C  C60  1  0.86622000  0.33466000  0.96828000  1.0
  C  C61  1  0.13377000  0.66529000  0.03173000  1.0
  C  C62  1  0.63819000  0.27083000  0.00330000  1.0
  C  C63  1  0.36177000  0.72914000  0.99670000  1.0
  C  C64  1  0.20472000  0.36972000  0.84524000  1.0
  C  C65  1  0.79524000  0.63027000  0.15480000  1.0
  N  N66  1  0.67133000  0.78376000  0.59529000  1.0
  N  N67  1  0.32874000  0.21626000  0.40471000  1.0
  N  N68  1  0.25463000  0.78344000  0.71383000  1.0
  N  N69  1  0.74539000  0.21658000  0.28615000  1.0
  N  N70  1  0.29980000  0.10598000  0.99592000  1.0
  N  N71  1  0.70019000  0.89401000  0.00408000  1.0
  N  N72  1  0.51731000  0.30574000  0.08027000  1.0
  N  N73  1  0.48273000  0.69423000  0.91974000  1.0
  O  O74  1  0.65278000  0.58818000  0.60056000  1.0
  O  O75  1  0.34722000  0.41183000  0.39942000  1.0
  O  O76  1  0.24636000  0.58818000  0.72186000  1.0
  O  O77  1  0.75385000  0.41186000  0.27818000  1.0
  O  O78  1  0.89967000  0.18954000  0.51238000  1.0
  O  O79  1  0.10031000  0.81051000  0.48760000  1.0
  O  O80  1  0.68192000  0.30120000  0.60421000  1.0
  O  O81  1  0.31795000  0.69882000  0.39579000  1.0
  O  O82  1  0.96495000  0.08286000  0.09933000  1.0
  O  O83  1  0.03500000  0.91715000  0.90066000  1.0
  O  O84  1  0.19669000  0.27892000  0.18766000  1.0
  O  O85  1  0.80331000  0.72108000  0.81235000  1.0
  O  O86  1  0.25851000  0.33546000  0.76729000  1.0
  O  O87  1  0.74143000  0.66456000  0.23274000  1.0
  O  O88  1  0.33056000  0.45572000  0.88666000  1.0
  O  O89  1  0.66947000  0.54424000  0.11340000  1.0
  O  O90  1  0.15793000  0.42854000  0.56818000  1.0
  O  O91  1  0.84211000  0.57152000  0.43187000  1.0
  O  O92  1  0.75860000  0.47155000  0.77033000  1.0
  O  O93  1  0.24145000  0.52840000  0.22972000  1.0
