# generated using pymatgen
data_CdH16C19NO4
_symmetry_space_group_name_H-M   'P 1'
_cell_length_a   6.08775000
_cell_length_b   9.91258000
_cell_length_c   15.19704864
_cell_angle_alpha   78.97440469
_cell_angle_beta   79.82037489
_cell_angle_gamma   72.33800000
_symmetry_Int_Tables_number   1
_chemical_formula_structural   CdH16C19NO4
_chemical_formula_sum   'Cd2 H32 C38 N2 O8'
_cell_volume   850.77609616
_cell_formula_units_Z   2
loop_
 _symmetry_equiv_pos_site_id
 _symmetry_equiv_pos_as_xyz
  1  'x, y, z'
loop_
 _atom_site_type_symbol
 _atom_site_label
 _atom_site_symmetry_multiplicity
 _atom_site_fract_x
 _atom_site_fract_y
 _atom_site_fract_z
 _atom_site_occupancy
  Cd  Cd0  1  0.66164000  0.83740000  0.42160000  1.0
  Cd  Cd1  1  0.33837000  0.16258000  0.57840000  1.0
  H  H2  1  0.51995000  0.79069000  0.18970000  1.0
  H  H3  1  0.48007000  0.20931000  0.81031000  1.0
  H  H4  1  0.89986000  0.61182000  0.15828000  1.0
  H  H5  1  0.10015000  0.38818000  0.84173000  1.0
  H  H6  1  0.93514000  0.35233000  0.19890000  1.0
  H  H7  1  0.06483000  0.64766000  0.80111000  1.0
  H  H8  1  0.59499000  0.27065000  0.28296000  1.0
  H  H9  1  0.40498000  0.72936000  0.71704000  1.0
  H  H10  1  0.22096000  0.44936000  0.32071000  1.0
  H  H11  1  0.77902000  0.55065000  0.67928000  1.0
  H  H12  1  0.14397000  0.85951000  0.14843000  1.0
  H  H13  1  0.85603000  0.14051000  0.85157000  1.0
  H  H14  1  0.40045000  0.12092000  0.17790000  1.0
  H  H15  1  0.59955000  0.87911000  0.82209000  1.0
  H  H16  1  0.30154000  0.32140000  0.05133000  1.0
  H  H17  1  0.69849000  0.67866000  0.94867000  1.0
  H  H18  1  0.61801000  0.39604000  0.94437000  1.0
  H  H19  1  0.38203000  0.60402000  0.05565000  1.0
  H  H20  1  0.03240000  0.26597000  0.96325000  1.0
  H  H21  1  0.96764000  0.73405000  0.03678000  1.0
  H  H22  1  0.12877000  0.06576000  0.08617000  1.0
  H  H23  1  0.87122000  0.93425000  0.91385000  1.0
  H  H24  1  0.20783000  0.72985000  0.50504000  1.0
  H  H25  1  0.79221000  0.27008000  0.49494000  1.0
  H  H26  1  0.88762000  0.50175000  0.42504000  1.0
  H  H27  1  0.11244000  0.49817000  0.57496000  1.0
  H  H28  1  0.81852000  0.00226000  0.69094000  1.0
  H  H29  1  0.18145000  0.99776000  0.30903000  1.0
  H  H30  1  0.08851000  0.90646000  0.63649000  1.0
  H  H31  1  0.91149000  0.09354000  0.36350000  1.0
  H  H32  1  0.90265000  0.80974000  0.70562000  1.0
  H  H33  1  0.09731000  0.19027000  0.29439000  1.0
  C  C34  1  0.53551000  0.67673000  0.20917000  1.0
  C  C35  1  0.46449000  0.32327000  0.79084000  1.0
  C  C36  1  0.74868000  0.57616000  0.19099000  1.0
  C  C37  1  0.25132000  0.42384000  0.80902000  1.0
  C  C38  1  0.76993000  0.43018000  0.21590000  1.0
  C  C39  1  0.23005000  0.56982000  0.78411000  1.0
  C  C40  1  0.57968000  0.38435000  0.26255000  1.0
  C  C41  1  0.42030000  0.61566000  0.73744000  1.0
  C  C42  1  0.36852000  0.48468000  0.28315000  1.0
  C  C43  1  0.63144000  0.51533000  0.71684000  1.0
  C  C44  1  0.34295000  0.63154000  0.25506000  1.0
  C  C45  1  0.65703000  0.36848000  0.74494000  1.0
  C  C46  1  0.11242000  0.73522000  0.27798000  1.0
  C  C47  1  0.88757000  0.26478000  0.72202000  1.0
  C  C48  1  0.03229000  0.85452000  0.21249000  1.0
  C  C49  1  0.96769000  0.14549000  0.78751000  1.0
  C  C50  1  0.82001000  0.96266000  0.21910000  1.0
  C  C51  1  0.17994000  0.03735000  0.78091000  1.0
  C  C52  1  0.76971000  0.07848000  0.14025000  1.0
  C  C53  1  0.23028000  0.92153000  0.85974000  1.0
  C  C54  1  0.53712000  0.15258000  0.12941000  1.0
  C  C55  1  0.46288000  0.84746000  0.87059000  1.0
  C  C56  1  0.48292000  0.26520000  0.05909000  1.0
  C  C57  1  0.51709000  0.73484000  0.94091000  1.0
  C  C58  1  0.66050000  0.30739000  0.99908000  1.0
  C  C59  1  0.33951000  0.69265000  0.00093000  1.0
  C  C60  1  0.89216000  0.23451000  0.00957000  1.0
  C  C61  1  0.10784000  0.76551000  0.99045000  1.0
  C  C62  1  0.94684000  0.12033000  0.07894000  1.0
  C  C63  1  0.05316000  0.87969000  0.92107000  1.0
  C  C64  1  0.33830000  0.62713000  0.50299000  1.0
  C  C65  1  0.66176000  0.37280000  0.49698000  1.0
  C  C66  1  0.71459000  0.50015000  0.45855000  1.0
  C  C67  1  0.28546000  0.49979000  0.54144000  1.0
  C  C68  1  0.90586000  0.90747000  0.65831000  1.0
  C  C69  1  0.09412000  0.09253000  0.34167000  1.0
  C  C70  1  0.80032000  0.91008000  0.57571000  1.0
  C  C71  1  0.19968000  0.08989000  0.42429000  1.0
  N  N72  1  0.55246000  0.62646000  0.46185000  1.0
  N  N73  1  0.44759000  0.37346000  0.53814000  1.0
  O  O74  1  0.00414000  0.70412000  0.35568000  1.0
  O  O75  1  0.99584000  0.29589000  0.64431000  1.0
  O  O76  1  0.65911000  0.97395000  0.28710000  1.0
  O  O77  1  0.34085000  0.02606000  0.71290000  1.0
  O  O78  1  0.81639000  0.79007000  0.55246000  1.0
  O  O79  1  0.18365000  0.20989000  0.44753000  1.0
  O  O80  1  0.70782000  0.02983000  0.52903000  1.0
  O  O81  1  0.29214000  0.97012000  0.47096000  1.0
