# generated using pymatgen
data_Mn2H12C7O6
_symmetry_space_group_name_H-M   'P 1'
_cell_length_a   8.03115000
_cell_length_b   9.35128000
_cell_length_c   13.46200000
_cell_angle_alpha   90.00000000
_cell_angle_beta   94.92940000
_cell_angle_gamma   90.00000000
_symmetry_Int_Tables_number   1
_chemical_formula_structural   Mn2H12C7O6
_chemical_formula_sum   'Mn8 H48 C28 O24'
_cell_volume   1007.27741655
_cell_formula_units_Z   4
loop_
 _symmetry_equiv_pos_site_id
 _symmetry_equiv_pos_as_xyz
  1  'x, y, z'
loop_
 _atom_site_type_symbol
 _atom_site_label
 _atom_site_symmetry_multiplicity
 _atom_site_fract_x
 _atom_site_fract_y
 _atom_site_fract_z
 _atom_site_occupancy
  Mn  Mn0  1  0.05114000  0.66203000  0.97615000  1.0
  Mn  Mn1  1  0.44886000  0.16203000  0.02385000  1.0
  Mn  Mn2  1  0.94886000  0.33797000  0.02385000  1.0
  Mn  Mn3  1  0.55114000  0.83797000  0.97615000  1.0
  Mn  Mn4  1  0.11749000  0.01587000  0.90309000  1.0
  Mn  Mn5  1  0.38251000  0.51587000  0.09691000  1.0
  Mn  Mn6  1  0.88251000  0.98413000  0.09691000  1.0
  Mn  Mn7  1  0.61750000  0.48413000  0.90309000  1.0
  H  H8  1  0.09244000  0.59562000  0.29852000  1.0
  H  H9  1  0.40757000  0.09561000  0.70148000  1.0
  H  H10  1  0.90756000  0.40438000  0.70148000  1.0
  H  H11  1  0.59243000  0.90438000  0.29852000  1.0
  H  H12  1  0.30520000  0.62938000  0.29526000  1.0
  H  H13  1  0.19480000  0.12938000  0.70474000  1.0
  H  H14  1  0.69480000  0.37062000  0.70474000  1.0
  H  H15  1  0.80520000  0.87062000  0.29527000  1.0
  H  H16  1  0.08302000  0.61493000  0.47844000  1.0
  H  H17  1  0.41699000  0.11492000  0.52156000  1.0
  H  H18  1  0.91698000  0.38508000  0.52156000  1.0
  H  H19  1  0.58301000  0.88507000  0.47844000  1.0
  H  H20  1  0.30240000  0.62442000  0.48690000  1.0
  H  H21  1  0.19760000  0.12442000  0.51310000  1.0
  H  H22  1  0.69760000  0.37558000  0.51310000  1.0
  H  H23  1  0.80240000  0.87558000  0.48690000  1.0
  H  H24  1  0.09153000  0.59709000  0.65690000  1.0
  H  H25  1  0.40848000  0.09709000  0.34310000  1.0
  H  H26  1  0.90847000  0.40291000  0.34310000  1.0
  H  H27  1  0.59152000  0.90291000  0.65691000  1.0
  H  H28  1  0.30773000  0.61840000  0.67757000  1.0
  H  H29  1  0.19227000  0.11840000  0.32243000  1.0
  H  H30  1  0.69227000  0.38160000  0.32243000  1.0
  H  H31  1  0.80773000  0.88160000  0.67757000  1.0
  H  H32  1  0.29249000  0.85251000  0.58622000  1.0
  H  H33  1  0.20751000  0.35250000  0.41378000  1.0
  H  H34  1  0.70751000  0.14749000  0.41378000  1.0
  H  H35  1  0.79249000  0.64749000  0.58622000  1.0
  H  H36  1  0.07272000  0.84547000  0.57518000  1.0
  H  H37  1  0.42728000  0.34547000  0.42482000  1.0
  H  H38  1  0.92728000  0.15454000  0.42482000  1.0
  H  H39  1  0.57271000  0.65453000  0.57518000  1.0
  H  H40  1  0.06270000  0.84328000  0.38092000  1.0
  H  H41  1  0.43730000  0.34328000  0.61908000  1.0
  H  H42  1  0.93730000  0.15672000  0.61908000  1.0
  H  H43  1  0.56269000  0.65672000  0.38092000  1.0
  H  H44  1  0.28185000  0.85674000  0.38980000  1.0
  H  H45  1  0.21815000  0.35674000  0.61021000  1.0
  H  H46  1  0.71815000  0.14326000  0.61020000  1.0
  H  H47  1  0.78185000  0.64326000  0.38979000  1.0
  H  H48  1  0.78673000  0.59068000  0.06063000  1.0
  H  H49  1  0.71327000  0.09068000  0.93937000  1.0
  H  H50  1  0.21327000  0.40932000  0.93937000  1.0
  H  H51  1  0.28673000  0.90932000  0.06063000  1.0
  H  H52  1  0.85031000  0.86045000  0.91356000  1.0
  H  H53  1  0.64969000  0.36045000  0.08644000  1.0
  H  H54  1  0.14969000  0.13955000  0.08644000  1.0
  H  H55  1  0.35031000  0.63955000  0.91356000  1.0
  C  C56  1  0.18406000  0.68362000  0.29614000  1.0
  C  C57  1  0.31594000  0.18361000  0.70386000  1.0
  C  C58  1  0.81594000  0.31638000  0.70386000  1.0
  C  C59  1  0.68406000  0.81639000  0.29614000  1.0
  C  C60  1  0.18862000  0.69113000  0.48274000  1.0
  C  C61  1  0.31138000  0.19112000  0.51726000  1.0
  C  C62  1  0.81138000  0.30888000  0.51726000  1.0
  C  C63  1  0.68862000  0.80888000  0.48274000  1.0
  C  C64  1  0.16717000  0.74766000  0.76815000  1.0
  C  C65  1  0.33284000  0.24767000  0.23185000  1.0
  C  C66  1  0.83284000  0.25234000  0.23185000  1.0
  C  C67  1  0.66717000  0.75233000  0.76815000  1.0
  C  C68  1  0.18970000  0.67935000  0.66834000  1.0
  C  C69  1  0.31031000  0.17934000  0.33166000  1.0
  C  C70  1  0.81030000  0.32066000  0.33165000  1.0
  C  C71  1  0.68969000  0.82065000  0.66835000  1.0
  C  C72  1  0.18575000  0.77819000  0.57845000  1.0
  C  C73  1  0.31425000  0.27819000  0.42155000  1.0
  C  C74  1  0.81425000  0.22181000  0.42155000  1.0
  C  C75  1  0.68575000  0.72181000  0.57845000  1.0
  C  C76  1  0.17812000  0.77936000  0.38730000  1.0
  C  C77  1  0.32188000  0.27935000  0.61270000  1.0
  C  C78  1  0.82188000  0.22065000  0.61269000  1.0
  C  C79  1  0.67811000  0.72065000  0.38730000  1.0
  C  C80  1  0.14316000  0.75618000  0.19694000  1.0
  C  C81  1  0.35684000  0.25617000  0.80306000  1.0
  C  C82  1  0.85685000  0.24382000  0.80306000  1.0
  C  C83  1  0.64315000  0.74382000  0.19694000  1.0
  O  O84  1  0.83263000  0.55086000  0.00177000  1.0
  O  O85  1  0.66737000  0.05087000  0.99823000  1.0
  O  O86  1  0.16737000  0.44913000  0.99823000  1.0
  O  O87  1  0.33263000  0.94913000  0.00177000  1.0
  O  O88  1  0.19043000  0.69232000  0.11857000  1.0
  O  O89  1  0.30957000  0.19232000  0.88144000  1.0
  O  O90  1  0.80957000  0.30768000  0.88144000  1.0
  O  O91  1  0.69043000  0.80768000  0.11856000  1.0
  O  O92  1  0.94941000  0.86493000  0.96212000  1.0
  O  O93  1  0.55058000  0.36492000  0.03788000  1.0
  O  O94  1  0.05058000  0.13508000  0.03788000  1.0
  O  O95  1  0.44942000  0.63508000  0.96212000  1.0
  O  O96  1  0.15396000  0.65764000  0.83956000  1.0
  O  O97  1  0.34605000  0.15764000  0.16044000  1.0
  O  O98  1  0.84605000  0.34236000  0.16044000  1.0
  O  O99  1  0.65395000  0.84236000  0.83957000  1.0
  O  O100  1  0.06299000  0.87219000  0.19326000  1.0
  O  O101  1  0.43701000  0.37218000  0.80674000  1.0
  O  O102  1  0.93701000  0.12781000  0.80674000  1.0
  O  O103  1  0.56299000  0.62782000  0.19326000  1.0
  O  O104  1  0.16374000  0.88205000  0.77672000  1.0
  O  O105  1  0.33626000  0.38204000  0.22328000  1.0
  O  O106  1  0.83626000  0.11796000  0.22328000  1.0
  O  O107  1  0.66375000  0.61796000  0.77671000  1.0
