# generated using pymatgen
data_NiH39C24NO4
_symmetry_space_group_name_H-M   'P 1'
_cell_length_a   9.25681000
_cell_length_b   12.70630000
_cell_length_c   13.01460000
_cell_angle_alpha   109.22400000
_cell_angle_beta   94.05200000
_cell_angle_gamma   99.75910000
_symmetry_Int_Tables_number   1
_chemical_formula_structural   NiH39C24NO4
_chemical_formula_sum   'Ni2 H78 C48 N2 O8'
_cell_volume   1411.28253237
_cell_formula_units_Z   2
loop_
 _symmetry_equiv_pos_site_id
 _symmetry_equiv_pos_as_xyz
  1  'x, y, z'
loop_
 _atom_site_type_symbol
 _atom_site_label
 _atom_site_symmetry_multiplicity
 _atom_site_fract_x
 _atom_site_fract_y
 _atom_site_fract_z
 _atom_site_occupancy
  Ni  Ni0  1  0.15392000  0.26657000  0.46746000  1.0
  Ni  Ni1  1  0.89616000  0.25901000  0.46914000  1.0
  H  H2  1  0.21744000  0.29081000  0.15428000  1.0
  H  H3  1  0.33182000  0.29782000  0.98812000  1.0
  H  H4  1  0.74755000  0.25693000  0.15030000  1.0
  H  H5  1  0.83370000  0.26639000  0.79328000  1.0
  H  H6  1  0.71993000  0.26153000  0.95990000  1.0
  H  H7  1  0.30159000  0.28790000  0.79289000  1.0
  H  H8  1  0.86248000  0.60876000  0.55265000  1.0
  H  H9  1  0.74818000  0.77104000  0.55033000  1.0
  H  H10  1  0.29508000  0.59196000  0.45630000  1.0
  H  H11  1  0.17503000  0.91880000  0.38834000  1.0
  H  H12  1  0.29982000  0.76498000  0.40490000  1.0
  H  H13  1  0.75283000  0.94478000  0.50082000  1.0
  H  H14  1  0.42575000  0.37014000  0.63474000  1.0
  H  H15  1  0.44776000  0.43997000  0.53805000  1.0
  H  H16  1  0.33911000  0.08611000  0.43057000  1.0
  H  H17  1  0.37730000  0.16587000  0.57284000  1.0
  H  H18  1  0.39647000  0.33193000  0.34484000  1.0
  H  H19  1  0.36325000  0.18166000  0.30062000  1.0
  H  H20  1  0.70312000  0.43576000  0.55633000  1.0
  H  H21  1  0.67694000  0.35187000  0.64103000  1.0
  H  H22  1  0.62949000  0.15092000  0.56459000  1.0
  H  H23  1  0.59216000  0.08222000  0.42036000  1.0
  H  H24  1  0.62069000  0.19331000  0.30128000  1.0
  H  H25  1  0.65524000  0.34332000  0.35975000  1.0
  H  H26  1  0.84781000  0.60494000  0.09566000  1.0
  H  H27  1  0.94481000  0.71244000  0.05282000  1.0
  H  H28  1  0.92761000  0.74086000  0.19380000  1.0
  H  H29  1  0.18457000  0.70501000  0.15527000  1.0
  H  H30  1  0.10376000  0.56822000  0.05905000  1.0
  H  H31  1  0.08793000  0.59918000  0.20051000  1.0
  H  H32  1  0.20470000  0.07672000  0.01452000  1.0
  H  H33  1  0.26212000  0.06544000  0.14221000  1.0
  H  H34  1  0.27968000  0.95873000  0.01844000  1.0
  H  H35  1  0.53061000  0.08765000  0.09902000  1.0
  H  H36  1  0.45645000  0.20804000  0.10138000  1.0
  H  H37  1  0.46868000  0.10350000  0.97422000  1.0
  H  H38  1  0.12270000  0.62896000  0.76095000  1.0
  H  H39  1  0.15072000  0.53255000  0.82880000  1.0
  H  H40  1  0.12837000  0.67129000  0.90563000  1.0
  H  H41  1  0.89064000  0.52522000  0.88019000  1.0
  H  H42  1  0.88709000  0.48346000  0.73600000  1.0
  H  H43  1  0.86131000  0.62178000  0.81281000  1.0
  H  H44  1  0.15822000  0.86930000  0.68545000  1.0
  H  H45  1  0.22944000  0.87045000  0.81590000  1.0
  H  H46  1  0.21331000  0.00014000  0.79670000  1.0
  H  H47  1  0.00332000  0.93799000  0.89397000  1.0
  H  H48  1  0.94968000  0.80728000  0.78251000  1.0
  H  H49  1  0.93308000  0.93670000  0.76318000  1.0
  H  H50  1  0.39543000  0.57127000  0.72777000  1.0
  H  H51  1  0.59048000  0.61860000  0.74575000  1.0
  H  H52  1  0.48186000  0.70008000  0.83395000  1.0
  H  H53  1  0.61002000  0.58970000  0.93027000  1.0
  H  H54  1  0.52572000  0.46050000  0.82428000  1.0
  H  H55  1  0.41513000  0.54096000  0.91152000  1.0
  H  H56  1  0.44183000  0.51600000  0.31828000  1.0
  H  H57  1  0.54674000  0.65536000  0.38859000  1.0
  H  H58  1  0.59250000  0.53908000  0.42083000  1.0
  H  H59  1  0.77127000  0.59854000  0.30088000  1.0
  H  H60  1  0.62116000  0.57614000  0.19869000  1.0
  H  H61  1  0.66776000  0.45916000  0.22981000  1.0
  H  H62  1  0.33416000  0.91085000  0.23911000  1.0
  H  H63  1  0.42899000  0.86322000  0.12454000  1.0
  H  H64  1  0.51048000  0.98901000  0.23526000  1.0
  H  H65  1  0.63053000  0.82807000  0.24692000  1.0
  H  H66  1  0.45509000  0.74554000  0.24575000  1.0
  H  H67  1  0.53143000  0.87091000  0.35952000  1.0
  H  H68  1  0.49804000  0.90398000  0.57357000  1.0
  H  H69  1  0.40923000  0.87205000  0.67866000  1.0
  H  H70  1  0.56699000  0.81659000  0.63890000  1.0
  H  H71  1  0.64046000  0.98410000  0.81692000  1.0
  H  H72  1  0.56420000  0.07174000  0.75565000  1.0
  H  H73  1  0.72397000  0.02007000  0.71149000  1.0
  H  H74  1  0.92171000  0.93085000  0.12376000  1.0
  H  H75  1  0.78269000  0.00910000  0.16750000  1.0
  H  H76  1  0.87950000  0.02802000  0.06058000  1.0
  H  H77  1  0.62434000  0.90258000  0.98178000  1.0
  H  H78  1  0.66708000  0.80448000  0.04364000  1.0
  H  H79  1  0.76418000  0.82538000  0.93715000  1.0
  C  C80  1  0.46858000  0.36578000  0.55736000  1.0
  C  C81  1  0.41093000  0.16078000  0.49248000  1.0
  C  C82  1  0.42734000  0.25989000  0.36317000  1.0
  C  C83  1  0.99981000  0.26381000  0.27318000  1.0
  C  C84  1  0.98506000  0.27259000  0.16203000  1.0
  C  C85  1  0.10964000  0.28451000  0.11067000  1.0
  C  C86  1  0.09778000  0.28464000  0.00204000  1.0
  C  C87  1  0.22287000  0.29034000  0.94519000  1.0
  C  C88  1  0.84337000  0.26548000  0.10753000  1.0
  C  C89  1  0.06669000  0.47585000  0.51519000  1.0
  C  C90  1  0.07685000  0.59008000  0.50569000  1.0
  C  C91  1  0.95865000  0.64464000  0.52217000  1.0
  C  C92  1  0.95968000  0.74467000  0.49730000  1.0
  C  C93  1  0.84064000  0.80299000  0.51391000  1.0
  C  C94  1  0.20319000  0.63609000  0.46676000  1.0
  C  C95  1  0.63485000  0.35980000  0.56358000  1.0
  C  C96  1  0.57698000  0.15603000  0.48852000  1.0
  C  C97  1  0.59569000  0.26447000  0.36749000  1.0
  C  C98  1  0.04887000  0.27185000  0.66691000  1.0
  C  C99  1  0.06517000  0.27659000  0.78274000  1.0
  C  C100  1  0.94172000  0.27275000  0.83672000  1.0
  C  C101  1  0.95403000  0.27535000  0.94625000  1.0
  C  C102  1  0.82865000  0.26766000  0.00245000  1.0
  C  C103  1  0.20695000  0.28505000  0.83770000  1.0
  C  C104  1  0.97620000  0.05116000  0.42264000  1.0
  C  C105  1  0.96430000  0.94042000  0.44002000  1.0
  C  C106  1  0.08159000  0.88479000  0.42256000  1.0
  C  C107  1  0.08358000  0.78730000  0.45140000  1.0
  C  C108  1  0.20519000  0.73147000  0.43855000  1.0
  C  C109  1  0.84237000  0.89843000  0.48605000  1.0
  C  C110  1  0.94450000  0.67551000  0.11824000  1.0
  C  C111  1  0.08769000  0.63469000  0.13408000  1.0
  C  C112  1  0.28971000  0.05086000  0.05857000  1.0
  C  C113  1  0.44424000  0.11582000  0.05840000  1.0
  C  C114  1  0.08993000  0.59956000  0.82807000  1.0
  C  C115  1  0.92321000  0.55526000  0.81343000  1.0
  C  C116  1  0.15939000  0.91008000  0.77423000  1.0
  C  C117  1  0.00308000  0.89746000  0.80521000  1.0
  C  C118  1  0.49369000  0.61266000  0.78956000  1.0
  C  C119  1  0.51209000  0.54775000  0.86816000  1.0
  C  C120  1  0.55441000  0.56550000  0.35286000  1.0
  C  C121  1  0.65910000  0.54883000  0.26596000  1.0
  C  C122  1  0.44407000  0.90258000  0.21443000  1.0
  C  C123  1  0.51904000  0.83310000  0.26942000  1.0
  C  C124  1  0.51781000  0.89221000  0.65306000  1.0
  C  C125  1  0.61693000  0.99748000  0.73867000  1.0
  C  C126  1  0.83072000  0.96403000  0.09489000  1.0
  C  C127  1  0.71568000  0.86917000  0.01003000  1.0
  N  N128  1  0.38046000  0.26292000  0.47026000  1.0
  N  N129  1  0.65758000  0.25944000  0.47328000  1.0
  O  O130  1  0.13038000  0.28588000  0.32430000  1.0
  O  O131  1  0.88104000  0.23461000  0.30992000  1.0
  O  O132  1  0.93340000  0.41650000  0.49582000  1.0
  O  O133  1  0.86632000  0.10136000  0.44504000  1.0
  O  O134  1  0.92539000  0.28482000  0.62777000  1.0
  O  O135  1  0.15927000  0.25492000  0.61427000  1.0
  O  O136  1  0.09489000  0.09331000  0.39500000  1.0
  O  O137  1  0.18319000  0.44139000  0.53277000  1.0
