# generated using pymatgen
data_SrH4(C2O3)2
_symmetry_space_group_name_H-M   'P 1'
_cell_length_a   6.40948000
_cell_length_b   6.40947000
_cell_length_c   7.57893000
_cell_angle_alpha   89.99990000
_cell_angle_beta   90.00000000
_cell_angle_gamma   103.24700000
_symmetry_Int_Tables_number   1
_chemical_formula_structural   SrH4(C2O3)2
_chemical_formula_sum   'Sr2 H8 C8 O12'
_cell_volume   303.06811883
_cell_formula_units_Z   2
loop_
 _symmetry_equiv_pos_site_id
 _symmetry_equiv_pos_as_xyz
  1  'x, y, z'
loop_
 _atom_site_type_symbol
 _atom_site_label
 _atom_site_symmetry_multiplicity
 _atom_site_fract_x
 _atom_site_fract_y
 _atom_site_fract_z
 _atom_site_occupancy
  Sr  Sr0  1  0.91159000  0.08841000  0.75000000  1.0
  Sr  Sr1  1  0.08841000  0.91159000  0.25000000  1.0
  H  H2  1  0.38677000  0.62534000  0.55095000  1.0
  H  H3  1  0.61324000  0.37466000  0.05095000  1.0
  H  H4  1  0.37466000  0.61323000  0.94905000  1.0
  H  H5  1  0.62534000  0.38677000  0.44905000  1.0
  H  H6  1  0.39393000  0.29479000  0.73818000  1.0
  H  H7  1  0.60607000  0.70521000  0.23818000  1.0
  H  H8  1  0.70521000  0.60607000  0.76182000  1.0
  H  H9  1  0.29480000  0.39394000  0.26182000  1.0
  C  C10  1  0.07409000  0.62202000  0.65028000  1.0
  C  C11  1  0.92590000  0.37798000  0.15028000  1.0
  C  C12  1  0.37798000  0.92590000  0.84972000  1.0
  C  C13  1  0.62202000  0.07410000  0.34972000  1.0
  C  C14  1  0.29657000  0.57304000  0.67338000  1.0
  C  C15  1  0.70344000  0.42696000  0.17338000  1.0
  C  C16  1  0.42696000  0.70343000  0.82662000  1.0
  C  C17  1  0.57304000  0.29657000  0.32662000  1.0
  O  O18  1  0.91062000  0.48591000  0.70573000  1.0
  O  O19  1  0.08938000  0.51410000  0.20573000  1.0
  O  O20  1  0.51409000  0.08938000  0.79427000  1.0
  O  O21  1  0.48590000  0.91062000  0.29427000  1.0
  O  O22  1  0.07034000  0.79929000  0.57695000  1.0
  O  O23  1  0.92966000  0.20071000  0.07694000  1.0
  O  O24  1  0.20071000  0.92966000  0.92305000  1.0
  O  O25  1  0.79929000  0.07034000  0.42305000  1.0
  O  O26  1  0.26686000  0.34927000  0.70025000  1.0
  O  O27  1  0.73314000  0.65072000  0.20025000  1.0
  O  O28  1  0.65072000  0.73314000  0.79975000  1.0
  O  O29  1  0.34927000  0.26686000  0.29975000  1.0
