# generated using pymatgen
data_NiH16C22(N2O5)2
_symmetry_space_group_name_H-M   'P 1'
_cell_length_a   7.70308000
_cell_length_b   8.75816000
_cell_length_c   8.25635000
_cell_angle_alpha   82.24680000
_cell_angle_beta   84.01510000
_cell_angle_gamma   87.35580000
_symmetry_Int_Tables_number   1
_chemical_formula_structural   NiH16C22(N2O5)2
_chemical_formula_sum   'Ni1 H16 C22 N4 O10'
_cell_volume   548.62205673
_cell_formula_units_Z   1
loop_
 _symmetry_equiv_pos_site_id
 _symmetry_equiv_pos_as_xyz
  1  'x, y, z'
loop_
 _atom_site_type_symbol
 _atom_site_label
 _atom_site_symmetry_multiplicity
 _atom_site_fract_x
 _atom_site_fract_y
 _atom_site_fract_z
 _atom_site_occupancy
  Ni  Ni0  1  0.50000000  0.00001000  0.99999000  1.0
  H  H1  1  0.90396000  0.74559000  0.95711000  1.0
  H  H2  1  0.09602000  0.25441000  0.04291000  1.0
  H  H3  1  0.16477000  0.52236000  0.19980000  1.0
  H  H4  1  0.83523000  0.47765000  0.80019000  1.0
  H  H5  1  0.39056000  0.57980000  0.69538000  1.0
  H  H6  1  0.60946000  0.42020000  0.30461000  1.0
  H  H7  1  0.22226000  0.42437000  0.92093000  1.0
  H  H8  1  0.77775000  0.57563000  0.07906000  1.0
  H  H9  1  0.28907000  0.77377000  0.23345000  1.0
  H  H10  1  0.71093000  0.22624000  0.76654000  1.0
  H  H11  1  0.56764000  0.75378000  0.52061000  1.0
  H  H12  1  0.43237000  0.24622000  0.47940000  1.0
  H  H13  1  0.67499000  0.92616000  0.50622000  1.0
  H  H14  1  0.32501000  0.07384000  0.49377000  1.0
  H  H15  1  0.96947000  0.75042000  0.54514000  1.0
  H  H16  1  0.03053000  0.24957000  0.45486000  1.0
  C  C17  1  0.94420000  0.85810000  0.97787000  1.0
  C  C18  1  0.05579000  0.14190000  0.02214000  1.0
  C  C19  1  0.43399000  0.75802000  0.84379000  1.0
  C  C20  1  0.56602000  0.24199000  0.15620000  1.0
  C  C21  1  0.92091000  0.90057000  0.13589000  1.0
  C  C22  1  0.07908000  0.09943000  0.86412000  1.0
  C  C23  1  0.85415000  0.78032000  0.27608000  1.0
  C  C24  1  0.14585000  0.21968000  0.72394000  1.0
  C  C25  1  0.24231000  0.58576000  0.09656000  1.0
  C  C26  1  0.75770000  0.41425000  0.90342000  1.0
  C  C27  1  0.54096000  0.86679000  0.72755000  1.0
  C  C28  1  0.45904000  0.13321000  0.27244000  1.0
  C  C29  1  0.02336000  0.95292000  0.84297000  1.0
  C  C30  1  0.97662000  0.04708000  0.15704000  1.0
  C  C31  1  0.05758000  0.89120000  0.68251000  1.0
  C  C32  1  0.94242000  0.10879000  0.31751000  1.0
  C  C33  1  0.36841000  0.62049000  0.81503000  1.0
  C  C34  1  0.63160000  0.37952000  0.18496000  1.0
  C  C35  1  0.27124000  0.53297000  0.94406000  1.0
  C  C36  1  0.72877000  0.46703000  0.05593000  1.0
  C  C37  1  0.31126000  0.72568000  0.11791000  1.0
  C  C38  1  0.68873000  0.27433000  0.88208000  1.0
  N  N39  1  0.40496000  0.80913000  0.99378000  1.0
  N  N40  1  0.59504000  0.19088000  0.00621000  1.0
  N  N41  1  0.59089000  0.84746000  0.57481000  1.0
  N  N42  1  0.40911000  0.15254000  0.42517000  1.0
  O  O43  1  0.58645000  0.98688000  0.78543000  1.0
  O  O44  1  0.41355000  0.01312000  0.21456000  1.0
  O  O45  1  0.70094000  0.73501000  0.27866000  1.0
  O  O46  1  0.29906000  0.26498000  0.72135000  1.0
  O  O47  1  0.95795000  0.77586000  0.66723000  1.0
  O  O48  1  0.04206000  0.22413000  0.33277000  1.0
  O  O49  1  0.96804000  0.72868000  0.37373000  1.0
  O  O50  1  0.03195000  0.27131000  0.62628000  1.0
  O  O51  1  0.17474000  0.93982000  0.57610000  1.0
  O  O52  1  0.82526000  0.06017000  0.42392000  1.0
