# generated using pymatgen
data_AlH7C13O5F
_symmetry_space_group_name_H-M   'P 1'
_cell_length_a   6.67636000
_cell_length_b   11.16610000
_cell_length_c   17.72042736
_cell_angle_alpha   88.57769305
_cell_angle_beta   79.75025698
_cell_angle_gamma   73.35720000
_symmetry_Int_Tables_number   1
_chemical_formula_structural   AlH7C13O5F
_chemical_formula_sum   'Al2 H14 C26 O10 F2'
_cell_volume   1245.02117547
_cell_formula_units_Z   2
loop_
 _symmetry_equiv_pos_site_id
 _symmetry_equiv_pos_as_xyz
  1  'x, y, z'
loop_
 _atom_site_type_symbol
 _atom_site_label
 _atom_site_symmetry_multiplicity
 _atom_site_fract_x
 _atom_site_fract_y
 _atom_site_fract_z
 _atom_site_occupancy
  Al  Al0  1  0.99778000  0.50008000  0.50381000  1.0
  Al  Al1  1  0.49784000  0.50080000  0.50333000  1.0
  H  H2  1  0.15510000  0.62528000  0.57156000  1.0
  H  H3  1  0.84015000  0.36575000  0.44505000  1.0
  H  H4  1  0.04375000  0.49631000  0.27246000  1.0
  H  H5  1  0.11549000  0.48679000  0.12880000  1.0
  H  H6  1  0.70913000  0.56858000  0.12893000  1.0
  H  H7  1  0.63727000  0.57382000  0.27256000  1.0
  H  H8  1  0.26575000  0.44689000  0.87630000  1.0
  H  H9  1  0.34706000  0.43812000  0.73263000  1.0
  H  H10  1  0.95077000  0.49927000  0.73709000  1.0
  H  H11  1  0.87057000  0.51134000  0.88072000  1.0
  H  H12  1  0.11023000  0.86647000  0.47061000  1.0
  H  H13  1  0.28459000  0.86710000  0.38199000  1.0
  H  H14  1  0.15346000  0.10149000  0.38111000  1.0
  H  H15  1  0.98134000  0.10273000  0.47104000  1.0
  C  C16  1  0.63951000  0.72596000  0.51104000  1.0
  C  C17  1  0.69072000  0.47649000  0.64154000  1.0
  C  C18  1  0.35398000  0.27470000  0.50404000  1.0
  C  C19  1  0.30354000  0.52574000  0.36587000  1.0
  C  C20  1  0.33779000  0.53362000  0.28065000  1.0
  C  C21  1  0.18856000  0.51190000  0.24009000  1.0
  C  C22  1  0.22844000  0.50699000  0.16045000  1.0
  C  C23  1  0.41917000  0.52464000  0.11929000  1.0
  C  C24  1  0.56416000  0.55212000  0.16057000  1.0
  C  C25  1  0.52409000  0.55563000  0.24022000  1.0
  C  C26  1  0.46682000  0.51142000  0.03840000  1.0
  C  C27  1  0.51086000  0.49594000  0.96876000  1.0
  C  C28  1  0.56125000  0.48210000  0.88790000  1.0
  C  C29  1  0.41512000  0.45885000  0.84555000  1.0
  C  C30  1  0.46008000  0.45366000  0.76597000  1.0
  C  C31  1  0.65194000  0.47016000  0.72680000  1.0
  C  C32  1  0.80157000  0.48808000  0.76848000  1.0
  C  C33  1  0.75708000  0.49446000  0.84806000  1.0
  C  C34  1  0.56400000  0.86482000  0.51427000  1.0
  C  C35  1  0.41998000  0.13644000  0.51128000  1.0
  C  C36  1  0.38905000  0.92991000  0.48221000  1.0
  C  C37  1  0.59201000  0.07183000  0.54647000  1.0
  C  C38  1  0.31938000  0.05992000  0.48109000  1.0
  C  C39  1  0.66120000  0.94101000  0.54789000  1.0
  C  C40  1  0.22228000  0.91298000  0.43890000  1.0
  C  C41  1  0.14137000  0.06087000  0.43829000  1.0
  O  O42  1  0.83747000  0.67364000  0.50553000  1.0
  O  O43  1  0.53809000  0.47418000  0.60798000  1.0
  O  O44  1  0.49899000  0.32941000  0.49564000  1.0
  O  O45  1  0.12581000  0.51208000  0.39894000  1.0
  O  O46  1  0.15740000  0.32601000  0.50422000  1.0
  O  O47  1  0.45694000  0.52899000  0.39878000  1.0
  O  O48  1  0.49594000  0.67133000  0.51241000  1.0
  O  O49  1  0.87025000  0.48856000  0.60912000  1.0
  O  O50  1  0.20709000  0.54991000  0.53949000  1.0
  O  O51  1  0.78931000  0.44966000  0.46743000  1.0
  F  F52  1  0.69479000  0.13486000  0.58280000  1.0
  F  F53  1  0.82427000  0.88967000  0.58560000  1.0
