# generated using pymatgen
data_AlH4C12SClO9
_symmetry_space_group_name_H-M   'P 1'
_cell_length_a   6.62405000
_cell_length_b   11.15000000
_cell_length_c   12.71340000
_cell_angle_alpha   83.71930000
_cell_angle_beta   75.11950000
_cell_angle_gamma   72.90070000
_symmetry_Int_Tables_number   1
_chemical_formula_structural   AlH4C12SClO9
_chemical_formula_sum   'Al2 H8 C24 S2 Cl2 O18'
_cell_volume   866.79946122
_cell_formula_units_Z   2
loop_
 _symmetry_equiv_pos_site_id
 _symmetry_equiv_pos_as_xyz
  1  'x, y, z'
loop_
 _atom_site_type_symbol
 _atom_site_label
 _atom_site_symmetry_multiplicity
 _atom_site_fract_x
 _atom_site_fract_y
 _atom_site_fract_z
 _atom_site_occupancy
  Al  Al0  1  0.47641000  0.50442000  0.50083000  1.0
  Al  Al1  1  0.97673000  0.50698000  0.50050000  1.0
  H  H2  1  0.26210000  0.35738000  0.56914000  1.0
  H  H3  1  0.76038000  0.56406000  0.36838000  1.0
  H  H4  1  0.21115000  0.24185000  0.34205000  1.0
  H  H5  1  0.47766000  0.77732000  0.39039000  1.0
  H  H6  1  0.93945000  0.81282000  0.71385000  1.0
  H  H7  1  0.72592000  0.13786000  0.72538000  1.0
  H  H8  1  0.45052000  0.17320000  0.12330000  1.0
  H  H9  1  0.84108000  0.76605000  0.37214000  1.0
  C  C10  1  0.83990000  0.28042000  0.48457000  1.0
  C  C11  1  0.63451000  0.51222000  0.69385000  1.0
  C  C12  1  0.12496000  0.73316000  0.50958000  1.0
  C  C13  1  0.31169000  0.51457000  0.30336000  1.0
  C  C14  1  0.39826000  0.47423000  0.88319000  1.0
  C  C15  1  0.53392000  0.56523000  0.11424000  1.0
  C  C16  1  0.56410000  0.51743000  0.81265000  1.0
  C  C17  1  0.37179000  0.51975000  0.18461000  1.0
  C  C18  1  0.54354000  0.54890000  0.00414000  1.0
  C  C19  1  0.38691000  0.49253000  0.99306000  1.0
  C  C20  1  0.91624000  0.13930000  0.48282000  1.0
  C  C21  1  0.12897000  0.07516000  0.42409000  1.0
  C  C22  1  0.78064000  0.07215000  0.54809000  1.0
  C  C23  1  0.26815000  0.14026000  0.35260000  1.0
  C  C24  1  0.47484000  0.07718000  0.29830000  1.0
  C  C25  1  0.06047000  0.87440000  0.50277000  1.0
  C  C26  1  0.85350000  0.93921000  0.55877000  1.0
  C  C27  1  0.20409000  0.94101000  0.43599000  1.0
  C  C28  1  0.41924000  0.87880000  0.38060000  1.0
  C  C29  1  0.55326000  0.94477000  0.31445000  1.0
  C  C30  1  0.70763000  0.87152000  0.63744000  1.0
  C  C31  1  0.56350000  0.13971000  0.61844000  1.0
  C  C32  1  0.62442000  0.14861000  0.22774000  1.0
  C  C33  1  0.77155000  0.87863000  0.24738000  1.0
  S  S34  1  0.70305000  0.58058000  0.88121000  1.0
  S  S35  1  0.22560000  0.46218000  0.11610000  1.0
  Cl  Cl36  1  0.23057000  0.40324000  0.84880000  1.0
  Cl  Cl37  1  0.69943000  0.63758000  0.14936000  1.0
  O  O38  1  0.65043000  0.33333333  0.47076000  1.0
  O  O39  1  0.81646000  0.53401000  0.64764000  1.0
  O  O40  1  0.98943000  0.68147000  0.49091000  1.0
  O  O41  1  0.44110000  0.53522000  0.35370000  1.0
  O  O42  1  0.30546000  0.67609000  0.53137000  1.0
  O  O43  1  0.13165000  0.48911000  0.34863000  1.0
  O  O44  1  0.96872000  0.33437000  0.50568000  1.0
  O  O45  1  0.51064000  0.48417000  0.64460000  1.0
  O  O46  1  0.23331000  0.44589000  0.54499000  1.0
  O  O47  1  0.72397000  0.56345000  0.44772000  1.0
  O  O48  1  0.79275000  0.80601000  0.72040000  1.0
  O  O49  1  0.52418000  0.87713000  0.63305000  1.0
  O  O50  1  0.57477000  0.16417000  0.71919000  1.0
  O  O51  1  0.39020000  0.17048000  0.59312000  1.0
  O  O52  1  0.57323000  0.19933000  0.13272000  1.0
  O  O53  1  0.77759000  0.16524000  0.25431000  1.0
  O  O54  1  0.89496000  0.77763000  0.29286000  1.0
  O  O55  1  0.83562000  0.91120000  0.15283000  1.0
