# generated using pymatgen
data_SrH30C18(N6O7)2
_symmetry_space_group_name_H-M   'P 1'
_cell_length_a   7.52363000
_cell_length_b   7.54156000
_cell_length_c   26.54160000
_cell_angle_alpha   83.75580000
_cell_angle_beta   83.74080000
_cell_angle_gamma   61.55020000
_symmetry_Int_Tables_number   1
_chemical_formula_structural   SrH30C18(N6O7)2
_chemical_formula_sum   'Sr2 H60 C36 N24 O28'
_cell_volume   1313.42113463
_cell_formula_units_Z   2
loop_
 _symmetry_equiv_pos_site_id
 _symmetry_equiv_pos_as_xyz
  1  'x, y, z'
loop_
 _atom_site_type_symbol
 _atom_site_label
 _atom_site_symmetry_multiplicity
 _atom_site_fract_x
 _atom_site_fract_y
 _atom_site_fract_z
 _atom_site_occupancy
  Sr  Sr0  1  0.24685000  0.75313000  0.74988000  1.0
  Sr  Sr1  1  0.75314000  0.24688000  0.25012000  1.0
  H  H2  1  0.87951000  0.89581000  0.86145000  1.0
  H  H3  1  0.89530000  0.88029000  0.36147000  1.0
  H  H4  1  0.12049000  0.10419000  0.13856000  1.0
  H  H5  1  0.10470000  0.11972000  0.63853000  1.0
  H  H6  1  0.59580000  0.97679000  0.82513000  1.0
  H  H7  1  0.97712000  0.59728000  0.32513000  1.0
  H  H8  1  0.40420000  0.02321000  0.17487000  1.0
  H  H9  1  0.02288000  0.40272000  0.67487000  1.0
  H  H10  1  0.46477000  0.97986000  0.88513000  1.0
  H  H11  1  0.98126000  0.46613000  0.38511000  1.0
  H  H12  1  0.53523000  0.02014000  0.11487000  1.0
  H  H13  1  0.01874000  0.53387000  0.61489000  1.0
  H  H14  1  0.85674000  0.50349000  0.88094000  1.0
  H  H15  1  0.50321000  0.85664000  0.38089000  1.0
  H  H16  1  0.14326000  0.49652000  0.11906000  1.0
  H  H17  1  0.49679000  0.14336000  0.61911000  1.0
  H  H18  1  0.59800000  0.37035000  0.83657000  1.0
  H  H19  1  0.37022000  0.59846000  0.33629000  1.0
  H  H20  1  0.40201000  0.62965000  0.16343000  1.0
  H  H21  1  0.62978000  0.40154000  0.66371000  1.0
  H  H22  1  0.77299000  0.23523000  0.88491000  1.0
  H  H23  1  0.23444000  0.77217000  0.38481000  1.0
  H  H24  1  0.22701000  0.76477000  0.11509000  1.0
  H  H25  1  0.76556000  0.22783000  0.61519000  1.0
  H  H26  1  0.07132000  0.98038000  0.90715000  1.0
  H  H27  1  0.98081000  0.07113000  0.40728000  1.0
  H  H28  1  0.92868000  0.01962000  0.09285000  1.0
  H  H29  1  0.01919000  0.92887000  0.59272000  1.0
  H  H30  1  0.17275000  0.72692000  0.88875000  1.0
  H  H31  1  0.72686000  0.17214000  0.38881000  1.0
  H  H32  1  0.82725000  0.27308000  0.11125000  1.0
  H  H33  1  0.27314000  0.82787000  0.61119000  1.0
  H  H34  1  0.25888000  0.77529000  0.94293000  1.0
  H  H35  1  0.77489000  0.25831000  0.44302000  1.0
  H  H36  1  0.74112000  0.22471000  0.05707000  1.0
  H  H37  1  0.22511000  0.74169000  0.55698000  1.0
  H  H38  1  0.41086000  0.71272000  0.02391000  1.0
  H  H39  1  0.71267000  0.41207000  0.52384000  1.0
  H  H40  1  0.58914000  0.28728000  0.97609000  1.0
  H  H41  1  0.28733000  0.58793000  0.47616000  1.0
  H  H42  1  0.55878000  0.66578000  0.07761000  1.0
  H  H43  1  0.66586000  0.55916000  0.57763000  1.0
  H  H44  1  0.44122000  0.33422000  0.92239000  1.0
  H  H45  1  0.33415000  0.44083000  0.42237000  1.0
  H  H46  1  0.74923000  0.51487000  0.73519000  1.0
  H  H47  1  0.51539000  0.74832000  0.23533000  1.0
  H  H48  1  0.25078000  0.48513000  0.26481000  1.0
  H  H49  1  0.48461000  0.25168000  0.76467000  1.0
  H  H50  1  0.66149000  0.67553000  0.68726000  1.0
  H  H51  1  0.67635000  0.66026000  0.18744000  1.0
  H  H52  1  0.33851000  0.32448000  0.31274000  1.0
  H  H53  1  0.32364000  0.33975000  0.81256000  1.0
  H  H54  1  0.18991000  0.16737000  0.74143000  1.0
  H  H55  1  0.16831000  0.18989000  0.24155000  1.0
  H  H56  1  0.81009000  0.83263000  0.25857000  1.0
  H  H57  1  0.83169000  0.81012000  0.75845000  1.0
  H  H58  1  0.42884000  0.06255000  0.72310000  1.0
  H  H59  1  0.06305000  0.42827000  0.22321000  1.0
  H  H60  1  0.57116000  0.93745000  0.27690000  1.0
  H  H61  1  0.93695000  0.57173000  0.77679000  1.0
  C  C62  1  0.80098000  0.81289000  0.93478000  1.0
  C  C63  1  0.81283000  0.80150000  0.43484000  1.0
  C  C64  1  0.19902000  0.18711000  0.06522000  1.0
  C  C65  1  0.18717000  0.19850000  0.56516000  1.0
  C  C66  1  0.60166000  0.89033000  0.86143000  1.0
  C  C67  1  0.89085000  0.60259000  0.36147000  1.0
  C  C68  1  0.39834000  0.10967000  0.13857000  1.0
  C  C69  1  0.10915000  0.39741000  0.63853000  1.0
  C  C70  1  0.58798000  0.70442000  0.84911000  1.0
  C  C71  1  0.70486000  0.58816000  0.34924000  1.0
  C  C72  1  0.41202000  0.29558000  0.15089000  1.0
  C  C73  1  0.29514000  0.41184000  0.65076000  1.0
  C  C74  1  0.74450000  0.33614000  0.85037000  1.0
  C  C75  1  0.33575000  0.74439000  0.35030000  1.0
  C  C76  1  0.25551000  0.66386000  0.14963000  1.0
  C  C77  1  0.66425000  0.25561000  0.64970000  1.0
  C  C78  1  0.90737000  0.22382000  0.80885000  1.0
  C  C79  1  0.22335000  0.90746000  0.30891000  1.0
  C  C80  1  0.09264000  0.77619000  0.19115000  1.0
  C  C81  1  0.77665000  0.09254000  0.69109000  1.0
  C  C82  1  0.12746000  0.82178000  0.92095000  1.0
  C  C83  1  0.82175000  0.12713000  0.42104000  1.0
  C  C84  1  0.87254000  0.17822000  0.07905000  1.0
  C  C85  1  0.17825000  0.87288000  0.57896000  1.0
  C  C86  1  0.00084000  0.75324000  0.00653000  1.0
  C  C87  1  0.75288000  0.00095000  0.50662000  1.0
  C  C88  1  0.99916000  0.24676000  0.99347000  1.0
  C  C89  1  0.24712000  0.99905000  0.49338000  1.0
  C  C90  1  0.84566000  0.71824000  0.03731000  1.0
  C  C91  1  0.71824000  0.84581000  0.53739000  1.0
  C  C92  1  0.15434000  0.28176000  0.96269000  1.0
  C  C93  1  0.28176000  0.15418000  0.46261000  1.0
  C  C94  1  0.67509000  0.73611000  0.01227000  1.0
  C  C95  1  0.73620000  0.67563000  0.51232000  1.0
  C  C96  1  0.32490000  0.26389000  0.98773000  1.0
  C  C97  1  0.26380000  0.32437000  0.48768000  1.0
  N  N98  1  0.65620000  0.78506000  0.96240000  1.0
  N  N99  1  0.78511000  0.65693000  0.46245000  1.0
  N  N100  1  0.34379000  0.21494000  0.03760000  1.0
  N  N101  1  0.21489000  0.34307000  0.53755000  1.0
  N  N102  1  0.78067000  0.85897000  0.88484000  1.0
  N  N103  1  0.85880000  0.78140000  0.38488000  1.0
  N  N104  1  0.21932000  0.14104000  0.11516000  1.0
  N  N105  1  0.14120000  0.21859000  0.61512000  1.0
  N  N106  1  0.73637000  0.52176000  0.86225000  1.0
  N  N107  1  0.52165000  0.73629000  0.36228000  1.0
  N  N108  1  0.26362000  0.47824000  0.13775000  1.0
  N  N109  1  0.47835000  0.26371000  0.63772000  1.0
  N  N110  1  0.97273000  0.79462000  0.95438000  1.0
  N  N111  1  0.79445000  0.97283000  0.45446000  1.0
  N  N112  1  0.02727000  0.20538000  0.04562000  1.0
  N  N113  1  0.20555000  0.02717000  0.54554000  1.0
  N  N114  1  0.87993000  0.66867000  0.08693000  1.0
  N  N115  1  0.66878000  0.87981000  0.58702000  1.0
  N  N116  1  0.12007000  0.33133000  0.91307000  1.0
  N  N117  1  0.33122000  0.12019000  0.41298000  1.0
  N  N118  1  0.53519000  0.70056000  0.03956000  1.0
  N  N119  1  0.70069000  0.53585000  0.53957000  1.0
  N  N120  1  0.46481000  0.29943000  0.96044000  1.0
  N  N121  1  0.29931000  0.46414000  0.46043000  1.0
  O  O122  1  0.43615000  0.73365000  0.82739000  1.0
  O  O123  1  0.73452000  0.43624000  0.32765000  1.0
  O  O124  1  0.56385000  0.26635000  0.17261000  1.0
  O  O125  1  0.26548000  0.56376000  0.67236000  1.0
  O  O126  1  0.95702000  0.32730000  0.77410000  1.0
  O  O127  1  0.32730000  0.95669000  0.27415000  1.0
  O  O128  1  0.04298000  0.67270000  0.22590000  1.0
  O  O129  1  0.67270000  0.04332000  0.72585000  1.0
  O  O130  1  0.97837000  0.03419000  0.81117000  1.0
  O  O131  1  0.03317000  0.97914000  0.31131000  1.0
  O  O132  1  0.02163000  0.96581000  0.18883000  1.0
  O  O133  1  0.96683000  0.02086000  0.68869000  1.0
  O  O134  1  0.15020000  0.74707000  0.02398000  1.0
  O  O135  1  0.74630000  0.15021000  0.52406000  1.0
  O  O136  1  0.84980000  0.25292000  0.97602000  1.0
  O  O137  1  0.25370000  0.84979000  0.47594000  1.0
  O  O138  1  0.74687000  0.64012000  0.11665000  1.0
  O  O139  1  0.64049000  0.74681000  0.61671000  1.0
  O  O140  1  0.25313000  0.35987000  0.88335000  1.0
  O  O141  1  0.35951000  0.25319000  0.38329000  1.0
  O  O142  1  0.62654000  0.60787000  0.71748000  1.0
  O  O143  1  0.60835000  0.62571000  0.21767000  1.0
  O  O144  1  0.37345000  0.39213000  0.28252000  1.0
  O  O145  1  0.39164000  0.37430000  0.78233000  1.0
  O  O146  1  0.30089000  0.05638000  0.72240000  1.0
  O  O147  1  0.05722000  0.30048000  0.22248000  1.0
  O  O148  1  0.69912000  0.94362000  0.27760000  1.0
  O  O149  1  0.94278000  0.69953000  0.77752000  1.0
