# generated using pymatgen
data_CuH28(C13O4)2
_symmetry_space_group_name_H-M   'P 1'
_cell_length_a   4.89398000
_cell_length_b   9.71688000
_cell_length_c   13.84228064
_cell_angle_alpha   69.76540650
_cell_angle_beta   87.24981220
_cell_angle_gamma   81.37260000
_symmetry_Int_Tables_number   1
_chemical_formula_structural   CuH28(C13O4)2
_chemical_formula_sum   'Cu1 H28 C26 O8'
_cell_volume   610.63987449
_cell_formula_units_Z   1
loop_
 _symmetry_equiv_pos_site_id
 _symmetry_equiv_pos_as_xyz
  1  'x, y, z'
loop_
 _atom_site_type_symbol
 _atom_site_label
 _atom_site_symmetry_multiplicity
 _atom_site_fract_x
 _atom_site_fract_y
 _atom_site_fract_z
 _atom_site_occupancy
  Cu  Cu0  1  0.50000000  0.00000000  0.50000000  1.0
  H  H1  1  0.43072000  0.33912000  0.98765000  1.0
  H  H2  1  0.56928000  0.66088000  0.01235000  1.0
  H  H3  1  0.56087000  0.19437000  0.12365000  1.0
  H  H4  1  0.43915000  0.80563000  0.87635000  1.0
  H  H5  1  0.87924000  0.55391000  0.16047000  1.0
  H  H6  1  0.12074000  0.44608000  0.83953000  1.0
  H  H7  1  0.23636000  0.53287000  0.25001000  1.0
  H  H8  1  0.76363000  0.46712000  0.75000000  1.0
  H  H9  1  0.58611000  0.42623000  0.38872000  1.0
  H  H10  1  0.41391000  0.57377000  0.61128000  1.0
  H  H11  1  0.02212000  0.11151000  0.10721000  1.0
  H  H12  1  0.97789000  0.88848000  0.89279000  1.0
  H  H13  1  0.79206000  0.97847000  0.16387000  1.0
  H  H14  1  0.20795000  0.02154000  0.83613000  1.0
  H  H15  1  0.17366000  0.80083000  0.26787000  1.0
  H  H16  1  0.82634000  0.19917000  0.73214000  1.0
  H  H17  1  0.40022000  0.93335000  0.22392000  1.0
  H  H18  1  0.59979000  0.06665000  0.77608000  1.0
  H  H19  1  0.13183000  0.79352000  0.08856000  1.0
  H  H20  1  0.86815000  0.20646000  0.91146000  1.0
  H  H21  1  0.48371000  0.76004000  0.12522000  1.0
  H  H22  1  0.51629000  0.23993000  0.87480000  1.0
  H  H23  1  0.34067000  0.93664000  0.03973000  1.0
  H  H24  1  0.65933000  0.06334000  0.96027000  1.0
  H  H25  1  0.26749000  0.20614000  0.54751000  1.0
  H  H26  1  0.73251000  0.79386000  0.45249000  1.0
  H  H27  1  0.60626000  0.20527000  0.55088000  1.0
  H  H28  1  0.39373000  0.79475000  0.44912000  1.0
  C  C29  1  0.18180000  0.43644000  0.08693000  1.0
  C  C30  1  0.81823000  0.56355000  0.91307000  1.0
  C  C31  1  0.37433000  0.37160000  0.17512000  1.0
  C  C32  1  0.62566000  0.62839000  0.82488000  1.0
  C  C33  1  0.76589000  0.18646000  0.25907000  1.0
  C  C34  1  0.23413000  0.81355000  0.74091000  1.0
  C  C35  1  0.23787000  0.40663000  0.99490000  1.0
  C  C36  1  0.76211000  0.59336000  0.00510000  1.0
  C  C37  1  0.56649000  0.24682000  0.18109000  1.0
  C  C38  1  0.43351000  0.75318000  0.81891000  1.0
  C  C39  1  0.93850000  0.53220000  0.08961000  1.0
  C  C40  1  0.06152000  0.46779000  0.91040000  1.0
  C  C41  1  0.77429000  0.25128000  0.33645000  1.0
  C  C42  1  0.22572000  0.74874000  0.66353000  1.0
  C  C43  1  0.38046000  0.43480000  0.25235000  1.0
  C  C44  1  0.61952000  0.56521000  0.74765000  1.0
  C  C45  1  0.57699000  0.37513000  0.33037000  1.0
  C  C46  1  0.42302000  0.62487000  0.66963000  1.0
  C  C47  1  0.98267000  0.01780000  0.17678000  1.0
  C  C48  1  0.01732000  0.98220000  0.82322000  1.0
  C  C49  1  0.22442000  0.89378000  0.20040000  1.0
  C  C50  1  0.77558000  0.10622000  0.79961000  1.0
  C  C51  1  0.98715000  0.19921000  0.42034000  1.0
  C  C52  1  0.01285000  0.80081000  0.57966000  1.0
  C  C53  1  0.29842000  0.84343000  0.10852000  1.0
  C  C54  1  0.70156000  0.15656000  0.89149000  1.0
  O  O55  1  0.95263000  0.06690000  0.26356000  1.0
  O  O56  1  0.04739000  0.93311000  0.73643000  1.0
  O  O57  1  0.18869000  0.10273000  0.41215000  1.0
  O  O58  1  0.81132000  0.89728000  0.58785000  1.0
  O  O59  1  0.95876000  0.25241000  0.49311000  1.0
  O  O60  1  0.04121000  0.74759000  0.50688000  1.0
  O  O61  1  0.45284000  0.14569000  0.57504000  1.0
  O  O62  1  0.54717000  0.85433000  0.42496000  1.0
