# generated using pymatgen
data_AgH4C6(NO)3
_symmetry_space_group_name_H-M   'P 1'
_cell_length_a   5.03981000
_cell_length_b   6.21102000
_cell_length_c   11.02220000
_cell_angle_alpha   85.85520000
_cell_angle_beta   89.99680000
_cell_angle_gamma   86.56110000
_symmetry_Int_Tables_number   1
_chemical_formula_structural   AgH4C6(NO)3
_chemical_formula_sum   'Ag2 H8 C12 N6 O6'
_cell_volume   343.49568697
_cell_formula_units_Z   2
loop_
 _symmetry_equiv_pos_site_id
 _symmetry_equiv_pos_as_xyz
  1  'x, y, z'
loop_
 _atom_site_type_symbol
 _atom_site_label
 _atom_site_symmetry_multiplicity
 _atom_site_fract_x
 _atom_site_fract_y
 _atom_site_fract_z
 _atom_site_occupancy
  Ag  Ag0  1  0.17786000  0.17239000  0.53054000  1.0
  Ag  Ag1  1  0.82215000  0.82761000  0.46946000  1.0
  H  H2  1  0.02974000  0.13563000  0.82677000  1.0
  H  H3  1  0.97026000  0.86436000  0.17323000  1.0
  H  H4  1  0.71310000  0.03216000  0.66781000  1.0
  H  H5  1  0.28691000  0.96785000  0.33219000  1.0
  H  H6  1  0.71074000  0.92149000  0.02010000  1.0
  H  H7  1  0.28927000  0.07852000  0.97990000  1.0
  H  H8  1  0.90843000  0.69936000  0.96930000  1.0
  H  H9  1  0.09157000  0.30063000  0.03070000  1.0
  C  C10  1  0.45458000  0.51628000  0.71344000  1.0
  C  C11  1  0.54543000  0.48372000  0.28657000  1.0
  C  C12  1  0.60349000  0.55693000  0.81696000  1.0
  C  C13  1  0.39652000  0.44307000  0.18304000  1.0
  C  C14  1  0.85771000  0.24250000  0.79910000  1.0
  C  C15  1  0.14228000  0.75750000  0.20090000  1.0
  C  C16  1  0.69108000  0.18870000  0.70645000  1.0
  C  C17  1  0.30892000  0.81130000  0.29355000  1.0
  C  C18  1  0.27062000  0.68157000  0.64333000  1.0
  C  C19  1  0.72937000  0.31843000  0.35667000  1.0
  C  C20  1  0.54183000  0.74903000  0.88994000  1.0
  C  C21  1  0.45817000  0.25098000  0.11006000  1.0
  N  N22  1  0.49118000  0.32503000  0.66380000  1.0
  N  N23  1  0.50882000  0.67498000  0.33619000  1.0
  N  N24  1  0.80648000  0.42110000  0.85728000  1.0
  N  N25  1  0.19351000  0.57891000  0.14272000  1.0
  N  N26  1  0.73479000  0.79274000  0.96580000  1.0
  N  N27  1  0.26521000  0.20725000  0.03420000  1.0
  O  O28  1  0.04164000  0.62676000  0.61643000  1.0
  O  O29  1  0.95836000  0.37324000  0.38357000  1.0
  O  O30  1  0.37692000  0.85614000  0.60953000  1.0
  O  O31  1  0.62308000  0.14387000  0.39047000  1.0
  O  O32  1  0.32191000  0.85485000  0.87942000  1.0
  O  O33  1  0.67811000  0.14516000  0.12058000  1.0
