# generated using pymatgen
data_KCuH12C18(NO)2
_symmetry_space_group_name_H-M   'P 1'
_cell_length_a   7.28851000
_cell_length_b   10.40850000
_cell_length_c   11.09448038
_cell_angle_alpha   101.87588595
_cell_angle_beta   108.07785156
_cell_angle_gamma   97.76040000
_symmetry_Int_Tables_number   1
_chemical_formula_structural   KCuH12C18(NO)2
_chemical_formula_sum   'K2 Cu2 H24 C36 N4 O4'
_cell_volume   764.87766479
_cell_formula_units_Z   2
loop_
 _symmetry_equiv_pos_site_id
 _symmetry_equiv_pos_as_xyz
  1  'x, y, z'
loop_
 _atom_site_type_symbol
 _atom_site_label
 _atom_site_symmetry_multiplicity
 _atom_site_fract_x
 _atom_site_fract_y
 _atom_site_fract_z
 _atom_site_occupancy
  K  K0  1  0.24225000  0.43816000  0.00748000  1.0
  K  K1  1  0.75776000  0.56185000  0.99253000  1.0
  Cu  Cu2  1  0.14553000  0.67536000  0.83729000  1.0
  Cu  Cu3  1  0.85447000  0.32464000  0.16271000  1.0
  H  H4  1  0.16174000  0.73713000  0.27850000  1.0
  H  H5  1  0.83829000  0.26287000  0.72153000  1.0
  H  H6  1  0.25432000  0.97128000  0.41464000  1.0
  H  H7  1  0.74569000  0.02873000  0.58537000  1.0
  H  H8  1  0.33062000  0.16275000  0.32252000  1.0
  H  H9  1  0.66937000  0.83725000  0.67748000  1.0
  H  H10  1  0.39024000  0.23850000  0.13083000  1.0
  H  H11  1  0.60976000  0.76150000  0.86917000  1.0
  H  H12  1  0.34980000  0.17537000  0.89039000  1.0
  H  H13  1  0.65020000  0.82462000  0.10962000  1.0
  H  H14  1  0.23000000  0.93700000  0.76347000  1.0
  H  H15  1  0.77000000  0.06301000  0.23654000  1.0
  H  H16  1  0.54727000  0.34968000  0.76824000  1.0
  H  H17  1  0.45275000  0.65031000  0.23176000  1.0
  H  H18  1  0.38343000  0.15212000  0.58404000  1.0
  H  H19  1  0.61657000  0.84788000  0.41594000  1.0
  H  H20  1  0.03253000  0.12242000  0.43939000  1.0
  H  H21  1  0.96748000  0.87759000  0.56060000  1.0
  H  H22  1  0.71659000  0.21223000  0.39187000  1.0
  H  H23  1  0.28340000  0.78777000  0.60813000  1.0
  H  H24  1  0.54397000  0.39081000  0.45836000  1.0
  H  H25  1  0.45604000  0.60918000  0.54165000  1.0
  H  H26  1  0.73219000  0.58951000  0.64881000  1.0
  H  H27  1  0.26781000  0.41049000  0.35118000  1.0
  C  C28  1  0.17785000  0.78737000  0.10335000  1.0
  C  C29  1  0.82212000  0.21264000  0.89664000  1.0
  C  C30  1  0.19220000  0.81905000  0.23553000  1.0
  C  C31  1  0.80781000  0.18095000  0.76448000  1.0
  C  C32  1  0.24664000  0.95264000  0.31255000  1.0
  C  C33  1  0.75336000  0.04735000  0.68746000  1.0
  C  C34  1  0.29031000  0.05934000  0.26214000  1.0
  C  C35  1  0.70969000  0.94065000  0.73787000  1.0
  C  C36  1  0.27860000  0.03334000  0.12913000  1.0
  C  C37  1  0.72141000  0.96665000  0.87088000  1.0
  C  C38  1  0.32898000  0.13505000  0.07021000  1.0
  C  C39  1  0.67102000  0.86495000  0.92979000  1.0
  C  C40  1  0.30993000  0.10086000  0.93924000  1.0
  C  C41  1  0.69005000  0.89913000  0.06076000  1.0
  C  C42  1  0.24486000  0.96537000  0.86665000  1.0
  C  C43  1  0.75515000  0.03462000  0.13335000  1.0
  C  C44  1  0.21948000  0.89788000  0.04927000  1.0
  C  C45  1  0.78050000  0.10213000  0.95072000  1.0
  C  C46  1  0.29698000  0.44592000  0.73912000  1.0
  C  C47  1  0.70301000  0.55408000  0.26088000  1.0
  C  C48  1  0.39405000  0.34236000  0.70822000  1.0
  C  C49  1  0.60594000  0.65764000  0.29177000  1.0
  C  C50  1  0.29888000  0.22831000  0.60194000  1.0
  C  C51  1  0.70113000  0.77169000  0.39805000  1.0
  C  C52  1  0.10444000  0.21126000  0.52166000  1.0
  C  C53  1  0.89556000  0.78874000  0.47832000  1.0
  C  C54  1  0.99712000  0.31056000  0.54846000  1.0
  C  C55  1  0.00289000  0.68944000  0.45154000  1.0
  C  C56  1  0.79531000  0.29953000  0.47499000  1.0
  C  C57  1  0.20469000  0.70048000  0.52500000  1.0
  C  C58  1  0.69944000  0.39806000  0.51133000  1.0
  C  C59  1  0.30057000  0.60194000  0.48867000  1.0
  C  C60  1  0.80343000  0.50927000  0.61896000  1.0
  C  C61  1  0.19655000  0.49072000  0.38103000  1.0
  C  C62  1  0.09247000  0.42705000  0.65653000  1.0
  C  C63  1  0.90753000  0.57294000  0.34347000  1.0
  N  N64  1  0.20435000  0.86570000  0.91959000  1.0
  N  N65  1  0.79565000  0.13429000  0.08041000  1.0
  N  N66  1  0.99454000  0.52481000  0.68961000  1.0
  N  N67  1  0.00545000  0.47519000  0.31039000  1.0
  O  O68  1  0.12909000  0.66352000  0.02847000  1.0
  O  O69  1  0.87093000  0.33649000  0.97152000  1.0
  O  O70  1  0.37872000  0.55313000  0.83897000  1.0
  O  O71  1  0.62124000  0.44687000  0.16102000  1.0
