# generated using pymatgen
data_CdH16C14N3O5
_symmetry_space_group_name_H-M   'P 1'
_cell_length_a   6.16509000
_cell_length_b   10.29020000
_cell_length_c   11.80400000
_cell_angle_alpha   82.57230000
_cell_angle_beta   78.77090000
_cell_angle_gamma   82.63940000
_symmetry_Int_Tables_number   1
_chemical_formula_structural   CdH16C14N3O5
_chemical_formula_sum   'Cd2 H32 C28 N6 O10'
_cell_volume   724.25606019
_cell_formula_units_Z   2
loop_
 _symmetry_equiv_pos_site_id
 _symmetry_equiv_pos_as_xyz
  1  'x, y, z'
loop_
 _atom_site_type_symbol
 _atom_site_label
 _atom_site_symmetry_multiplicity
 _atom_site_fract_x
 _atom_site_fract_y
 _atom_site_fract_z
 _atom_site_occupancy
  Cd  Cd0  1  0.73499000  0.00373000  0.15245000  1.0
  Cd  Cd1  1  0.26501000  0.99627000  0.84755000  1.0
  H  H2  1  0.12094000  0.12280000  0.28491000  1.0
  H  H3  1  0.87905000  0.87720000  0.71509000  1.0
  H  H4  1  0.22804000  0.17794000  0.47063000  1.0
  H  H5  1  0.77196000  0.82206000  0.52937000  1.0
  H  H6  1  0.02947000  0.16898000  0.60143000  1.0
  H  H7  1  0.97053000  0.83103000  0.39857000  1.0
  H  H8  1  0.59682000  0.17026000  0.57316000  1.0
  H  H9  1  0.40318000  0.82974000  0.42684000  1.0
  H  H10  1  0.17718000  0.57125000  0.00106000  1.0
  H  H11  1  0.82281000  0.42875000  0.99894000  1.0
  H  H12  1  0.94021000  0.57371000  0.11022000  1.0
  H  H13  1  0.05979000  0.42629000  0.88979000  1.0
  H  H14  1  0.76643000  0.39218000  0.39918000  1.0
  H  H15  1  0.23357000  0.60783000  0.60081000  1.0
  H  H16  1  0.27493000  0.36649000  0.60785000  1.0
  H  H17  1  0.72508000  0.63352000  0.39215000  1.0
  H  H18  1  0.43753000  0.53898000  0.32166000  1.0
  H  H19  1  0.56247000  0.46102000  0.67834000  1.0
  H  H20  1  0.66847000  0.47762000  0.22287000  1.0
  H  H21  1  0.33153000  0.52238000  0.77712000  1.0
  H  H22  1  0.53592000  0.61371000  0.05739000  1.0
  H  H23  1  0.46408000  0.38629000  0.94261000  1.0
  H  H24  1  0.12067000  0.67901000  0.23570000  1.0
  H  H25  1  0.87934000  0.32098000  0.76430000  1.0
  H  H26  1  0.27849000  0.01373000  0.13849000  1.0
  H  H27  1  0.72150000  0.98627000  0.86151000  1.0
  H  H28  1  0.41456000  0.30539000  0.24779000  1.0
  H  H29  1  0.58542000  0.69462000  0.75222000  1.0
  H  H30  1  0.12111000  0.34339000  0.13294000  1.0
  H  H31  1  0.87889000  0.65661000  0.86706000  1.0
  H  H32  1  0.36711000  0.14132000  0.06769000  1.0
  H  H33  1  0.63290000  0.85868000  0.93231000  1.0
  C  C34  1  0.02421000  0.36154000  0.50380000  1.0
  C  C35  1  0.97578000  0.63846000  0.49620000  1.0
  C  C36  1  0.95734000  0.12370000  0.34053000  1.0
  C  C37  1  0.04266000  0.87630000  0.65946000  1.0
  C  C38  1  0.36479000  0.40522000  0.21121000  1.0
  C  C39  1  0.63521000  0.59479000  0.78880000  1.0
  C  C40  1  0.56409000  0.75420000  0.16855000  1.0
  C  C41  1  0.43592000  0.24580000  0.83144000  1.0
  C  C42  1  0.05714000  0.21259000  0.51034000  1.0
  C  C43  1  0.94286000  0.78740000  0.48965000  1.0
  C  C44  1  0.68557000  0.14846000  0.48728000  1.0
  C  C45  1  0.31443000  0.85154000  0.51272000  1.0
  C  C46  1  0.12304000  0.56034000  0.09620000  1.0
  C  C47  1  0.87696000  0.43966000  0.90379000  1.0
  C  C48  1  0.86957000  0.43832000  0.44422000  1.0
  C  C49  1  0.13045000  0.56168000  0.55576000  1.0
  C  C50  1  0.15490000  0.42473000  0.55963000  1.0
  C  C51  1  0.84511000  0.57526000  0.44037000  1.0
  C  C52  1  0.20232000  0.42622000  0.14831000  1.0
  C  C53  1  0.79766000  0.57378000  0.85169000  1.0
  C  C54  1  0.49027000  0.51334000  0.23174000  1.0
  C  C55  1  0.50973000  0.48666000  0.76826000  1.0
  C  C56  1  0.45915000  0.63614000  0.14592000  1.0
  C  C57  1  0.54086000  0.36386000  0.85408000  1.0
  C  C58  1  0.20560000  0.67110000  0.14550000  1.0
  C  C59  1  0.79440000  0.32889000  0.85450000  1.0
  C  C60  1  0.16410000  0.80395000  0.07600000  1.0
  C  C61  1  0.83590000  0.19605000  0.92401000  1.0
  N  N62  1  0.90817000  0.15929000  0.45028000  1.0
  N  N63  1  0.09182000  0.84071000  0.54972000  1.0
  N  N64  1  0.77425000  0.09152000  0.31297000  1.0
  N  N65  1  0.22574000  0.90847000  0.68703000  1.0
  N  N66  1  0.60108000  0.10772000  0.40526000  1.0
  N  N67  1  0.39892000  0.89227000  0.59475000  1.0
  O  O68  1  0.65401000  0.82568000  0.07716000  1.0
  O  O69  1  0.34601000  0.17431000  0.92283000  1.0
  O  O70  1  0.55980000  0.78305000  0.26950000  1.0
  O  O71  1  0.44022000  0.21695000  0.73049000  1.0
  O  O72  1  0.36545000  0.08746000  0.14439000  1.0
  O  O73  1  0.63455000  0.91254000  0.85561000  1.0
  O  O74  1  0.10470000  0.90492000  0.13345000  1.0
  O  O75  1  0.89531000  0.09507000  0.86657000  1.0
  O  O76  1  0.19740000  0.80856000  0.96655000  1.0
  O  O77  1  0.80260000  0.19145000  0.03346000  1.0
