# generated using pymatgen
data_Cu3H20C20(N5O8)2
_symmetry_space_group_name_H-M   'P 1'
_cell_length_a   7.58920000
_cell_length_b   9.12601000
_cell_length_c   10.39250000
_cell_angle_alpha   103.73000000
_cell_angle_beta   98.79820000
_cell_angle_gamma   97.11180000
_symmetry_Int_Tables_number   1
_chemical_formula_structural   Cu3H20C20(N5O8)2
_chemical_formula_sum   'Cu3 H20 C20 N10 O16'
_cell_volume   681.30237336
_cell_formula_units_Z   1
loop_
 _symmetry_equiv_pos_site_id
 _symmetry_equiv_pos_as_xyz
  1  'x, y, z'
loop_
 _atom_site_type_symbol
 _atom_site_label
 _atom_site_symmetry_multiplicity
 _atom_site_fract_x
 _atom_site_fract_y
 _atom_site_fract_z
 _atom_site_occupancy
  Cu  Cu0  1  0.50000000  0.00000000  0.50000000  1.0
  Cu  Cu1  1  0.59050000  0.63643000  0.42511000  1.0
  Cu  Cu2  1  0.40950000  0.36358000  0.57488000  1.0
  H  H3  1  0.79185000  0.88113000  0.53565000  1.0
  H  H4  1  0.20814000  0.11887000  0.46435000  1.0
  H  H5  1  0.21421000  0.46945000  0.21989000  1.0
  H  H6  1  0.78580000  0.53055000  0.78010000  1.0
  H  H7  1  0.06626000  0.90991000  0.32600000  1.0
  H  H8  1  0.93373000  0.09008000  0.67400000  1.0
  H  H9  1  0.83801000  0.48495000  0.40796000  1.0
  H  H10  1  0.16199000  0.51505000  0.59205000  1.0
  H  H11  1  0.93617000  0.64179000  0.52061000  1.0
  H  H12  1  0.06382000  0.35821000  0.47939000  1.0
  H  H13  1  0.89705000  0.68083000  0.09022000  1.0
  H  H14  1  0.10295000  0.31916000  0.90977000  1.0
  H  H15  1  0.82724000  0.56743000  0.18910000  1.0
  H  H16  1  0.17276000  0.43257000  0.81089000  1.0
  H  H17  1  0.21336000  0.85883000  0.03537000  1.0
  H  H18  1  0.78664000  0.14117000  0.96463000  1.0
  H  H19  1  0.47198000  0.72124000  0.08395000  1.0
  H  H20  1  0.52802000  0.27875000  0.91605000  1.0
  H  H21  1  0.75685000  0.87204000  0.23865000  1.0
  H  H22  1  0.24315000  0.12796000  0.76136000  1.0
  C  C23  1  0.22009000  0.58941000  0.26861000  1.0
  C  C24  1  0.77991000  0.41059000  0.73138000  1.0
  C  C25  1  0.14509000  0.81694000  0.32113000  1.0
  C  C26  1  0.85491000  0.18306000  0.67887000  1.0
  C  C27  1  0.55841000  0.34237000  0.25012000  1.0
  C  C28  1  0.44159000  0.65763000  0.74988000  1.0
  C  C29  1  0.53315000  0.16881000  0.21761000  1.0
  C  C30  1  0.46686000  0.83119000  0.78239000  1.0
  C  C31  1  0.36803000  0.07865000  0.14546000  1.0
  C  C32  1  0.63197000  0.92135000  0.85454000  1.0
  C  C33  1  0.34240000  0.91957000  0.09767000  1.0
  C  C34  1  0.65760000  0.08043000  0.90233000  1.0
  C  C35  1  0.48598000  0.84428000  0.12590000  1.0
  C  C36  1  0.51402000  0.15572000  0.87410000  1.0
  C  C37  1  0.64631000  0.92896000  0.20760000  1.0
  C  C38  1  0.35369000  0.07104000  0.79240000  1.0
  C  C39  1  0.67313000  0.08908000  0.25346000  1.0
  C  C40  1  0.32687000  0.91093000  0.74654000  1.0
  C  C41  1  0.85419000  0.16612000  0.34129000  1.0
  C  C42  1  0.14581000  0.83388000  0.65872000  1.0
  N  N43  1  0.30879000  0.82363000  0.39104000  1.0
  N  N44  1  0.69121000  0.17636000  0.60896000  1.0
  N  N45  1  0.35372000  0.68121000  0.35898000  1.0
  N  N46  1  0.64628000  0.31879000  0.64102000  1.0
  N  N47  1  0.08721000  0.67101000  0.24220000  1.0
  N  N48  1  0.91280000  0.32899000  0.75779000  1.0
  N  N49  1  0.93102000  0.60773000  0.14690000  1.0
  N  N50  1  0.06898000  0.39227000  0.85310000  1.0
  N  N51  1  0.21043000  0.14991000  0.11579000  1.0
  N  N52  1  0.78958000  0.85010000  0.88421000  1.0
  O  O53  1  0.65974000  0.85199000  0.50349000  1.0
  O  O54  1  0.34026000  0.14800000  0.49650000  1.0
  O  O55  1  0.62582000  0.40577000  0.17146000  1.0
  O  O56  1  0.37419000  0.59424000  0.82854000  1.0
  O  O57  1  0.83632000  0.59715000  0.43601000  1.0
  O  O58  1  0.16367000  0.40285000  0.56399000  1.0
  O  O59  1  0.50504000  0.41039000  0.35839000  1.0
  O  O60  1  0.49496000  0.58962000  0.64161000  1.0
  O  O61  1  0.23306000  0.27297000  0.08248000  1.0
  O  O62  1  0.76695000  0.72703000  0.91751000  1.0
  O  O63  1  0.06165000  0.08379000  0.12356000  1.0
  O  O64  1  0.93835000  0.91622000  0.87645000  1.0
  O  O65  1  0.89249000  0.31259000  0.37162000  1.0
  O  O66  1  0.10751000  0.68741000  0.62838000  1.0
  O  O67  1  0.95888000  0.08287000  0.38180000  1.0
  O  O68  1  0.04112000  0.91713000  0.61820000  1.0
