# generated using pymatgen
data_AlH6C24(OF)6
_symmetry_space_group_name_H-M   'P 1'
_cell_length_a   3.98422000
_cell_length_b   29.09947965
_cell_length_c   29.09850000
_cell_angle_alpha   59.99934103
_cell_angle_beta   90.00080000
_cell_angle_gamma   89.99900002
_symmetry_Int_Tables_number   1
_chemical_formula_structural   AlH6C24(OF)6
_chemical_formula_sum   'Al2 H12 C48 O12 F12'
_cell_volume   2921.64122573
_cell_formula_units_Z   2
loop_
 _symmetry_equiv_pos_site_id
 _symmetry_equiv_pos_as_xyz
  1  'x, y, z'
loop_
 _atom_site_type_symbol
 _atom_site_label
 _atom_site_symmetry_multiplicity
 _atom_site_fract_x
 _atom_site_fract_y
 _atom_site_fract_z
 _atom_site_occupancy
  Al  Al0  1  0.99996000  0.50000000  0.00000000  1.0
  Al  Al1  1  0.00045000  0.16666000  0.66668000  1.0
  H  H2  1  0.50171000  0.36414000  0.42105000  1.0
  H  H3  1  0.49864000  0.21481000  0.42103000  1.0
  H  H4  1  0.49868000  0.45186000  0.24564000  1.0
  H  H5  1  0.50135000  0.30251000  0.24564000  1.0
  H  H6  1  0.50174000  0.21483000  0.86416000  1.0
  H  H7  1  0.49862000  0.36417000  0.71480000  1.0
  H  H8  1  0.49867000  0.30251000  0.95186000  1.0
  H  H9  1  0.50136000  0.45186000  0.80251000  1.0
  H  H10  1  0.50170000  0.92103000  0.71480000  1.0
  H  H11  1  0.49860000  0.92101000  0.86416000  1.0
  H  H12  1  0.49870000  0.74563000  0.80249000  1.0
  H  H13  1  0.50137000  0.74563000  0.95185000  1.0
  C  C14  1  0.49995000  0.58129000  0.95935000  1.0
  C  C15  1  0.49997000  0.45936000  0.08129000  1.0
  C  C16  1  0.49996000  0.45935000  0.95936000  1.0
  C  C17  1  0.50044000  0.20730000  0.58537000  1.0
  C  C18  1  0.50044000  0.20732000  0.70732000  1.0
  C  C19  1  0.50044000  0.08536000  0.70733000  1.0
  C  C20  1  0.50036000  0.23695000  0.52608000  1.0
  C  C21  1  0.50651000  0.29250000  0.49673000  1.0
  C  C22  1  0.50298000  0.32099000  0.44177000  1.0
  C  C23  1  0.50020000  0.29317000  0.41365000  1.0
  C  C24  1  0.49750000  0.23723000  0.44177000  1.0
  C  C25  1  0.49416000  0.21076000  0.49671000  1.0
  C  C26  1  0.50010000  0.32123000  0.35753000  1.0
  C  C27  1  0.50005000  0.34544000  0.30913000  1.0
  C  C28  1  0.50002000  0.37350000  0.25301000  1.0
  C  C29  1  0.49735000  0.42944000  0.22490000  1.0
  C  C30  1  0.49398000  0.45589000  0.16996000  1.0
  C  C31  1  0.49998000  0.42972000  0.14058000  1.0
  C  C32  1  0.50600000  0.37416000  0.16996000  1.0
  C  C33  1  0.50267000  0.34567000  0.22490000  1.0
  C  C34  1  0.50038000  0.23697000  0.73696000  1.0
  C  C35  1  0.50656000  0.21078000  0.79252000  1.0
  C  C36  1  0.50303000  0.23726000  0.82099000  1.0
  C  C37  1  0.50020000  0.29319000  0.79318000  1.0
  C  C38  1  0.49750000  0.32101000  0.73723000  1.0
  C  C39  1  0.49416000  0.29253000  0.71077000  1.0
  C  C40  1  0.50008000  0.32125000  0.82123000  1.0
  C  C41  1  0.50003000  0.34544000  0.84544000  1.0
  C  C42  1  0.50001000  0.37350000  0.87349000  1.0
  C  C43  1  0.49734000  0.34567000  0.92943000  1.0
  C  C44  1  0.49397000  0.37416000  0.95589000  1.0
  C  C45  1  0.49995000  0.42971000  0.92972000  1.0
  C  C46  1  0.50599000  0.45589000  0.87416000  1.0
  C  C47  1  0.50266000  0.42944000  0.84566000  1.0
  C  C48  1  0.50032000  0.02607000  0.73696000  1.0
  C  C49  1  0.50649000  0.99670000  0.71077000  1.0
  C  C50  1  0.50297000  0.94176000  0.73723000  1.0
  C  C51  1  0.50016000  0.91363000  0.79317000  1.0
  C  C52  1  0.49745000  0.94174000  0.82100000  1.0
  C  C53  1  0.49410000  0.99669000  0.79253000  1.0
  C  C54  1  0.50009000  0.85751000  0.82124000  1.0
  C  C55  1  0.50005000  0.80912000  0.84543000  1.0
  C  C56  1  0.50003000  0.75301000  0.87348000  1.0
  C  C57  1  0.49738000  0.72490000  0.84565000  1.0
  C  C58  1  0.49399000  0.66995000  0.87415000  1.0
  C  C59  1  0.49998000  0.64057000  0.92970000  1.0
  C  C60  1  0.50599000  0.66994000  0.95589000  1.0
  C  C61  1  0.50268000  0.72489000  0.92943000  1.0
  O  O62  1  0.26367000  0.44923000  0.99240000  1.0
  O  O63  1  0.26365000  0.55837000  0.94923000  1.0
  O  O64  1  0.26367000  0.49240000  0.05838000  1.0
  O  O65  1  0.73625000  0.49239000  0.94923000  1.0
  O  O66  1  0.73627000  0.44923000  0.05838000  1.0
  O  O67  1  0.73624000  0.55837000  0.99240000  1.0
  O  O68  1  0.26424000  0.10829000  0.71745000  1.0
  O  O69  1  0.26424000  0.17425000  0.60832000  1.0
  O  O70  1  0.26420000  0.21743000  0.67427000  1.0
  O  O71  1  0.73669000  0.10828000  0.67430000  1.0
  O  O72  1  0.73665000  0.17428000  0.71744000  1.0
  O  O73  1  0.73668000  0.21742000  0.60830000  1.0
  F  F74  1  0.50627000  0.31972000  0.52327000  1.0
  F  F75  1  0.49440000  0.15700000  0.52326000  1.0
  F  F76  1  0.49428000  0.50966000  0.14341000  1.0
  F  F77  1  0.50570000  0.34694000  0.14341000  1.0
  F  F78  1  0.50637000  0.15702000  0.81975000  1.0
  F  F79  1  0.49441000  0.31974000  0.65700000  1.0
  F  F80  1  0.49427000  0.34694000  0.00966000  1.0
  F  F81  1  0.50568000  0.50966000  0.84694000  1.0
  F  F82  1  0.50626000  0.02326000  0.65700000  1.0
  F  F83  1  0.49435000  0.02323000  0.81975000  1.0
  F  F84  1  0.49430000  0.64340000  0.84693000  1.0
  F  F85  1  0.50567000  0.64340000  0.00965000  1.0
