# generated using pymatgen
data_CaH8C6N2O7
_symmetry_space_group_name_H-M   'P 1'
_cell_length_a   7.02368000
_cell_length_b   11.41900000
_cell_length_c   11.80430000
_cell_angle_alpha   89.99980000
_cell_angle_beta   91.29530000
_cell_angle_gamma   89.99990000
_symmetry_Int_Tables_number   1
_chemical_formula_structural   CaH8C6N2O7
_chemical_formula_sum   'Ca4 H32 C24 N8 O28'
_cell_volume   946.50309269
_cell_formula_units_Z   4
loop_
 _symmetry_equiv_pos_site_id
 _symmetry_equiv_pos_as_xyz
  1  'x, y, z'
loop_
 _atom_site_type_symbol
 _atom_site_label
 _atom_site_symmetry_multiplicity
 _atom_site_fract_x
 _atom_site_fract_y
 _atom_site_fract_z
 _atom_site_occupancy
  Ca  Ca0  1  0.52059000  0.05679000  0.16217000  1.0
  Ca  Ca1  1  0.97941000  0.55679000  0.33783000  1.0
  Ca  Ca2  1  0.47941000  0.94322000  0.83783000  1.0
  Ca  Ca3  1  0.02060000  0.44322000  0.66217000  1.0
  H  H4  1  0.83601000  0.81613000  0.20029000  1.0
  H  H5  1  0.66399000  0.31612000  0.29971000  1.0
  H  H6  1  0.16398000  0.18387000  0.79971000  1.0
  H  H7  1  0.33602000  0.68387000  0.70029000  1.0
  H  H8  1  0.81866000  0.95113000  0.58966000  1.0
  H  H9  1  0.68134000  0.45112000  0.91035000  1.0
  H  H10  1  0.18131000  0.04887000  0.41035000  1.0
  H  H11  1  0.31870000  0.54887000  0.08965000  1.0
  H  H12  1  0.34680000  0.85303000  0.22941000  1.0
  H  H13  1  0.15320000  0.35303000  0.27059000  1.0
  H  H14  1  0.65318000  0.14697000  0.77059000  1.0
  H  H15  1  0.84682000  0.64697000  0.72942000  1.0
  H  H16  1  0.30806000  0.91268000  0.34347000  1.0
  H  H17  1  0.19194000  0.41268000  0.15653000  1.0
  H  H18  1  0.69193000  0.08732000  0.65652000  1.0
  H  H19  1  0.80808000  0.58732000  0.84348000  1.0
  H  H20  1  0.95290000  0.06951000  0.09251000  1.0
  H  H21  1  0.54709000  0.56951000  0.40749000  1.0
  H  H22  1  0.04709000  0.93050000  0.90749000  1.0
  H  H23  1  0.45291000  0.43050000  0.59251000  1.0
  H  H24  1  0.83169000  0.99620000  0.00219000  1.0
  H  H25  1  0.66832000  0.49620000  0.49781000  1.0
  H  H26  1  0.16831000  0.00381000  0.99781000  1.0
  H  H27  1  0.33168000  0.50380000  0.50219000  1.0
  H  H28  1  0.13727000  0.15574000  0.20407000  1.0
  H  H29  1  0.36273000  0.65574000  0.29593000  1.0
  H  H30  1  0.86273000  0.84427000  0.79593000  1.0
  H  H31  1  0.63727000  0.34427000  0.70407000  1.0
  H  H32  1  0.16922000  0.21032000  0.08249000  1.0
  H  H33  1  0.33078000  0.71032000  0.41751000  1.0
  H  H34  1  0.83078000  0.78969000  0.91751000  1.0
  H  H35  1  0.66922000  0.28969000  0.58249000  1.0
  C  C36  1  0.82388000  0.84499000  0.28767000  1.0
  C  C37  1  0.67612000  0.34499000  0.21233000  1.0
  C  C38  1  0.17610000  0.15500000  0.71233000  1.0
  C  C39  1  0.32390000  0.65500000  0.78767000  1.0
  C  C40  1  0.88694000  0.81121000  0.47599000  1.0
  C  C41  1  0.61305000  0.31120000  0.02401000  1.0
  C  C42  1  0.11303000  0.18879000  0.52401000  1.0
  C  C43  1  0.38697000  0.68879000  0.97599000  1.0
  C  C44  1  0.81638000  0.92161000  0.50236000  1.0
  C  C45  1  0.68362000  0.42160000  0.99764000  1.0
  C  C46  1  0.18359000  0.07839000  0.49764000  1.0
  C  C47  1  0.31641000  0.57839000  0.00236000  1.0
  C  C48  1  0.73736000  0.98717000  0.41365000  1.0
  C  C49  1  0.76264000  0.48717000  0.08635000  1.0
  C  C50  1  0.26261000  0.01282000  0.58635000  1.0
  C  C51  1  0.23739000  0.51282000  0.91365000  1.0
  C  C52  1  0.64121000  0.10495000  0.43076000  1.0
  C  C53  1  0.85879000  0.60494000  0.06924000  1.0
  C  C54  1  0.35878000  0.89506000  0.56924000  1.0
  C  C55  1  0.14122000  0.39506000  0.93076000  1.0
  C  C56  1  0.95212000  0.72872000  0.56954000  1.0
  C  C57  1  0.54787000  0.22872000  0.93046000  1.0
  C  C58  1  0.04786000  0.27128000  0.43046000  1.0
  C  C59  1  0.45214000  0.77128000  0.06954000  1.0
  N  N60  1  0.74024000  0.94815000  0.30631000  1.0
  N  N61  1  0.75976000  0.44814000  0.19369000  1.0
  N  N62  1  0.25973000  0.05185000  0.69369000  1.0
  N  N63  1  0.24026000  0.55185000  0.80631000  1.0
  N  N64  1  0.89200000  0.77273000  0.36844000  1.0
  N  N65  1  0.60800000  0.27272000  0.13156000  1.0
  N  N66  1  0.10798000  0.22727000  0.63156000  1.0
  N  N67  1  0.39202000  0.72726000  0.86844000  1.0
  O  O68  1  0.54309000  0.14462000  0.34876000  1.0
  O  O69  1  0.95691000  0.64462000  0.15124000  1.0
  O  O70  1  0.45689000  0.85537000  0.65124000  1.0
  O  O71  1  0.04311000  0.35537000  0.84876000  1.0
  O  O72  1  0.66873000  0.15347000  0.52691000  1.0
  O  O73  1  0.83128000  0.65347000  0.97309000  1.0
  O  O74  1  0.33126000  0.84653000  0.47309000  1.0
  O  O75  1  0.16875000  0.34653000  0.02691000  1.0
  O  O76  1  0.99997000  0.62519000  0.54135000  1.0
  O  O77  1  0.50002000  0.12519000  0.95865000  1.0
  O  O78  1  0.00002000  0.37481000  0.45866000  1.0
  O  O79  1  0.49998000  0.87481000  0.04134000  1.0
  O  O80  1  0.94769000  0.76706000  0.67016000  1.0
  O  O81  1  0.55230000  0.26706000  0.82985000  1.0
  O  O82  1  0.05229000  0.23294000  0.32985000  1.0
  O  O83  1  0.44771000  0.73294000  0.17015000  1.0
  O  O84  1  0.30335000  0.92916000  0.26075000  1.0
  O  O85  1  0.19665000  0.42917000  0.23926000  1.0
  O  O86  1  0.69663000  0.07084000  0.73924000  1.0
  O  O87  1  0.80337000  0.57084000  0.76076000  1.0
  O  O88  1  0.82846000  0.03105000  0.07749000  1.0
  O  O89  1  0.67153000  0.53105000  0.42251000  1.0
  O  O90  1  0.17154000  0.96896000  0.92251000  1.0
  O  O91  1  0.32847000  0.46896000  0.57749000  1.0
  O  O92  1  0.17726000  0.13523000  0.12668000  1.0
  O  O93  1  0.32273000  0.63523000  0.37332000  1.0
  O  O94  1  0.82274000  0.86478000  0.87332000  1.0
  O  O95  1  0.67726000  0.36478000  0.62668000  1.0
