# generated using pymatgen
data_SrH14(C7O4)2
_symmetry_space_group_name_H-M   'P 1'
_cell_length_a   7.81382000
_cell_length_b   10.11850000
_cell_length_c   10.11850000
_cell_angle_alpha   69.13430000
_cell_angle_beta   88.77280000
_cell_angle_gamma   88.77280000
_symmetry_Int_Tables_number   1
_chemical_formula_structural   SrH14(C7O4)2
_chemical_formula_sum   'Sr2 H28 C28 O16'
_cell_volume   747.29120504
_cell_formula_units_Z   2
loop_
 _symmetry_equiv_pos_site_id
 _symmetry_equiv_pos_as_xyz
  1  'x, y, z'
loop_
 _atom_site_type_symbol
 _atom_site_label
 _atom_site_symmetry_multiplicity
 _atom_site_fract_x
 _atom_site_fract_y
 _atom_site_fract_z
 _atom_site_occupancy
  Sr  Sr0  1  0.75000000  0.93828000  0.06172000  1.0
  Sr  Sr1  1  0.25000000  0.06172000  0.93828000  1.0
  H  H2  1  0.16325000  0.83516000  0.74328000  1.0
  H  H3  1  0.33676000  0.25672000  0.16484000  1.0
  H  H4  1  0.83675000  0.16484000  0.25672000  1.0
  H  H5  1  0.66325000  0.74328000  0.83516000  1.0
  H  H6  1  0.97631000  0.62716000  0.79261000  1.0
  H  H7  1  0.52369000  0.20739000  0.37284000  1.0
  H  H8  1  0.02369000  0.37284000  0.20739000  1.0
  H  H9  1  0.47631000  0.79261000  0.62716000  1.0
  H  H10  1  0.86640000  0.56151000  0.59562000  1.0
  H  H11  1  0.63360000  0.40438000  0.43849000  1.0
  H  H12  1  0.13360000  0.43849000  0.40438000  1.0
  H  H13  1  0.36640000  0.59562000  0.56151000  1.0
  H  H14  1  0.94225000  0.70937000  0.34602000  1.0
  H  H15  1  0.55775000  0.65398000  0.29063000  1.0
  H  H16  1  0.05775000  0.29063000  0.65398000  1.0
  H  H17  1  0.44225000  0.34602000  0.70937000  1.0
  H  H18  1  0.28875000  0.03571000  0.38702000  1.0
  H  H19  1  0.21125000  0.61298000  0.96429000  1.0
  H  H20  1  0.71125000  0.96429000  0.61298000  1.0
  H  H21  1  0.78875000  0.38702000  0.03571000  1.0
  H  H22  1  0.65250000  0.94093000  0.37556000  1.0
  H  H23  1  0.84750000  0.62444000  0.05907000  1.0
  H  H24  1  0.34750000  0.05907000  0.62444000  1.0
  H  H25  1  0.15250000  0.37556000  0.94093000  1.0
  H  H26  1  0.48916000  0.94606000  0.28312000  1.0
  H  H27  1  0.01084000  0.71688000  0.05394000  1.0
  H  H28  1  0.51084000  0.05394000  0.71688000  1.0
  H  H29  1  0.98916000  0.28312000  0.94606000  1.0
  C  C30  1  0.16009000  0.88739000  0.51757000  1.0
  C  C31  1  0.33991000  0.48243000  0.11261000  1.0
  C  C32  1  0.83991000  0.11261000  0.48243000  1.0
  C  C33  1  0.66009000  0.51757000  0.88739000  1.0
  C  C34  1  0.11347000  0.80755000  0.65689000  1.0
  C  C35  1  0.38653000  0.34311000  0.19245000  1.0
  C  C36  1  0.88653000  0.19245000  0.34311000  1.0
  C  C37  1  0.61347000  0.65689000  0.80755000  1.0
  C  C38  1  0.00918000  0.69096000  0.68354000  1.0
  C  C39  1  0.49082000  0.31646000  0.30904000  1.0
  C  C40  1  0.99082000  0.30904000  0.31646000  1.0
  C  C41  1  0.50918000  0.68354000  0.69096000  1.0
  C  C42  1  0.94735000  0.65361000  0.57281000  1.0
  C  C43  1  0.55265000  0.42719000  0.34639000  1.0
  C  C44  1  0.05265000  0.34639000  0.42719000  1.0
  C  C45  1  0.44735000  0.57281000  0.65361000  1.0
  C  C46  1  0.98911000  0.73593000  0.43413000  1.0
  C  C47  1  0.51089000  0.56588000  0.26407000  1.0
  C  C48  1  0.01089000  0.26407000  0.56587000  1.0
  C  C49  1  0.48911000  0.43413000  0.73593000  1.0
  C  C50  1  0.09551000  0.85376000  0.40415000  1.0
  C  C51  1  0.40449000  0.59585000  0.14624000  1.0
  C  C52  1  0.90449000  0.14624000  0.59585000  1.0
  C  C53  1  0.59551000  0.40415000  0.85376000  1.0
  C  C54  1  0.13923000  0.94207000  0.25660000  1.0
  C  C55  1  0.36077000  0.74340000  0.05793000  1.0
  C  C56  1  0.86077000  0.05793000  0.74340000  1.0
  C  C57  1  0.63923000  0.25660000  0.94207000  1.0
  O  O58  1  0.26808000  0.99806000  0.49301000  1.0
  O  O59  1  0.23192000  0.50699000  0.00194000  1.0
  O  O60  1  0.73192000  0.00194000  0.50699000  1.0
  O  O61  1  0.76808000  0.49301000  0.99806000  1.0
  O  O62  1  0.27152000  0.02265000  0.23275000  1.0
  O  O63  1  0.22848000  0.76725000  0.97735000  1.0
  O  O64  1  0.72848000  0.97735000  0.76725000  1.0
  O  O65  1  0.77152000  0.23275000  0.02265000  1.0
  O  O66  1  0.04831000  0.93825000  0.15503000  1.0
  O  O67  1  0.45169000  0.84497000  0.06175000  1.0
  O  O68  1  0.95169000  0.06175000  0.84497000  1.0
  O  O69  1  0.54831000  0.15503000  0.93825000  1.0
  O  O70  1  0.61040000  0.91580000  0.29641000  1.0
  O  O71  1  0.88960000  0.70359000  0.08420000  1.0
  O  O72  1  0.38960000  0.08419000  0.70359000  1.0
  O  O73  1  0.11040000  0.29641000  0.91581000  1.0
