# generated using pymatgen
data_CuH14C19N2O3
_symmetry_space_group_name_H-M   'P 1'
_cell_length_a   8.72320000
_cell_length_b   10.38890000
_cell_length_c   11.37020000
_cell_angle_alpha   79.04410000
_cell_angle_beta   87.97300000
_cell_angle_gamma   81.76290000
_symmetry_Int_Tables_number   1
_chemical_formula_structural   CuH14C19N2O3
_chemical_formula_sum   'Cu2 H28 C38 N4 O6'
_cell_volume   1001.16596232
_cell_formula_units_Z   2
loop_
 _symmetry_equiv_pos_site_id
 _symmetry_equiv_pos_as_xyz
  1  'x, y, z'
loop_
 _atom_site_type_symbol
 _atom_site_label
 _atom_site_symmetry_multiplicity
 _atom_site_fract_x
 _atom_site_fract_y
 _atom_site_fract_z
 _atom_site_occupancy
  Cu  Cu0  1  0.43298000  0.92495000  0.39652000  1.0
  Cu  Cu1  1  0.56701000  0.07504000  0.60347000  1.0
  H  H2  1  0.33708000  0.75175000  0.61264000  1.0
  H  H3  1  0.66297000  0.24830000  0.38730000  1.0
  H  H4  1  0.43708000  0.53308000  0.74337000  1.0
  H  H5  1  0.56290000  0.46693000  0.25665000  1.0
  H  H6  1  0.68790000  0.41006000  0.68931000  1.0
  H  H7  1  0.31215000  0.58990000  0.31069000  1.0
  H  H8  1  0.83049000  0.50984000  0.50323000  1.0
  H  H9  1  0.16954000  0.49019000  0.49670000  1.0
  H  H10  1  0.70986000  0.72533000  0.38103000  1.0
  H  H11  1  0.29005000  0.27474000  0.61896000  1.0
  H  H12  1  0.20288000  0.97992000  0.74770000  1.0
  H  H13  1  0.79711000  0.02006000  0.25231000  1.0
  H  H14  1  0.94606000  0.11419000  0.77735000  1.0
  H  H15  1  0.05386000  0.88584000  0.22273000  1.0
  H  H16  1  0.80520000  0.25405000  0.60576000  1.0
  H  H17  1  0.19476000  0.74596000  0.39425000  1.0
  H  H18  1  0.92202000  0.26754000  0.39957000  1.0
  H  H19  1  0.07807000  0.73242000  0.60045000  1.0
  H  H20  1  0.11854000  0.22422000  0.27206000  1.0
  H  H21  1  0.88149000  0.77578000  0.72789000  1.0
  H  H22  1  0.57514000  0.17447000  0.22286000  1.0
  H  H23  1  0.42486000  0.82552000  0.77718000  1.0
  H  H24  1  0.66472000  0.22311000  0.00761000  1.0
  H  H25  1  0.33527000  0.77690000  0.99242000  1.0
  H  H26  1  0.24192000  0.12013000  0.89521000  1.0
  H  H27  1  0.75803000  0.87986000  0.10480000  1.0
  H  H28  1  0.14858000  0.07935000  0.10792000  1.0
  H  H29  1  0.85146000  0.92063000  0.89211000  1.0
  C  C30  1  0.44464000  0.69260000  0.59235000  1.0
  C  C31  1  0.55539000  0.30738000  0.40766000  1.0
  C  C32  1  0.50175000  0.57277000  0.66422000  1.0
  C  C33  1  0.49832000  0.42720000  0.33581000  1.0
  C  C34  1  0.64289000  0.50475000  0.63384000  1.0
  C  C35  1  0.35718000  0.49521000  0.36617000  1.0
  C  C36  1  0.72025000  0.55932000  0.53112000  1.0
  C  C37  1  0.27981000  0.44067000  0.46888000  1.0
  C  C38  1  0.65523000  0.67917000  0.46271000  1.0
  C  C39  1  0.34479000  0.32081000  0.53730000  1.0
  C  C40  1  0.20586000  0.04334000  0.55605000  1.0
  C  C41  1  0.79414000  0.95667000  0.44393000  1.0
  C  C42  1  0.13846000  0.04141000  0.67202000  1.0
  C  C43  1  0.86154000  0.95861000  0.32799000  1.0
  C  C44  1  0.99805000  0.11704000  0.68828000  1.0
  C  C45  1  0.00191000  0.88298000  0.31176000  1.0
  C  C46  1  0.91732000  0.19893000  0.59024000  1.0
  C  C47  1  0.08267000  0.80108000  0.40979000  1.0
  C  C48  1  0.98160000  0.20427000  0.47710000  1.0
  C  C49  1  0.01841000  0.79570000  0.52291000  1.0
  C  C50  1  0.12493000  0.12845000  0.45678000  1.0
  C  C51  1  0.87504000  0.87153000  0.54319000  1.0
  C  C52  1  0.18604000  0.14733000  0.33762000  1.0
  C  C53  1  0.81390000  0.85270000  0.66234000  1.0
  C  C54  1  0.35699000  0.12513000  0.17749000  1.0
  C  C55  1  0.64300000  0.87487000  0.82249000  1.0
  C  C56  1  0.50181000  0.16714000  0.14965000  1.0
  C  C57  1  0.49819000  0.83286000  0.85035000  1.0
  C  C58  1  0.55117000  0.19310000  0.03124000  1.0
  C  C59  1  0.44880000  0.80691000  0.96876000  1.0
  C  C60  1  0.45944000  0.17350000  0.93906000  1.0
  C  C61  1  0.54055000  0.82651000  0.06092000  1.0
  C  C62  1  0.31240000  0.13628000  0.96686000  1.0
  C  C63  1  0.68758000  0.86373000  0.03312000  1.0
  C  C64  1  0.26021000  0.11374000  0.08529000  1.0
  C  C65  1  0.73980000  0.88628000  0.91467000  1.0
  C  C66  1  0.53038000  0.17661000  0.81640000  1.0
  C  C67  1  0.46962000  0.82339000  0.18361000  1.0
  N  N68  1  0.52007000  0.74528000  0.49346000  1.0
  N  N69  1  0.47993000  0.25468000  0.50653000  1.0
  N  N70  1  0.31494000  0.08759000  0.29981000  1.0
  N  N71  1  0.68498000  0.91241000  0.70015000  1.0
  O  O72  1  0.34021000  0.97089000  0.54534000  1.0
  O  O73  1  0.65982000  0.02913000  0.45468000  1.0
  O  O74  1  0.65657000  0.21993000  0.79183000  1.0
  O  O75  1  0.34343000  0.78006000  0.20816000  1.0
  O  O76  1  0.45489000  0.12465000  0.74488000  1.0
  O  O77  1  0.54511000  0.87538000  0.25513000  1.0
