# generated using pymatgen
data_ZnH20C24(NO)4
_symmetry_space_group_name_H-M   'P 1'
_cell_length_a   9.86270000
_cell_length_b   10.51950978
_cell_length_c   12.86591295
_cell_angle_alpha   76.75424658
_cell_angle_beta   67.72046835
_cell_angle_gamma   62.06115788
_symmetry_Int_Tables_number   1
_chemical_formula_structural   ZnH20C24(NO)4
_chemical_formula_sum   'Zn2 H40 C48 N8 O8'
_cell_volume   1089.06402707
_cell_formula_units_Z   2
loop_
 _symmetry_equiv_pos_site_id
 _symmetry_equiv_pos_as_xyz
  1  'x, y, z'
loop_
 _atom_site_type_symbol
 _atom_site_label
 _atom_site_symmetry_multiplicity
 _atom_site_fract_x
 _atom_site_fract_y
 _atom_site_fract_z
 _atom_site_occupancy
  Zn  Zn0  1  0.73872000  0.25103000  0.75042000  1.0
  Zn  Zn1  1  0.26129000  0.74896000  0.24958000  1.0
  H  H2  1  0.52816000  0.10519000  0.88271000  1.0
  H  H3  1  0.48597000  0.60387000  0.38278000  1.0
  H  H4  1  0.47185000  0.89480000  0.11729000  1.0
  H  H5  1  0.51402000  0.39614000  0.61722000  1.0
  H  H6  1  0.27342000  0.15075000  0.03592000  1.0
  H  H7  1  0.54057000  0.65034000  0.53712000  1.0
  H  H8  1  0.72658000  0.84925000  0.96408000  1.0
  H  H9  1  0.45943000  0.34967000  0.46287000  1.0
  H  H10  1  0.08570000  0.18359000  0.17252000  1.0
  H  H11  1  0.55822000  0.68362000  0.67381000  1.0
  H  H12  1  0.91430000  0.81641000  0.82748000  1.0
  H  H13  1  0.44178000  0.31638000  0.32619000  1.0
  H  H14  1  0.83765000  0.23936000  0.33151000  1.0
  H  H15  1  0.59137000  0.73974000  0.83335000  1.0
  H  H16  1  0.16236000  0.76063000  0.66849000  1.0
  H  H17  1  0.40863000  0.26026000  0.16665000  1.0
  H  H18  1  0.75669000  0.66446000  0.31711000  1.0
  H  H19  1  0.26199000  0.16487000  0.81779000  1.0
  H  H20  1  0.24331000  0.33553000  0.68290000  1.0
  H  H21  1  0.73800000  0.83514000  0.18221000  1.0
  H  H22  1  0.00463000  0.63088000  0.15488000  1.0
  H  H23  1  0.20958000  0.13077000  0.65511000  1.0
  H  H24  1  0.99537000  0.36912000  0.84512000  1.0
  H  H25  1  0.79041000  0.86924000  0.34489000  1.0
  H  H26  1  0.21619000  0.58868000  0.02812000  1.0
  H  H27  1  0.16650000  0.08745000  0.52821000  1.0
  H  H28  1  0.78381000  0.41132000  0.97188000  1.0
  H  H29  1  0.83350000  0.91255000  0.47179000  1.0
  H  H30  1  0.47493000  0.52292000  0.87150000  1.0
  H  H31  1  0.13120000  0.02070000  0.37064000  1.0
  H  H32  1  0.52507000  0.47708000  0.12850000  1.0
  H  H33  1  0.86880000  0.97930000  0.62936000  1.0
  H  H34  1  0.92811000  0.90020000  0.99514000  1.0
  H  H35  1  0.17649000  0.40056000  0.49539000  1.0
  H  H36  1  0.07190000  0.09980000  0.00485000  1.0
  H  H37  1  0.82353000  0.59943000  0.50461000  1.0
  H  H38  1  0.11004000  0.90176000  0.90083000  1.0
  H  H39  1  0.08703000  0.40166000  0.40079000  1.0
  H  H40  1  0.88997000  0.09823000  0.09917000  1.0
  H  H41  1  0.91297000  0.59834000  0.59921000  1.0
  C  C42  1  0.45533000  0.21135000  0.91676000  1.0
  C  C43  1  0.41788000  0.71003000  0.41689000  1.0
  C  C44  1  0.54467000  0.78865000  0.08324000  1.0
  C  C45  1  0.58211000  0.28998000  0.58311000  1.0
  C  C46  1  0.31022000  0.23869000  0.00314000  1.0
  C  C47  1  0.44849000  0.73783000  0.50392000  1.0
  C  C48  1  0.68979000  0.76131000  0.99686000  1.0
  C  C49  1  0.55151000  0.26217000  0.49608000  1.0
  C  C50  1  0.21838000  0.37514000  0.04773000  1.0
  C  C51  1  0.35865000  0.87437000  0.54835000  1.0
  C  C52  1  0.78164000  0.62485000  0.95227000  1.0
  C  C53  1  0.64134000  0.12564000  0.45165000  1.0
  C  C54  1  0.06840000  0.40405000  0.14478000  1.0
  C  C55  1  0.38257000  0.90385000  0.64566000  1.0
  C  C56  1  0.93161000  0.59594000  0.85522000  1.0
  C  C57  1  0.61742000  0.09616000  0.35434000  1.0
  C  C58  1  0.01809000  0.29405000  0.19846000  1.0
  C  C59  1  0.48923000  0.79409000  0.69974000  1.0
  C  C60  1  0.98191000  0.70595000  0.80154000  1.0
  C  C61  1  0.51076000  0.20592000  0.30026000  1.0
  C  C62  1  0.87696000  0.32469000  0.28990000  1.0
  C  C63  1  0.50829000  0.82500000  0.79149000  1.0
  C  C64  1  0.12305000  0.67530000  0.71010000  1.0
  C  C65  1  0.49170000  0.17501000  0.20851000  1.0
  C  C66  1  0.83288000  0.55934000  0.28130000  1.0
  C  C67  1  0.32654000  0.05960000  0.78221000  1.0
  C  C68  1  0.16713000  0.44065000  0.71870000  1.0
  C  C69  1  0.67346000  0.94040000  0.21779000  1.0
  C  C70  1  0.97192000  0.54044000  0.18922000  1.0
  C  C71  1  0.29836000  0.04042000  0.68984000  1.0
  C  C72  1  0.02808000  0.45956000  0.81078000  1.0
  C  C73  1  0.70164000  0.95958000  0.31016000  1.0
  C  C74  1  0.27840000  0.48028000  0.99835000  1.0
  C  C75  1  0.24278000  0.97907000  0.49850000  1.0
  C  C76  1  0.72161000  0.51971000  0.00165000  1.0
  C  C77  1  0.75722000  0.02093000  0.50150000  1.0
  C  C78  1  0.42416000  0.44461000  0.91119000  1.0
  C  C79  1  0.22054000  0.94286000  0.41081000  1.0
  C  C80  1  0.57585000  0.55538000  0.08881000  1.0
  C  C81  1  0.77945000  0.05715000  0.58919000  1.0
  C  C82  1  0.90029000  0.08700000  0.88232000  1.0
  C  C83  1  0.12943000  0.58726000  0.38243000  1.0
  C  C84  1  0.09973000  0.91300000  0.11767000  1.0
  C  C85  1  0.87056000  0.41274000  0.61757000  1.0
  C  C86  1  0.99082000  0.97060000  0.95573000  1.0
  C  C87  1  0.08250000  0.47075000  0.45582000  1.0
  C  C88  1  0.00918000  0.02940000  0.04427000  1.0
  C  C89  1  0.91750000  0.52924000  0.54418000  1.0
  N  N90  1  0.51238000  0.31218000  0.87130000  1.0
  N  N91  1  0.30544000  0.81043000  0.37092000  1.0
  N  N92  1  0.48762000  0.68782000  0.12870000  1.0
  N  N93  1  0.69455000  0.18958000  0.62908000  1.0
  N  N94  1  0.78314000  0.45509000  0.33194000  1.0
  N  N95  1  0.42977000  0.95547000  0.83339000  1.0
  N  N96  1  0.21686000  0.54491000  0.66806000  1.0
  N  N97  1  0.57023000  0.04453000  0.16661000  1.0
  O  O98  1  0.86180000  0.04715000  0.81375000  1.0
  O  O99  1  0.27581000  0.54695000  0.31389000  1.0
  O  O100  1  0.13821000  0.95285000  0.18624000  1.0
  O  O101  1  0.72420000  0.45305000  0.68610000  1.0
  O  O102  1  0.86326000  0.21823000  0.88784000  1.0
  O  O103  1  0.03013000  0.71847000  0.38789000  1.0
  O  O104  1  0.13675000  0.78176000  0.11216000  1.0
  O  O105  1  0.96986000  0.28153000  0.61211000  1.0
