# generated using pymatgen
data_CdH18C27N4O7
_symmetry_space_group_name_H-M   'P 1'
_cell_length_a   7.87094000
_cell_length_b   11.87590000
_cell_length_c   13.95320000
_cell_angle_alpha   109.45400000
_cell_angle_beta   99.16570000
_cell_angle_gamma   94.46060000
_symmetry_Int_Tables_number   1
_chemical_formula_structural   CdH18C27N4O7
_chemical_formula_sum   'Cd2 H36 C54 N8 O14'
_cell_volume   1202.05407634
_cell_formula_units_Z   2
loop_
 _symmetry_equiv_pos_site_id
 _symmetry_equiv_pos_as_xyz
  1  'x, y, z'
loop_
 _atom_site_type_symbol
 _atom_site_label
 _atom_site_symmetry_multiplicity
 _atom_site_fract_x
 _atom_site_fract_y
 _atom_site_fract_z
 _atom_site_occupancy
  Cd  Cd0  1  0.24286000  0.53642000  0.02232000  1.0
  Cd  Cd1  1  0.75714000  0.46358000  0.97768000  1.0
  H  H2  1  0.09281000  0.21624000  0.67263000  1.0
  H  H3  1  0.90719000  0.78377000  0.32737000  1.0
  H  H4  1  0.49382000  0.90315000  0.06221000  1.0
  H  H5  1  0.50618000  0.09685000  0.93779000  1.0
  H  H6  1  0.69363000  0.07925000  0.06191000  1.0
  H  H7  1  0.30637000  0.92075000  0.93809000  1.0
  H  H8  1  0.01618000  0.08585000  0.11428000  1.0
  H  H9  1  0.98382000  0.91415000  0.88573000  1.0
  H  H10  1  0.99206000  0.02165000  0.32515000  1.0
  H  H11  1  0.00794000  0.97835000  0.67485000  1.0
  H  H12  1  0.45468000  0.17013000  0.56030000  1.0
  H  H13  1  0.54531000  0.82987000  0.43970000  1.0
  H  H14  1  0.63704000  0.09146000  0.42843000  1.0
  H  H15  1  0.36296000  0.90854000  0.57157000  1.0
  H  H16  1  0.49527000  0.97406000  0.24429000  1.0
  H  H17  1  0.50473000  0.02594000  0.75572000  1.0
  H  H18  1  0.17781000  0.59773000  0.26079000  1.0
  H  H19  1  0.82219000  0.40227000  0.73921000  1.0
  H  H20  1  0.42126000  0.30161000  0.29601000  1.0
  H  H21  1  0.57874000  0.69839000  0.70399000  1.0
  H  H22  1  0.41169000  0.30351000  0.09780000  1.0
  H  H23  1  0.58830000  0.69649000  0.90220000  1.0
  H  H24  1  0.28653000  0.45315000  0.76998000  1.0
  H  H25  1  0.71348000  0.54685000  0.23002000  1.0
  H  H26  1  0.05366000  0.75223000  0.73514000  1.0
  H  H27  1  0.94634000  0.24777000  0.26486000  1.0
  H  H28  1  0.05847000  0.74720000  0.93411000  1.0
  H  H29  1  0.94152000  0.25280000  0.06589000  1.0
  H  H30  1  0.25182000  0.37757000  0.60464000  1.0
  H  H31  1  0.74819000  0.62243000  0.39536000  1.0
  H  H32  1  0.30541000  0.32158000  0.42857000  1.0
  H  H33  1  0.69459000  0.67842000  0.57143000  1.0
  H  H34  1  0.22405000  0.67851000  0.42828000  1.0
  H  H35  1  0.77595000  0.32149000  0.57172000  1.0
  H  H36  1  0.17173000  0.73373000  0.60270000  1.0
  H  H37  1  0.82828000  0.26627000  0.39730000  1.0
  C  C38  1  0.96831000  0.71324000  0.15221000  1.0
  C  C39  1  0.03169000  0.28676000  0.84779000  1.0
  C  C40  1  0.88094000  0.81430000  0.13124000  1.0
  C  C41  1  0.11906000  0.18569000  0.86876000  1.0
  C  C42  1  0.70017000  0.81167000  0.10413000  1.0
  C  C43  1  0.29983000  0.18833000  0.89587000  1.0
  C  C44  1  0.57208000  0.70665000  0.09641000  1.0
  C  C45  1  0.42793000  0.29335000  0.90359000  1.0
  C  C46  1  0.63450000  0.90817000  0.08111000  1.0
  C  C47  1  0.36550000  0.09183000  0.91889000  1.0
  C  C48  1  0.74527000  0.00587000  0.08202000  1.0
  C  C49  1  0.25473000  0.99413000  0.91799000  1.0
  C  C50  1  0.92433000  0.01060000  0.11121000  1.0
  C  C51  1  0.07567000  0.98940000  0.88879000  1.0
  C  C52  1  0.98943000  0.91708000  0.13789000  1.0
  C  C53  1  0.01057000  0.08292000  0.86211000  1.0
  C  C54  1  0.23643000  0.99267000  0.27286000  1.0
  C  C55  1  0.76357000  0.00733000  0.72714000  1.0
  C  C56  1  0.13338000  0.03767000  0.34567000  1.0
  C  C57  1  0.86661000  0.96232000  0.65433000  1.0
  C  C58  1  0.21298000  0.10142000  0.44941000  1.0
  C  C59  1  0.78701000  0.89858000  0.55059000  1.0
  C  C60  1  0.09633000  0.14410000  0.52468000  1.0
  C  C61  1  0.90367000  0.85590000  0.47532000  1.0
  C  C62  1  0.39433000  0.12213000  0.47935000  1.0
  C  C63  1  0.60567000  0.87787000  0.52065000  1.0
  C  C64  1  0.49587000  0.07768000  0.40513000  1.0
  C  C65  1  0.50413000  0.92232000  0.59488000  1.0
  C  C66  1  0.41802000  0.01239000  0.30221000  1.0
  C  C67  1  0.58198000  0.98761000  0.69779000  1.0
  C  C68  1  0.24799000  0.51996000  0.24431000  1.0
  C  C69  1  0.75201000  0.48004000  0.75569000  1.0
  C  C70  1  0.26915000  0.49564000  0.41527000  1.0
  C  C71  1  0.73085000  0.50436000  0.58473000  1.0
  C  C72  1  0.36973000  0.36235000  0.25937000  1.0
  C  C73  1  0.63027000  0.63765000  0.74063000  1.0
  C  C74  1  0.36513000  0.36501000  0.16155000  1.0
  C  C75  1  0.63487000  0.63499000  0.83845000  1.0
  C  C76  1  0.22204000  0.53271000  0.78694000  1.0
  C  C77  1  0.77796000  0.46729000  0.21306000  1.0
  C  C78  1  0.10305000  0.69114000  0.77196000  1.0
  C  C79  1  0.89696000  0.30886000  0.22804000  1.0
  C  C80  1  0.10584000  0.68772000  0.86950000  1.0
  C  C81  1  0.89415000  0.31228000  0.13050000  1.0
  C  C82  1  0.20817000  0.55961000  0.61700000  1.0
  C  C83  1  0.79183000  0.44039000  0.38300000  1.0
  C  C84  1  0.24759000  0.44432000  0.56687000  1.0
  C  C85  1  0.75241000  0.55568000  0.43313000  1.0
  C  C86  1  0.27785000  0.41249000  0.46644000  1.0
  C  C87  1  0.72216000  0.58752000  0.53356000  1.0
  C  C88  1  0.23157000  0.61132000  0.46562000  1.0
  C  C89  1  0.76843000  0.38868000  0.53437000  1.0
  C  C90  1  0.20104000  0.64303000  0.56610000  1.0
  C  C91  1  0.79896000  0.35697000  0.43390000  1.0
  N  N92  1  0.18000000  0.58877000  0.87736000  1.0
  N  N93  1  0.82000000  0.41123000  0.12264000  1.0
  N  N94  1  0.17701000  0.59165000  0.71953000  1.0
  N  N95  1  0.82299000  0.40835000  0.28047000  1.0
  N  N96  1  0.28868000  0.46316000  0.15331000  1.0
  N  N97  1  0.71132000  0.53684000  0.84669000  1.0
  N  N98  1  0.29613000  0.46183000  0.31179000  1.0
  N  N99  1  0.70387000  0.53817000  0.68821000  1.0
  O  O100  1  0.00256000  0.63378000  0.07267000  1.0
  O  O101  1  0.99744000  0.36622000  0.92733000  1.0
  O  O102  1  0.00961000  0.71717000  0.24459000  1.0
  O  O103  1  0.99038000  0.28283000  0.75540000  1.0
  O  O104  1  0.62645000  0.60759000  0.09375000  1.0
  O  O105  1  0.37355000  0.39241000  0.90625000  1.0
  O  O106  1  0.41348000  0.72247000  0.09053000  1.0
  O  O107  1  0.58653000  0.27753000  0.90947000  1.0
  O  O108  1  0.16821000  0.92526000  0.16976000  1.0
  O  O109  1  0.83179000  0.07474000  0.83024000  1.0
  O  O110  1  0.17870000  0.18612000  0.62391000  1.0
  O  O111  1  0.82130000  0.81388000  0.37610000  1.0
  O  O112  1  0.93857000  0.14153000  0.49710000  1.0
  O  O113  1  0.06142000  0.85847000  0.50291000  1.0
