# generated using pymatgen
data_CoH18C12(N3O2)2
_symmetry_space_group_name_H-M   'P 1'
_cell_length_a   7.35464000
_cell_length_b   7.91676512
_cell_length_c   8.42328000
_cell_angle_alpha   88.42596164
_cell_angle_beta   64.12730000
_cell_angle_gamma   62.32258134
_symmetry_Int_Tables_number   1
_chemical_formula_structural   CoH18C12(N3O2)2
_chemical_formula_sum   'Co1 H18 C12 N6 O4'
_cell_volume   381.22622866
_cell_formula_units_Z   1
loop_
 _symmetry_equiv_pos_site_id
 _symmetry_equiv_pos_as_xyz
  1  'x, y, z'
loop_
 _atom_site_type_symbol
 _atom_site_label
 _atom_site_symmetry_multiplicity
 _atom_site_fract_x
 _atom_site_fract_y
 _atom_site_fract_z
 _atom_site_occupancy
  Co  Co0  1  0.00000000  0.00000000  0.00000000  1.0
  H  H1  1  0.73598000  0.38411000  0.14408000  1.0
  H  H2  1  0.26402000  0.61589000  0.85592000  1.0
  H  H3  1  0.88215000  0.60520000  0.39016000  1.0
  H  H4  1  0.87743000  0.39478000  0.60984000  1.0
  H  H5  1  0.11785000  0.39480000  0.60984000  1.0
  H  H6  1  0.12257000  0.60522000  0.39016000  1.0
  H  H7  1  0.83333000  0.76976000  0.56371000  1.0
  H  H8  1  0.16666000  0.23024000  0.43629000  1.0
  H  H9  1  0.55042000  0.31606000  0.58317000  1.0
  H  H10  1  0.44958000  0.68394000  0.41683000  1.0
  H  H11  1  0.74547000  0.11426000  0.63551000  1.0
  H  H12  1  0.49517000  0.88574000  0.36451000  1.0
  H  H13  1  0.25453000  0.88574000  0.36449000  1.0
  H  H14  1  0.50483000  0.11426000  0.63549000  1.0
  H  H15  1  0.52296000  0.69570000  0.91707000  1.0
  H  H16  1  0.13574000  0.30422000  0.08290000  1.0
  H  H17  1  0.47703000  0.30430000  0.08293000  1.0
  H  H18  1  0.86426000  0.69578000  0.91710000  1.0
  C  C19  1  0.92388000  0.84765000  0.30454000  1.0
  C  C20  1  0.07612000  0.15235000  0.69546000  1.0
  C  C21  1  0.78462000  0.05952000  0.37124000  1.0
  C  C22  1  0.21538000  0.94048000  0.62876000  1.0
  C  C23  1  0.94011000  0.70049000  0.41937000  1.0
  C  C24  1  0.05989000  0.29951000  0.58063000  1.0
  C  C25  1  0.63805000  0.15699000  0.56696000  1.0
  C  C26  1  0.36195000  0.84301000  0.43303000  1.0
  C  C27  1  0.51241000  0.83238000  0.95334000  1.0
  C  C28  1  0.29814000  0.16756000  0.04669000  1.0
  C  C29  1  0.48758000  0.16762000  0.04666000  1.0
  C  C30  1  0.70186000  0.83244000  0.95332000  1.0
  N  N31  1  0.31138000  0.99996000  0.00003000  1.0
  N  N32  1  0.68861000  0.00004000  0.99997000  1.0
  N  N33  1  0.03978000  0.79439000  0.12592000  1.0
  N  N34  1  0.96023000  0.20561000  0.87408000  1.0
  N  N35  1  0.80340000  0.15388000  0.23943000  1.0
  N  N36  1  0.19660000  0.84612000  0.76057000  1.0
  O  O37  1  0.68431000  0.35373000  0.27780000  1.0
  O  O38  1  0.31569000  0.64627000  0.72219000  1.0
  O  O39  1  0.17457000  0.60728000  0.04333000  1.0
  O  O40  1  0.82545000  0.39272000  0.95666000  1.0
