# generated using pymatgen
data_Cu3H15C17(N2Cl)4
_symmetry_space_group_name_H-M   'P 1'
_cell_length_a   9.88210000
_cell_length_b   10.53730000
_cell_length_c   11.79720000
_cell_angle_alpha   94.13230000
_cell_angle_beta   91.93050000
_cell_angle_gamma   115.91800000
_symmetry_Int_Tables_number   1
_chemical_formula_structural   Cu3H15C17(N2Cl)4
_chemical_formula_sum   'Cu6 H30 C34 N16 Cl8'
_cell_volume   1099.10785216
_cell_formula_units_Z   2
loop_
 _symmetry_equiv_pos_site_id
 _symmetry_equiv_pos_as_xyz
  1  'x, y, z'
loop_
 _atom_site_type_symbol
 _atom_site_label
 _atom_site_symmetry_multiplicity
 _atom_site_fract_x
 _atom_site_fract_y
 _atom_site_fract_z
 _atom_site_occupancy
  Cu  Cu0  1  0.56042000  0.14221000  0.41163000  1.0
  Cu  Cu1  1  0.43950000  0.85740000  0.58865000  1.0
  Cu  Cu2  1  0.62438000  0.86478000  0.24328000  1.0
  Cu  Cu3  1  0.37546000  0.13530000  0.75705000  1.0
  Cu  Cu4  1  0.85199000  0.01949000  0.00069000  1.0
  Cu  Cu5  1  0.14837000  0.97984000  0.99882000  1.0
  H  H6  1  0.47674000  0.37080000  0.51767000  1.0
  H  H7  1  0.52313000  0.62867000  0.48240000  1.0
  H  H8  1  0.25685000  0.43074000  0.48740000  1.0
  H  H9  1  0.74327000  0.56915000  0.51266000  1.0
  H  H10  1  0.06259000  0.29506000  0.32544000  1.0
  H  H11  1  0.93758000  0.70512000  0.67442000  1.0
  H  H12  1  0.10321000  0.12045000  0.19396000  1.0
  H  H13  1  0.89690000  0.87970000  0.80585000  1.0
  H  H14  1  0.46137000  0.78176000  0.00812000  1.0
  H  H15  1  0.53896000  0.21823000  0.99183000  1.0
  H  H16  1  0.34733000  0.84108000  0.92954000  1.0
  H  H17  1  0.65325000  0.15915000  0.07038000  1.0
  H  H18  1  0.21310000  0.58293000  0.94101000  1.0
  H  H19  1  0.78707000  0.41716000  0.05885000  1.0
  H  H20  1  0.11691000  0.67269000  0.00809000  1.0
  H  H21  1  0.88347000  0.32774000  0.99167000  1.0
  H  H22  1  0.21605000  0.65506000  0.19935000  1.0
  H  H23  1  0.78379000  0.34515000  0.80048000  1.0
  H  H24  1  0.11829000  0.48514000  0.12310000  1.0
  H  H25  1  0.88156000  0.51510000  0.87672000  1.0
  H  H26  1  0.76671000  0.46191000  0.25225000  1.0
  H  H27  1  0.23355000  0.53844000  0.74781000  1.0
  H  H28  1  0.02651000  0.60384000  0.35334000  1.0
  H  H29  1  0.97365000  0.39674000  0.64679000  1.0
  H  H30  1  0.11467000  0.86146000  0.40726000  1.0
  H  H31  1  0.88515000  0.13913000  0.59292000  1.0
  H  H32  1  0.94088000  0.97224000  0.36062000  1.0
  H  H33  1  0.05859000  0.02801000  0.63938000  1.0
  H  H34  1  0.27646000  0.34642000  0.07524000  1.0
  H  H35  1  0.72341000  0.65356000  0.92489000  1.0
  C  C36  1  0.39200000  0.32146000  0.44628000  1.0
  C  C37  1  0.60790000  0.67813000  0.55375000  1.0
  C  C38  1  0.26885000  0.35124000  0.43008000  1.0
  C  C39  1  0.73119000  0.64859000  0.56994000  1.0
  C  C40  1  0.16303000  0.27821000  0.33890000  1.0
  C  C41  1  0.83704000  0.72178000  0.66102000  1.0
  C  C42  1  0.18464000  0.18025000  0.26516000  1.0
  C  C43  1  0.81535000  0.81972000  0.73474000  1.0
  C  C44  1  0.31257000  0.15889000  0.28493000  1.0
  C  C45  1  0.68724000  0.84084000  0.71503000  1.0
  C  C46  1  0.34960000  0.05731000  0.21985000  1.0
  C  C47  1  0.65012000  0.94233000  0.78016000  1.0
  C  C48  1  0.37614000  0.90262000  0.10670000  1.0
  C  C49  1  0.62404000  0.09728000  0.89329000  1.0
  C  C50  1  0.35867000  0.79763000  0.00926000  1.0
  C  C51  1  0.64174000  0.20247000  0.99061000  1.0
  C  C52  1  0.21905000  0.65566000  0.01471000  1.0
  C  C53  1  0.78120000  0.34452000  0.98511000  1.0
  C  C54  1  0.21949000  0.58695000  0.12544000  1.0
  C  C55  1  0.78047000  0.41321000  0.87446000  1.0
  C  C56  1  0.35477000  0.56189000  0.14565000  1.0
  C  C57  1  0.64510000  0.43817000  0.85445000  1.0
  C  C58  1  0.57214000  0.57727000  0.19762000  1.0
  C  C59  1  0.42769000  0.42277000  0.80251000  1.0
  C  C60  1  0.72374000  0.64547000  0.25281000  1.0
  C  C61  1  0.27615000  0.35470000  0.74727000  1.0
  C  C62  1  0.81189000  0.57561000  0.27558000  1.0
  C  C63  1  0.18818000  0.42473000  0.72449000  1.0
  C  C64  1  0.95441000  0.65384000  0.33113000  1.0
  C  C65  1  0.04564000  0.34664000  0.66897000  1.0
  C  C66  1  0.00433000  0.79847000  0.36208000  1.0
  C  C67  1  0.99552000  0.20200000  0.63805000  1.0
  C  C68  1  0.90900000  0.86035000  0.33765000  1.0
  C  C69  1  0.09070000  0.13995000  0.66240000  1.0
  N  N70  1  0.41324000  0.22794000  0.37557000  1.0
  N  N71  1  0.58654000  0.77160000  0.62445000  1.0
  N  N72  1  0.45672000  0.02974000  0.26869000  1.0
  N  N73  1  0.54276000  0.96973000  0.73152000  1.0
  N  N74  1  0.29531000  0.97979000  0.11739000  1.0
  N  N75  1  0.70484000  0.02009000  0.88247000  1.0
  N  N76  1  0.47259000  0.93141000  0.19883000  1.0
  N  N77  1  0.52718000  0.06828000  0.80135000  1.0
  N  N78  1  0.48967000  0.65326000  0.19607000  1.0
  N  N79  1  0.51014000  0.34676000  0.80407000  1.0
  N  N80  1  0.36169000  0.43869000  0.11698000  1.0
  N  N81  1  0.63816000  0.56136000  0.88310000  1.0
  N  N82  1  0.49763000  0.44498000  0.14911000  1.0
  N  N83  1  0.50221000  0.55509000  0.85100000  1.0
  N  N84  1  0.77146000  0.78541000  0.28447000  1.0
  N  N85  1  0.22827000  0.21474000  0.71558000  1.0
  Cl  Cl86  1  0.71680000  0.31914000  0.53473000  1.0
  Cl  Cl87  1  0.28312000  0.68075000  0.46549000  1.0
  Cl  Cl88  1  0.66714000  0.99279000  0.44269000  1.0
  Cl  Cl89  1  0.33318000  0.00692000  0.55760000  1.0
  Cl  Cl90  1  0.81483000  0.07653000  0.18359000  1.0
  Cl  Cl91  1  0.18526000  0.92315000  0.81552000  1.0
  Cl  Cl92  1  0.89705000  0.81638000  0.02511000  1.0
  Cl  Cl93  1  0.10354000  0.18286000  0.97500000  1.0
