# generated using pymatgen
data_Cu2H8C11(SN)4
_symmetry_space_group_name_H-M   'P 1'
_cell_length_a   6.81067000
_cell_length_b   7.15845000
_cell_length_c   15.12790000
_cell_angle_alpha   85.70060000
_cell_angle_beta   89.97540000
_cell_angle_gamma   89.49340000
_symmetry_Int_Tables_number   1
_chemical_formula_structural   Cu2H8C11(SN)4
_chemical_formula_sum   'Cu4 H16 C22 S8 N8'
_cell_volume   735.43895079
_cell_formula_units_Z   2
loop_
 _symmetry_equiv_pos_site_id
 _symmetry_equiv_pos_as_xyz
  1  'x, y, z'
loop_
 _atom_site_type_symbol
 _atom_site_label
 _atom_site_symmetry_multiplicity
 _atom_site_fract_x
 _atom_site_fract_y
 _atom_site_fract_z
 _atom_site_occupancy
  Cu  Cu0  1  0.00070000  0.48966000  0.22811000  1.0
  Cu  Cu1  1  0.99931000  0.51065000  0.77195000  1.0
  Cu  Cu2  1  0.50003000  0.49972000  0.49994000  1.0
  Cu  Cu3  1  0.99998000  0.00053000  0.00004000  1.0
  H  H4  1  0.99827000  0.18224000  0.40732000  1.0
  H  H5  1  0.00178000  0.81692000  0.59302000  1.0
  H  H6  1  0.68634000  0.51235000  0.08672000  1.0
  H  H7  1  0.31363000  0.48833000  0.91311000  1.0
  H  H8  1  0.31500000  0.50884000  0.08679000  1.0
  H  H9  1  0.68498000  0.49186000  0.91306000  1.0
  H  H10  1  0.00098000  0.82565000  0.42105000  1.0
  H  H11  1  0.99896000  0.17356000  0.57888000  1.0
  H  H12  1  0.42665000  0.10987000  0.37197000  1.0
  H  H13  1  0.57331000  0.88960000  0.62818000  1.0
  H  H14  1  0.57445000  0.88865000  0.37815000  1.0
  H  H15  1  0.42543000  0.11076000  0.62183000  1.0
  H  H16  1  0.38222000  0.93325000  0.12926000  1.0
  H  H17  1  0.61783000  0.06729000  0.87068000  1.0
  H  H18  1  0.61258000  0.07272000  0.12401000  1.0
  H  H19  1  0.38751000  0.92774000  0.87611000  1.0
  C  C20  1  0.99947000  0.10013000  0.34966000  1.0
  C  C21  1  0.00054000  0.89941000  0.65055000  1.0
  C  C22  1  0.60189000  0.50847000  0.14783000  1.0
  C  C23  1  0.39812000  0.49189000  0.85202000  1.0
  C  C24  1  0.00019000  0.10053000  0.19689000  1.0
  C  C25  1  0.99982000  0.89978000  0.80330000  1.0
  C  C26  1  0.39576000  0.50079000  0.30076000  1.0
  C  C27  1  0.60427000  0.49890000  0.69911000  1.0
  C  C28  1  0.39939000  0.50708000  0.14784000  1.0
  C  C29  1  0.60061000  0.49329000  0.85201000  1.0
  C  C30  1  0.60537000  0.50239000  0.30073000  1.0
  C  C31  1  0.39465000  0.49729000  0.69914000  1.0
  C  C32  1  0.99998000  0.90588000  0.35686000  1.0
  C  C33  1  0.00000000  0.09365000  0.64315000  1.0
  C  C34  1  0.99921000  0.90141000  0.20523000  1.0
  C  C35  1  0.00078000  0.09890000  0.79476000  1.0
  C  C36  1  0.49889000  0.00165000  0.25083000  1.0
  C  C37  1  0.50110000  0.99830000  0.74922000  1.0
  C  C38  1  0.49786000  0.00259000  0.16430000  1.0
  C  C39  1  0.50218000  0.99775000  0.83574000  1.0
  C  C40  1  0.50010000  0.00026000  0.33741000  1.0
  C  C41  1  0.49984000  0.99932000  0.66265000  1.0
  S  S42  1  0.26820000  0.49162000  0.39939000  1.0
  S  S43  1  0.73184000  0.50783000  0.60049000  1.0
  S  S44  1  0.00012000  0.22370000  0.09401000  1.0
  S  S45  1  0.99986000  0.77706000  0.90627000  1.0
  S  S46  1  0.99933000  0.77381000  0.11219000  1.0
  S  S47  1  0.00064000  0.22689000  0.88769000  1.0
  S  S48  1  0.73271000  0.49877000  0.39929000  1.0
  S  S49  1  0.26733000  0.50061000  0.60058000  1.0
  N  N50  1  0.70549000  0.50520000  0.22421000  1.0
  N  N51  1  0.29453000  0.49480000  0.77565000  1.0
  N  N52  1  0.00038000  0.19656000  0.26966000  1.0
  N  N53  1  0.99963000  0.80339000  0.73065000  1.0
  N  N54  1  0.99938000  0.80732000  0.28482000  1.0
  N  N55  1  0.00058000  0.19258000  0.71508000  1.0
  N  N56  1  0.29569000  0.50321000  0.22425000  1.0
  N  N57  1  0.70431000  0.49681000  0.77562000  1.0
