# generated using pymatgen
data_Zn2H35C46N2O8F5
_symmetry_space_group_name_H-M   'P 1'
_cell_length_a   11.79870000
_cell_length_b   12.52417031
_cell_length_c   13.24730000
_cell_angle_alpha   86.53437759
_cell_angle_beta   82.26620000
_cell_angle_gamma   66.93256482
_symmetry_Int_Tables_number   1
_chemical_formula_structural   Zn2H35C46N2O8F5
_chemical_formula_sum   'Zn2 H35 C46 N2 O8 F5'
_cell_volume   1784.57680788
_cell_formula_units_Z   1
loop_
 _symmetry_equiv_pos_site_id
 _symmetry_equiv_pos_as_xyz
  1  'x, y, z'
loop_
 _atom_site_type_symbol
 _atom_site_label
 _atom_site_symmetry_multiplicity
 _atom_site_fract_x
 _atom_site_fract_y
 _atom_site_fract_z
 _atom_site_occupancy
  Zn  Zn0  1  0.10407000  0.51918000  0.48536000  1.0
  Zn  Zn1  1  0.89306000  0.45851000  0.51212000  1.0
  H  H2  1  0.11242000  0.11178000  0.37476000  1.0
  H  H3  1  0.92516000  0.69919000  0.20225000  1.0
  H  H4  1  0.18677000  0.68046000  0.58308000  1.0
  H  H5  1  0.60892000  0.29488000  0.37933000  1.0
  H  H6  1  0.80945000  0.29985000  0.41929000  1.0
  H  H7  1  0.48599000  0.77233000  0.32949000  1.0
  H  H8  1  0.62921000  0.60293000  0.58315000  1.0
  H  H9  1  0.27635000  0.91793000  0.32282000  1.0
  H  H10  1  0.54830000  0.15728000  0.51881000  1.0
  H  H11  1  0.69069000  0.70463000  0.39119000  1.0
  H  H12  1  0.00727000  0.77460000  0.86511000  1.0
  H  H13  1  0.04248000  0.71401000  0.74083000  1.0
  H  H14  1  0.91303000  0.84713000  0.76844000  1.0
  H  H15  1  0.84753000  0.68117000  0.76012000  1.0
  H  H16  1  0.80382000  0.74305000  0.88194000  1.0
  H  H17  1  0.19426000  0.85100000  0.62909000  1.0
  H  H18  1  0.21713000  0.75686000  0.73718000  1.0
  H  H19  1  0.27067000  0.87138000  0.72772000  1.0
  H  H20  1  0.44977000  0.68740000  0.68926000  1.0
  H  H21  1  0.42717000  0.77761000  0.58098000  1.0
  H  H22  1  0.33843000  0.02767000  0.71000000  1.0
  H  H23  1  0.49105000  0.02324000  0.67645000  1.0
  H  H24  1  0.38462000  0.12754000  0.76472000  1.0
  H  H25  1  0.39550000  0.22623000  0.59553000  1.0
  H  H26  1  0.24956000  0.22784000  0.63697000  1.0
  H  H27  1  0.04250000  0.83373000  0.38748000  1.0
  H  H28  1  0.99688000  0.98623000  0.40295000  1.0
  H  H29  1  0.12731000  0.88737000  0.45808000  1.0
  H  H30  1  0.94657000  0.96193000  0.59174000  1.0
  H  H31  1  0.98980000  0.81118000  0.57516000  1.0
  H  H32  1  0.90412000  0.30580000  0.24072000  1.0
  H  H33  1  0.95329000  0.23901000  0.11903000  1.0
  H  H34  1  0.01781000  0.16112000  0.22778000  1.0
  H  H35  1  0.16966000  0.23496000  0.13056000  1.0
  H  H36  1  0.11530000  0.30245000  0.24935000  1.0
  C  C37  1  0.98842000  0.49133000  0.69502000  1.0
  C  C38  1  0.56637000  0.98298000  0.48410000  1.0
  C  C39  1  0.65543000  0.86787000  0.46482000  1.0
  C  C40  1  0.43756000  0.01384000  0.46840000  1.0
  C  C41  1  0.41268000  0.93927000  0.40476000  1.0
  C  C42  1  0.50762000  0.82819000  0.37733000  1.0
  C  C43  1  0.62153000  0.79082000  0.41096000  1.0
  C  C44  1  0.33735000  0.11363000  0.51204000  1.0
  C  C45  1  0.20299000  0.08064000  0.40202000  1.0
  C  C46  1  0.77870000  0.83599000  0.49026000  1.0
  C  C47  1  0.00416000  0.51070000  0.18908000  1.0
  C  C48  1  0.86197000  0.70971000  0.49380000  1.0
  C  C49  1  0.99637000  0.47913000  0.80820000  1.0
  C  C50  1  0.06775000  0.34521000  0.94806000  1.0
  C  C51  1  0.05282000  0.36636000  0.84678000  1.0
  C  C52  1  0.95198000  0.57353000  0.87345000  1.0
  C  C53  1  0.96993000  0.55324000  0.97918000  1.0
  C  C54  1  0.02752000  0.43612000  0.01988000  1.0
  C  C55  1  0.04175000  0.41537000  0.12616000  1.0
  C  C56  1  0.95242000  0.62518000  0.15207000  1.0
  C  C57  1  0.93518000  0.64362000  0.05144000  1.0
  C  C58  1  0.60951000  0.36374000  0.42529000  1.0
  C  C59  1  0.01372000  0.49636000  0.30152000  1.0
  C  C60  1  0.71952000  0.36608000  0.44635000  1.0
  C  C61  1  0.61834000  0.53610000  0.54109000  1.0
  C  C62  1  0.49961000  0.54113000  0.52625000  1.0
  C  C63  1  0.49728000  0.45179000  0.46576000  1.0
  C  C64  1  0.37845000  0.45666000  0.45127000  1.0
  C  C65  1  0.27734000  0.61985000  0.55079000  1.0
  C  C66  1  0.38550000  0.62891000  0.56919000  1.0
  C  C67  1  0.12374000  0.26820000  0.49301000  1.0
  C  C68  1  0.29412000  0.97476000  0.37232000  1.0
  C  C69  1  0.22339000  0.14991000  0.47180000  1.0
  C  C70  1  0.82045000  0.91944000  0.51764000  1.0
  C  C71  1  0.73220000  0.03429000  0.52325000  1.0
  C  C72  1  0.60956000  0.06650000  0.51074000  1.0
  C  C73  1  0.88445000  0.69272000  0.82879000  1.0
  C  C74  1  0.96693000  0.76138000  0.79936000  1.0
  C  C75  1  0.38567000  0.72570000  0.63149000  1.0
  C  C76  1  0.25967000  0.80514000  0.68394000  1.0
  C  C77  1  0.34370000  0.16935000  0.60901000  1.0
  C  C78  1  0.39351000  0.08139000  0.69433000  1.0
  C  C79  1  0.95042000  0.89634000  0.53845000  1.0
  C  C80  1  0.03428000  0.90101000  0.44053000  1.0
  C  C81  1  0.08684000  0.29581000  0.17508000  1.0
  C  C82  1  0.98451000  0.24739000  0.19148000  1.0
  N  N83  1  0.27385000  0.53466000  0.49203000  1.0
  N  N84  1  0.72280000  0.45168000  0.50321000  1.0
  O  O85  1  0.05417000  0.53991000  0.64351000  1.0
  O  O86  1  0.91925000  0.44877000  0.66157000  1.0
  O  O87  1  0.97689000  0.68095000  0.46202000  1.0
  O  O88  1  0.81198000  0.64047000  0.53124000  1.0
  O  O89  1  0.11221000  0.49421000  0.33158000  1.0
  O  O90  1  0.91912000  0.49111000  0.35710000  1.0
  O  O91  1  0.16123000  0.34679000  0.51171000  1.0
  O  O92  1  0.01106000  0.28591000  0.48566000  1.0
  F  F93  1  0.12482000  0.23187000  0.97551000  1.0
  F  F94  1  0.88316000  0.75725000  0.02126000  1.0
  F  F95  1  0.09531000  0.27448000  0.78278000  1.0
  F  F96  1  0.37287000  0.37574000  0.39261000  1.0
  F  F97  1  0.77036000  0.11989000  0.54497000  1.0
