# generated using pymatgen
data_Yb2H15C21S3NO14
_symmetry_space_group_name_H-M   'P 1'
_cell_length_a   11.38890000
_cell_length_b   17.13680000
_cell_length_c   17.22640000
_cell_angle_alpha   105.48400000
_cell_angle_beta   89.99980000
_cell_angle_gamma   89.99990000
_symmetry_Int_Tables_number   1
_chemical_formula_structural   Yb2H15C21S3NO14
_chemical_formula_sum   'Yb8 H60 C84 S12 N4 O56'
_cell_volume   3240.03846970
_cell_formula_units_Z   4
loop_
 _symmetry_equiv_pos_site_id
 _symmetry_equiv_pos_as_xyz
  1  'x, y, z'
loop_
 _atom_site_type_symbol
 _atom_site_label
 _atom_site_symmetry_multiplicity
 _atom_site_fract_x
 _atom_site_fract_y
 _atom_site_fract_z
 _atom_site_occupancy
  Yb  Yb0  1  0.39249000  0.91951000  0.01120000  1.0
  Yb  Yb1  1  0.89248000  0.58049000  0.48880000  1.0
  Yb  Yb2  1  0.60751000  0.08049000  0.98880000  1.0
  Yb  Yb3  1  0.10752000  0.41951000  0.51121000  1.0
  Yb  Yb4  1  0.94126000  0.89078000  0.51856000  1.0
  Yb  Yb5  1  0.44126000  0.60923000  0.98145000  1.0
  Yb  Yb6  1  0.05874000  0.10922000  0.48144000  1.0
  Yb  Yb7  1  0.55874000  0.39078000  0.01856000  1.0
  H  H8  1  0.48772000  0.07389000  0.78572000  1.0
  H  H9  1  0.98773000  0.42611000  0.71428000  1.0
  H  H10  1  0.51228000  0.92611000  0.21427000  1.0
  H  H11  1  0.01227000  0.57388000  0.28573000  1.0
  H  H12  1  0.38860000  0.08393000  0.64826000  1.0
  H  H13  1  0.88861000  0.41607000  0.85175000  1.0
  H  H14  1  0.61139000  0.91607000  0.35174000  1.0
  H  H15  1  0.11139000  0.58393000  0.14826000  1.0
  H  H16  1  0.14738000  0.75692000  0.33734000  1.0
  H  H17  1  0.64738000  0.74309000  0.16265000  1.0
  H  H18  1  0.85263000  0.24306000  0.66264000  1.0
  H  H19  1  0.35262000  0.25693000  0.83735000  1.0
  H  H20  1  0.26522000  0.68707000  0.20293000  1.0
  H  H21  1  0.76522000  0.81293000  0.29707000  1.0
  H  H22  1  0.73480000  0.31293000  0.79705000  1.0
  H  H23  1  0.23479000  0.18707000  0.70294000  1.0
  H  H24  1  0.07573000  0.73832000  0.53339000  1.0
  H  H25  1  0.57572000  0.76169000  0.96661000  1.0
  H  H26  1  0.92428000  0.26168000  0.46661000  1.0
  H  H27  1  0.42428000  0.23832000  0.03339000  1.0
  H  H28  1  0.14833000  0.79062000  0.48633000  1.0
  H  H29  1  0.64833000  0.70939000  0.01367000  1.0
  H  H30  1  0.85167000  0.20938000  0.51367000  1.0
  H  H31  1  0.35167000  0.29061000  0.98633000  1.0
  H  H32  1  0.60119000  0.71233000  0.82852000  1.0
  H  H33  1  0.10119000  0.78768000  0.67147000  1.0
  H  H34  1  0.39881000  0.28768000  0.17148000  1.0
  H  H35  1  0.89880000  0.21232000  0.32852000  1.0
  H  H36  1  0.69863000  0.65594000  0.68362000  1.0
  H  H37  1  0.19864000  0.84405000  0.81638000  1.0
  H  H38  1  0.30137000  0.34406000  0.31639000  1.0
  H  H39  1  0.80136000  0.15595000  0.18362000  1.0
  H  H40  1  0.91970000  0.89364000  0.94253000  1.0
  H  H41  1  0.41970000  0.60636000  0.55748000  1.0
  H  H42  1  0.08030000  0.10635000  0.05747000  1.0
  H  H43  1  0.58030000  0.39363000  0.44252000  1.0
  H  H44  1  0.83886000  0.92473000  0.03416000  1.0
  H  H45  1  0.33885000  0.57527000  0.46586000  1.0
  H  H46  1  0.16115000  0.07526000  0.96584000  1.0
  H  H47  1  0.66114000  0.42472000  0.53414000  1.0
  H  H48  1  0.85490000  0.81918000  0.98428000  1.0
  H  H49  1  0.35490000  0.68083000  0.51573000  1.0
  H  H50  1  0.14511000  0.18082000  0.01572000  1.0
  H  H51  1  0.64510000  0.31917000  0.48427000  1.0
  H  H52  1  0.08496000  0.85254000  0.14468000  1.0
  H  H53  1  0.58495000  0.64746000  0.35532000  1.0
  H  H54  1  0.91504000  0.14747000  0.85532000  1.0
  H  H55  1  0.41505000  0.35254000  0.64468000  1.0
  H  H56  1  0.95468000  0.79464000  0.10975000  1.0
  H  H57  1  0.45468000  0.70535000  0.39024000  1.0
  H  H58  1  0.04531000  0.20536000  0.89025000  1.0
  H  H59  1  0.54533000  0.29464000  0.60975000  1.0
  H  H60  1  0.94310000  0.89923000  0.16260000  1.0
  H  H61  1  0.44310000  0.60076000  0.33740000  1.0
  H  H62  1  0.05690000  0.10076000  0.83739000  1.0
  H  H63  1  0.55690000  0.39924000  0.66260000  1.0
  H  H64  1  0.10507000  0.90935000  0.95800000  1.0
  H  H65  1  0.60507000  0.59066000  0.54200000  1.0
  H  H66  1  0.89493000  0.09065000  0.04200000  1.0
  H  H67  1  0.39493000  0.40933000  0.45799000  1.0
  C  C68  1  0.35388000  0.98913000  0.88237000  1.0
  C  C69  1  0.85389000  0.51087000  0.61763000  1.0
  C  C70  1  0.64611000  0.01087000  0.11763000  1.0
  C  C71  1  0.14612000  0.48913000  0.38238000  1.0
  C  C72  1  0.33190000  0.00938000  0.80620000  1.0
  C  C73  1  0.83191000  0.49062000  0.69381000  1.0
  C  C74  1  0.66809000  0.99062000  0.19380000  1.0
  C  C75  1  0.16810000  0.50938000  0.30620000  1.0
  C  C76  1  0.40243000  0.04933000  0.76346000  1.0
  C  C77  1  0.90244000  0.45066000  0.73655000  1.0
  C  C78  1  0.59756000  0.95066000  0.23654000  1.0
  C  C79  1  0.09757000  0.54934000  0.26346000  1.0
  C  C80  1  0.34948000  0.05494000  0.69110000  1.0
  C  C81  1  0.84949000  0.44506000  0.80891000  1.0
  C  C82  1  0.65052000  0.94506000  0.30890000  1.0
  C  C83  1  0.15052000  0.55495000  0.19110000  1.0
  C  C84  1  0.23955000  0.01862000  0.67912000  1.0
  C  C85  1  0.73956000  0.48138000  0.82088000  1.0
  C  C86  1  0.76045000  0.98138000  0.32088000  1.0
  C  C87  1  0.26044000  0.51863000  0.17912000  1.0
  C  C88  1  0.15489000  0.01246000  0.61215000  1.0
  C  C89  1  0.65489000  0.48753000  0.88786000  1.0
  C  C90  1  0.84512000  0.98754000  0.38785000  1.0
  C  C91  1  0.34510000  0.51248000  0.11215000  1.0
  C  C92  1  0.14842000  0.93247000  0.38948000  1.0
  C  C93  1  0.64841000  0.56754000  0.11051000  1.0
  C  C94  1  0.85157000  0.06752000  0.61051000  1.0
  C  C95  1  0.35158000  0.43248000  0.88948000  1.0
  C  C96  1  0.20500000  0.87313000  0.32143000  1.0
  C  C97  1  0.70499000  0.62688000  0.17857000  1.0
  C  C98  1  0.79500000  0.12686000  0.67856000  1.0
  C  C99  1  0.29499000  0.37313000  0.82143000  1.0
  C  C100  1  0.19782000  0.78909000  0.30183000  1.0
  C  C101  1  0.69781000  0.71092000  0.19817000  1.0
  C  C102  1  0.80220000  0.21090000  0.69816000  1.0
  C  C103  1  0.30218000  0.28909000  0.80184000  1.0
  C  C104  1  0.25884000  0.75188000  0.23039000  1.0
  C  C105  1  0.75884000  0.74812000  0.26961000  1.0
  C  C106  1  0.74117000  0.24811000  0.76961000  1.0
  C  C107  1  0.24116000  0.25189000  0.73040000  1.0
  C  C108  1  0.31074000  0.80792000  0.19600000  1.0
  C  C109  1  0.81074000  0.69209000  0.30400000  1.0
  C  C110  1  0.68927000  0.19208000  0.80400000  1.0
  C  C111  1  0.18926000  0.30791000  0.69600000  1.0
  C  C112  1  0.37604000  0.79078000  0.11921000  1.0
  C  C113  1  0.87604000  0.70923000  0.38080000  1.0
  C  C114  1  0.62397000  0.20923000  0.88079000  1.0
  C  C115  1  0.12396000  0.29077000  0.61921000  1.0
  C  C116  1  0.63829000  0.88480000  0.90641000  1.0
  C  C117  1  0.13830000  0.61521000  0.59359000  1.0
  C  C118  1  0.36170000  0.11521000  0.09359000  1.0
  C  C119  1  0.86170000  0.38479000  0.40641000  1.0
  C  C120  1  0.68001000  0.82929000  0.83100000  1.0
  C  C121  1  0.18002000  0.67071000  0.66900000  1.0
  C  C122  1  0.31997000  0.17072000  0.16900000  1.0
  C  C123  1  0.81998000  0.32929000  0.33100000  1.0
  C  C124  1  0.65429000  0.74787000  0.79800000  1.0
  C  C125  1  0.15431000  0.75214000  0.70201000  1.0
  C  C126  1  0.34571000  0.25214000  0.20201000  1.0
  C  C127  1  0.84571000  0.24786000  0.29799000  1.0
  C  C128  1  0.70573000  0.71767000  0.72156000  1.0
  C  C129  1  0.20574000  0.78234000  0.77844000  1.0
  C  C130  1  0.29427000  0.28234000  0.27844000  1.0
  C  C131  1  0.79426000  0.21766000  0.22157000  1.0
  C  C132  1  0.76869000  0.77632000  0.69727000  1.0
  C  C133  1  0.26868000  0.72368000  0.80273000  1.0
  C  C134  1  0.23132000  0.22368000  0.30273000  1.0
  C  C135  1  0.73131000  0.27633000  0.19727000  1.0
  C  C136  1  0.82965000  0.76722000  0.61978000  1.0
  C  C137  1  0.32966000  0.73277000  0.88022000  1.0
  C  C138  1  0.17035000  0.23277000  0.38022000  1.0
  C  C139  1  0.67034000  0.26723000  0.11978000  1.0
  C  C140  1  0.89885000  0.87851000  0.99894000  1.0
  C  C141  1  0.39886000  0.62150000  0.50106000  1.0
  C  C142  1  0.10114000  0.12149000  0.00106000  1.0
  C  C143  1  0.60114000  0.37850000  0.49893000  1.0
  C  C144  1  0.99687000  0.85425000  0.11981000  1.0
  C  C145  1  0.49686000  0.64575000  0.38019000  1.0
  C  C146  1  0.00313000  0.14575000  0.88019000  1.0
  C  C147  1  0.50315000  0.35424000  0.61981000  1.0
  C  C148  1  0.10955000  0.89461000  0.01645000  1.0
  C  C149  1  0.60955000  0.60540000  0.48354000  1.0
  C  C150  1  0.89045000  0.10539000  0.98354000  1.0
  C  C151  1  0.39045000  0.39460000  0.51646000  1.0
  S  S152  1  0.20180000  0.97770000  0.75632000  1.0
  S  S153  1  0.70180000  0.52229000  0.74367000  1.0
  S  S154  1  0.79819000  0.02230000  0.24367000  1.0
  S  S155  1  0.29820000  0.47770000  0.25632000  1.0
  S  S156  1  0.28528000  0.90592000  0.25183000  1.0
  S  S157  1  0.78527000  0.59409000  0.24816000  1.0
  S  S158  1  0.71472000  0.09408000  0.74817000  1.0
  S  S159  1  0.21472000  0.40591000  0.75182000  1.0
  S  S160  1  0.76528000  0.86849000  0.76774000  1.0
  S  S161  1  0.26527000  0.63151000  0.73226000  1.0
  S  S162  1  0.23472000  0.13152000  0.23227000  1.0
  S  S163  1  0.73472000  0.36849000  0.26773000  1.0
  N  N164  1  0.00639000  0.87587000  0.04380000  1.0
  N  N165  1  0.50638000  0.62412000  0.45620000  1.0
  N  N166  1  0.99361000  0.12412000  0.95620000  1.0
  N  N167  1  0.49362000  0.37587000  0.54380000  1.0
  O  O168  1  0.27249000  0.95517000  0.91218000  1.0
  O  O169  1  0.77249000  0.54482000  0.58782000  1.0
  O  O170  1  0.72751000  0.04483000  0.08782000  1.0
  O  O171  1  0.22752000  0.45517000  0.41218000  1.0
  O  O172  1  0.45453000  0.00169000  0.91793000  1.0
  O  O173  1  0.95453000  0.49831000  0.58207000  1.0
  O  O174  1  0.54547000  0.99831000  0.08207000  1.0
  O  O175  1  0.04548000  0.50169000  0.41794000  1.0
  O  O176  1  0.07036000  0.96285000  0.60819000  1.0
  O  O177  1  0.57036000  0.53715000  0.89182000  1.0
  O  O178  1  0.92965000  0.03714000  0.39181000  1.0
  O  O179  1  0.42964000  0.46287000  0.10819000  1.0
  O  O180  1  0.17135000  0.05746000  0.56544000  1.0
  O  O181  1  0.67135000  0.44254000  0.93457000  1.0
  O  O182  1  0.82865000  0.94254000  0.43457000  1.0
  O  O183  1  0.32864000  0.55747000  0.06543000  1.0
  O  O184  1  0.16756000  0.00706000  0.39785000  1.0
  O  O185  1  0.66754000  0.49293000  0.10215000  1.0
  O  O186  1  0.83243000  0.99291000  0.60215000  1.0
  O  O187  1  0.33245000  0.50708000  0.89785000  1.0
  O  O188  1  0.08193000  0.90354000  0.43474000  1.0
  O  O189  1  0.58192000  0.59646000  0.06525000  1.0
  O  O190  1  0.91806000  0.09645000  0.56526000  1.0
  O  O191  1  0.41808000  0.40354000  0.93474000  1.0
  O  O192  1  0.42402000  0.85121000  0.10069000  1.0
  O  O193  1  0.92402000  0.64880000  0.39932000  1.0
  O  O194  1  0.57598000  0.14881000  0.89931000  1.0
  O  O195  1  0.07598000  0.35120000  0.60069000  1.0
  O  O196  1  0.38080000  0.71826000  0.07711000  1.0
  O  O197  1  0.88080000  0.78174000  0.42289000  1.0
  O  O198  1  0.61921000  0.28175000  0.92289000  1.0
  O  O199  1  0.11921000  0.21825000  0.57711000  1.0
  O  O200  1  0.56546000  0.85824000  0.95042000  1.0
  O  O201  1  0.06546000  0.64176000  0.54958000  1.0
  O  O202  1  0.43454000  0.14177000  0.04959000  1.0
  O  O203  1  0.93454000  0.35824000  0.45042000  1.0
  O  O204  1  0.67572000  0.95725000  0.92246000  1.0
  O  O205  1  0.17573000  0.54275000  0.57754000  1.0
  O  O206  1  0.32427000  0.04276000  0.07754000  1.0
  O  O207  1  0.82427000  0.45724000  0.42246000  1.0
  O  O208  1  0.83994000  0.69708000  0.57281000  1.0
  O  O209  1  0.33996000  0.80292000  0.92719000  1.0
  O  O210  1  0.16004000  0.30291000  0.42719000  1.0
  O  O211  1  0.66005000  0.19709000  0.07281000  1.0
  O  O212  1  0.86705000  0.83213000  0.60546000  1.0
  O  O213  1  0.36705000  0.66787000  0.89454000  1.0
  O  O214  1  0.13295000  0.16786000  0.39454000  1.0
  O  O215  1  0.63295000  0.33214000  0.10547000  1.0
  O  O216  1  0.09004000  0.79412000  0.52827000  1.0
  O  O217  1  0.59004000  0.70588000  0.97173000  1.0
  O  O218  1  0.90997000  0.20587000  0.47173000  1.0
  O  O219  1  0.40997000  0.29413000  0.02827000  1.0
  O  O220  1  0.20525000  0.89601000  0.05273000  1.0
  O  O221  1  0.70525000  0.60399000  0.44727000  1.0
  O  O222  1  0.79474000  0.10400000  0.94726000  1.0
  O  O223  1  0.29475000  0.39600000  0.55274000  1.0
