# generated using pymatgen
data_MnH19C23N3O7
_symmetry_space_group_name_H-M   'P 1'
_cell_length_a   7.20323000
_cell_length_b   10.02010000
_cell_length_c   15.53570000
_cell_angle_alpha   95.22530000
_cell_angle_beta   92.09650000
_cell_angle_gamma   110.58600000
_symmetry_Int_Tables_number   1
_chemical_formula_structural   MnH19C23N3O7
_chemical_formula_sum   'Mn2 H38 C46 N6 O14'
_cell_volume   1042.52332527
_cell_formula_units_Z   2
loop_
 _symmetry_equiv_pos_site_id
 _symmetry_equiv_pos_as_xyz
  1  'x, y, z'
loop_
 _atom_site_type_symbol
 _atom_site_label
 _atom_site_symmetry_multiplicity
 _atom_site_fract_x
 _atom_site_fract_y
 _atom_site_fract_z
 _atom_site_occupancy
  Mn  Mn0  1  0.28445000  0.64514000  0.31279000  1.0
  Mn  Mn1  1  0.71555000  0.35486000  0.68720000  1.0
  H  H2  1  0.65817000  0.56124000  0.07200000  1.0
  H  H3  1  0.34182000  0.43875000  0.92799000  1.0
  H  H4  1  0.79555000  0.26384000  0.90755000  1.0
  H  H5  1  0.20447000  0.73616000  0.09246000  1.0
  H  H6  1  0.01632000  0.33933000  0.17615000  1.0
  H  H7  1  0.98369000  0.66068000  0.82385000  1.0
  H  H8  1  0.37784000  0.22248000  0.01749000  1.0
  H  H9  1  0.62218000  0.77753000  0.98252000  1.0
  H  H10  1  0.54433000  0.09923000  0.11092000  1.0
  H  H11  1  0.45568000  0.90078000  0.88909000  1.0
  H  H12  1  0.99520000  0.90963000  0.22908000  1.0
  H  H13  1  0.00481000  0.09037000  0.77092000  1.0
  H  H14  1  0.83360000  0.03928000  0.14211000  1.0
  H  H15  1  0.16641000  0.96073000  0.85790000  1.0
  H  H16  1  0.27002000  0.91560000  0.40907000  1.0
  H  H17  1  0.72996000  0.08439000  0.59093000  1.0
  H  H18  1  0.27703000  0.00156000  0.56643000  1.0
  H  H19  1  0.72296000  0.99845000  0.43356000  1.0
  H  H20  1  0.24968000  0.83034000  0.67703000  1.0
  H  H21  1  0.75033000  0.16968000  0.32297000  1.0
  H  H22  1  0.22839000  0.58009000  0.62612000  1.0
  H  H23  1  0.77162000  0.41993000  0.37387000  1.0
  H  H24  1  0.20953000  0.37361000  0.57098000  1.0
  H  H25  1  0.79045000  0.62639000  0.42902000  1.0
  H  H26  1  0.22262000  0.14796000  0.49493000  1.0
  H  H27  1  0.77735000  0.85204000  0.50507000  1.0
  H  H28  1  0.27297000  0.13802000  0.33410000  1.0
  H  H29  1  0.72702000  0.86198000  0.66590000  1.0
  H  H30  1  0.31312000  0.35398000  0.25921000  1.0
  H  H31  1  0.68686000  0.64602000  0.74079000  1.0
  H  H32  1  0.59141000  0.84068000  0.29045000  1.0
  H  H33  1  0.40859000  0.15931000  0.70954000  1.0
  H  H34  1  0.66196000  0.70859000  0.30897000  1.0
  H  H35  1  0.33804000  0.29140000  0.69103000  1.0
  H  H36  1  0.33979000  0.56940000  0.12885000  1.0
  H  H37  1  0.66021000  0.43058000  0.87115000  1.0
  H  H38  1  0.50909000  0.57070000  0.19873000  1.0
  H  H39  1  0.49090000  0.42929000  0.80127000  1.0
  C  C40  1  0.86200000  0.54258000  0.22220000  1.0
  C  C41  1  0.13799000  0.45742000  0.77780000  1.0
  C  C42  1  0.83388000  0.45612000  0.13545000  1.0
  C  C43  1  0.16611000  0.54389000  0.86455000  1.0
  C  C44  1  0.72831000  0.48105000  0.06480000  1.0
  C  C45  1  0.27169000  0.51895000  0.93520000  1.0
  C  C46  1  0.80396000  0.31633000  0.97298000  1.0
  C  C47  1  0.19605000  0.68367000  0.02703000  1.0
  C  C48  1  0.91351000  0.28602000  0.03991000  1.0
  C  C49  1  0.08649000  0.71399000  0.96010000  1.0
  C  C50  1  0.92807000  0.35605000  0.12274000  1.0
  C  C51  1  0.07194000  0.64395000  0.87727000  1.0
  C  C52  1  0.09960000  0.13838000  0.07504000  1.0
  C  C53  1  0.90042000  0.86163000  0.92496000  1.0
  C  C54  1  0.29850000  0.15646000  0.06584000  1.0
  C  C55  1  0.70152000  0.84355000  0.93417000  1.0
  C  C56  1  0.38941000  0.08709000  0.11734000  1.0
  C  C57  1  0.61060000  0.91291000  0.88266000  1.0
  C  C58  1  0.28030000  0.99714000  0.17609000  1.0
  C  C59  1  0.71971000  0.00286000  0.82392000  1.0
  C  C60  1  0.37219000  0.91244000  0.22530000  1.0
  C  C61  1  0.62782000  0.08756000  0.77470000  1.0
  C  C62  1  0.08032000  0.98165000  0.18453000  1.0
  C  C63  1  0.91969000  0.01836000  0.81547000  1.0
  C  C64  1  0.98932000  0.05357000  0.13518000  1.0
  C  C65  1  0.01068000  0.94643000  0.86482000  1.0
  C  C66  1  0.26269000  0.84549000  0.45936000  1.0
  C  C67  1  0.73728000  0.15450000  0.54063000  1.0
  C  C68  1  0.26387000  0.89138000  0.54638000  1.0
  C  C69  1  0.73612000  0.10862000  0.45361000  1.0
  C  C70  1  0.24937000  0.79555000  0.60846000  1.0
  C  C71  1  0.75063000  0.20446000  0.39154000  1.0
  C  C72  1  0.23984000  0.65788000  0.58033000  1.0
  C  C73  1  0.76016000  0.34213000  0.41967000  1.0
  C  C74  1  0.24769000  0.61860000  0.49217000  1.0
  C  C75  1  0.75230000  0.38141000  0.50783000  1.0
  C  C76  1  0.25592000  0.48323000  0.45610000  1.0
  C  C77  1  0.74408000  0.51677000  0.54390000  1.0
  C  C78  1  0.23471000  0.36597000  0.50235000  1.0
  C  C79  1  0.76527000  0.63404000  0.49765000  1.0
  C  C80  1  0.24037000  0.24006000  0.45966000  1.0
  C  C81  1  0.75962000  0.75995000  0.54034000  1.0
  C  C82  1  0.26812000  0.23441000  0.37075000  1.0
  C  C83  1  0.73187000  0.76559000  0.62925000  1.0
  C  C84  1  0.29062000  0.35404000  0.32813000  1.0
  C  C85  1  0.70937000  0.64595000  0.67187000  1.0
  N  N86  1  0.71474000  0.41243000  0.98488000  1.0
  N  N87  1  0.28526000  0.58757000  0.01512000  1.0
  N  N88  1  0.28563000  0.47854000  0.36892000  1.0
  N  N89  1  0.71436000  0.52145000  0.63109000  1.0
  N  N90  1  0.25476000  0.71118000  0.43104000  1.0
  N  N91  1  0.74524000  0.28882000  0.56896000  1.0
  O  O92  1  0.00214000  0.54162000  0.27470000  1.0
  O  O93  1  0.99785000  0.45838000  0.72529000  1.0
  O  O94  1  0.74329000  0.60790000  0.23928000  1.0
  O  O95  1  0.25669000  0.39210000  0.76072000  1.0
  O  O96  1  0.01181000  0.19672000  0.01487000  1.0
  O  O97  1  0.98821000  0.80330000  0.98514000  1.0
  O  O98  1  0.24849000  0.80572000  0.25824000  1.0
  O  O99  1  0.75152000  0.19427000  0.74177000  1.0
  O  O100  1  0.56038000  0.94563000  0.23134000  1.0
  O  O101  1  0.43962000  0.05435000  0.76866000  1.0
  O  O102  1  0.58030000  0.76378000  0.33268000  1.0
  O  O103  1  0.41970000  0.23621000  0.66732000  1.0
  O  O104  1  0.36522000  0.55762000  0.19088000  1.0
  O  O105  1  0.63477000  0.44235000  0.80911000  1.0
