# generated using pymatgen
data_Zn2H13C24N8O
_symmetry_space_group_name_H-M   'P 1'
_cell_length_a   15.62620000
_cell_length_b   15.74480000
_cell_length_c   17.79230000
_cell_angle_alpha   107.84100000
_cell_angle_beta   103.19300000
_cell_angle_gamma   112.68600000
_symmetry_Int_Tables_number   1
_chemical_formula_structural   Zn2H13C24N8O
_chemical_formula_sum   'Zn4 H26 C48 N16 O2'
_cell_volume   3532.90582270
_cell_formula_units_Z   2
loop_
 _symmetry_equiv_pos_site_id
 _symmetry_equiv_pos_as_xyz
  1  'x, y, z'
loop_
 _atom_site_type_symbol
 _atom_site_label
 _atom_site_symmetry_multiplicity
 _atom_site_fract_x
 _atom_site_fract_y
 _atom_site_fract_z
 _atom_site_occupancy
  Zn  Zn0  1  0.13515000  0.13129000  0.50261000  1.0
  Zn  Zn1  1  0.85585000  0.84723000  0.49821000  1.0
  Zn  Zn2  1  0.00920000  0.88450000  0.39443000  1.0
  Zn  Zn3  1  0.98116000  0.10511000  0.60138000  1.0
  H  H4  1  0.23287000  0.19152000  0.36081000  1.0
  H  H5  1  0.79175000  0.60117000  0.45375000  1.0
  H  H6  1  0.14827000  0.82185000  0.50351000  1.0
  H  H7  1  0.16761000  0.14054000  0.75540000  1.0
  H  H8  1  0.12994000  0.32795000  0.78265000  1.0
  H  H9  1  0.99190000  0.65270000  0.32023000  1.0
  H  H10  1  0.55756000  0.67840000  0.94369000  1.0
  H  H11  1  0.41477000  0.62934000  0.03746000  1.0
  H  H12  1  0.23349000  0.13273000  0.05546000  1.0
  H  H13  1  0.64670000  0.81151000  0.54145000  1.0
  H  H14  1  0.12482000  0.89616000  0.96541000  1.0
  H  H15  1  0.87006000  0.88073000  0.22975000  1.0
  H  H16  1  0.02347000  0.16536000  0.35161000  1.0
  H  H17  1  0.82173000  0.14170000  0.68313000  1.0
  H  H18  1  0.05779000  0.86109000  0.21760000  1.0
  H  H19  1  0.31805000  0.37351000  0.63804000  1.0
  H  H20  1  0.80956000  0.68150000  0.60500000  1.0
  H  H21  1  0.34745000  0.21813000  0.71248000  1.0
  H  H22  1  0.43154000  0.18108000  0.67904000  1.0
  H  H23  1  0.36958000  0.23003000  0.62189000  1.0
  H  H24  1  0.78961000  0.22434000  0.48183000  1.0
  H  H25  1  0.75397000  0.11023000  0.49611000  1.0
  H  H26  1  0.85779000  0.22805000  0.57863000  1.0
  H  H27  1  0.62343000  0.86171000  0.39276000  1.0
  H  H28  1  0.56148000  0.75359000  0.29067000  1.0
  H  H29  1  0.62459000  0.74677000  0.38368000  1.0
  C  C30  1  0.18614000  0.10965000  0.33815000  1.0
  C  C31  1  0.69792000  0.97723000  0.62185000  1.0
  C  C32  1  0.72752000  0.82992000  0.25500000  1.0
  C  C33  1  0.91448000  0.19211000  0.40658000  1.0
  C  C34  1  0.25911000  0.34603000  0.66109000  1.0
  C  C35  1  0.84248000  0.63114000  0.42449000  1.0
  C  C36  1  0.18010000  0.90441000  0.53014000  1.0
  C  C37  1  0.11052000  0.06036000  0.71871000  1.0
  C  C38  1  0.00577000  0.89411000  0.66988000  1.0
  C  C39  1  0.27680000  0.07498000  0.59972000  1.0
  C  C40  1  0.16316000  0.32266000  0.73525000  1.0
  C  C41  1  0.70372000  0.89184000  0.57240000  1.0
  C  C42  1  0.94474000  0.65701000  0.35597000  1.0
  C  C43  1  0.25717000  0.39322000  0.74160000  1.0
  C  C44  1  0.88549000  0.58254000  0.37781000  1.0
  C  C45  1  0.27880000  0.98256000  0.58833000  1.0
  C  C46  1  0.09019000  0.98000000  0.74317000  1.0
  C  C47  1  0.88979000  0.25578000  0.37684000  1.0
  C  C48  1  0.87779000  0.32357000  0.36400000  1.0
  C  C49  1  0.87352000  0.40588000  0.35943000  1.0
  C  C50  1  0.87660000  0.48641000  0.36366000  1.0
  C  C51  1  0.61346000  0.97793000  0.63601000  1.0
  C  C52  1  0.83121000  0.86850000  0.27199000  1.0
  C  C53  1  0.53489000  0.97611000  0.63863000  1.0
  C  C54  1  0.44697000  0.97564000  0.63249000  1.0
  C  C55  1  0.36591000  0.97515000  0.61695000  1.0
  C  C56  1  0.64576000  0.78571000  0.17655000  1.0
  C  C57  1  0.48635000  0.66755000  0.03152000  1.0
  C  C58  1  0.48701000  0.64004000  0.95094000  1.0
  C  C59  1  0.40340000  0.55999000  0.87673000  1.0
  C  C60  1  0.57181000  0.73576000  0.10814000  1.0
  C  C61  1  0.33366000  0.48466000  0.81272000  1.0
  C  C62  1  0.13056000  0.98408000  0.82385000  1.0
  C  C63  1  0.88775000  0.16292000  0.46938000  1.0
  C  C64  1  0.15897000  0.97409000  0.97090000  1.0
  C  C65  1  0.19841000  0.05478000  0.04972000  1.0
  C  C66  1  0.19058000  0.04405000  0.12341000  1.0
  C  C67  1  0.15094000  0.98308000  0.89414000  1.0
  C  C68  1  0.17683000  0.03697000  0.18678000  1.0
  C  C69  1  0.72091000  0.83130000  0.33359000  1.0
  C  C70  1  0.98396000  0.15859000  0.39415000  1.0
  C  C71  1  0.79305000  0.06070000  0.64506000  1.0
  C  C72  1  0.09648000  0.94063000  0.26479000  1.0
  C  C73  1  0.15611000  0.02934000  0.25773000  1.0
  C  C74  1  0.94232000  0.79420000  0.66457000  1.0
  C  C75  1  0.36052000  0.18172000  0.65604000  1.0
  C  C76  1  0.81846000  0.18194000  0.50853000  1.0
  C  C77  1  0.62799000  0.79679000  0.35150000  1.0
  N  N78  1  0.14759000  0.07161000  0.38796000  1.0
  N  N79  1  0.87405000  0.72605000  0.43039000  1.0
  N  N80  1  0.12501000  0.94699000  0.50729000  1.0
  N  N81  1  0.04355000  0.02475000  0.63824000  1.0
  N  N82  1  0.98062000  0.92377000  0.60832000  1.0
  N  N83  1  0.18424000  0.05110000  0.54977000  1.0
  N  N84  1  0.11455000  0.24099000  0.65806000  1.0
  N  N85  1  0.93713000  0.74181000  0.38738000  1.0
  N  N86  1  0.79334000  0.92224000  0.56598000  1.0
  N  N87  1  0.88137000  0.88910000  0.35310000  1.0
  N  N88  1  0.93972000  0.11722000  0.49210000  1.0
  N  N89  1  0.81407000  0.86683000  0.39106000  1.0
  N  N90  1  0.99903000  0.11520000  0.44658000  1.0
  N  N91  1  0.84913000  0.02728000  0.61126000  1.0
  N  N92  1  0.09182000  0.96659000  0.34243000  1.0
  N  N93  1  0.17442000  0.25542000  0.61207000  1.0
  O  O94  1  0.96553000  0.75662000  0.71077000  1.0
  O  O95  1  0.84583000  0.74586000  0.60175000  1.0
