# generated using pymatgen
data_CuH3C5IN3
_symmetry_space_group_name_H-M   'P 1'
_cell_length_a   3.99279000
_cell_length_b   7.22267000
_cell_length_c   12.42700000
_cell_angle_alpha   97.30130000
_cell_angle_beta   89.99990000
_cell_angle_gamma   89.99990000
_symmetry_Int_Tables_number   1
_chemical_formula_structural   CuH3C5IN3
_chemical_formula_sum   'Cu2 H6 C10 I2 N6'
_cell_volume   355.47145734
_cell_formula_units_Z   2
loop_
 _symmetry_equiv_pos_site_id
 _symmetry_equiv_pos_as_xyz
  1  'x, y, z'
loop_
 _atom_site_type_symbol
 _atom_site_label
 _atom_site_symmetry_multiplicity
 _atom_site_fract_x
 _atom_site_fract_y
 _atom_site_fract_z
 _atom_site_occupancy
  Cu  Cu0  1  0.75000000  0.01977000  0.57153000  1.0
  Cu  Cu1  1  0.25000000  0.98023000  0.42847000  1.0
  H  H2  1  0.75001000  0.00099000  0.81028000  1.0
  H  H3  1  0.25000000  0.99901000  0.18971000  1.0
  H  H4  1  0.75001000  0.44018000  0.62332000  1.0
  H  H5  1  0.25001000  0.55983000  0.37668000  1.0
  H  H6  1  0.74999000  0.67019000  0.79379000  1.0
  H  H7  1  0.25000000  0.32981000  0.20621000  1.0
  C  C8  1  0.75000000  0.28031000  0.89992000  1.0
  C  C9  1  0.25001000  0.71968000  0.10008000  1.0
  C  C10  1  0.75000000  0.15042000  0.80602000  1.0
  C  C11  1  0.25001000  0.84957000  0.19398000  1.0
  C  C12  1  0.75000000  0.39372000  0.70353000  1.0
  C  C13  1  0.24999000  0.60630000  0.29647000  1.0
  C  C14  1  0.75000000  0.21342000  0.00374000  1.0
  C  C15  1  0.25000000  0.78657000  0.99627000  1.0
  C  C16  1  0.75000000  0.52035000  0.79829000  1.0
  C  C17  1  0.25000000  0.47965000  0.20171000  1.0
  I  I18  1  0.75000000  0.21430000  0.40735000  1.0
  I  I19  1  0.25001000  0.78571000  0.59265000  1.0
  N  N20  1  0.75000000  0.20809000  0.70714000  1.0
  N  N21  1  0.25001000  0.79191000  0.29286000  1.0
  N  N22  1  0.74999000  0.46626000  0.89707000  1.0
  N  N23  1  0.25000000  0.53373000  0.10293000  1.0
  N  N24  1  0.75000000  0.14777000  0.08477000  1.0
  N  N25  1  0.25000000  0.85222000  0.91522000  1.0
