# generated using pymatgen
data_Co2H8C12N5ClO4
_symmetry_space_group_name_H-M   'P 1'
_cell_length_a   11.92130000
_cell_length_b   16.30490000
_cell_length_c   16.30440822
_cell_angle_alpha   114.24934564
_cell_angle_beta   104.10932021
_cell_angle_gamma   104.10600000
_symmetry_Int_Tables_number   1
_chemical_formula_structural   Co2H8C12N5ClO4
_chemical_formula_sum   'Co12 H48 C72 N30 Cl6 O24'
_cell_volume   2581.84854816
_cell_formula_units_Z   6
loop_
 _symmetry_equiv_pos_site_id
 _symmetry_equiv_pos_as_xyz
  1  'x, y, z'
loop_
 _atom_site_type_symbol
 _atom_site_label
 _atom_site_symmetry_multiplicity
 _atom_site_fract_x
 _atom_site_fract_y
 _atom_site_fract_z
 _atom_site_occupancy
  Co  Co0  1  0.61199000  0.59534000  0.55318000  1.0
  Co  Co1  1  0.05889000  0.44689000  0.04221000  1.0
  Co  Co2  1  0.01665000  0.95776000  0.40453000  1.0
  Co  Co3  1  0.38803000  0.40464000  0.44681000  1.0
  Co  Co4  1  0.94118000  0.55318000  0.95780000  1.0
  Co  Co5  1  0.98330000  0.04224000  0.59545000  1.0
  Co  Co6  1  0.40051000  0.63908000  0.59564000  1.0
  Co  Co7  1  0.80487000  0.40449000  0.04359000  1.0
  Co  Co8  1  0.76138000  0.95646000  0.36074000  1.0
  Co  Co9  1  0.59950000  0.36088000  0.40432000  1.0
  Co  Co10  1  0.19513000  0.59554000  0.95645000  1.0
  Co  Co11  1  0.23857000  0.04357000  0.63925000  1.0
  H  H12  1  0.76210000  0.42572000  0.22861000  1.0
  H  H13  1  0.53349000  0.77128000  0.19690000  1.0
  H  H14  1  0.33646000  0.80300000  0.57448000  1.0
  H  H15  1  0.23784000  0.57424000  0.77141000  1.0
  H  H16  1  0.46651000  0.22871000  0.80310000  1.0
  H  H17  1  0.66352000  0.19697000  0.42552000  1.0
  H  H18  1  0.55363000  0.61882000  0.13851000  1.0
  H  H19  1  0.41530000  0.86166000  0.48018000  1.0
  H  H20  1  0.93497000  0.51970000  0.38144000  1.0
  H  H21  1  0.44637000  0.38118000  0.86156000  1.0
  H  H22  1  0.58478000  0.13838000  0.51985000  1.0
  H  H23  1  0.06505000  0.48021000  0.61853000  1.0
  H  H24  1  0.80980000  0.86926000  0.59019000  1.0
  H  H25  1  0.21967000  0.41017000  0.27928000  1.0
  H  H26  1  0.94024000  0.72067000  0.13065000  1.0
  H  H27  1  0.19024000  0.13076000  0.40983000  1.0
  H  H28  1  0.78039000  0.58985000  0.72076000  1.0
  H  H29  1  0.05973000  0.27943000  0.86941000  1.0
  H  H30  1  0.85702000  0.16026000  0.70911000  1.0
  H  H31  1  0.14810000  0.29062000  0.45095000  1.0
  H  H32  1  0.69697000  0.54893000  0.83948000  1.0
  H  H33  1  0.14296000  0.83973000  0.29083000  1.0
  H  H34  1  0.85190000  0.70939000  0.54906000  1.0
  H  H35  1  0.30307000  0.45111000  0.16055000  1.0
  H  H36  1  0.55331000  0.95727000  0.71614000  1.0
  H  H37  1  0.83723000  0.28397000  0.24129000  1.0
  H  H38  1  0.59617000  0.75910000  0.04226000  1.0
  H  H39  1  0.44668000  0.04275000  0.28383000  1.0
  H  H40  1  0.16277000  0.71599000  0.75867000  1.0
  H  H41  1  0.40374000  0.24088000  0.95771000  1.0
  H  H42  1  0.56662000  0.61885000  0.29600000  1.0
  H  H43  1  0.27052000  0.70428000  0.32268000  1.0
  H  H44  1  0.94782000  0.67709000  0.38132000  1.0
  H  H45  1  0.43339000  0.38113000  0.70407000  1.0
  H  H46  1  0.72948000  0.29577000  0.67733000  1.0
  H  H47  1  0.05216000  0.32279000  0.61862000  1.0
  H  H48  1  0.67945000  0.13036000  0.76294000  1.0
  H  H49  1  0.91669000  0.23688000  0.36737000  1.0
  H  H50  1  0.54944000  0.63286000  0.86920000  1.0
  H  H51  1  0.32050000  0.86964000  0.23698000  1.0
  H  H52  1  0.08333000  0.76313000  0.63263000  1.0
  H  H53  1  0.45050000  0.36709000  0.13078000  1.0
  H  H54  1  0.65152000  0.52277000  0.03677000  1.0
  H  H55  1  0.61507000  0.96319000  0.48578000  1.0
  H  H56  1  0.12913000  0.51422000  0.47761000  1.0
  H  H57  1  0.34842000  0.47721000  0.96326000  1.0
  H  H58  1  0.38503000  0.03684000  0.51424000  1.0
  H  H59  1  0.87088000  0.48579000  0.52245000  1.0
  C  C60  1  0.66589000  0.52268000  0.27439000  1.0
  C  C61  1  0.39147000  0.72572000  0.24813000  1.0
  C  C62  1  0.14321000  0.75173000  0.47747000  1.0
  C  C63  1  0.33407000  0.47727000  0.72564000  1.0
  C  C64  1  0.60856000  0.27431000  0.75189000  1.0
  C  C65  1  0.85675000  0.24821000  0.52252000  1.0
  C  C66  1  0.71671000  0.47068000  0.21240000  1.0
  C  C67  1  0.50437000  0.78757000  0.25808000  1.0
  C  C68  1  0.24613000  0.74183000  0.52952000  1.0
  C  C69  1  0.28324000  0.52928000  0.78762000  1.0
  C  C70  1  0.49564000  0.21245000  0.74192000  1.0
  C  C71  1  0.75385000  0.25812000  0.47047000  1.0
  C  C72  1  0.67203000  0.90052000  0.64792000  1.0
  C  C73  1  0.02419000  0.35226000  0.25274000  1.0
  C  C74  1  0.77139000  0.74734000  0.09920000  1.0
  C  C75  1  0.32799000  0.09950000  0.35207000  1.0
  C  C76  1  0.97587000  0.64771000  0.74726000  1.0
  C  C77  1  0.22853000  0.25269000  0.90080000  1.0
  C  C78  1  0.60101000  0.57860000  0.16250000  1.0
  C  C79  1  0.43862000  0.83759000  0.41594000  1.0
  C  C80  1  0.02254000  0.58393000  0.42166000  1.0
  C  C81  1  0.39896000  0.42137000  0.83755000  1.0
  C  C82  1  0.56144000  0.16245000  0.58407000  1.0
  C  C83  1  0.97746000  0.41599000  0.57831000  1.0
  C  C84  1  0.77631000  0.92514000  0.62536000  1.0
  C  C85  1  0.15103000  0.37488000  0.29996000  1.0
  C  C86  1  0.85098000  0.70006000  0.07469000  1.0
  C  C87  1  0.22371000  0.07487000  0.37462000  1.0
  C  C88  1  0.84903000  0.62512000  0.70007000  1.0
  C  C89  1  0.14900000  0.30002000  0.92536000  1.0
  C  C90  1  0.80282000  0.08749000  0.69345000  1.0
  C  C91  1  0.10950000  0.30643000  0.39396000  1.0
  C  C92  1  0.71551000  0.60601000  0.91224000  1.0
  C  C93  1  0.19716000  0.91251000  0.30650000  1.0
  C  C94  1  0.89051000  0.69357000  0.60604000  1.0
  C  C95  1  0.28453000  0.39403000  0.08779000  1.0
  C  C96  1  0.66996000  0.51577000  0.36406000  1.0
  C  C97  1  0.30588000  0.63605000  0.15161000  1.0
  C  C98  1  0.15415000  0.84829000  0.48436000  1.0
  C  C99  1  0.33005000  0.48417000  0.63597000  1.0
  C  C100  1  0.69413000  0.36399000  0.84839000  1.0
  C  C101  1  0.84579000  0.15167000  0.51566000  1.0
  C  C102  1  0.63420000  0.97464000  0.69730000  1.0
  C  C103  1  0.93698000  0.30274000  0.27739000  1.0
  C  C104  1  0.65962000  0.72279000  0.02496000  1.0
  C  C105  1  0.36578000  0.02538000  0.30265000  1.0
  C  C106  1  0.06305000  0.69722000  0.72257000  1.0
  C  C107  1  0.34032000  0.27722000  0.97502000  1.0
  C  C108  1  0.60761000  0.57853000  0.24892000  1.0
  C  C109  1  0.35865000  0.75126000  0.32944000  1.0
  C  C110  1  0.02914000  0.67038000  0.42166000  1.0
  C  C111  1  0.39236000  0.42143000  0.75113000  1.0
  C  C112  1  0.64137000  0.24877000  0.67058000  1.0
  C  C113  1  0.97085000  0.32954000  0.57830000  1.0
  C  C114  1  0.60361000  0.79584000  0.61612000  1.0
  C  C115  1  0.98757000  0.38413000  0.17992000  1.0
  C  C116  1  0.80774000  0.82020000  0.20395000  1.0
  C  C117  1  0.39647000  0.20419000  0.38392000  1.0
  C  C118  1  0.01251000  0.61587000  0.82010000  1.0
  C  C119  1  0.19214000  0.17984000  0.79604000  1.0
  C  C120  1  0.70242000  0.06960000  0.72184000  1.0
  C  C121  1  0.98069000  0.27810000  0.34774000  1.0
  C  C122  1  0.63302000  0.65236000  0.93002000  1.0
  C  C123  1  0.29755000  0.93042000  0.27810000  1.0
  C  C124  1  0.01931000  0.72188000  0.65223000  1.0
  C  C125  1  0.36695000  0.34762000  0.06996000  1.0
  C  C126  1  0.65480000  0.52524000  0.10519000  1.0
  C  C127  1  0.54981000  0.89478000  0.41987000  1.0
  C  C128  1  0.12980000  0.58009000  0.47504000  1.0
  C  C129  1  0.34513000  0.47472000  0.89484000  1.0
  C  C130  1  0.45027000  0.10524000  0.58014000  1.0
  C  C131  1  0.87021000  0.41988000  0.52497000  1.0
  N  N132  1  0.71321000  0.47262000  0.12992000  1.0
  N  N133  1  0.58340000  0.87002000  0.34247000  1.0
  N  N134  1  0.24077000  0.65745000  0.52762000  1.0
  N  N135  1  0.28672000  0.52733000  0.87009000  1.0
  N  N136  1  0.41666000  0.13000000  0.65753000  1.0
  N  N137  1  0.75922000  0.34252000  0.47239000  1.0
  N  N138  1  0.83860000  0.01588000  0.64513000  1.0
  N  N139  1  0.19360000  0.35495000  0.37081000  1.0
  N  N140  1  0.82272000  0.62916000  0.98395000  1.0
  N  N141  1  0.16138000  0.98412000  0.35483000  1.0
  N  N142  1  0.80644000  0.64504000  0.62922000  1.0
  N  N143  1  0.17733000  0.37093000  0.01610000  1.0
  N  N144  1  0.41653000  0.54841000  0.47335000  1.0
  N  N145  1  0.94307000  0.52659000  0.07495000  1.0
  N  N146  1  0.86813000  0.92505000  0.45156000  1.0
  N  N147  1  0.58351000  0.45158000  0.52658000  1.0
  N  N148  1  0.05696000  0.47342000  0.92500000  1.0
  N  N149  1  0.13179000  0.07500000  0.54841000  1.0
  N  N150  1  0.39570000  0.56461000  0.40483000  1.0
  N  N151  1  0.99076000  0.59516000  0.15962000  1.0
  N  N152  1  0.83108000  0.84038000  0.43544000  1.0
  N  N153  1  0.60439000  0.43537000  0.59508000  1.0
  N  N154  1  0.00929000  0.40486000  0.84033000  1.0
  N  N155  1  0.16881000  0.15968000  0.56454000  1.0
  N  N156  1  0.37670000  0.57828000  0.33980000  1.0
  N  N157  1  0.03677000  0.66019000  0.23829000  1.0
  N  N158  1  0.79841000  0.76172000  0.42187000  1.0
  N  N159  1  0.62344000  0.42169000  0.66011000  1.0
  N  N160  1  0.96331000  0.33983000  0.76166000  1.0
  N  N161  1  0.20144000  0.23834000  0.57813000  1.0
  Cl  Cl162  1  0.58225000  0.64531000  0.70517000  1.0
  Cl  Cl163  1  0.87709000  0.29486000  0.94033000  1.0
  Cl  Cl164  1  0.93696000  0.05984000  0.35459000  1.0
  Cl  Cl165  1  0.41777000  0.35463000  0.29484000  1.0
  Cl  Cl166  1  0.12294000  0.70516000  0.05965000  1.0
  Cl  Cl167  1  0.06295000  0.94016000  0.64540000  1.0
  O  O168  1  0.64993000  0.73594000  0.57626000  1.0
  O  O169  1  0.07374000  0.42403000  0.15989000  1.0
  O  O170  1  0.91384000  0.84008000  0.26393000  1.0
  O  O171  1  0.35016000  0.26409000  0.42379000  1.0
  O  O172  1  0.92635000  0.57601000  0.84016000  1.0
  O  O173  1  0.08599000  0.15991000  0.73609000  1.0
  O  O174  1  0.63896000  0.57432000  0.42422000  1.0
  O  O175  1  0.21483000  0.57582000  0.15004000  1.0
  O  O176  1  0.06469000  0.84983000  0.42564000  1.0
  O  O177  1  0.36109000  0.42564000  0.57582000  1.0
  O  O178  1  0.78517000  0.42421000  0.84993000  1.0
  O  O179  1  0.93524000  0.15009000  0.57434000  1.0
  O  O180  1  0.50092000  0.77471000  0.62905000  1.0
  O  O181  1  0.87195000  0.37119000  0.14582000  1.0
  O  O182  1  0.72627000  0.85441000  0.22505000  1.0
  O  O183  1  0.49913000  0.22530000  0.37097000  1.0
  O  O184  1  0.12814000  0.62886000  0.85423000  1.0
  O  O185  1  0.27365000  0.14570000  0.77492000  1.0
  O  O186  1  0.70437000  0.44978000  0.37306000  1.0
  O  O187  1  0.33137000  0.62704000  0.07666000  1.0
  O  O188  1  0.25449000  0.92327000  0.55042000  1.0
  O  O189  1  0.29565000  0.55017000  0.62697000  1.0
  O  O190  1  0.66864000  0.37299000  0.92335000  1.0
  O  O191  1  0.74543000  0.07670000  0.44962000  1.0
