# generated using pymatgen
data_NiH10(C5N4)2
_symmetry_space_group_name_H-M   'P 1'
_cell_length_a   7.98636000
_cell_length_b   9.21908000
_cell_length_c   10.03410000
_cell_angle_alpha   84.66530000
_cell_angle_beta   66.68740000
_cell_angle_gamma   66.01520000
_symmetry_Int_Tables_number   1
_chemical_formula_structural   NiH10(C5N4)2
_chemical_formula_sum   'Ni2 H20 C20 N16'
_cell_volume   617.84920224
_cell_formula_units_Z   2
loop_
 _symmetry_equiv_pos_site_id
 _symmetry_equiv_pos_as_xyz
  1  'x, y, z'
loop_
 _atom_site_type_symbol
 _atom_site_label
 _atom_site_symmetry_multiplicity
 _atom_site_fract_x
 _atom_site_fract_y
 _atom_site_fract_z
 _atom_site_occupancy
  Ni  Ni0  1  0.70001000  0.52191000  0.47864000  1.0
  Ni  Ni1  1  0.29995000  0.47817000  0.52142000  1.0
  H  H2  1  0.60134000  0.56209000  0.80277000  1.0
  H  H3  1  0.39872000  0.43767000  0.19712000  1.0
  H  H4  1  0.70128000  0.39227000  0.99146000  1.0
  H  H5  1  0.29894000  0.60758000  0.00842000  1.0
  H  H6  1  0.90566000  0.10056000  0.92745000  1.0
  H  H7  1  0.09481000  0.89933000  0.07240000  1.0
  H  H8  1  0.99146000  0.98698000  0.68039000  1.0
  H  H9  1  0.00859000  0.01279000  0.31958000  1.0
  H  H10  1  0.88096000  0.17405000  0.50302000  1.0
  H  H11  1  0.11892000  0.82563000  0.49699000  1.0
  H  H12  1  0.51743000  0.86891000  0.46197000  1.0
  H  H13  1  0.48256000  0.13109000  0.53810000  1.0
  H  H14  1  0.49677000  0.06526000  0.27406000  1.0
  H  H15  1  0.50324000  0.93481000  0.72604000  1.0
  H  H16  1  0.66081000  0.96154000  0.00925000  1.0
  H  H17  1  0.33909000  0.03859000  0.99085000  1.0
  H  H18  1  0.82809000  0.66569000  0.94811000  1.0
  H  H19  1  0.17150000  0.33444000  0.05193000  1.0
  H  H20  1  0.83834000  0.48676000  0.15150000  1.0
  H  H21  1  0.16139000  0.51330000  0.84850000  1.0
  C  C22  1  0.68811000  0.43399000  0.77997000  1.0
  C  C23  1  0.31202000  0.56579000  0.21994000  1.0
  C  C24  1  0.74355000  0.33953000  0.88426000  1.0
  C  C25  1  0.25667000  0.66031000  0.11563000  1.0
  C  C26  1  0.85656000  0.17653000  0.84894000  1.0
  C  C27  1  0.14375000  0.82330000  0.15093000  1.0
  C  C28  1  0.90544000  0.11405000  0.71088000  1.0
  C  C29  1  0.09469000  0.88574000  0.28903000  1.0
  C  C30  1  0.84482000  0.21653000  0.61264000  1.0
  C  C31  1  0.15517000  0.78323000  0.38732000  1.0
  C  C32  1  0.58452000  0.82979000  0.34668000  1.0
  C  C33  1  0.41544000  0.17028000  0.65335000  1.0
  C  C34  1  0.57354000  0.93805000  0.24088000  1.0
  C  C35  1  0.42645000  0.06203000  0.75919000  1.0
  C  C36  1  0.66330000  0.88006000  0.09506000  1.0
  C  C37  1  0.33661000  0.12004000  0.90499000  1.0
  C  C38  1  0.75763000  0.71571000  0.06079000  1.0
  C  C39  1  0.24213000  0.28439000  0.93925000  1.0
  C  C40  1  0.76338000  0.61567000  0.17329000  1.0
  C  C41  1  0.23645000  0.38440000  0.82673000  1.0
  N  N42  1  0.74041000  0.37464000  0.64498000  1.0
  N  N43  1  0.25963000  0.62516000  0.35495000  1.0
  N  N44  1  0.67963000  0.67130000  0.31393000  1.0
  N  N45  1  0.32035000  0.32873000  0.68609000  1.0
  N  N46  1  0.39089000  0.63134000  0.59232000  1.0
  N  N47  1  0.60901000  0.36901000  0.40781000  1.0
  N  N48  1  0.30017000  0.71279000  0.70585000  1.0
  N  N49  1  0.69981000  0.28765000  0.29425000  1.0
  N  N50  1  0.20929000  0.79361000  0.81533000  1.0
  N  N51  1  0.79078000  0.20690000  0.18471000  1.0
  N  N52  1  0.74375000  0.68664000  0.57418000  1.0
  N  N53  1  0.25656000  0.31363000  0.42543000  1.0
  N  N54  1  0.87692000  0.64814000  0.61347000  1.0
  N  N55  1  0.12303000  0.35192000  0.38659000  1.0
  N  N56  1  0.99316000  0.38731000  0.34422000  1.0
  N  N57  1  0.00649000  0.61242000  0.65618000  1.0
