# generated using pymatgen
data_ZnH6C10(N4O)2
_symmetry_space_group_name_H-M   'P 1'
_cell_length_a   7.55291000
_cell_length_b   7.55293000
_cell_length_c   12.18190000
_cell_angle_alpha   86.65230000
_cell_angle_beta   86.65240000
_cell_angle_gamma   61.78470000
_symmetry_Int_Tables_number   1
_chemical_formula_structural   ZnH6C10(N4O)2
_chemical_formula_sum   'Zn2 H12 C20 N16 O4'
_cell_volume   610.94234099
_cell_formula_units_Z   2
loop_
 _symmetry_equiv_pos_site_id
 _symmetry_equiv_pos_as_xyz
  1  'x, y, z'
loop_
 _atom_site_type_symbol
 _atom_site_label
 _atom_site_symmetry_multiplicity
 _atom_site_fract_x
 _atom_site_fract_y
 _atom_site_fract_z
 _atom_site_occupancy
  Zn  Zn0  1  0.09143000  0.90856000  0.75000000  1.0
  Zn  Zn1  1  0.90856000  0.09144000  0.25000000  1.0
  H  H2  1  0.39679000  0.53673000  0.69491000  1.0
  H  H3  1  0.46327000  0.60321000  0.80509000  1.0
  H  H4  1  0.60321000  0.46327000  0.30509000  1.0
  H  H5  1  0.53673000  0.39679000  0.19491000  1.0
  H  H6  1  0.81729000  0.30593000  0.72446000  1.0
  H  H7  1  0.69406000  0.18271000  0.77554000  1.0
  H  H8  1  0.18271000  0.69407000  0.27555000  1.0
  H  H9  1  0.30594000  0.81729000  0.22446000  1.0
  H  H10  1  0.46321000  0.00039000  0.68560000  1.0
  H  H11  1  0.99961000  0.53679000  0.81440000  1.0
  H  H12  1  0.53679000  0.99961000  0.31440000  1.0
  H  H13  1  0.00039000  0.46322000  0.18560000  1.0
  C  C14  1  0.21951000  0.14497000  0.91417000  1.0
  C  C15  1  0.85503000  0.78048000  0.58583000  1.0
  C  C16  1  0.78050000  0.85503000  0.08583000  1.0
  C  C17  1  0.14495000  0.21952000  0.41417000  1.0
  C  C18  1  0.36567000  0.21133000  0.91625000  1.0
  C  C19  1  0.78866000  0.63432000  0.58374000  1.0
  C  C20  1  0.63434000  0.78867000  0.08374000  1.0
  C  C21  1  0.21133000  0.36568000  0.41626000  1.0
  C  C22  1  0.40409000  0.06309000  0.76553000  1.0
  C  C23  1  0.93691000  0.59590000  0.73446000  1.0
  C  C24  1  0.59591000  0.93691000  0.23447000  1.0
  C  C25  1  0.06309000  0.40410000  0.26553000  1.0
  C  C26  1  0.08377000  0.16066000  0.00142000  1.0
  C  C27  1  0.83934000  0.91622000  0.49858000  1.0
  C  C28  1  0.91624000  0.83934000  0.99858000  1.0
  C  C29  1  0.16064000  0.08378000  0.50142000  1.0
  C  C30  1  0.39071000  0.31250000  0.00266000  1.0
  C  C31  1  0.68749000  0.60928000  0.49734000  1.0
  C  C32  1  0.60931000  0.68751000  0.99735000  1.0
  C  C33  1  0.31249000  0.39071000  0.50266000  1.0
  N  N34  1  0.24639000  0.05114000  0.81677000  1.0
  N  N35  1  0.94886000  0.75361000  0.68322000  1.0
  N  N36  1  0.75361000  0.94886000  0.18323000  1.0
  N  N37  1  0.05113000  0.24640000  0.31677000  1.0
  N  N38  1  0.48154000  0.15756000  0.82142000  1.0
  N  N39  1  0.84244000  0.51845000  0.67858000  1.0
  N  N40  1  0.51846000  0.84244000  0.17858000  1.0
  N  N41  1  0.15756000  0.48155000  0.32142000  1.0
  N  N42  1  0.98262000  0.17625000  0.08028000  1.0
  N  N43  1  0.82374000  0.01739000  0.41971000  1.0
  N  N44  1  0.01740000  0.82374000  0.91972000  1.0
  N  N45  1  0.17625000  0.98261000  0.58028000  1.0
  N  N46  1  0.40284000  0.39496000  0.07767000  1.0
  N  N47  1  0.60503000  0.59715000  0.42233000  1.0
  N  N48  1  0.59717000  0.60504000  0.92233000  1.0
  N  N49  1  0.39496000  0.40284000  0.57767000  1.0
  O  O50  1  0.35957000  0.64041000  0.75000000  1.0
  O  O51  1  0.64042000  0.35959000  0.25000000  1.0
  O  O52  1  0.82673000  0.17327000  0.75000000  1.0
  O  O53  1  0.17327000  0.82673000  0.25000000  1.0
