# generated using pymatgen
data_ZnH18C25NO5
_symmetry_space_group_name_H-M   'P 1'
_cell_length_a   11.34850000
_cell_length_b   17.11330000
_cell_length_c   18.35610000
_cell_angle_alpha   116.07700000
_cell_angle_beta   90.00000000
_cell_angle_gamma   90.00000000
_symmetry_Int_Tables_number   1
_chemical_formula_structural   ZnH18C25NO5
_chemical_formula_sum   'Zn4 H72 C100 N4 O20'
_cell_volume   3202.04681266
_cell_formula_units_Z   4
loop_
 _symmetry_equiv_pos_site_id
 _symmetry_equiv_pos_as_xyz
  1  'x, y, z'
loop_
 _atom_site_type_symbol
 _atom_site_label
 _atom_site_symmetry_multiplicity
 _atom_site_fract_x
 _atom_site_fract_y
 _atom_site_fract_z
 _atom_site_occupancy
  Zn  Zn0  1  0.58181000  0.96908000  0.43345000  1.0
  Zn  Zn1  1  0.58181000  0.03092000  0.06654000  1.0
  Zn  Zn2  1  0.41819000  0.03092000  0.56654000  1.0
  Zn  Zn3  1  0.41819000  0.96908000  0.93345000  1.0
  H  H4  1  0.41118000  0.72134000  0.28447000  1.0
  H  H5  1  0.41118000  0.27866000  0.21553000  1.0
  H  H6  1  0.58882000  0.27866000  0.71553000  1.0
  H  H7  1  0.58882000  0.72134000  0.78447000  1.0
  H  H8  1  0.30491000  0.57828000  0.22460000  1.0
  H  H9  1  0.30491000  0.42172000  0.27540000  1.0
  H  H10  1  0.69509000  0.42172000  0.77540000  1.0
  H  H11  1  0.69509000  0.57828000  0.72460000  1.0
  H  H12  1  0.15504000  0.54697000  0.30690000  1.0
  H  H13  1  0.15504000  0.45303000  0.19310000  1.0
  H  H14  1  0.84496000  0.45303000  0.69310000  1.0
  H  H15  1  0.84496000  0.54697000  0.80690000  1.0
  H  H16  1  0.20730000  0.80214000  0.50202000  1.0
  H  H17  1  0.20729000  0.19786000  0.99798000  1.0
  H  H18  1  0.79271000  0.19786000  0.49798000  1.0
  H  H19  1  0.79270000  0.80214000  0.00202000  1.0
  H  H20  1  0.84312000  0.73611000  0.70087000  1.0
  H  H21  1  0.84312000  0.26389000  0.79913000  1.0
  H  H22  1  0.15688000  0.26389000  0.29913000  1.0
  H  H23  1  0.15688000  0.73611000  0.20087000  1.0
  H  H24  1  0.69935000  0.85152000  0.78153000  1.0
  H  H25  1  0.69935000  0.14848000  0.71847000  1.0
  H  H26  1  0.30065000  0.14848000  0.21847000  1.0
  H  H27  1  0.30065000  0.85152000  0.28153000  1.0
  H  H28  1  0.59574000  0.93415000  0.71839000  1.0
  H  H29  1  0.59574000  0.06585000  0.78161000  1.0
  H  H30  1  0.40426000  0.06585000  0.28161000  1.0
  H  H31  1  0.40426000  0.93415000  0.21839000  1.0
  H  H32  1  0.78711000  0.79452000  0.49706000  1.0
  H  H33  1  0.78711000  0.20548000  0.00294000  1.0
  H  H34  1  0.21289000  0.20548000  0.50294000  1.0
  H  H35  1  0.21289000  0.79452000  0.99706000  1.0
  H  H36  1  0.73189000  0.61428000  0.59289000  1.0
  H  H37  1  0.73189000  0.38572000  0.90711000  1.0
  H  H38  1  0.26811000  0.38572000  0.40711000  1.0
  H  H39  1  0.26811000  0.61428000  0.09289000  1.0
  H  H40  1  0.99852000  0.77091000  0.50254000  1.0
  H  H41  1  0.99852000  0.22909000  0.99746000  1.0
  H  H42  1  0.00148000  0.22909000  0.49746000  1.0
  H  H43  1  0.00148000  0.77091000  0.00254000  1.0
  H  H44  1  0.26911000  0.53068000  0.41131000  1.0
  H  H45  1  0.26911000  0.46932000  0.08869000  1.0
  H  H46  1  0.73089000  0.46932000  0.58869000  1.0
  H  H47  1  0.73089000  0.53068000  0.91131000  1.0
  H  H48  1  0.85061000  0.81979000  0.14525000  1.0
  H  H49  1  0.85061000  0.18021000  0.35475000  1.0
  H  H50  1  0.14939000  0.18021000  0.85475000  1.0
  H  H51  1  0.14940000  0.81979000  0.64525000  1.0
  H  H52  1  0.82998000  0.91516000  0.23912000  1.0
  H  H53  1  0.82998000  0.08484000  0.26088000  1.0
  H  H54  1  0.17001000  0.08484000  0.76088000  1.0
  H  H55  1  0.17002000  0.91516000  0.73912000  1.0
  H  H56  1  0.77717000  0.91304000  0.14603000  1.0
  H  H57  1  0.77717000  0.08696000  0.35397000  1.0
  H  H58  1  0.22283000  0.08696000  0.85397000  1.0
  H  H59  1  0.22283000  0.91304000  0.64602000  1.0
  H  H60  1  0.60420000  0.80538000  0.07748000  1.0
  H  H61  1  0.60420000  0.19462000  0.42252000  1.0
  H  H62  1  0.39579000  0.19462000  0.92252000  1.0
  H  H63  1  0.39580000  0.80538000  0.57748000  1.0
  H  H64  1  0.53140000  0.76305000  0.13859000  1.0
  H  H65  1  0.53140000  0.23695000  0.36141000  1.0
  H  H66  1  0.46860000  0.23695000  0.86141000  1.0
  H  H67  1  0.46860000  0.76305000  0.63859000  1.0
  H  H68  1  0.66985000  0.71786000  0.09163000  1.0
  H  H69  1  0.66985000  0.28214000  0.40838000  1.0
  H  H70  1  0.33015000  0.28214000  0.90838000  1.0
  H  H71  1  0.33015000  0.71787000  0.59162000  1.0
  H  H72  1  0.54543000  0.83941000  0.26763000  1.0
  H  H73  1  0.54543000  0.16059000  0.23237000  1.0
  H  H74  1  0.45457000  0.16059000  0.73237000  1.0
  H  H75  1  0.45457000  0.83941000  0.76763000  1.0
  C  C76  1  0.37615000  0.85610000  0.43275000  1.0
  C  C77  1  0.37615000  0.14390000  0.06725000  1.0
  C  C78  1  0.62385000  0.14390000  0.56725000  1.0
  C  C79  1  0.62385000  0.85610000  0.93275000  1.0
  C  C80  1  0.31353000  0.77011000  0.39630000  1.0
  C  C81  1  0.31353000  0.22989000  0.10370000  1.0
  C  C82  1  0.68647000  0.22989000  0.60370000  1.0
  C  C83  1  0.68647000  0.77011000  0.89630000  1.0
  C  C84  1  0.34316000  0.70688000  0.31855000  1.0
  C  C85  1  0.34316000  0.29313000  0.18146000  1.0
  C  C86  1  0.65684000  0.29312000  0.68146000  1.0
  C  C87  1  0.65684000  0.70688000  0.81855000  1.0
  C  C88  1  0.28503000  0.62701000  0.28590000  1.0
  C  C89  1  0.28503000  0.37299000  0.21410000  1.0
  C  C90  1  0.71497000  0.37299000  0.71410000  1.0
  C  C91  1  0.71497000  0.62701000  0.78590000  1.0
  C  C92  1  0.20121000  0.60908000  0.33190000  1.0
  C  C93  1  0.20120000  0.39092000  0.16810000  1.0
  C  C94  1  0.79879000  0.39092000  0.66810000  1.0
  C  C95  1  0.79880000  0.60908000  0.83190000  1.0
  C  C96  1  0.17357000  0.67038000  0.41126000  1.0
  C  C97  1  0.17357000  0.32963000  0.08874000  1.0
  C  C98  1  0.82643000  0.32963000  0.58874000  1.0
  C  C99  1  0.82643000  0.67037000  0.91126000  1.0
  C  C100  1  0.22812000  0.75196000  0.44162000  1.0
  C  C101  1  0.22812000  0.24804000  0.05838000  1.0
  C  C102  1  0.77188000  0.24804000  0.55838000  1.0
  C  C103  1  0.77188000  0.75196000  0.94162000  1.0
  C  C104  1  0.82421000  0.75550000  0.59254000  1.0
  C  C105  1  0.82421000  0.24450000  0.90746000  1.0
  C  C106  1  0.17579000  0.24450000  0.40746000  1.0
  C  C107  1  0.17579000  0.75550000  0.09254000  1.0
  C  C108  1  0.79860000  0.77306000  0.67336000  1.0
  C  C109  1  0.79861000  0.22694000  0.82664000  1.0
  C  C110  1  0.20139000  0.22694000  0.32664000  1.0
  C  C111  1  0.20140000  0.77306000  0.17336000  1.0
  C  C112  1  0.71813000  0.83782000  0.71885000  1.0
  C  C113  1  0.71813000  0.16218000  0.78115000  1.0
  C  C114  1  0.28187000  0.16218000  0.28115000  1.0
  C  C115  1  0.28187000  0.83782000  0.21885000  1.0
  C  C116  1  0.66092000  0.88517000  0.68412000  1.0
  C  C117  1  0.66093000  0.11483000  0.81588000  1.0
  C  C118  1  0.33907000  0.11483000  0.31588000  1.0
  C  C119  1  0.33908000  0.88517000  0.18412000  1.0
  C  C120  1  0.68695000  0.87006000  0.60440000  1.0
  C  C121  1  0.68695000  0.12994000  0.89560000  1.0
  C  C122  1  0.31305000  0.12994000  0.39560000  1.0
  C  C123  1  0.31305000  0.87006000  0.10440000  1.0
  C  C124  1  0.76898000  0.80593000  0.55929000  1.0
  C  C125  1  0.76898000  0.19407000  0.94071000  1.0
  C  C126  1  0.23102000  0.19407000  0.44071000  1.0
  C  C127  1  0.23102000  0.80593000  0.05929000  1.0
  C  C128  1  0.62405000  0.92123000  0.56749000  1.0
  C  C129  1  0.62405000  0.07877000  0.93251000  1.0
  C  C130  1  0.37595000  0.07877000  0.43251000  1.0
  C  C131  1  0.37595000  0.92123000  0.06749000  1.0
  C  C132  1  0.80838000  0.57202000  0.56962000  1.0
  C  C133  1  0.80838000  0.42798000  0.93038000  1.0
  C  C134  1  0.19162000  0.42798000  0.43038000  1.0
  C  C135  1  0.19162000  0.57202000  0.06962000  1.0
  C  C136  1  0.90647000  0.60234000  0.54028000  1.0
  C  C137  1  0.90646000  0.39766000  0.95972000  1.0
  C  C138  1  0.09354000  0.39766000  0.45972000  1.0
  C  C139  1  0.09354000  0.60234000  0.04028000  1.0
  C  C140  1  0.91088000  0.68746000  0.54493000  1.0
  C  C141  1  0.91088000  0.31254000  0.95507000  1.0
  C  C142  1  0.08912000  0.31254000  0.45507000  1.0
  C  C143  1  0.08912000  0.68746000  0.04493000  1.0
  C  C144  1  0.99947000  0.70715000  0.50267000  1.0
  C  C145  1  0.99947000  0.29285000  0.99733000  1.0
  C  C146  1  0.00053000  0.29285000  0.49733000  1.0
  C  C147  1  0.00053000  0.70715000  0.00267000  1.0
  C  C148  1  0.08818000  0.64811000  0.45985000  1.0
  C  C149  1  0.08818000  0.35189000  0.04015000  1.0
  C  C150  1  0.91182000  0.35189000  0.54015000  1.0
  C  C151  1  0.91182000  0.64811000  0.95985000  1.0
  C  C152  1  0.09375000  0.56665000  0.46301000  1.0
  C  C153  1  0.09375000  0.43335000  0.03699000  1.0
  C  C154  1  0.90625000  0.43334000  0.53699000  1.0
  C  C155  1  0.90625000  0.56665000  0.96301000  1.0
  C  C156  1  0.00001000  0.54229000  0.50088000  1.0
  C  C157  1  0.00001000  0.45771000  0.99912000  1.0
  C  C158  1  0.99999000  0.45771000  0.49912000  1.0
  C  C159  1  0.00000000  0.54229000  0.00088000  1.0
  C  C160  1  0.19190000  0.50873000  0.43240000  1.0
  C  C161  1  0.19190000  0.49126000  0.06760000  1.0
  C  C162  1  0.80810000  0.49126000  0.56760000  1.0
  C  C163  1  0.80810000  0.50874000  0.93240000  1.0
  C  C164  1  0.79113000  0.87434000  0.17986000  1.0
  C  C165  1  0.79113000  0.12566000  0.32014000  1.0
  C  C166  1  0.20887000  0.12566000  0.82014000  1.0
  C  C167  1  0.20887000  0.87434000  0.67986000  1.0
  C  C168  1  0.61761000  0.77792000  0.12082000  1.0
  C  C169  1  0.61761000  0.22208000  0.37918000  1.0
  C  C170  1  0.38239000  0.22208000  0.87918000  1.0
  C  C171  1  0.38239000  0.77792000  0.62082000  1.0
  C  C172  1  0.63135000  0.86849000  0.26581000  1.0
  C  C173  1  0.63135000  0.13151000  0.23419000  1.0
  C  C174  1  0.36865000  0.13151000  0.73419000  1.0
  C  C175  1  0.36865000  0.86849000  0.76581000  1.0
  N  N176  1  0.67872000  0.84088000  0.19226000  1.0
  N  N177  1  0.67872000  0.15912000  0.30774000  1.0
  N  N178  1  0.32128000  0.15912000  0.80774000  1.0
  N  N179  1  0.32128000  0.84088000  0.69226000  1.0
  O  O180  1  0.46117000  0.86575000  0.39226000  1.0
  O  O181  1  0.46117000  0.13425000  0.10774000  1.0
  O  O182  1  0.53883000  0.13425000  0.60774000  1.0
  O  O183  1  0.53883000  0.86575000  0.89226000  1.0
  O  O184  1  0.33999000  0.91210000  0.50178000  1.0
  O  O185  1  0.33998000  0.08790000  0.99822000  1.0
  O  O186  1  0.66001000  0.08790000  0.49822000  1.0
  O  O187  1  0.66001000  0.91210000  0.00178000  1.0
  O  O188  1  0.66092000  0.91372000  0.49912000  1.0
  O  O189  1  0.66093000  0.08628000  0.00088000  1.0
  O  O190  1  0.33908000  0.08628000  0.50088000  1.0
  O  O191  1  0.33908000  0.91372000  0.99912000  1.0
  O  O192  1  0.53741000  0.96754000  0.60756000  1.0
  O  O193  1  0.53741000  0.03246000  0.89244000  1.0
  O  O194  1  0.46259000  0.03246000  0.39244000  1.0
  O  O195  1  0.46259000  0.96754000  0.10756000  1.0
  O  O196  1  0.67919000  0.92351000  0.32992000  1.0
  O  O197  1  0.67918000  0.07649000  0.17008000  1.0
  O  O198  1  0.32082000  0.07649000  0.67008000  1.0
  O  O199  1  0.32081000  0.92351000  0.82992000  1.0
