# generated using pymatgen
data_CdH7C12(NO2)3
_symmetry_space_group_name_H-M   'P 1'
_cell_length_a   7.51633000
_cell_length_b   13.83530000
_cell_length_c   21.21510000
_cell_angle_alpha   89.99360000
_cell_angle_beta   87.55150000
_cell_angle_gamma   89.54950000
_symmetry_Int_Tables_number   1
_chemical_formula_structural   CdH7C12(NO2)3
_chemical_formula_sum   'Cd4 H28 C48 N12 O24'
_cell_volume   2204.09031630
_cell_formula_units_Z   4
loop_
 _symmetry_equiv_pos_site_id
 _symmetry_equiv_pos_as_xyz
  1  'x, y, z'
loop_
 _atom_site_type_symbol
 _atom_site_label
 _atom_site_symmetry_multiplicity
 _atom_site_fract_x
 _atom_site_fract_y
 _atom_site_fract_z
 _atom_site_occupancy
  Cd  Cd0  1  0.52618000  0.10630000  0.93584000  1.0
  Cd  Cd1  1  0.51379000  0.89370000  0.06361000  1.0
  Cd  Cd2  1  0.53937000  0.60499000  0.56473000  1.0
  Cd  Cd3  1  0.48955000  0.39451000  0.43533000  1.0
  H  H4  1  0.19770000  0.22675000  0.98218000  1.0
  H  H5  1  0.19228000  0.96298000  0.88913000  1.0
  H  H6  1  0.18813000  0.76816000  0.02002000  1.0
  H  H7  1  0.17871000  0.03550000  0.10873000  1.0
  H  H8  1  0.88104000  0.72436000  0.51284000  1.0
  H  H9  1  0.85863000  0.46690000  0.61265000  1.0
  H  H10  1  0.81918000  0.26992000  0.48379000  1.0
  H  H11  1  0.82013000  0.52696000  0.38256000  1.0
  H  H12  1  0.84730000  0.76834000  0.02264000  1.0
  H  H13  1  0.83973000  0.03984000  0.10563000  1.0
  H  H14  1  0.85699000  0.23336000  0.98319000  1.0
  H  H15  1  0.85326000  0.97122000  0.88830000  1.0
  H  H16  1  0.15925000  0.27462000  0.48504000  1.0
  H  H17  1  0.15777000  0.53541000  0.38889000  1.0
  H  H18  1  0.22007000  0.72437000  0.51882000  1.0
  H  H19  1  0.19723000  0.46425000  0.61664000  1.0
  H  H20  1  0.39727000  0.17278000  0.60342000  1.0
  H  H21  1  0.57080000  0.44365000  0.67970000  1.0
  H  H22  1  0.56339000  0.37060000  0.78712000  1.0
  H  H23  1  0.64415000  0.82484000  0.39636000  1.0
  H  H24  1  0.44419000  0.55955000  0.32067000  1.0
  H  H25  1  0.45078000  0.63294000  0.21363000  1.0
  H  H26  1  0.40340000  0.66898000  0.89922000  1.0
  H  H27  1  0.56469000  0.94378000  0.82010000  1.0
  H  H28  1  0.55643000  0.87340000  0.71224000  1.0
  H  H29  1  0.38947000  0.33094000  0.10220000  1.0
  H  H30  1  0.56915000  0.05906000  0.17756000  1.0
  H  H31  1  0.55771000  0.13058000  0.28519000  1.0
  C  C32  1  0.11866000  0.16929000  0.96236000  1.0
  C  C33  1  0.11670000  0.02294000  0.91067000  1.0
  C  C34  1  0.10837000  0.82797000  0.03969000  1.0
  C  C35  1  0.10392000  0.97708000  0.08804000  1.0
  C  C36  1  0.95391000  0.66698000  0.53614000  1.0
  C  C37  1  0.94113000  0.52352000  0.59117000  1.0
  C  C38  1  0.89597000  0.32876000  0.46221000  1.0
  C  C39  1  0.89593000  0.47187000  0.40689000  1.0
  C  C40  1  0.92302000  0.82898000  0.04010000  1.0
  C  C41  1  0.91855000  0.97902000  0.08699000  1.0
  C  C42  1  0.93338000  0.17311000  0.96236000  1.0
  C  C43  1  0.93134000  0.02735000  0.90997000  1.0
  C  C44  1  0.08098000  0.33144000  0.46343000  1.0
  C  C45  1  0.08083000  0.47596000  0.40955000  1.0
  C  C46  1  0.13869000  0.66600000  0.53869000  1.0
  C  C47  1  0.12641000  0.52218000  0.59313000  1.0
  C  C48  1  0.47756000  0.23184000  0.75637000  1.0
  C  C49  1  0.42624000  0.17863000  0.70396000  1.0
  C  C50  1  0.43416000  0.21653000  0.64335000  1.0
  C  C51  1  0.48984000  0.31205000  0.63411000  1.0
  C  C52  1  0.53411000  0.36813000  0.68616000  1.0
  C  C53  1  0.52881000  0.32783000  0.74640000  1.0
  C  C54  1  0.49445000  0.18870000  0.82080000  1.0
  C  C55  1  0.50228000  0.35189000  0.56852000  1.0
  C  C56  1  0.55441000  0.76888000  0.24364000  1.0
  C  C57  1  0.61121000  0.82043000  0.29601000  1.0
  C  C58  1  0.60237000  0.78226000  0.35658000  1.0
  C  C59  1  0.53982000  0.68806000  0.36590000  1.0
  C  C60  1  0.48763000  0.63395000  0.31400000  1.0
  C  C61  1  0.49396000  0.67446000  0.25380000  1.0
  C  C62  1  0.54137000  0.81213000  0.17900000  1.0
  C  C63  1  0.52843000  0.64726000  0.43128000  1.0
  C  C64  1  0.47485000  0.73327000  0.74429000  1.0
  C  C65  1  0.42609000  0.67834000  0.79782000  1.0
  C  C66  1  0.43643000  0.71439000  0.85855000  1.0
  C  C67  1  0.48992000  0.81017000  0.86702000  1.0
  C  C68  1  0.52920000  0.86823000  0.81413000  1.0
  C  C69  1  0.52325000  0.82945000  0.75361000  1.0
  C  C70  1  0.49536000  0.69058000  0.67929000  1.0
  C  C71  1  0.50683000  0.84733000  0.93268000  1.0
  C  C72  1  0.45896000  0.26843000  0.25552000  1.0
  C  C73  1  0.40744000  0.32218000  0.20312000  1.0
  C  C74  1  0.42429000  0.28625000  0.14212000  1.0
  C  C75  1  0.48493000  0.19121000  0.13244000  1.0
  C  C76  1  0.52816000  0.13420000  0.18434000  1.0
  C  C77  1  0.51814000  0.17342000  0.24497000  1.0
  C  C78  1  0.46869000  0.31116000  0.32035000  1.0
  C  C79  1  0.50420000  0.15404000  0.06633000  1.0
  N  N80  1  0.20875000  0.09320000  0.93760000  1.0
  N  N81  1  0.19762000  0.90253000  0.06319000  1.0
  N  N82  1  0.85657000  0.59517000  0.56196000  1.0
  N  N83  1  0.80463000  0.39924000  0.43424000  1.0
  N  N84  1  0.82969000  0.90543000  0.06246000  1.0
  N  N85  1  0.84097000  0.10166000  0.93672000  1.0
  N  N86  1  0.17168000  0.40612000  0.43815000  1.0
  N  N87  1  0.22384000  0.59285000  0.56628000  1.0
  N  N88  1  0.35298000  0.08069000  0.71177000  1.0
  N  N89  1  0.69014000  0.91693000  0.28816000  1.0
  N  N90  1  0.35430000  0.58022000  0.79130000  1.0
  N  N91  1  0.32527000  0.41861000  0.21113000  1.0
  O  O92  1  0.56174000  0.10370000  0.82413000  1.0
  O  O93  1  0.44909000  0.23976000  0.86846000  1.0
  O  O94  1  0.24412000  0.06729000  0.75645000  1.0
  O  O95  1  0.65130000  0.97823000  0.32926000  1.0
  O  O96  1  0.40250000  0.51810000  0.82921000  1.0
  O  O97  1  0.36852000  0.48140000  0.17177000  1.0
  O  O98  1  0.47705000  0.89761000  0.17506000  1.0
  O  O99  1  0.58721000  0.76020000  0.13172000  1.0
  O  O100  1  0.79394000  0.92996000  0.24196000  1.0
  O  O101  1  0.40033000  0.01920000  0.67188000  1.0
  O  O102  1  0.52665000  0.39757000  0.32430000  1.0
  O  O103  1  0.42674000  0.25890000  0.36764000  1.0
  O  O104  1  0.21388000  0.42975000  0.25542000  1.0
  O  O105  1  0.56429000  0.60575000  0.67484000  1.0
  O  O106  1  0.45263000  0.74099000  0.63239000  1.0
  O  O107  1  0.24565000  0.56732000  0.74977000  1.0
  O  O108  1  0.56385000  0.43658000  0.55897000  1.0
  O  O109  1  0.45420000  0.29793000  0.52357000  1.0
  O  O110  1  0.46252000  0.56350000  0.44057000  1.0
  O  O111  1  0.58203000  0.69963000  0.47619000  1.0
  O  O112  1  0.54747000  0.93571000  0.94193000  1.0
  O  O113  1  0.48282000  0.78837000  0.97840000  1.0
  O  O114  1  0.53267000  0.06392000  0.05617000  1.0
  O  O115  1  0.49406000  0.21430000  0.02117000  1.0
