# generated using pymatgen
data_CdH16C17(NO)4
_symmetry_space_group_name_H-M   'P 1'
_cell_length_a   8.75878000
_cell_length_b   10.13110000
_cell_length_c   12.46240000
_cell_angle_alpha   90.70350000
_cell_angle_beta   110.53400000
_cell_angle_gamma   113.56600000
_symmetry_Int_Tables_number   1
_chemical_formula_structural   CdH16C17(NO)4
_chemical_formula_sum   'Cd2 H32 C34 N8 O8'
_cell_volume   934.12928903
_cell_formula_units_Z   2
loop_
 _symmetry_equiv_pos_site_id
 _symmetry_equiv_pos_as_xyz
  1  'x, y, z'
loop_
 _atom_site_type_symbol
 _atom_site_label
 _atom_site_symmetry_multiplicity
 _atom_site_fract_x
 _atom_site_fract_y
 _atom_site_fract_z
 _atom_site_occupancy
  Cd  Cd0  1  0.84787000  0.07884000  0.89581000  1.0
  Cd  Cd1  1  0.15213000  0.92117000  0.10419000  1.0
  H  H2  1  0.95150000  0.06590000  0.67897000  1.0
  H  H3  1  0.04849000  0.93410000  0.32103000  1.0
  H  H4  1  0.94480000  0.88579000  0.53366000  1.0
  H  H5  1  0.05521000  0.11421000  0.46634000  1.0
  H  H6  1  0.61360000  0.53958000  0.66371000  1.0
  H  H7  1  0.38640000  0.46043000  0.33629000  1.0
  H  H8  1  0.63528000  0.73246000  0.80306000  1.0
  H  H9  1  0.36473000  0.26754000  0.19694000  1.0
  H  H10  1  0.70255000  0.47158000  0.51263000  1.0
  H  H11  1  0.29746000  0.52843000  0.48737000  1.0
  H  H12  1  0.03166000  0.65375000  0.32266000  1.0
  H  H13  1  0.96834000  0.34624000  0.67735000  1.0
  H  H14  1  0.69743000  0.07406000  0.09615000  1.0
  H  H15  1  0.30257000  0.92594000  0.90385000  1.0
  H  H16  1  0.70708000  0.24135000  0.24672000  1.0
  H  H17  1  0.29291000  0.75865000  0.75329000  1.0
  H  H18  1  0.13233000  0.59238000  0.18180000  1.0
  H  H19  1  0.86766000  0.40762000  0.81820000  1.0
  H  H20  1  0.10575000  0.40623000  0.03165000  1.0
  H  H21  1  0.89425000  0.59377000  0.96835000  1.0
  H  H22  1  0.47814000  0.20089000  0.98799000  1.0
  H  H23  1  0.52187000  0.79911000  0.01201000  1.0
  H  H24  1  0.49023000  0.37487000  0.02285000  1.0
  H  H25  1  0.50977000  0.62514000  0.97715000  1.0
  H  H26  1  0.60027000  0.39900000  0.86858000  1.0
  H  H27  1  0.39973000  0.60100000  0.13141000  1.0
  H  H28  1  0.37720000  0.38343000  0.80449000  1.0
  H  H29  1  0.62279000  0.61657000  0.19551000  1.0
  H  H30  1  0.27456000  0.10490000  0.74339000  1.0
  H  H31  1  0.72543000  0.89510000  0.25661000  1.0
  H  H32  1  0.39382000  0.22700000  0.66862000  1.0
  H  H33  1  0.60617000  0.77299000  0.33138000  1.0
  C  C34  1  0.87726000  0.94793000  0.67118000  1.0
  C  C35  1  0.12274000  0.05207000  0.32881000  1.0
  C  C36  1  0.87277000  0.84887000  0.59109000  1.0
  C  C37  1  0.12723000  0.15114000  0.40890000  1.0
  C  C38  1  0.77744000  0.69804000  0.58657000  1.0
  C  C39  1  0.22256000  0.30196000  0.41343000  1.0
  C  C40  1  0.68848000  0.65504000  0.66316000  1.0
  C  C41  1  0.31153000  0.34496000  0.33684000  1.0
  C  C42  1  0.70009000  0.76167000  0.74096000  1.0
  C  C43  1  0.29992000  0.23834000  0.25905000  1.0
  C  C44  1  0.76913000  0.58734000  0.50612000  1.0
  C  C45  1  0.23087000  0.41266000  0.49388000  1.0
  C  C46  1  0.92739000  0.54150000  0.30655000  1.0
  C  C47  1  0.07261000  0.45850000  0.69345000  1.0
  C  C48  1  0.79387000  0.18890000  0.11771000  1.0
  C  C49  1  0.20613000  0.81110000  0.88229000  1.0
  C  C50  1  0.79834000  0.28345000  0.20165000  1.0
  C  C51  1  0.20166000  0.71654000  0.79835000  1.0
  C  C52  1  0.91868000  0.43224000  0.22452000  1.0
  C  C53  1  0.08131000  0.56775000  0.77548000  1.0
  C  C54  1  0.03421000  0.47796000  0.16418000  1.0
  C  C55  1  0.96579000  0.52203000  0.83582000  1.0
  C  C56  1  0.02095000  0.37562000  0.08208000  1.0
  C  C57  1  0.97905000  0.62438000  0.91792000  1.0
  C  C58  1  0.54954000  0.13537000  0.78922000  1.0
  C  C59  1  0.45046000  0.86463000  0.21078000  1.0
  C  C60  1  0.22302000  0.21193000  0.93312000  1.0
  C  C61  1  0.77699000  0.78807000  0.06689000  1.0
  C  C62  1  0.42235000  0.27810000  0.95323000  1.0
  C  C63  1  0.57766000  0.72191000  0.04677000  1.0
  C  C64  1  0.45702000  0.32359000  0.84427000  1.0
  C  C65  1  0.54298000  0.67640000  0.15573000  1.0
  C  C66  1  0.40587000  0.19244000  0.75315000  1.0
  C  C67  1  0.59413000  0.80755000  0.24685000  1.0
  N  N68  1  0.79414000  0.90523000  0.74599000  1.0
  N  N69  1  0.20585000  0.09477000  0.25401000  1.0
  N  N70  1  0.83815000  0.62442000  0.42874000  1.0
  N  N71  1  0.16185000  0.37558000  0.57126000  1.0
  N  N72  1  0.81396000  0.50663000  0.35738000  1.0
  N  N73  1  0.18603000  0.49337000  0.64262000  1.0
  N  N74  1  0.90200000  0.23416000  0.05802000  1.0
  N  N75  1  0.09800000  0.76584000  0.94199000  1.0
  O  O76  1  0.11921000  0.25937000  0.86415000  1.0
  O  O77  1  0.88079000  0.74062000  0.13585000  1.0
  O  O78  1  0.53453000  0.03395000  0.85000000  1.0
  O  O79  1  0.46546000  0.96604000  0.15001000  1.0
  O  O80  1  0.16354000  0.11054000  0.98868000  1.0
  O  O81  1  0.83647000  0.88946000  0.01132000  1.0
  O  O82  1  0.68721000  0.19778000  0.76298000  1.0
  O  O83  1  0.31278000  0.80222000  0.23702000  1.0
