# generated using pymatgen
data_H18PbC22S2(NO4)2
_symmetry_space_group_name_H-M   'P 1'
_cell_length_a   7.29741000
_cell_length_b   12.53560000
_cell_length_c   13.24900000
_cell_angle_alpha   96.87670000
_cell_angle_beta   97.12860000
_cell_angle_gamma   95.46670000
_symmetry_Int_Tables_number   1
_chemical_formula_structural   H18PbC22S2(NO4)2
_chemical_formula_sum   'H36 Pb2 C44 S4 N4 O16'
_cell_volume   1186.48061920
_cell_formula_units_Z   2
loop_
 _symmetry_equiv_pos_site_id
 _symmetry_equiv_pos_as_xyz
  1  'x, y, z'
loop_
 _atom_site_type_symbol
 _atom_site_label
 _atom_site_symmetry_multiplicity
 _atom_site_fract_x
 _atom_site_fract_y
 _atom_site_fract_z
 _atom_site_occupancy
  H  H0  1  0.49760000  0.28859000  0.71864000  1.0
  H  H1  1  0.50242000  0.71143000  0.28137000  1.0
  H  H2  1  0.54791000  0.25485000  0.60696000  1.0
  H  H3  1  0.45211000  0.74516000  0.39304000  1.0
  H  H4  1  0.90948000  0.26395000  0.61099000  1.0
  H  H5  1  0.09052000  0.73605000  0.38901000  1.0
  H  H6  1  0.07450000  0.24720000  0.69580000  1.0
  H  H7  1  0.92551000  0.75280000  0.30420000  1.0
  H  H8  1  0.71267000  0.10217000  0.37178000  1.0
  H  H9  1  0.28735000  0.89783000  0.62822000  1.0
  H  H10  1  0.69253000  0.99657000  0.19692000  1.0
  H  H11  1  0.30746000  0.00343000  0.80307000  1.0
  H  H12  1  0.66688000  0.08937000  0.04390000  1.0
  H  H13  1  0.33311000  0.91062000  0.95609000  1.0
  H  H14  1  0.63247000  0.45697000  0.98194000  1.0
  H  H15  1  0.36755000  0.54303000  0.01807000  1.0
  H  H16  1  0.63566000  0.56182000  0.15501000  1.0
  H  H17  1  0.36435000  0.43817000  0.84501000  1.0
  H  H18  1  0.66055000  0.46955000  0.30861000  1.0
  H  H19  1  0.33948000  0.53044000  0.69141000  1.0
  H  H20  1  0.14993000  0.53190000  0.31279000  1.0
  H  H21  1  0.85009000  0.46810000  0.68720000  1.0
  H  H22  1  0.11755000  0.52379000  0.12357000  1.0
  H  H23  1  0.88246000  0.47621000  0.87642000  1.0
  H  H24  1  0.11988000  0.34300000  0.01528000  1.0
  H  H25  1  0.88012000  0.65699000  0.98471000  1.0
  H  H26  1  0.15459000  0.14804000  0.00792000  1.0
  H  H27  1  0.84541000  0.85197000  0.99207000  1.0
  H  H28  1  0.18900000  0.98573000  0.09918000  1.0
  H  H29  1  0.81096000  0.01428000  0.90081000  1.0
  H  H30  1  0.22179000  0.90616000  0.25835000  1.0
  H  H31  1  0.77818000  0.09385000  0.74164000  1.0
  H  H32  1  0.24937000  0.93013000  0.45260000  1.0
  H  H33  1  0.75059000  0.06987000  0.54740000  1.0
  H  H34  1  0.24261000  0.11615000  0.54547000  1.0
  H  H35  1  0.75734000  0.88385000  0.45453000  1.0
  Pb  Pb36  1  0.23546000  0.37510000  0.51406000  1.0
  Pb  Pb37  1  0.76454000  0.62489000  0.48596000  1.0
  C  C38  1  0.69259000  0.25338000  0.31405000  1.0
  C  C39  1  0.30743000  0.74662000  0.68596000  1.0
  C  C40  1  0.70116000  0.14304000  0.30366000  1.0
  C  C41  1  0.29886000  0.85695000  0.69633000  1.0
  C  C42  1  0.69261000  0.08405000  0.20554000  1.0
  C  C43  1  0.30740000  0.91594000  0.79446000  1.0
  C  C44  1  0.67676000  0.13607000  0.11942000  1.0
  C  C45  1  0.32323000  0.86393000  0.88059000  1.0
  C  C46  1  0.66796000  0.24940000  0.12671000  1.0
  C  C47  1  0.33204000  0.75060000  0.87329000  1.0
  C  C48  1  0.65061000  0.30609000  0.03886000  1.0
  C  C49  1  0.34940000  0.69392000  0.96114000  1.0
  C  C50  1  0.64420000  0.41640000  0.05017000  1.0
  C  C51  1  0.35581000  0.58361000  0.94984000  1.0
  C  C52  1  0.64891000  0.47551000  0.14800000  1.0
  C  C53  1  0.35110000  0.52450000  0.85201000  1.0
  C  C54  1  0.66276000  0.42369000  0.23398000  1.0
  C  C55  1  0.33726000  0.57630000  0.76602000  1.0
  C  C56  1  0.67515000  0.31088000  0.22676000  1.0
  C  C57  1  0.32487000  0.68912000  0.77325000  1.0
  C  C58  1  0.15341000  0.45508000  0.26510000  1.0
  C  C59  1  0.84659000  0.54493000  0.73489000  1.0
  C  C60  1  0.13325000  0.44986000  0.15762000  1.0
  C  C61  1  0.86675000  0.55014000  0.84238000  1.0
  C  C62  1  0.13686000  0.35155000  0.09895000  1.0
  C  C63  1  0.86314000  0.64845000  0.90105000  1.0
  C  C64  1  0.15965000  0.25846000  0.14778000  1.0
  C  C65  1  0.84035000  0.74155000  0.85221000  1.0
  C  C66  1  0.16528000  0.15437000  0.09128000  1.0
  C  C67  1  0.83471000  0.84562000  0.90871000  1.0
  C  C68  1  0.18437000  0.06578000  0.14068000  1.0
  C  C69  1  0.81560000  0.93421000  0.85931000  1.0
  C  C70  1  0.19855000  0.07506000  0.25017000  1.0
  C  C71  1  0.80143000  0.92494000  0.74983000  1.0
  C  C72  1  0.21790000  0.98470000  0.30333000  1.0
  C  C73  1  0.78206000  0.01530000  0.69667000  1.0
  C  C74  1  0.23233000  0.99794000  0.40932000  1.0
  C  C75  1  0.76763000  0.00205000  0.59068000  1.0
  C  C76  1  0.22753000  0.10152000  0.46180000  1.0
  C  C77  1  0.77243000  0.89848000  0.53820000  1.0
  C  C78  1  0.19533000  0.17742000  0.30916000  1.0
  C  C79  1  0.80466000  0.82257000  0.69083000  1.0
  C  C80  1  0.17666000  0.27121000  0.25687000  1.0
  C  C81  1  0.82333000  0.72879000  0.74313000  1.0
  S  S82  1  0.71050000  0.32286000  0.44045000  1.0
  S  S83  1  0.28951000  0.67713000  0.55956000  1.0
  S  S84  1  0.63714000  0.23639000  0.91054000  1.0
  S  S85  1  0.36287000  0.76362000  0.08947000  1.0
  N  N86  1  0.17460000  0.36891000  0.31320000  1.0
  N  N87  1  0.82541000  0.63110000  0.68680000  1.0
  N  N88  1  0.20963000  0.18820000  0.41349000  1.0
  N  N89  1  0.79036000  0.81182000  0.58651000  1.0
  O  O90  1  0.55167000  0.38698000  0.44523000  1.0
  O  O91  1  0.44833000  0.61300000  0.55477000  1.0
  O  O92  1  0.71094000  0.23976000  0.51100000  1.0
  O  O93  1  0.28907000  0.76024000  0.48900000  1.0
  O  O94  1  0.88416000  0.39736000  0.45934000  1.0
  O  O95  1  0.11585000  0.60264000  0.54067000  1.0
  O  O96  1  0.48349000  0.14998000  0.89921000  1.0
  O  O97  1  0.51650000  0.85003000  0.10079000  1.0
  O  O98  1  0.60046000  0.31979000  0.84224000  1.0
  O  O99  1  0.39957000  0.68022000  0.15776000  1.0
  O  O100  1  0.82067000  0.19860000  0.90464000  1.0
  O  O101  1  0.17934000  0.80140000  0.09536000  1.0
  O  O102  1  0.44335000  0.26978000  0.64462000  1.0
  O  O103  1  0.55667000  0.73023000  0.35539000  1.0
  O  O104  1  0.02939000  0.29712000  0.65015000  1.0
  O  O105  1  0.97062000  0.70288000  0.34985000  1.0
