# generated using pymatgen
data_NiH8C4(NO2)4
_symmetry_space_group_name_H-M   'P 1'
_cell_length_a   7.46967000
_cell_length_b   8.30822000
_cell_length_c   8.32907000
_cell_angle_alpha   87.45560000
_cell_angle_beta   72.88890000
_cell_angle_gamma   73.10980000
_symmetry_Int_Tables_number   1
_chemical_formula_structural   NiH8C4(NO2)4
_chemical_formula_sum   'Ni2 H16 C8 N8 O16'
_cell_volume   472.23148618
_cell_formula_units_Z   2
loop_
 _symmetry_equiv_pos_site_id
 _symmetry_equiv_pos_as_xyz
  1  'x, y, z'
loop_
 _atom_site_type_symbol
 _atom_site_label
 _atom_site_symmetry_multiplicity
 _atom_site_fract_x
 _atom_site_fract_y
 _atom_site_fract_z
 _atom_site_occupancy
  Ni  Ni0  1  0.00000000  1.00000000  0.50000000  1.0
  Ni  Ni1  1  0.50000000  0.50000000  0.00000000  1.0
  H  H2  1  0.97438000  0.81236000  0.82092000  1.0
  H  H3  1  0.52798000  0.17807000  0.18790000  1.0
  H  H4  1  0.02562000  0.18764000  0.17908000  1.0
  H  H5  1  0.47201000  0.82192000  0.81210000  1.0
  H  H6  1  0.75192000  0.88115000  0.11852000  1.0
  H  H7  1  0.24808000  0.11885000  0.88148000  1.0
  H  H8  1  0.74787000  0.30348000  0.69528000  1.0
  H  H9  1  0.25213000  0.69652000  0.30473000  1.0
  H  H10  1  0.01566000  0.30230000  0.40931000  1.0
  H  H11  1  0.48388000  0.59086000  0.69797000  1.0
  H  H12  1  0.98434000  0.69771000  0.59069000  1.0
  H  H13  1  0.51613000  0.40915000  0.30203000  1.0
  H  H14  1  0.19732000  0.22582000  0.48241000  1.0
  H  H15  1  0.30169000  0.51778000  0.77501000  1.0
  H  H16  1  0.80268000  0.77418000  0.51759000  1.0
  H  H17  1  0.69831000  0.48222000  0.22499000  1.0
  C  C18  1  0.87212000  0.93684000  0.86014000  1.0
  C  C19  1  0.62907000  0.13908000  0.06294000  1.0
  C  C20  1  0.12789000  0.06315000  0.13985000  1.0
  C  C21  1  0.37093000  0.86092000  0.93705000  1.0
  C  C22  1  0.75105000  0.97564000  0.02390000  1.0
  C  C23  1  0.24894000  0.02436000  0.97612000  1.0
  C  C24  1  0.74887000  0.20950000  0.78966000  1.0
  C  C25  1  0.25113000  0.79050000  0.21034000  1.0
  N  N26  1  0.45422000  0.81575000  0.49376000  1.0
  N  N27  1  0.04792000  0.50624000  0.18336000  1.0
  N  N28  1  0.54579000  0.18425000  0.50625000  1.0
  N  N29  1  0.95208000  0.49376000  0.81663000  1.0
  N  N30  1  0.86599000  0.05308000  0.74217000  1.0
  N  N31  1  0.63304000  0.25701000  0.94646000  1.0
  N  N32  1  0.13401000  0.94692000  0.25784000  1.0
  N  N33  1  0.36695000  0.74298000  0.05355000  1.0
  O  O34  1  0.27621000  0.82733000  0.57116000  1.0
  O  O35  1  0.22558000  0.42802000  0.17146000  1.0
  O  O36  1  0.72379000  0.17267000  0.42884000  1.0
  O  O37  1  0.77441000  0.57198000  0.82853000  1.0
  O  O38  1  0.58543000  0.71944000  0.55493000  1.0
  O  O39  1  0.91566000  0.44596000  0.28033000  1.0
  O  O40  1  0.41457000  0.28056000  0.44507000  1.0
  O  O41  1  0.08434000  0.55404000  0.71967000  1.0
  O  O42  1  0.50261000  0.89294000  0.36459000  1.0
  O  O43  1  0.00103000  0.63535000  0.10575000  1.0
  O  O44  1  0.49739000  0.10706000  0.63541000  1.0
  O  O45  1  0.99896000  0.36465000  0.89425000  1.0
  O  O46  1  0.06269000  0.22173000  0.49124000  1.0
  O  O47  1  0.43645000  0.50876000  0.77849000  1.0
  O  O48  1  0.93731000  0.77828000  0.50876000  1.0
  O  O49  1  0.56355000  0.49124000  0.22150000  1.0
