# generated using pymatgen
data_MnP3H10C3NO9
_symmetry_space_group_name_H-M   'P 1'
_cell_length_a   8.35996000
_cell_length_b   9.12406000
_cell_length_c   13.44390000
_cell_angle_alpha   97.86200000
_cell_angle_beta   89.99980000
_cell_angle_gamma   89.99980000
_symmetry_Int_Tables_number   1
_chemical_formula_structural   MnP3H10C3NO9
_chemical_formula_sum   'Mn4 P12 H40 C12 N4 O36'
_cell_volume   1015.81847056
_cell_formula_units_Z   4
loop_
 _symmetry_equiv_pos_site_id
 _symmetry_equiv_pos_as_xyz
  1  'x, y, z'
loop_
 _atom_site_type_symbol
 _atom_site_label
 _atom_site_symmetry_multiplicity
 _atom_site_fract_x
 _atom_site_fract_y
 _atom_site_fract_z
 _atom_site_occupancy
  Mn  Mn0  1  0.96197000  0.21916000  0.75565000  1.0
  Mn  Mn1  1  0.46198000  0.28084000  0.74435000  1.0
  Mn  Mn2  1  0.03803000  0.78084000  0.24435000  1.0
  Mn  Mn3  1  0.53803000  0.71916000  0.25565000  1.0
  P  P4  1  0.19709000  0.12474000  0.55557000  1.0
  P  P5  1  0.69710000  0.37526000  0.94443000  1.0
  P  P6  1  0.80291000  0.87526000  0.44443000  1.0
  P  P7  1  0.30290000  0.62474000  0.05557000  1.0
  P  P8  1  0.32231000  0.04417000  0.24230000  1.0
  P  P9  1  0.82231000  0.45584000  0.25771000  1.0
  P  P10  1  0.67769000  0.95584000  0.75770000  1.0
  P  P11  1  0.17769000  0.54416000  0.74229000  1.0
  P  P12  1  0.29278000  0.58475000  0.41578000  1.0
  P  P13  1  0.79278000  0.91525000  0.08422000  1.0
  P  P14  1  0.70722000  0.41525000  0.58422000  1.0
  P  P15  1  0.20721000  0.08475000  0.91578000  1.0
  H  H16  1  0.13542000  0.91832000  0.46153000  1.0
  H  H17  1  0.63542000  0.58168000  0.03847000  1.0
  H  H18  1  0.86458000  0.08168000  0.53847000  1.0
  H  H19  1  0.36458000  0.41832000  0.96153000  1.0
  H  H20  1  0.10664000  0.19271000  0.39591000  1.0
  H  H21  1  0.60665000  0.30729000  0.10409000  1.0
  H  H22  1  0.89335000  0.80729000  0.60409000  1.0
  H  H23  1  0.39336000  0.69271000  0.89591000  1.0
  H  H24  1  0.13218000  0.34881000  0.48818000  1.0
  H  H25  1  0.63218000  0.15120000  0.01182000  1.0
  H  H26  1  0.86782000  0.65119000  0.51182000  1.0
  H  H27  1  0.36782000  0.84880000  0.98818000  1.0
  H  H28  1  0.42966000  0.31155000  0.46750000  1.0
  H  H29  1  0.92966000  0.18845000  0.03250000  1.0
  H  H30  1  0.57034000  0.68845000  0.53250000  1.0
  H  H31  1  0.07034000  0.81155000  0.96750000  1.0
  H  H32  1  0.24364000  0.14198000  0.10658000  1.0
  H  H33  1  0.74364000  0.35802000  0.39342000  1.0
  H  H34  1  0.75636000  0.85802000  0.89342000  1.0
  H  H35  1  0.25636000  0.64198000  0.60658000  1.0
  H  H36  1  0.43594000  0.05772000  0.40588000  1.0
  H  H37  1  0.93594000  0.44228000  0.09412000  1.0
  H  H38  1  0.56406000  0.94228000  0.59412000  1.0
  H  H39  1  0.06406000  0.55772000  0.90588000  1.0
  H  H40  1  0.53950000  0.17330000  0.33249000  1.0
  H  H41  1  0.03950000  0.32669000  0.16752000  1.0
  H  H42  1  0.46050000  0.82670000  0.66751000  1.0
  H  H43  1  0.96050000  0.67331000  0.83249000  1.0
  H  H44  1  0.03640000  0.57584000  0.38267000  1.0
  H  H45  1  0.53640000  0.92416000  0.11733000  1.0
  H  H46  1  0.96360000  0.42416000  0.61733000  1.0
  H  H47  1  0.46360000  0.07584000  0.88267000  1.0
  H  H48  1  0.24719000  0.37378000  0.29041000  1.0
  H  H49  1  0.74719000  0.12622000  0.20959000  1.0
  H  H50  1  0.75281000  0.62622000  0.70959000  1.0
  H  H51  1  0.25281000  0.87378000  0.79041000  1.0
  H  H52  1  0.45373000  0.40552000  0.31299000  1.0
  H  H53  1  0.95373000  0.09448000  0.18701000  1.0
  H  H54  1  0.54627000  0.59448000  0.68701000  1.0
  H  H55  1  0.04627000  0.90552000  0.81299000  1.0
  C  C56  1  0.18567000  0.24335000  0.45633000  1.0
  C  C57  1  0.68567000  0.25664000  0.04367000  1.0
  C  C58  1  0.81433000  0.75665000  0.54367000  1.0
  C  C59  1  0.31433000  0.74336000  0.95633000  1.0
  C  C60  1  0.41988000  0.14016000  0.35443000  1.0
  C  C61  1  0.91988000  0.35984000  0.14557000  1.0
  C  C62  1  0.58012000  0.85984000  0.64557000  1.0
  C  C63  1  0.08012000  0.64016000  0.85443000  1.0
  C  C64  1  0.33701000  0.39976000  0.34955000  1.0
  C  C65  1  0.83700000  0.10024000  0.15045000  1.0
  C  C66  1  0.66299000  0.60024000  0.65045000  1.0
  C  C67  1  0.16299000  0.89976000  0.84955000  1.0
  N  N68  1  0.34387000  0.27502000  0.41160000  1.0
  N  N69  1  0.84387000  0.22498000  0.08840000  1.0
  N  N70  1  0.65613000  0.72498000  0.58840000  1.0
  N  N71  1  0.15613000  0.77502000  0.91160000  1.0
  O  O72  1  0.03137000  0.13293000  0.60352000  1.0
  O  O73  1  0.53136000  0.36707000  0.89648000  1.0
  O  O74  1  0.96863000  0.86707000  0.39648000  1.0
  O  O75  1  0.46864000  0.63293000  0.10352000  1.0
  O  O76  1  0.23018000  0.96120000  0.50233000  1.0
  O  O77  1  0.73017000  0.53880000  0.99767000  1.0
  O  O78  1  0.76983000  0.03880000  0.49767000  1.0
  O  O79  1  0.26983000  0.46120000  0.00233000  1.0
  O  O80  1  0.34022000  0.17319000  0.62027000  1.0
  O  O81  1  0.84021000  0.32681000  0.87973000  1.0
  O  O82  1  0.65978000  0.82680000  0.37973000  1.0
  O  O83  1  0.15979000  0.67319000  0.12027000  1.0
  O  O84  1  0.44521000  0.92259000  0.21012000  1.0
  O  O85  1  0.94520000  0.57740000  0.28988000  1.0
  O  O86  1  0.55480000  0.07740000  0.78988000  1.0
  O  O87  1  0.05480000  0.42260000  0.71011000  1.0
  O  O88  1  0.31965000  0.16303000  0.16714000  1.0
  O  O89  1  0.81964000  0.33697000  0.33287000  1.0
  O  O90  1  0.68036000  0.83697000  0.83286000  1.0
  O  O91  1  0.18036000  0.66303000  0.66713000  1.0
  O  O92  1  0.15522000  0.98974000  0.25996000  1.0
  O  O93  1  0.65522000  0.51026000  0.24004000  1.0
  O  O94  1  0.84478000  0.01026000  0.74004000  1.0
  O  O95  1  0.34479000  0.48974000  0.75996000  1.0
  O  O96  1  0.11065000  0.58289000  0.44423000  1.0
  O  O97  1  0.61065000  0.91711000  0.05577000  1.0
  O  O98  1  0.88935000  0.41711000  0.55577000  1.0
  O  O99  1  0.38935000  0.08289000  0.94423000  1.0
  O  O100  1  0.32622000  0.68316000  0.33527000  1.0
  O  O101  1  0.82622000  0.81683000  0.16473000  1.0
  O  O102  1  0.67378000  0.31683000  0.66473000  1.0
  O  O103  1  0.17378000  0.18316000  0.83527000  1.0
  O  O104  1  0.37887000  0.61567000  0.51601000  1.0
  O  O105  1  0.87887000  0.88433000  0.98399000  1.0
  O  O106  1  0.62113000  0.38433000  0.48399000  1.0
  O  O107  1  0.12113000  0.11567000  0.01601000  1.0
