# generated using pymatgen
data_AgPH6C7O5
_symmetry_space_group_name_H-M   'P 1'
_cell_length_a   4.72204000
_cell_length_b   5.70791000
_cell_length_c   15.89210000
_cell_angle_alpha   98.12550000
_cell_angle_beta   90.31210000
_cell_angle_gamma   97.35420000
_symmetry_Int_Tables_number   1
_chemical_formula_structural   AgPH6C7O5
_chemical_formula_sum   'Ag2 P2 H12 C14 O10'
_cell_volume   420.43016078
_cell_formula_units_Z   2
loop_
 _symmetry_equiv_pos_site_id
 _symmetry_equiv_pos_as_xyz
  1  'x, y, z'
loop_
 _atom_site_type_symbol
 _atom_site_label
 _atom_site_symmetry_multiplicity
 _atom_site_fract_x
 _atom_site_fract_y
 _atom_site_fract_z
 _atom_site_occupancy
  Ag  Ag0  1  0.32605000  0.68113000  0.98004000  1.0
  Ag  Ag1  1  0.67392000  0.31887000  0.01994000  1.0
  P  P2  1  0.20891000  0.11112000  0.87178000  1.0
  P  P3  1  0.79108000  0.88887000  0.12822000  1.0
  H  H4  1  0.59027000  0.97993000  0.72920000  1.0
  H  H5  1  0.40974000  0.02007000  0.27081000  1.0
  H  H6  1  0.12251000  0.67426000  0.66917000  1.0
  H  H7  1  0.87748000  0.32574000  0.33083000  1.0
  H  H8  1  0.45325000  0.49544000  0.56486000  1.0
  H  H9  1  0.54676000  0.50456000  0.43514000  1.0
  H  H10  1  0.02456000  0.50812000  0.80261000  1.0
  H  H11  1  0.97543000  0.49187000  0.19739000  1.0
  H  H12  1  0.99440000  0.88390000  0.55200000  1.0
  H  H13  1  0.00559000  0.11609000  0.44800000  1.0
  H  H14  1  0.75568000  0.94671000  0.86707000  1.0
  H  H15  1  0.24432000  0.05329000  0.13293000  1.0
  C  C16  1  0.73783000  0.12400000  0.57780000  1.0
  C  C17  1  0.26216000  0.87600000  0.42220000  1.0
  C  C18  1  0.48579000  0.13110000  0.71663000  1.0
  C  C19  1  0.51422000  0.86890000  0.28337000  1.0
  C  C20  1  0.22554000  0.52267000  0.68216000  1.0
  C  C21  1  0.77447000  0.47735000  0.31785000  1.0
  C  C22  1  0.41018000  0.42225000  0.62377000  1.0
  C  C23  1  0.58984000  0.57777000  0.37624000  1.0
  C  C24  1  0.29893000  0.23166000  0.77505000  1.0
  C  C25  1  0.70108000  0.76835000  0.22495000  1.0
  C  C26  1  0.54062000  0.22610000  0.64079000  1.0
  C  C27  1  0.45938000  0.77390000  0.35921000  1.0
  C  C28  1  0.16923000  0.42793000  0.75742000  1.0
  C  C29  1  0.83079000  0.57209000  0.24258000  1.0
  O  O30  1  0.78849000  0.20910000  0.51026000  1.0
  O  O31  1  0.21147000  0.79089000  0.48974000  1.0
  O  O32  1  0.85343000  0.94055000  0.59820000  1.0
  O  O33  1  0.14661000  0.05947000  0.40180000  1.0
  O  O34  1  0.95252000  0.90298000  0.84951000  1.0
  O  O35  1  0.04747000  0.09701000  0.15048000  1.0
  O  O36  1  0.46366000  0.99628000  0.90086000  1.0
  O  O37  1  0.53635000  0.00369000  0.09913000  1.0
  O  O38  1  0.11371000  0.30565000  0.93760000  1.0
  O  O39  1  0.88629000  0.69433000  0.06240000  1.0
