# generated using pymatgen
data_ZnH8(C2N)6
_symmetry_space_group_name_H-M   'P 1'
_cell_length_a   9.56285000
_cell_length_b   10.17360000
_cell_length_c   12.43130000
_cell_angle_alpha   90.00000000
_cell_angle_beta   90.00000000
_cell_angle_gamma   90.00000000
_symmetry_Int_Tables_number   1
_chemical_formula_structural   ZnH8(C2N)6
_chemical_formula_sum   'Zn4 H32 C48 N24'
_cell_volume   1209.42390694
_cell_formula_units_Z   4
loop_
 _symmetry_equiv_pos_site_id
 _symmetry_equiv_pos_as_xyz
  1  'x, y, z'
loop_
 _atom_site_type_symbol
 _atom_site_label
 _atom_site_symmetry_multiplicity
 _atom_site_fract_x
 _atom_site_fract_y
 _atom_site_fract_z
 _atom_site_occupancy
  Zn  Zn0  1  0.44801000  0.17303000  0.36790000  1.0
  Zn  Zn1  1  0.05199000  0.82697000  0.86790000  1.0
  Zn  Zn2  1  0.55199000  0.67303000  0.13210000  1.0
  Zn  Zn3  1  0.94801000  0.32697000  0.63210000  1.0
  H  H4  1  0.24520000  0.20131000  0.56862000  1.0
  H  H5  1  0.25480000  0.79869000  0.06862000  1.0
  H  H6  1  0.75480000  0.70131000  0.93138000  1.0
  H  H7  1  0.74520000  0.29869000  0.43138000  1.0
  H  H8  1  0.86025000  0.52206000  0.23257000  1.0
  H  H9  1  0.63975000  0.47794000  0.73257000  1.0
  H  H10  1  0.13975000  0.02206000  0.26743000  1.0
  H  H11  1  0.36025000  0.97794000  0.76743000  1.0
  H  H12  1  0.05310000  0.46212000  0.10812000  1.0
  H  H13  1  0.44690000  0.53788000  0.60812000  1.0
  H  H14  1  0.94690000  0.96212000  0.39188000  1.0
  H  H15  1  0.55310000  0.03788000  0.89188000  1.0
  H  H16  1  0.25310000  0.32484000  0.17336000  1.0
  H  H17  1  0.24690000  0.67516000  0.67336000  1.0
  H  H18  1  0.74690000  0.82484000  0.32664000  1.0
  H  H19  1  0.75311000  0.17516000  0.82664000  1.0
  H  H20  1  0.56873000  0.97119000  0.19752000  1.0
  H  H21  1  0.93128000  0.02881000  0.69752000  1.0
  H  H22  1  0.43128000  0.47119000  0.30248000  1.0
  H  H23  1  0.06873000  0.52881000  0.80248000  1.0
  H  H24  1  0.23206000  0.98131000  0.51050000  1.0
  H  H25  1  0.26794000  0.01869000  0.01050000  1.0
  H  H26  1  0.76794000  0.48132000  0.98950000  1.0
  H  H27  1  0.73206000  0.51868000  0.48950000  1.0
  H  H28  1  0.10595000  0.76999000  0.55194000  1.0
  H  H29  1  0.39405000  0.23001000  0.05194000  1.0
  H  H30  1  0.89405000  0.26999000  0.94806000  1.0
  H  H31  1  0.60595000  0.73001000  0.44806000  1.0
  H  H32  1  0.16543000  0.56672000  0.45248000  1.0
  H  H33  1  0.33457000  0.43328000  0.95248000  1.0
  H  H34  1  0.83457000  0.06672000  0.04752000  1.0
  H  H35  1  0.66543000  0.93328000  0.54752000  1.0
  C  C36  1  0.19636000  0.24729000  0.49894000  1.0
  C  C37  1  0.30364000  0.75271000  0.99894000  1.0
  C  C38  1  0.80364000  0.74729000  0.00106000  1.0
  C  C39  1  0.69636000  0.25271000  0.50106000  1.0
  C  C40  1  0.04901000  0.35347000  0.39892000  1.0
  C  C41  1  0.45099000  0.64653000  0.89892000  1.0
  C  C42  1  0.95099000  0.85347000  0.10108000  1.0
  C  C43  1  0.54901000  0.14653000  0.60108000  1.0
  C  C44  1  0.94688000  0.46200000  0.26165000  1.0
  C  C45  1  0.55312000  0.53800000  0.76165000  1.0
  C  C46  1  0.05312000  0.96200000  0.23835000  1.0
  C  C47  1  0.44688000  0.03800000  0.73835000  1.0
  C  C48  1  0.05673000  0.42870000  0.19136000  1.0
  C  C49  1  0.44327000  0.57130000  0.69136000  1.0
  C  C50  1  0.94327000  0.92870000  0.30864000  1.0
  C  C51  1  0.55673000  0.07130000  0.80864000  1.0
  C  C52  1  0.16874000  0.35303000  0.22722000  1.0
  C  C53  1  0.33126000  0.64696000  0.72722000  1.0
  C  C54  1  0.83126000  0.85303000  0.27278000  1.0
  C  C55  1  0.66874000  0.14696000  0.77278000  1.0
  C  C56  1  0.16599000  0.31635000  0.33532000  1.0
  C  C57  1  0.33401000  0.68365000  0.83532000  1.0
  C  C58  1  0.83401000  0.81635000  0.16468000  1.0
  C  C59  1  0.66599000  0.18365000  0.66468000  1.0
  C  C60  1  0.49538000  0.91992000  0.25023000  1.0
  C  C61  1  0.00462000  0.08008000  0.75023000  1.0
  C  C62  1  0.50462000  0.41992000  0.24977000  1.0
  C  C63  1  0.99538000  0.58008000  0.74977000  1.0
  C  C64  1  0.34662000  0.88831000  0.37978000  1.0
  C  C65  1  0.15338000  0.11169000  0.87978000  1.0
  C  C66  1  0.65338000  0.38831000  0.12022000  1.0
  C  C67  1  0.84662000  0.61169000  0.62022000  1.0
  C  C68  1  0.25191000  0.89194000  0.46502000  1.0
  C  C69  1  0.24809000  0.10806000  0.96502000  1.0
  C  C70  1  0.74809000  0.39194000  0.03498000  1.0
  C  C71  1  0.75191000  0.60806000  0.53498000  1.0
  C  C72  1  0.18508000  0.77384000  0.48889000  1.0
  C  C73  1  0.31492000  0.22616000  0.98889000  1.0
  C  C74  1  0.81492000  0.27384000  0.01111000  1.0
  C  C75  1  0.68508000  0.72616000  0.51111000  1.0
  C  C76  1  0.21765000  0.65857000  0.43160000  1.0
  C  C77  1  0.28235000  0.34143000  0.93160000  1.0
  C  C78  1  0.78235000  0.15857000  0.06840000  1.0
  C  C79  1  0.71765000  0.84143000  0.56840000  1.0
  C  C80  1  0.37081000  0.76710000  0.32591000  1.0
  C  C81  1  0.12919000  0.23290000  0.82591000  1.0
  C  C82  1  0.62919000  0.26710000  0.17409000  1.0
  C  C83  1  0.87081000  0.73290000  0.67409000  1.0
  N  N84  1  0.07076000  0.30727000  0.50231000  1.0
  N  N85  1  0.42924000  0.69273000  0.00231000  1.0
  N  N86  1  0.92924000  0.80726000  0.99769000  1.0
  N  N87  1  0.57076000  0.19273000  0.49769000  1.0
  N  N88  1  0.25832000  0.24875000  0.40129000  1.0
  N  N89  1  0.24168000  0.75125000  0.90129000  1.0
  N  N90  1  0.74168000  0.74875000  0.09871000  1.0
  N  N91  1  0.75832000  0.25125000  0.59871000  1.0
  N  N92  1  0.42745000  0.98357000  0.32968000  1.0
  N  N93  1  0.07255000  0.01643000  0.82968000  1.0
  N  N94  1  0.57255000  0.48357000  0.17032000  1.0
  N  N95  1  0.92745000  0.51643000  0.67032000  1.0
  N  N96  1  0.46691000  0.78994000  0.24440000  1.0
  N  N97  1  0.03309000  0.21006000  0.74440000  1.0
  N  N98  1  0.53309000  0.28994000  0.25560000  1.0
  N  N99  1  0.96691000  0.71006000  0.75560000  1.0
  N  N100  1  0.93941000  0.42379000  0.36483000  1.0
  N  N101  1  0.56059000  0.57621000  0.86483000  1.0
  N  N102  1  0.06059000  0.92379000  0.13517000  1.0
  N  N103  1  0.43941000  0.07621000  0.63517000  1.0
  N  N104  1  0.31073000  0.65231000  0.35084000  1.0
  N  N105  1  0.18927000  0.34769000  0.85084000  1.0
  N  N106  1  0.68927000  0.15232000  0.14916000  1.0
  N  N107  1  0.81073000  0.84769000  0.64916000  1.0
