# generated using pymatgen
data_Cu3H14C12SI3N4
_symmetry_space_group_name_H-M   'P 1'
_cell_length_a   8.40428000
_cell_length_b   9.11987000
_cell_length_c   13.54690000
_cell_angle_alpha   87.27400000
_cell_angle_beta   85.89360000
_cell_angle_gamma   66.14940000
_symmetry_Int_Tables_number   1
_chemical_formula_structural   Cu3H14C12SI3N4
_chemical_formula_sum   'Cu6 H28 C24 S2 I6 N8'
_cell_volume   947.01090585
_cell_formula_units_Z   2
loop_
 _symmetry_equiv_pos_site_id
 _symmetry_equiv_pos_as_xyz
  1  'x, y, z'
loop_
 _atom_site_type_symbol
 _atom_site_label
 _atom_site_symmetry_multiplicity
 _atom_site_fract_x
 _atom_site_fract_y
 _atom_site_fract_z
 _atom_site_occupancy
  Cu  Cu0  1  0.49456000  0.11587000  0.26435000  1.0
  Cu  Cu1  1  0.50544000  0.88413000  0.73565000  1.0
  Cu  Cu2  1  0.36414000  0.09744000  0.45420000  1.0
  Cu  Cu3  1  0.63586000  0.90257000  0.54580000  1.0
  Cu  Cu4  1  0.18876000  0.34226000  0.22667000  1.0
  Cu  Cu5  1  0.81124000  0.65774000  0.77333000  1.0
  H  H6  1  0.25687000  0.74385000  0.10883000  1.0
  H  H7  1  0.74314000  0.25613000  0.89118000  1.0
  H  H8  1  0.14478000  0.95720000  0.10031000  1.0
  H  H9  1  0.85523000  0.04278000  0.89969000  1.0
  H  H10  1  0.16232000  0.83365000  0.99784000  1.0
  H  H11  1  0.83768000  0.16634000  0.00217000  1.0
  H  H12  1  0.36460000  0.45900000  0.38227000  1.0
  H  H13  1  0.63540000  0.54100000  0.61773000  1.0
  H  H14  1  0.29815000  0.66545000  0.41391000  1.0
  H  H15  1  0.70185000  0.33456000  0.58609000  1.0
  H  H16  1  0.30386000  0.60853000  0.28843000  1.0
  H  H17  1  0.69614000  0.39148000  0.71157000  1.0
  H  H18  1  0.85702000  0.05331000  0.19093000  1.0
  H  H19  1  0.14299000  0.94668000  0.80908000  1.0
  H  H20  1  0.55460000  0.78865000  0.19085000  1.0
  H  H21  1  0.44539000  0.21136000  0.80915000  1.0
  H  H22  1  0.85189000  0.48947000  0.01598000  1.0
  H  H23  1  0.14811000  0.51053000  0.98402000  1.0
  H  H24  1  0.66533000  0.53527000  0.10042000  1.0
  H  H25  1  0.33467000  0.46472000  0.89957000  1.0
  H  H26  1  0.85701000  0.29570000  0.32909000  1.0
  H  H27  1  0.14299000  0.70431000  0.67091000  1.0
  H  H28  1  0.67846000  0.45712000  0.27974000  1.0
  H  H29  1  0.32154000  0.54288000  0.72026000  1.0
  H  H30  1  0.62125000  0.64637000  0.41887000  1.0
  H  H31  1  0.37874000  0.35363000  0.58112000  1.0
  H  H32  1  0.00968000  0.79068000  0.48635000  1.0
  H  H33  1  0.99032000  0.20932000  0.51365000  1.0
  C  C34  1  0.14408000  0.84324000  0.07880000  1.0
  C  C35  1  0.85593000  0.15674000  0.92121000  1.0
  C  C36  1  0.97946000  0.82653000  0.11404000  1.0
  C  C37  1  0.02054000  0.17346000  0.88596000  1.0
  C  C38  1  0.84526000  0.94452000  0.16925000  1.0
  C  C39  1  0.15474000  0.05547000  0.83075000  1.0
  C  C40  1  0.67851000  0.79722000  0.16984000  1.0
  C  C41  1  0.32148000  0.20278000  0.83016000  1.0
  C  C42  1  0.81430000  0.67654000  0.11770000  1.0
  C  C43  1  0.18570000  0.32346000  0.88230000  1.0
  C  C44  1  0.80014000  0.52540000  0.09200000  1.0
  C  C45  1  0.19985000  0.47459000  0.90800000  1.0
  C  C46  1  0.81986000  0.40987000  0.28679000  1.0
  C  C47  1  0.18014000  0.59014000  0.71322000  1.0
  C  C48  1  0.87307000  0.52074000  0.34135000  1.0
  C  C49  1  0.12692000  0.47927000  0.65864000  1.0
  C  C50  1  0.75661000  0.63185000  0.40724000  1.0
  C  C51  1  0.24338000  0.36816000  0.59276000  1.0
  C  C52  1  0.97160000  0.71106000  0.44525000  1.0
  C  C53  1  0.02839000  0.28895000  0.55475000  1.0
  C  C54  1  0.09127000  0.59968000  0.38035000  1.0
  C  C55  1  0.90873000  0.40032000  0.61965000  1.0
  C  C56  1  0.27443000  0.58340000  0.36625000  1.0
  C  C57  1  0.72557000  0.41661000  0.63375000  1.0
  S  S58  1  0.93108000  0.35067000  0.16619000  1.0
  S  S59  1  0.06892000  0.64933000  0.83381000  1.0
  I  I60  1  0.64543000  0.14898000  0.42399000  1.0
  I  I61  1  0.35457000  0.85103000  0.57600000  1.0
  I  I62  1  0.23038000  0.03330000  0.30307000  1.0
  I  I63  1  0.76962000  0.96671000  0.69693000  1.0
  I  I64  1  0.45531000  0.34484000  0.12955000  1.0
  I  I65  1  0.54470000  0.65516000  0.87044000  1.0
  N  N66  1  0.69467000  0.93042000  0.19627000  1.0
  N  N67  1  0.30533000  0.06958000  0.80373000  1.0
  N  N68  1  0.96303000  0.69236000  0.08972000  1.0
  N  N69  1  0.03697000  0.30763000  0.91028000  1.0
  N  N70  1  0.80557000  0.72663000  0.45980000  1.0
  N  N71  1  0.19442000  0.27338000  0.54020000  1.0
  N  N72  1  0.04082000  0.50346000  0.32870000  1.0
  N  N73  1  0.95918000  0.49655000  0.67131000  1.0
