# generated using pymatgen
data_Zn4H6C24S5(BrO8)2
_symmetry_space_group_name_H-M   'P 1'
_cell_length_a   19.61660000
_cell_length_b   19.67820000
_cell_length_c   33.27100000
_cell_angle_alpha   79.23360000
_cell_angle_beta   79.43620000
_cell_angle_gamma   64.03660000
_symmetry_Int_Tables_number   1
_chemical_formula_structural   Zn4H6C24S5(BrO8)2
_chemical_formula_sum   'Zn16 H24 C96 S20 Br8 O64'
_cell_volume   11268.54685325
_cell_formula_units_Z   4
loop_
 _symmetry_equiv_pos_site_id
 _symmetry_equiv_pos_as_xyz
  1  'x, y, z'
loop_
 _atom_site_type_symbol
 _atom_site_label
 _atom_site_symmetry_multiplicity
 _atom_site_fract_x
 _atom_site_fract_y
 _atom_site_fract_z
 _atom_site_occupancy
  Zn  Zn0  1  0.05682000  0.39808000  0.47931000  1.0
  Zn  Zn1  1  0.98713000  0.48126000  0.56005000  1.0
  Zn  Zn2  1  0.05567000  0.56321000  0.48071000  1.0
  Zn  Zn3  1  0.90111000  0.55701000  0.47932000  1.0
  Zn  Zn4  1  0.69162000  0.35232000  0.27154000  1.0
  Zn  Zn5  1  0.68705000  0.19336000  0.26678000  1.0
  Zn  Zn6  1  0.77094000  0.26674000  0.19056000  1.0
  Zn  Zn7  1  0.84736000  0.19748000  0.27260000  1.0
  Zn  Zn8  1  0.26924000  0.76533000  0.68849000  1.0
  Zn  Zn9  1  0.35067000  0.69669000  0.77013000  1.0
  Zn  Zn10  1  0.19082000  0.84584000  0.77113000  1.0
  Zn  Zn11  1  0.19163000  0.68689000  0.76618000  1.0
  Zn  Zn12  1  0.56008000  0.06070000  0.98289000  1.0
  Zn  Zn13  1  0.40053000  0.05654000  0.97775000  1.0
  Zn  Zn14  1  0.55384000  0.90168000  0.97816000  1.0
  Zn  Zn15  1  0.48412000  0.98324000  0.06044000  1.0
  H  H16  1  0.95358000  0.25359000  0.35087000  1.0
  H  H17  1  0.74181000  0.45458000  0.35390000  1.0
  H  H18  1  0.00040000  0.30476000  0.39818000  1.0
  H  H19  1  0.09283000  0.59997000  0.69811000  1.0
  H  H20  1  0.20398000  0.69983000  0.59703000  1.0
  H  H21  1  0.04490000  0.55607000  0.64771000  1.0
  H  H22  1  0.46370000  0.23885000  0.34366000  1.0
  H  H23  1  0.48253000  0.69884000  0.59979000  1.0
  H  H24  1  0.20546000  0.97746000  0.60258000  1.0
  H  H25  1  0.94874000  0.97089000  0.34534000  1.0
  H  H26  1  0.55513000  0.04816000  0.15326000  1.0
  H  H27  1  0.65101000  0.15537000  0.04821000  1.0
  H  H28  1  0.60671000  0.09625000  0.19970000  1.0
  H  H29  1  0.54590000  0.76969000  0.14885000  1.0
  H  H30  1  0.16252000  0.14089000  0.04023000  1.0
  H  H31  1  0.49662000  0.79494000  0.89946000  1.0
  H  H32  1  0.29530000  0.00645000  0.89719000  1.0
  H  H33  1  0.44440000  0.75004000  0.85176000  1.0
  H  H34  1  0.30025000  0.28235000  0.90099000  1.0
  H  H35  1  0.78753000  0.00900000  0.90897000  1.0
  H  H36  1  0.84582000  0.57331000  0.39939000  1.0
  H  H37  1  0.06606000  0.68858000  0.51296000  1.0
  H  H38  1  0.79771000  0.17627000  0.12302000  1.0
  H  H39  1  0.17561000  0.90510000  0.84978000  1.0
  C  C40  1  0.06129000  0.31444000  0.56249000  1.0
  C  C41  1  0.06361000  0.57557000  0.56731000  1.0
  C  C42  1  0.18169000  0.44036000  0.43879000  1.0
  C  C43  1  0.93398000  0.68802000  0.43882000  1.0
  C  C44  1  0.93407000  0.43476000  0.42872000  1.0
  C  C45  1  0.82033000  0.55996000  0.56212000  1.0
  C  C46  1  0.56438000  0.31196000  0.31238000  1.0
  C  C47  1  0.68828000  0.17575000  0.18115000  1.0
  C  C48  1  0.68794000  0.43279000  0.18728000  1.0
  C  C49  1  0.93610000  0.19034000  0.18972000  1.0
  C  C50  1  0.81703000  0.32179000  0.32023000  1.0
  C  C51  1  0.81077000  0.06725000  0.30927000  1.0
  C  C52  1  0.43610000  0.68633000  0.68697000  1.0
  C  C53  1  0.31414000  0.81779000  0.82076000  1.0
  C  C54  1  0.19230000  0.93202000  0.68920000  1.0
  C  C55  1  0.06399000  0.80826000  0.81026000  1.0
  C  C56  1  0.18101000  0.67935000  0.68012000  1.0
  C  C57  1  0.31452000  0.56870000  0.81254000  1.0
  C  C58  1  0.43758000  0.18484000  0.93809000  1.0
  C  C59  1  0.42915000  0.93120000  0.93025000  1.0
  C  C60  1  0.68352000  0.93901000  0.93888000  1.0
  C  C61  1  0.56158000  0.81652000  0.06186000  1.0
  C  C62  1  0.57008000  0.06961000  0.06954000  1.0
  C  C63  1  0.31618000  0.06128000  0.06096000  1.0
  C  C64  1  0.89884000  0.40854000  0.40194000  1.0
  C  C65  1  0.84531000  0.35116000  0.34909000  1.0
  C  C66  1  0.82495000  0.45043000  0.38938000  1.0
  C  C67  1  0.91798000  0.30865000  0.36183000  1.0
  C  C68  1  0.79882000  0.42174000  0.36323000  1.0
  C  C69  1  0.94395000  0.33722000  0.38803000  1.0
  C  C70  1  0.09613000  0.60394000  0.59441000  1.0
  C  C71  1  0.15097000  0.65292000  0.65071000  1.0
  C  C72  1  0.14151000  0.64497000  0.58031000  1.0
  C  C73  1  0.10618000  0.61232000  0.66507000  1.0
  C  C74  1  0.16849000  0.66895000  0.60831000  1.0
  C  C75  1  0.07946000  0.58812000  0.63706000  1.0
  C  C76  1  0.30138000  0.45725000  0.39983000  1.0
  C  C77  1  0.44547000  0.29660000  0.35049000  1.0
  C  C78  1  0.25612000  0.41738000  0.41375000  1.0
  C  C79  1  0.48938000  0.33748000  0.33713000  1.0
  C  C80  1  0.37659000  0.34025000  0.37331000  1.0
  C  C81  1  0.36996000  0.41328000  0.37677000  1.0
  C  C82  1  0.72906000  0.57431000  0.63006000  1.0
  C  C83  1  0.52708000  0.67026000  0.62012000  1.0
  C  C84  1  0.74617000  0.58307000  0.58743000  1.0
  C  C85  1  0.51151000  0.66080000  0.66258000  1.0
  C  C86  1  0.60659000  0.63825000  0.60811000  1.0
  C  C87  1  0.64953000  0.60550000  0.64192000  1.0
  C  C88  1  0.07612000  0.22396000  0.63089000  1.0
  C  C89  1  0.17634000  0.02238000  0.62243000  1.0
  C  C90  1  0.08564000  0.24064000  0.58823000  1.0
  C  C91  1  0.16660000  0.00750000  0.66495000  1.0
  C  C92  1  0.14362000  0.10148000  0.60992000  1.0
  C  C93  1  0.10936000  0.14471000  0.64334000  1.0
  C  C94  1  0.83818000  0.80623000  0.39817000  1.0
  C  C95  1  0.90350000  0.95137000  0.35066000  1.0
  C  C96  1  0.90759000  0.76264000  0.41403000  1.0
  C  C97  1  0.83449000  0.99291000  0.33466000  1.0
  C  C98  1  0.90526000  0.88285000  0.37376000  1.0
  C  C99  1  0.83702000  0.87450000  0.37500000  1.0
  C  C100  1  0.65874000  0.15140000  0.15046000  1.0
  C  C101  1  0.60041000  0.09803000  0.09788000  1.0
  C  C102  1  0.67071000  0.16807000  0.10720000  1.0
  C  C103  1  0.58764000  0.08172000  0.14062000  1.0
  C  C104  1  0.64173000  0.14155000  0.08140000  1.0
  C  C105  1  0.61642000  0.10840000  0.16638000  1.0
  C  C106  1  0.67651000  0.52396000  0.11909000  1.0
  C  C107  1  0.57627000  0.72536000  0.12871000  1.0
  C  C108  1  0.66510000  0.50665000  0.16164000  1.0
  C  C109  1  0.58750000  0.74118000  0.08630000  1.0
  C  C110  1  0.60877000  0.64605000  0.14080000  1.0
  C  C111  1  0.64419000  0.60344000  0.10722000  1.0
  C  C112  1  0.08374000  0.12295000  0.17834000  1.0
  C  C113  1  0.17039000  0.12408000  0.07267000  1.0
  C  C114  1  0.01134000  0.16313000  0.16555000  1.0
  C  C115  1  0.24174000  0.08510000  0.08630000  1.0
  C  C116  1  0.11243000  0.13793000  0.10626000  1.0
  C  C117  1  0.14144000  0.10873000  0.14463000  1.0
  C  C118  1  0.34050000  0.85159000  0.84826000  1.0
  C  C119  1  0.39901000  0.90312000  0.90163000  1.0
  C  C120  1  0.29866000  0.92473000  0.86131000  1.0
  C  C121  1  0.44122000  0.83094000  0.88866000  1.0
  C  C122  1  0.32796000  0.94985000  0.88765000  1.0
  C  C123  1  0.41207000  0.80599000  0.86220000  1.0
  C  C124  1  0.40928000  0.44996000  0.85387000  1.0
  C  C125  1  0.34522000  0.30203000  0.89688000  1.0
  C  C126  1  0.34081000  0.49372000  0.83719000  1.0
  C  C127  1  0.41381000  0.25984000  0.91324000  1.0
  C  C128  1  0.34352000  0.37146000  0.87504000  1.0
  C  C129  1  0.41097000  0.38030000  0.87543000  1.0
  C  C130  1  0.94369000  0.79270000  0.84954000  1.0
  C  C131  1  0.80399000  0.95210000  0.90133000  1.0
  C  C132  1  0.98993000  0.83144000  0.83572000  1.0
  C  C133  1  0.75864000  0.91267000  0.91420000  1.0
  C  C134  1  0.87171000  0.90836000  0.87768000  1.0
  C  C135  1  0.87622000  0.83648000  0.87335000  1.0
  S  S136  1  0.29776000  0.32634000  0.39824000  1.0
  S  S137  1  0.44779000  0.42860000  0.35202000  1.0
  S  S138  1  0.66452000  0.62902000  0.56195000  1.0
  S  S139  1  0.59265000  0.61326000  0.68824000  1.0
  S  S140  1  0.13532000  0.15882000  0.56349000  1.0
  S  S141  1  0.11804000  0.08861000  0.69005000  1.0
  S  S142  1  0.97098000  0.80585000  0.40067000  1.0
  S  S143  1  0.77132000  0.94982000  0.34750000  1.0
  S  S144  1  0.61552000  0.58792000  0.18690000  1.0
  S  S145  1  0.63748000  0.66047000  0.06090000  1.0
  S  S146  1  0.01423000  0.18294000  0.11205000  1.0
  S  S147  1  0.23940000  0.06455000  0.13960000  1.0
  S  S148  1  0.27868000  0.44898000  0.84789000  1.0
  S  S149  1  0.47646000  0.30361000  0.90237000  1.0
  S  S150  1  0.95053000  0.92157000  0.85216000  1.0
  S  S151  1  0.79756000  0.82262000  0.89808000  1.0
  S  S152  1  0.75716000  0.53962000  0.40677000  1.0
  S  S153  1  0.17386000  0.66430000  0.52709000  1.0
  S  S154  1  0.71690000  0.22835000  0.08154000  1.0
  S  S155  1  0.20936000  0.99332000  0.84382000  1.0
  Br  Br156  1  0.27954000  0.55634000  0.40859000  1.0
  Br  Br157  1  0.79864000  0.52623000  0.66935000  1.0
  Br  Br158  1  0.02658000  0.29343000  0.66982000  1.0
  Br  Br159  1  0.75445000  0.78165000  0.40413000  1.0
  Br  Br160  1  0.72739000  0.45509000  0.08017000  1.0
  Br  Br161  1  0.10785000  0.08945000  0.23271000  1.0
  Br  Br162  1  0.49279000  0.47465000  0.84954000  1.0
  Br  Br163  1  0.96293000  0.69489000  0.83924000  1.0
  O  O164  1  0.00104000  0.49810000  0.49969000  1.0
  O  O165  1  0.08217000  0.31274000  0.52366000  1.0
  O  O166  1  0.04905000  0.51873000  0.58280000  1.0
  O  O167  1  0.15492000  0.50408000  0.45308000  1.0
  O  O168  1  0.02164000  0.37367000  0.58068000  1.0
  O  O169  1  0.15029000  0.39360000  0.44417000  1.0
  O  O170  1  0.05028000  0.61035000  0.53085000  1.0
  O  O171  1  0.00402000  0.65844000  0.44594000  1.0
  O  O172  1  0.91051000  0.50668000  0.42988000  1.0
  O  O173  1  0.88623000  0.65857000  0.45124000  1.0
  O  O174  1  0.98747000  0.38354000  0.44810000  1.0
  O  O175  1  0.87981000  0.53496000  0.58059000  1.0
  O  O176  1  0.81813000  0.56783000  0.52313000  1.0
  O  O177  1  0.74836000  0.25266000  0.25061000  1.0
  O  O178  1  0.59403000  0.36009000  0.30293000  1.0
  O  O179  1  0.65296000  0.17970000  0.21725000  1.0
  O  O180  1  0.72091000  0.37303000  0.16895000  1.0
  O  O181  1  0.59315000  0.24434000  0.30249000  1.0
  O  O182  1  0.67217000  0.43541000  0.22629000  1.0
  O  O183  1  0.74795000  0.18930000  0.17016000  1.0
  O  O184  1  0.87907000  0.22783000  0.16885000  1.0
  O  O185  1  0.86139000  0.25605000  0.30959000  1.0
  O  O186  1  0.93325000  0.17515000  0.22877000  1.0
  O  O187  1  0.75155000  0.36498000  0.30876000  1.0
  O  O188  1  0.74570000  0.09330000  0.29578000  1.0
  O  O189  1  0.85688000  0.09897000  0.30311000  1.0
  O  O190  1  0.25090000  0.74847000  0.74887000  1.0
  O  O191  1  0.37791000  0.72258000  0.66723000  1.0
  O  O192  1  0.36558000  0.76612000  0.80057000  1.0
  O  O193  1  0.17775000  0.93116000  0.72839000  1.0
  O  O194  1  0.43586000  0.66968000  0.72611000  1.0
  O  O195  1  0.22634000  0.87457000  0.66905000  1.0
  O  O196  1  0.24212000  0.84054000  0.81974000  1.0
  O  O197  1  0.09112000  0.85868000  0.80103000  1.0
  O  O198  1  0.16491000  0.66179000  0.71842000  1.0
  O  O199  1  0.09507000  0.74141000  0.79950000  1.0
  O  O200  1  0.22002000  0.71714000  0.66416000  1.0
  O  O201  1  0.35744000  0.60400000  0.80649000  1.0
  O  O202  1  0.24960000  0.59187000  0.79934000  1.0
  O  O203  1  0.49941000  0.00057000  0.99994000  1.0
  O  O204  1  0.50430000  0.15685000  0.94969000  1.0
  O  O205  1  0.38668000  0.99723000  0.94087000  1.0
  O  O206  1  0.65176000  0.89261000  0.94664000  1.0
  O  O207  1  0.39002000  0.15460000  0.94586000  1.0
  O  O208  1  0.65688000  0.00532000  0.95016000  1.0
  O  O209  1  0.49461000  0.88657000  0.94152000  1.0
  O  O210  1  0.57667000  0.81694000  0.02272000  1.0
  O  O211  1  0.53222000  0.03094000  0.08635000  1.0
  O  O212  1  0.52649000  0.87448000  0.08161000  1.0
  O  O213  1  0.58493000  0.08650000  0.03108000  1.0
  O  O214  1  0.31539000  0.07770000  0.02203000  1.0
  O  O215  1  0.37489000  0.02635000  0.08058000  1.0
  O  O216  1  0.79729000  0.59473000  0.38616000  1.0
  O  O217  1  0.68946000  0.56529000  0.38709000  1.0
  O  O218  1  0.75320000  0.53140000  0.45098000  1.0
  O  O219  1  0.09598000  0.72036000  0.50879000  1.0
  O  O220  1  0.21665000  0.70855000  0.52453000  1.0
  O  O221  1  0.20689000  0.59354000  0.50953000  1.0
  O  O222  1  0.80235000  0.17985000  0.09216000  1.0
  O  O223  1  0.71987000  0.23084000  0.03793000  1.0
  O  O224  1  0.68234000  0.29746000  0.10074000  1.0
  O  O225  1  0.15373000  0.95320000  0.86322000  1.0
  O  O226  1  0.18370000  0.05981000  0.86424000  1.0
  O  O227  1  0.21836000  0.99895000  0.79953000  1.0
