# generated using pymatgen
data_ZnH6(C2O3)2
_symmetry_space_group_name_H-M   'P 1'
_cell_length_a   7.78680000
_cell_length_b   8.86244000
_cell_length_c   9.03107000
_cell_angle_alpha   90.00010000
_cell_angle_beta   90.00000000
_cell_angle_gamma   90.00020000
_symmetry_Int_Tables_number   1
_chemical_formula_structural   ZnH6(C2O3)2
_chemical_formula_sum   'Zn4 H24 C16 O24'
_cell_volume   623.23457231
_cell_formula_units_Z   4
loop_
 _symmetry_equiv_pos_site_id
 _symmetry_equiv_pos_as_xyz
  1  'x, y, z'
loop_
 _atom_site_type_symbol
 _atom_site_label
 _atom_site_symmetry_multiplicity
 _atom_site_fract_x
 _atom_site_fract_y
 _atom_site_fract_z
 _atom_site_occupancy
  Zn  Zn0  1  0.10146000  0.88813000  0.92832000  1.0
  Zn  Zn1  1  0.39854000  0.38813000  0.07168000  1.0
  Zn  Zn2  1  0.60146000  0.11187000  0.57168000  1.0
  Zn  Zn3  1  0.89854000  0.61187000  0.42832000  1.0
  H  H4  1  0.99915000  0.03653000  0.66210000  1.0
  H  H5  1  0.50085000  0.53653000  0.33790000  1.0
  H  H6  1  0.49915000  0.96347000  0.83790000  1.0
  H  H7  1  0.00085000  0.46347000  0.16210000  1.0
  H  H8  1  0.03093000  0.85922000  0.64723000  1.0
  H  H9  1  0.46907000  0.35922000  0.35277000  1.0
  H  H10  1  0.53093000  0.14077000  0.85277000  1.0
  H  H11  1  0.96907000  0.64078000  0.14723000  1.0
  H  H12  1  0.84946000  0.25752000  0.00652000  1.0
  H  H13  1  0.65054000  0.75751000  0.99348000  1.0
  H  H14  1  0.34945000  0.74249000  0.49348000  1.0
  H  H15  1  0.15054000  0.24249000  0.50652000  1.0
  H  H16  1  0.76557000  0.03689000  0.91486000  1.0
  H  H17  1  0.73443000  0.53688000  0.08514000  1.0
  H  H18  1  0.26557000  0.96311000  0.58514000  1.0
  H  H19  1  0.23443000  0.46311000  0.41486000  1.0
  H  H20  1  0.85829000  0.02658000  0.25685000  1.0
  H  H21  1  0.64171000  0.52658000  0.74315000  1.0
  H  H22  1  0.35829000  0.97342000  0.24315000  1.0
  H  H23  1  0.14171000  0.47342000  0.75685000  1.0
  H  H24  1  0.90881000  0.21730000  0.29217000  1.0
  H  H25  1  0.59118000  0.71730000  0.70783000  1.0
  H  H26  1  0.40882000  0.78270000  0.20783000  1.0
  H  H27  1  0.09119000  0.28270000  0.79217000  1.0
  C  C28  1  0.90965000  0.15842000  0.05875000  1.0
  C  C29  1  0.59035000  0.65841000  0.94125000  1.0
  C  C30  1  0.40965000  0.84159000  0.44124000  1.0
  C  C31  1  0.09035000  0.34159000  0.55875000  1.0
  C  C32  1  0.10312000  0.18689000  0.05952000  1.0
  C  C33  1  0.39688000  0.68688000  0.94048000  1.0
  C  C34  1  0.60312000  0.81312000  0.44048000  1.0
  C  C35  1  0.89688000  0.31312000  0.55952000  1.0
  C  C36  1  0.83904000  0.14227000  0.21628000  1.0
  C  C37  1  0.66095000  0.64227000  0.78372000  1.0
  C  C38  1  0.33905000  0.85773000  0.28372000  1.0
  C  C39  1  0.16096000  0.35773000  0.71628000  1.0
  C  C40  1  0.65085000  0.18598000  0.22583000  1.0
  C  C41  1  0.84916000  0.68598000  0.77417000  1.0
  C  C42  1  0.15084000  0.81402000  0.27417000  1.0
  C  C43  1  0.34916000  0.31402000  0.72583000  1.0
  O  O44  1  0.15186000  0.31228000  0.11730000  1.0
  O  O45  1  0.34814000  0.81227000  0.88271000  1.0
  O  O46  1  0.65186000  0.68772000  0.38271000  1.0
  O  O47  1  0.84814000  0.18772000  0.61729000  1.0
  O  O48  1  0.57826000  0.22568000  0.10627000  1.0
  O  O49  1  0.92173000  0.72569000  0.89373000  1.0
  O  O50  1  0.07827000  0.77431000  0.39373000  1.0
  O  O51  1  0.42173000  0.27432000  0.60627000  1.0
  O  O52  1  0.08329000  0.95517000  0.68543000  1.0
  O  O53  1  0.41671000  0.45517000  0.31457000  1.0
  O  O54  1  0.58329000  0.04483000  0.81458000  1.0
  O  O55  1  0.91671000  0.54483000  0.18542000  1.0
  O  O56  1  0.20378000  0.09171000  0.00264000  1.0
  O  O57  1  0.29622000  0.59171000  0.99737000  1.0
  O  O58  1  0.70378000  0.90829000  0.49737000  1.0
  O  O59  1  0.79622000  0.40829000  0.50264000  1.0
  O  O60  1  0.57479000  0.18854000  0.35061000  1.0
  O  O61  1  0.92522000  0.68853000  0.64939000  1.0
  O  O62  1  0.07478000  0.81147000  0.14939000  1.0
  O  O63  1  0.42522000  0.31146000  0.85061000  1.0
  O  O64  1  0.87538000  0.02776000  0.97223000  1.0
  O  O65  1  0.62462000  0.52776000  0.02776000  1.0
  O  O66  1  0.37537000  0.97224000  0.52776000  1.0
  O  O67  1  0.12462000  0.47224000  0.47223000  1.0
