# generated using pymatgen
data_CaH12(C8O3)2
_symmetry_space_group_name_H-M   'P 1'
_cell_length_a   7.55795000
_cell_length_b   7.83865000
_cell_length_c   13.09300566
_cell_angle_alpha   107.41370992
_cell_angle_beta   90.34872975
_cell_angle_gamma   90.01050000
_symmetry_Int_Tables_number   1
_chemical_formula_structural   CaH12(C8O3)2
_chemical_formula_sum   'Ca2 H24 C32 O12'
_cell_volume   740.11776324
_cell_formula_units_Z   2
loop_
 _symmetry_equiv_pos_site_id
 _symmetry_equiv_pos_as_xyz
  1  'x, y, z'
loop_
 _atom_site_type_symbol
 _atom_site_label
 _atom_site_symmetry_multiplicity
 _atom_site_fract_x
 _atom_site_fract_y
 _atom_site_fract_z
 _atom_site_occupancy
  Ca  Ca0  1  0.24996000  0.46307000  0.00001000  1.0
  Ca  Ca1  1  0.75004000  0.53693000  0.99999000  1.0
  H  H2  1  0.67725000  0.17170000  0.64452000  1.0
  H  H3  1  0.82266000  0.52697000  0.35546000  1.0
  H  H4  1  0.32276000  0.82831000  0.35548000  1.0
  H  H5  1  0.17734000  0.47302000  0.64454000  1.0
  H  H6  1  0.07196000  0.95134000  0.67061000  1.0
  H  H7  1  0.42750000  0.27967000  0.32922000  1.0
  H  H8  1  0.92804000  0.04866000  0.32939000  1.0
  H  H9  1  0.57250000  0.72033000  0.67078000  1.0
  H  H10  1  0.21076000  0.87823000  0.49685000  1.0
  H  H11  1  0.28894000  0.38054000  0.50300000  1.0
  H  H12  1  0.78925000  0.12177000  0.50315000  1.0
  H  H13  1  0.71106000  0.61946000  0.49700000  1.0
  H  H14  1  0.94676000  0.08332000  0.82393000  1.0
  H  H15  1  0.55309000  0.25951000  0.17595000  1.0
  H  H16  1  0.05325000  0.91668000  0.17607000  1.0
  H  H17  1  0.44691000  0.74049000  0.82405000  1.0
  H  H18  1  0.03061000  0.08920000  0.95244000  1.0
  H  H19  1  0.46937000  0.13691000  0.04741000  1.0
  H  H20  1  0.96940000  0.91080000  0.04756000  1.0
  H  H21  1  0.53063000  0.86310000  0.95259000  1.0
  H  H22  1  0.08687000  0.90397000  0.83753000  1.0
  H  H23  1  0.41329000  0.06625000  0.16222000  1.0
  H  H24  1  0.91313000  0.09602000  0.16247000  1.0
  H  H25  1  0.58670000  0.93375000  0.83778000  1.0
  C  C26  1  0.45681000  0.02092000  0.55295000  1.0
  C  C27  1  0.04307000  0.46763000  0.44701000  1.0
  C  C28  1  0.54319000  0.97909000  0.44705000  1.0
  C  C29  1  0.95693000  0.53237000  0.55299000  1.0
  C  C30  1  0.54316000  0.12208000  0.64642000  1.0
  C  C31  1  0.95664000  0.47525000  0.35353000  1.0
  C  C32  1  0.45684000  0.87793000  0.35358000  1.0
  C  C33  1  0.04336000  0.52475000  0.64647000  1.0
  C  C34  1  0.46703000  0.16478000  0.74802000  1.0
  C  C35  1  0.03274000  0.41633000  0.25190000  1.0
  C  C36  1  0.53298000  0.83522000  0.25198000  1.0
  C  C37  1  0.96726000  0.58366000  0.74810000  1.0
  C  C38  1  0.29302000  0.10462000  0.75756000  1.0
  C  C39  1  0.20666000  0.34648000  0.24233000  1.0
  C  C40  1  0.70699000  0.89537000  0.24243000  1.0
  C  C41  1  0.79334000  0.65351000  0.75767000  1.0
  C  C42  1  0.20498000  0.00082000  0.66535000  1.0
  C  C43  1  0.29455000  0.33458000  0.33450000  1.0
  C  C44  1  0.79503000  0.99917000  0.33465000  1.0
  C  C45  1  0.70544000  0.66541000  0.66550000  1.0
  C  C46  1  0.28531000  0.96008000  0.56559000  1.0
  C  C47  1  0.21438000  0.39378000  0.43431000  1.0
  C  C48  1  0.71470000  0.03993000  0.43441000  1.0
  C  C49  1  0.78562000  0.60622000  0.56569000  1.0
  C  C50  1  0.57981000  0.26801000  0.83996000  1.0
  C  C51  1  0.92010000  0.42779000  0.15995000  1.0
  C  C52  1  0.42020000  0.73199000  0.16004000  1.0
  C  C53  1  0.07989000  0.57221000  0.84005000  1.0
  C  C54  1  0.05932000  0.04766000  0.86685000  1.0
  C  C55  1  0.44063000  0.18078000  0.13299000  1.0
  C  C56  1  0.94068000  0.95235000  0.13316000  1.0
  C  C57  1  0.55937000  0.81922000  0.86701000  1.0
  O  O58  1  0.73958000  0.30093000  0.82410000  1.0
  O  O59  1  0.76041000  0.47677000  0.17581000  1.0
  O  O60  1  0.26042000  0.69907000  0.17590000  1.0
  O  O61  1  0.23958000  0.52322000  0.82419000  1.0
  O  O62  1  0.51399000  0.32304000  0.93509000  1.0
  O  O63  1  0.98593000  0.38757000  0.06482000  1.0
  O  O64  1  0.48601000  0.67697000  0.06491000  1.0
  O  O65  1  0.01406000  0.61243000  0.93518000  1.0
  O  O66  1  0.21603000  0.14695000  0.85683000  1.0
  O  O67  1  0.28376000  0.28982000  0.14308000  1.0
  O  O68  1  0.78398000  0.85304000  0.14317000  1.0
  O  O69  1  0.71624000  0.71018000  0.85692000  1.0
