# generated using pymatgen
data_CuH7C11IN
_symmetry_space_group_name_H-M   'P 1'
_cell_length_a   8.14626000
_cell_length_b   9.02365000
_cell_length_c   31.77630000
_cell_angle_alpha   90.00020000
_cell_angle_beta   90.00020000
_cell_angle_gamma   80.02860000
_symmetry_Int_Tables_number   1
_chemical_formula_structural   CuH7C11IN
_chemical_formula_sum   'Cu8 H56 C88 I8 N8'
_cell_volume   2300.55946929
_cell_formula_units_Z   8
loop_
 _symmetry_equiv_pos_site_id
 _symmetry_equiv_pos_as_xyz
  1  'x, y, z'
loop_
 _atom_site_type_symbol
 _atom_site_label
 _atom_site_symmetry_multiplicity
 _atom_site_fract_x
 _atom_site_fract_y
 _atom_site_fract_z
 _atom_site_occupancy
  Cu  Cu0  1  0.18399000  0.36559000  0.01781000  1.0
  Cu  Cu1  1  0.31601000  0.63442000  0.51781000  1.0
  Cu  Cu2  1  0.81601000  0.63441000  0.98219000  1.0
  Cu  Cu3  1  0.68400000  0.36558000  0.48219000  1.0
  Cu  Cu4  1  0.33756000  0.59801000  0.99427000  1.0
  Cu  Cu5  1  0.16244000  0.40200000  0.49427000  1.0
  Cu  Cu6  1  0.66244000  0.40200000  0.00573000  1.0
  Cu  Cu7  1  0.83756000  0.59801000  0.50573000  1.0
  H  H8  1  0.14409000  0.68009000  0.06162000  1.0
  H  H9  1  0.35591000  0.31992000  0.56162000  1.0
  H  H10  1  0.85590000  0.31991000  0.93838000  1.0
  H  H11  1  0.64409000  0.68008000  0.43838000  1.0
  H  H12  1  0.58736000  0.23354000  0.14627000  1.0
  H  H13  1  0.91264000  0.76645000  0.64627000  1.0
  H  H14  1  0.41265000  0.76646000  0.85373000  1.0
  H  H15  1  0.08736000  0.23354000  0.35373000  1.0
  H  H16  1  0.39750000  0.86380000  0.94650000  1.0
  H  H17  1  0.10249000  0.13621000  0.44651000  1.0
  H  H18  1  0.60250000  0.13620000  0.05350000  1.0
  H  H19  1  0.89749000  0.86380000  0.55350000  1.0
  H  H20  1  0.97973000  0.66877000  0.13222000  1.0
  H  H21  1  0.52028000  0.33123000  0.63222000  1.0
  H  H22  1  0.02027000  0.33123000  0.86778000  1.0
  H  H23  1  0.47972000  0.66877000  0.36778000  1.0
  H  H24  1  0.90971000  0.20434000  0.14988000  1.0
  H  H25  1  0.59029000  0.79566000  0.64988000  1.0
  H  H26  1  0.09029000  0.79566000  0.85012000  1.0
  H  H27  1  0.40972000  0.20434000  0.35012000  1.0
  H  H28  1  0.26253000  0.72978000  0.26574000  1.0
  H  H29  1  0.23747000  0.27023000  0.76574000  1.0
  H  H30  1  0.73747000  0.27022000  0.73426000  1.0
  H  H31  1  0.76253000  0.72977000  0.23426000  1.0
  H  H32  1  0.33140000  0.14382000  0.95273000  1.0
  H  H33  1  0.16859000  0.85620000  0.45273000  1.0
  H  H34  1  0.66860000  0.85619000  0.04727000  1.0
  H  H35  1  0.83141000  0.14381000  0.54727000  1.0
  H  H36  1  0.07189000  0.17740000  0.22105000  1.0
  H  H37  1  0.42811000  0.82260000  0.72105000  1.0
  H  H38  1  0.92811000  0.82260000  0.77895000  1.0
  H  H39  1  0.57189000  0.17739000  0.27895000  1.0
  H  H40  1  0.33871000  0.10774000  0.13996000  1.0
  H  H41  1  0.16130000  0.89225000  0.63996000  1.0
  H  H42  1  0.66130000  0.89226000  0.86005000  1.0
  H  H43  1  0.83870000  0.10775000  0.36004000  1.0
  H  H44  1  0.65863000  0.67543000  0.12930000  1.0
  H  H45  1  0.84137000  0.32456000  0.62930000  1.0
  H  H46  1  0.34136000  0.32457000  0.87070000  1.0
  H  H47  1  0.15863000  0.67543000  0.37070000  1.0
  H  H48  1  0.14589000  0.61994000  0.20228000  1.0
  H  H49  1  0.35411000  0.38006000  0.70228000  1.0
  H  H50  1  0.85411000  0.38006000  0.79772000  1.0
  H  H51  1  0.64589000  0.61993000  0.29772000  1.0
  H  H52  1  0.06680000  0.23738000  0.08117000  1.0
  H  H53  1  0.43320000  0.76262000  0.58117000  1.0
  H  H54  1  0.93320000  0.76262000  0.91883000  1.0
  H  H55  1  0.56680000  0.23738000  0.41883000  1.0
  H  H56  1  0.22527000  0.00514000  0.27484000  1.0
  H  H57  1  0.27473000  0.99486000  0.77485000  1.0
  H  H58  1  0.77473000  0.99486000  0.72516000  1.0
  H  H59  1  0.72527000  0.00513000  0.22516000  1.0
  H  H60  1  0.37429000  0.83048000  0.13206000  1.0
  H  H61  1  0.12572000  0.16951000  0.63206000  1.0
  H  H62  1  0.62571000  0.16953000  0.86794000  1.0
  H  H63  1  0.87428000  0.83049000  0.36794000  1.0
  C  C64  1  0.12635000  0.80113000  0.06642000  1.0
  C  C65  1  0.37365000  0.19887000  0.56642000  1.0
  C  C66  1  0.87364000  0.19887000  0.93358000  1.0
  C  C67  1  0.62636000  0.80113000  0.43358000  1.0
  C  C68  1  0.60271000  0.11149000  0.14309000  1.0
  C  C69  1  0.89729000  0.88851000  0.64309000  1.0
  C  C70  1  0.39729000  0.88851000  0.85691000  1.0
  C  C71  1  0.10271000  0.11149000  0.35691000  1.0
  C  C72  1  0.32766000  0.91576000  0.97355000  1.0
  C  C73  1  0.17234000  0.08425000  0.47355000  1.0
  C  C74  1  0.67234000  0.08424000  0.02645000  1.0
  C  C75  1  0.82765000  0.91575000  0.52645000  1.0
  C  C76  1  0.19133000  0.89015000  0.03602000  1.0
  C  C77  1  0.30867000  0.10986000  0.53603000  1.0
  C  C78  1  0.80866000  0.10985000  0.96397000  1.0
  C  C79  1  0.69134000  0.89015000  0.46397000  1.0
  C  C80  1  0.16486000  0.05038000  0.04111000  1.0
  C  C81  1  0.33514000  0.94962000  0.54111000  1.0
  C  C82  1  0.83514000  0.94962000  0.95889000  1.0
  C  C83  1  0.66486000  0.05038000  0.45889000  1.0
  C  C84  1  0.78166000  0.86721000  0.13742000  1.0
  C  C85  1  0.71834000  0.13279000  0.63742000  1.0
  C  C86  1  0.21834000  0.13279000  0.86258000  1.0
  C  C87  1  0.28166000  0.86721000  0.36258000  1.0
  C  C88  1  0.96405000  0.79085000  0.13635000  1.0
  C  C89  1  0.53595000  0.20915000  0.63635000  1.0
  C  C90  1  0.03595000  0.20914000  0.86365000  1.0
  C  C91  1  0.46405000  0.79085000  0.36365000  1.0
  C  C92  1  0.02144000  0.02707000  0.10641000  1.0
  C  C93  1  0.47857000  0.97293000  0.60641000  1.0
  C  C94  1  0.97856000  0.97293000  0.89359000  1.0
  C  C95  1  0.52144000  0.02707000  0.39359000  1.0
  C  C96  1  0.02257000  0.99459000  0.18189000  1.0
  C  C97  1  0.47744000  0.00541000  0.68189000  1.0
  C  C98  1  0.97743000  0.00541000  0.81811000  1.0
  C  C99  1  0.52257000  0.99458000  0.31811000  1.0
  C  C100  1  0.92591000  0.08188000  0.14607000  1.0
  C  C101  1  0.57409000  0.91811000  0.64607000  1.0
  C  C102  1  0.07409000  0.91811000  0.85393000  1.0
  C  C103  1  0.42591000  0.08188000  0.35393000  1.0
  C  C104  1  0.19482000  0.80327000  0.24196000  1.0
  C  C105  1  0.30518000  0.19673000  0.74197000  1.0
  C  C106  1  0.80518000  0.19673000  0.75804000  1.0
  C  C107  1  0.69482000  0.80326000  0.25804000  1.0
  C  C108  1  0.29359000  0.07300000  0.97746000  1.0
  C  C109  1  0.20641000  0.92701000  0.47746000  1.0
  C  C110  1  0.70641000  0.92700000  0.02254000  1.0
  C  C111  1  0.79359000  0.07300000  0.52254000  1.0
  C  C112  1  0.08816000  0.05558000  0.21699000  1.0
  C  C113  1  0.41185000  0.94442000  0.71699000  1.0
  C  C114  1  0.91185000  0.94442000  0.78301000  1.0
  C  C115  1  0.58815000  0.05558000  0.28301000  1.0
  C  C116  1  0.04324000  0.83770000  0.17660000  1.0
  C  C117  1  0.45676000  0.16230000  0.67660000  1.0
  C  C118  1  0.95676000  0.16230000  0.82340000  1.0
  C  C119  1  0.54324000  0.83770000  0.32340000  1.0
  C  C120  1  0.46339000  0.04067000  0.13938000  1.0
  C  C121  1  0.03661000  0.95932000  0.63938000  1.0
  C  C122  1  0.53661000  0.95933000  0.86062000  1.0
  C  C123  1  0.96339000  0.04068000  0.36062000  1.0
  C  C124  1  0.64307000  0.79698000  0.13366000  1.0
  C  C125  1  0.85693000  0.20301000  0.63366000  1.0
  C  C126  1  0.35693000  0.20302000  0.86634000  1.0
  C  C127  1  0.14307000  0.79699000  0.36634000  1.0
  C  C128  1  0.04211000  0.86833000  0.10082000  1.0
  C  C129  1  0.45788000  0.13167000  0.60082000  1.0
  C  C130  1  0.95788000  0.13167000  0.89918000  1.0
  C  C131  1  0.54212000  0.86832000  0.39918000  1.0
  C  C132  1  0.12952000  0.74171000  0.20652000  1.0
  C  C133  1  0.37049000  0.25830000  0.70652000  1.0
  C  C134  1  0.87048000  0.25829000  0.79348000  1.0
  C  C135  1  0.62952000  0.74170000  0.29348000  1.0
  C  C136  1  0.76126000  0.02427000  0.14234000  1.0
  C  C137  1  0.73874000  0.97572000  0.64234000  1.0
  C  C138  1  0.23874000  0.97572000  0.85766000  1.0
  C  C139  1  0.26126000  0.02428000  0.35766000  1.0
  C  C140  1  0.08287000  0.11584000  0.07748000  1.0
  C  C141  1  0.41713000  0.88416000  0.57748000  1.0
  C  C142  1  0.91713000  0.88416000  0.92252000  1.0
  C  C143  1  0.58287000  0.11584000  0.42252000  1.0
  C  C144  1  0.17425000  0.95895000  0.24713000  1.0
  C  C145  1  0.32576000  0.04105000  0.74713000  1.0
  C  C146  1  0.82575000  0.04105000  0.75287000  1.0
  C  C147  1  0.67424000  0.95894000  0.25287000  1.0
  C  C148  1  0.48334000  0.88465000  0.13484000  1.0
  C  C149  1  0.01666000  0.11535000  0.63484000  1.0
  C  C150  1  0.51666000  0.11536000  0.86516000  1.0
  C  C151  1  0.98334000  0.88465000  0.36516000  1.0
  I  I152  1  0.11514000  0.50172000  0.94537000  1.0
  I  I153  1  0.38486000  0.49828000  0.44537000  1.0
  I  I154  1  0.88485000  0.49829000  0.05463000  1.0
  I  I155  1  0.61514000  0.50171000  0.55463000  1.0
  I  I156  1  0.41798000  0.44176000  0.06430000  1.0
  I  I157  1  0.08202000  0.55825000  0.56430000  1.0
  I  I158  1  0.58201000  0.55824000  0.93569000  1.0
  I  I159  1  0.91799000  0.44176000  0.43570000  1.0
  N  N160  1  0.27919000  0.82322000  0.00206000  1.0
  N  N161  1  0.22081000  0.17679000  0.50206000  1.0
  N  N162  1  0.72081000  0.17679000  0.99794000  1.0
  N  N163  1  0.77919000  0.82321000  0.49794000  1.0
  N  N164  1  0.21552000  0.14187000  0.01096000  1.0
  N  N165  1  0.28448000  0.85814000  0.51096000  1.0
  N  N166  1  0.78448000  0.85813000  0.98904000  1.0
  N  N167  1  0.71552000  0.14187000  0.48904000  1.0
