# generated using pymatgen
data_Zr3H25C31O18
_symmetry_space_group_name_H-M   'P 1'
_cell_length_a   14.75071846
_cell_length_b   14.76730000
_cell_length_c   14.76940000
_cell_angle_alpha   119.87380000
_cell_angle_beta   90.24790795
_cell_angle_gamma   60.06224594
_symmetry_Int_Tables_number   1
_chemical_formula_structural   Zr3H25C31O18
_chemical_formula_sum   'Zr6 H50 C62 O36'
_cell_volume   2286.19475340
_cell_formula_units_Z   2
loop_
 _symmetry_equiv_pos_site_id
 _symmetry_equiv_pos_as_xyz
  1  'x, y, z'
loop_
 _atom_site_type_symbol
 _atom_site_label
 _atom_site_symmetry_multiplicity
 _atom_site_fract_x
 _atom_site_fract_y
 _atom_site_fract_z
 _atom_site_occupancy
  Zr  Zr0  1  0.38373000  0.49569000  0.11745000  1.0
  Zr  Zr1  1  0.61779000  0.50471000  0.88296000  1.0
  Zr  Zr2  1  0.38023000  0.73817000  0.11950000  1.0
  Zr  Zr3  1  0.62121000  0.26143000  0.87938000  1.0
  Zr  Zr4  1  0.62111000  0.49928000  0.11919000  1.0
  Zr  Zr5  1  0.38048000  0.49955000  0.88025000  1.0
  H  H6  1  0.40935000  0.68336000  0.28153000  1.0
  H  H7  1  0.78276000  0.31608000  0.90825000  1.0
  H  H8  1  0.40273000  0.69043000  0.90791000  1.0
  H  H9  1  0.40845000  0.30946000  0.90305000  1.0
  H  H10  1  0.57501000  0.59250000  0.45490000  1.0
  H  H11  1  0.43843000  0.38788000  0.53543000  1.0
  H  H12  1  0.04831000  0.58830000  0.91869000  1.0
  H  H13  1  0.94290000  0.43121000  0.09502000  1.0
  H  H14  1  0.90939000  0.95318000  0.85880000  1.0
  H  H15  1  0.07832000  0.04393000  0.15187000  1.0
  H  H16  1  0.64712000  0.95364000  0.58449000  1.0
  H  H17  1  0.36812000  0.04602000  0.40043000  1.0
  H  H18  1  0.02986000  0.70975000  0.36558000  1.0
  H  H19  1  0.11600000  0.70688000  0.45062000  1.0
  H  H20  1  0.94624000  0.87892000  0.62119000  1.0
  H  H21  1  0.86002000  0.88152000  0.53626000  1.0
  H  H22  1  0.36687000  0.22955000  0.13927000  1.0
  H  H23  1  0.64016000  0.77023000  0.86635000  1.0
  H  H24  1  0.52693000  0.70102000  0.73689000  1.0
  H  H25  1  0.66466000  0.57089000  0.65538000  1.0
  H  H26  1  0.59331000  0.68706000  0.62587000  1.0
  H  H27  1  0.41936000  0.29386000  0.36343000  1.0
  H  H28  1  0.34775000  0.41171000  0.33577000  1.0
  H  H29  1  0.48499000  0.28233000  0.25357000  1.0
  H  H30  1  0.86969000  0.54327000  0.81467000  1.0
  H  H31  1  0.76802000  0.68076000  0.94271000  1.0
  H  H32  1  0.88082000  0.67449000  0.88916000  1.0
  H  H33  1  0.22281000  0.32248000  0.05989000  1.0
  H  H34  1  0.13847000  0.46748000  0.18933000  1.0
  H  H35  1  0.10356000  0.35514000  0.13413000  1.0
  H  H36  1  0.03272000  0.74113000  0.76311000  1.0
  H  H37  1  0.17084000  0.68457000  0.76647000  1.0
  H  H38  1  0.08606000  0.67725000  0.84140000  1.0
  H  H39  1  0.90897000  0.31716000  0.17056000  1.0
  H  H40  1  0.81508000  0.31391000  0.23898000  1.0
  H  H41  1  0.95037000  0.25411000  0.25145000  1.0
  H  H42  1  0.74108000  0.74134000  0.46320000  1.0
  H  H43  1  0.65981000  0.68167000  0.41064000  1.0
  H  H44  1  0.74072000  0.68150000  0.32408000  1.0
  H  H45  1  0.27785000  0.25787000  0.51787000  1.0
  H  H46  1  0.26978000  0.31442000  0.65806000  1.0
  H  H47  1  0.35442000  0.32080000  0.58217000  1.0
  H  H48  1  0.27376000  0.20389000  0.23384000  1.0
  H  H49  1  0.26716000  0.06984000  0.15490000  1.0
  H  H50  1  0.35214000  0.06770000  0.23797000  1.0
  H  H51  1  0.73626000  0.79576000  0.77519000  1.0
  H  H52  1  0.65692000  0.92941000  0.76760000  1.0
  H  H53  1  0.73936000  0.93272000  0.85355000  1.0
  H  H54  1  0.80943000  0.29022000  0.51842000  1.0
  H  H55  1  0.19033000  0.06863000  0.47661000  1.0
  C  C56  1  0.50648000  0.48618000  0.29765000  1.0
  C  C57  1  0.79831000  0.51315000  0.00510000  1.0
  C  C58  1  0.50268000  0.49917000  0.69510000  1.0
  C  C59  1  0.19555000  0.50106000  0.00418000  1.0
  C  C60  1  0.19324000  0.80160000  0.29828000  1.0
  C  C61  1  0.50952000  0.18985000  0.99726000  1.0
  C  C62  1  0.79946000  0.20007000  0.69369000  1.0
  C  C63  1  0.49762000  0.80995000  0.00828000  1.0
  C  C64  1  0.50749000  0.80056000  0.30006000  1.0
  C  C65  1  0.19119000  0.79940000  0.00076000  1.0
  C  C66  1  0.50284000  0.19866000  0.69009000  1.0
  C  C67  1  0.80189000  0.19784000  0.00526000  1.0
  C  C68  1  0.50561000  0.49801000  0.59343000  1.0
  C  C69  1  0.50704000  0.48314000  0.39726000  1.0
  C  C70  1  0.54550000  0.55792000  0.57324000  1.0
  C  C71  1  0.46746000  0.42308000  0.41741000  1.0
  C  C72  1  0.54530000  0.54755000  0.47395000  1.0
  C  C73  1  0.46801000  0.43293000  0.51640000  1.0
  C  C74  1  0.89799000  0.51596000  0.00537000  1.0
  C  C75  1  0.09357000  0.50293000  0.00759000  1.0
  C  C76  1  0.92533000  0.56219000  0.95392000  1.0
  C  C77  1  0.06600000  0.45703000  0.05943000  1.0
  C  C78  1  0.02371000  0.55377000  0.95711000  1.0
  C  C79  1  0.96744000  0.46597000  0.05680000  1.0
  C  C80  1  0.08926000  0.89814000  0.99917000  1.0
  C  C81  1  0.90049000  0.09883000  0.00976000  1.0
  C  C82  1  0.04204000  0.86826000  0.91387000  1.0
  C  C83  1  0.94683000  0.12846000  0.09573000  1.0
  C  C84  1  0.94834000  0.97123000  0.92266000  1.0
  C  C85  1  0.04089000  0.02547000  0.08687000  1.0
  C  C86  1  0.51241000  0.89941000  0.39855000  1.0
  C  C87  1  0.50192000  0.09998000  0.58739000  1.0
  C  C88  1  0.59477000  0.86919000  0.44892000  1.0
  C  C89  1  0.42030000  0.13017000  0.53624000  1.0
  C  C90  1  0.58608000  0.97209000  0.54248000  1.0
  C  C91  1  0.42915000  0.02728000  0.44238000  1.0
  C  C92  1  0.09129000  0.90455000  0.39683000  1.0
  C  C93  1  0.89789000  0.10076000  0.59176000  1.0
  C  C94  1  0.03838000  0.87683000  0.44642000  1.0
  C  C95  1  0.95024000  0.13165000  0.54279000  1.0
  C  C96  1  0.94464000  0.97164000  0.54037000  1.0
  C  C97  1  0.04415000  0.03581000  0.44685000  1.0
  C  C98  1  0.04191000  0.76941000  0.44004000  1.0
  C  C99  1  0.93567000  0.87691000  0.54668000  1.0
  C  C100  1  0.49676000  0.91226000  0.01003000  1.0
  C  C101  1  0.51105000  0.08759000  0.99644000  1.0
  C  C102  1  0.41637000  0.04392000  0.09032000  1.0
  C  C103  1  0.59148000  0.95592000  0.91637000  1.0
  C  C104  1  0.42683000  0.12737000  0.07978000  1.0
  C  C105  1  0.58064000  0.87239000  0.92631000  1.0
  C  C106  1  0.58452000  0.63327000  0.65203000  1.0
  C  C107  1  0.42800000  0.34864000  0.33853000  1.0
  C  C108  1  0.85677000  0.61894000  0.89760000  1.0
  C  C109  1  0.13631000  0.39730000  0.11341000  1.0
  C  C110  1  0.08509000  0.73595000  0.81592000  1.0
  C  C111  1  0.90310000  0.26041000  0.19478000  1.0
  C  C112  1  0.68922000  0.73654000  0.40976000  1.0
  C  C113  1  0.32562000  0.26266000  0.57525000  1.0
  C  C114  1  0.32243000  0.09941000  0.18417000  1.0
  C  C115  1  0.68616000  0.90021000  0.82310000  1.0
  C  C116  1  0.91448000  0.26769000  0.59674000  1.0
  C  C117  1  0.08632000  0.08117000  0.39675000  1.0
  O  O118  1  0.42875000  0.48807000  0.25796000  1.0
  O  O119  1  0.75740000  0.51224000  0.92841000  1.0
  O  O120  1  0.57808000  0.50119000  0.73732000  1.0
  O  O121  1  0.23829000  0.49951000  0.07952000  1.0
  O  O122  1  0.23453000  0.83842000  0.25972000  1.0
  O  O123  1  0.58378000  0.15624000  0.92068000  1.0
  O  O124  1  0.76335000  0.15974000  0.73260000  1.0
  O  O125  1  0.42156000  0.84322000  0.08282000  1.0
  O  O126  1  0.58176000  0.68367000  0.26068000  1.0
  O  O127  1  0.23348000  0.68219000  0.92420000  1.0
  O  O128  1  0.42512000  0.31557000  0.73321000  1.0
  O  O129  1  0.76212000  0.31481000  0.07948000  1.0
  O  O130  1  0.23151000  0.83724000  0.07710000  1.0
  O  O131  1  0.58013000  0.16027000  0.72952000  1.0
  O  O132  1  0.76395000  0.16008000  0.92631000  1.0
  O  O133  1  0.42822000  0.83892000  0.26276000  1.0
  O  O134  1  0.23187000  0.68691000  0.26245000  1.0
  O  O135  1  0.57418000  0.69444000  0.93091000  1.0
  O  O136  1  0.76034000  0.31604000  0.73373000  1.0
  O  O137  1  0.43256000  0.30542000  0.07417000  1.0
  O  O138  1  0.23359000  0.50130000  0.92677000  1.0
  O  O139  1  0.58118000  0.49126000  0.26144000  1.0
  O  O140  1  0.76197000  0.50807000  0.07988000  1.0
  O  O141  1  0.42606000  0.49717000  0.73218000  1.0
  O  O142  1  0.43496000  0.36339000  0.93073000  1.0
  O  O143  1  0.43122000  0.63571000  0.93362000  1.0
  O  O144  1  0.70257000  0.36738000  0.93265000  1.0
  O  O145  1  0.43377000  0.63204000  0.20154000  1.0
  O  O146  1  0.54906000  0.60028000  0.05074000  1.0
  O  O147  1  0.55199000  0.39890000  0.04824000  1.0
  O  O148  1  0.54992000  0.40232000  0.85118000  1.0
  O  O149  1  0.35216000  0.59702000  0.04918000  1.0
  O  O150  1  0.83671000  0.33799000  0.56735000  1.0
  O  O151  1  0.95976000  0.30958000  0.65703000  1.0
  O  O152  1  0.16707000  0.09640000  0.42792000  1.0
  O  O153  1  0.04304000  0.11445000  0.33890000  1.0
