# generated using pymatgen
data_Al2H20C17O11
_symmetry_space_group_name_H-M   'P 1'
_cell_length_a   6.65101000
_cell_length_b   14.30090000
_cell_length_c   16.00090000
_cell_angle_alpha   89.99980000
_cell_angle_beta   89.99960000
_cell_angle_gamma   98.06660000
_symmetry_Int_Tables_number   1
_chemical_formula_structural   Al2H20C17O11
_chemical_formula_sum   'Al4 H40 C34 O22'
_cell_volume   1506.87389805
_cell_formula_units_Z   2
loop_
 _symmetry_equiv_pos_site_id
 _symmetry_equiv_pos_as_xyz
  1  'x, y, z'
loop_
 _atom_site_type_symbol
 _atom_site_label
 _atom_site_symmetry_multiplicity
 _atom_site_fract_x
 _atom_site_fract_y
 _atom_site_fract_z
 _atom_site_occupancy
  Al  Al0  1  0.17908000  0.75912000  0.50096000  1.0
  Al  Al1  1  0.82092000  0.24088000  0.00096000  1.0
  Al  Al2  1  0.67994000  0.76065000  0.50069000  1.0
  Al  Al3  1  0.32007000  0.23936000  0.00069000  1.0
  H  H4  1  0.21398000  0.86844000  0.25374000  1.0
  H  H5  1  0.78601000  0.13156000  0.75375000  1.0
  H  H6  1  0.96540000  0.83022000  0.21692000  1.0
  H  H7  1  0.03459000  0.16978000  0.71693000  1.0
  H  H8  1  0.02935000  0.93621000  0.10629000  1.0
  H  H9  1  0.97066000  0.06379000  0.60630000  1.0
  H  H10  1  0.26556000  0.98490000  0.14964000  1.0
  H  H11  1  0.73444000  0.01510000  0.64964000  1.0
  H  H12  1  0.27841000  0.00898000  0.34871000  1.0
  H  H13  1  0.72159000  0.99101000  0.84872000  1.0
  H  H14  1  0.28882000  0.12717000  0.24628000  1.0
  H  H15  1  0.71118000  0.87282000  0.74628000  1.0
  H  H16  1  0.71399000  0.00018000  0.34431000  1.0
  H  H17  1  0.28602000  0.99981000  0.84431000  1.0
  H  H18  1  0.66516000  0.90025000  0.28016000  1.0
  H  H19  1  0.33483000  0.09975000  0.78016000  1.0
  H  H20  1  0.70760000  0.99316000  0.15914000  1.0
  H  H21  1  0.29240000  0.00684000  0.65914000  1.0
  H  H22  1  0.72122000  0.09338000  0.22361000  1.0
  H  H23  1  0.27878000  0.90661000  0.72361000  1.0
  H  H24  1  0.07458000  0.05743000  0.39488000  1.0
  H  H25  1  0.92543000  0.94256000  0.89488000  1.0
  H  H26  1  0.06219000  0.16269000  0.28520000  1.0
  H  H27  1  0.93780000  0.83730000  0.78520000  1.0
  H  H28  1  0.67554000  0.56169000  0.29893000  1.0
  H  H29  1  0.32448000  0.43831000  0.79893000  1.0
  H  H30  1  0.77964000  0.44968000  0.20383000  1.0
  H  H31  1  0.22037000  0.55032000  0.70383000  1.0
  H  H32  1  0.20999000  0.55600000  0.30300000  1.0
  H  H33  1  0.79002000  0.44401000  0.80300000  1.0
  H  H34  1  0.02370000  0.34298000  0.19809000  1.0
  H  H35  1  0.16324000  0.35326000  0.29522000  1.0
  H  H36  1  0.25849000  0.29683000  0.20554000  1.0
  H  H37  1  0.97631000  0.65704000  0.69812000  1.0
  H  H38  1  0.83669000  0.64676000  0.79523000  1.0
  H  H39  1  0.74150000  0.70318000  0.70554000  1.0
  H  H40  1  0.46245000  0.87722000  0.53429000  1.0
  H  H41  1  0.53753000  0.12278000  0.03429000  1.0
  H  H42  1  0.89007000  0.64035000  0.53090000  1.0
  H  H43  1  0.10993000  0.35966000  0.03088000  1.0
  C  C44  1  0.40265000  0.64819000  0.38781000  1.0
  C  C45  1  0.59736000  0.35181000  0.88781000  1.0
  C  C46  1  0.39153000  0.64325000  0.61362000  1.0
  C  C47  1  0.60847000  0.35676000  0.11361000  1.0
  C  C48  1  0.95980000  0.87471000  0.61498000  1.0
  C  C49  1  0.04020000  0.12529000  0.11498000  1.0
  C  C50  1  0.96838000  0.87008000  0.38685000  1.0
  C  C51  1  0.03162000  0.12991000  0.88685000  1.0
  C  C52  1  0.07064000  0.89290000  0.23600000  1.0
  C  C53  1  0.92936000  0.10710000  0.73601000  1.0
  C  C54  1  0.10336000  0.96580000  0.16388000  1.0
  C  C55  1  0.89664000  0.03420000  0.66388000  1.0
  C  C56  1  0.12680000  0.02810000  0.33646000  1.0
  C  C57  1  0.87321000  0.97189000  0.83646000  1.0
  C  C58  1  0.77295000  0.96475000  0.29050000  1.0
  C  C59  1  0.22705000  0.03525000  0.79050000  1.0
  C  C60  1  0.98189000  0.93761000  0.31307000  1.0
  C  C61  1  0.01811000  0.06238000  0.81308000  1.0
  C  C62  1  0.01427000  0.05648000  0.18811000  1.0
  C  C63  1  0.98573000  0.94352000  0.68811000  1.0
  C  C64  1  0.13204000  0.10115000  0.26489000  1.0
  C  C65  1  0.86796000  0.89885000  0.76489000  1.0
  C  C66  1  0.79016000  0.02903000  0.21233000  1.0
  C  C67  1  0.20984000  0.97096000  0.71233000  1.0
  C  C68  1  0.36821000  0.57803000  0.31990000  1.0
  C  C69  1  0.63180000  0.42197000  0.81990000  1.0
  C  C70  1  0.51716000  0.53932000  0.28160000  1.0
  C  C71  1  0.48286000  0.46069000  0.78160000  1.0
  C  C72  1  0.62577000  0.42614000  0.18186000  1.0
  C  C73  1  0.37424000  0.57387000  0.68187000  1.0
  C  C74  1  0.47313000  0.46642000  0.21817000  1.0
  C  C75  1  0.52687000  0.53359000  0.71818000  1.0
  C  C76  1  0.17497000  0.35328000  0.22650000  1.0
  C  C77  1  0.82501000  0.64674000  0.72652000  1.0
  O  O78  1  0.56293000  0.66444000  0.57743000  1.0
  O  O79  1  0.43707000  0.33558000  0.07742000  1.0
  O  O80  1  0.24137000  0.66657000  0.42378000  1.0
  O  O81  1  0.75863000  0.33343000  0.92378000  1.0
  O  O82  1  0.12861000  0.83654000  0.40745000  1.0
  O  O83  1  0.87139000  0.16345000  0.90746000  1.0
  O  O84  1  0.22809000  0.67628000  0.59405000  1.0
  O  O85  1  0.77190000  0.32373000  0.09405000  1.0
  O  O86  1  0.11983000  0.85484000  0.57932000  1.0
  O  O87  1  0.88018000  0.14516000  0.07933000  1.0
  O  O88  1  0.58346000  0.68332000  0.40676000  1.0
  O  O89  1  0.41655000  0.31668000  0.90676000  1.0
  O  O90  1  0.44629000  0.81820000  0.50362000  1.0
  O  O91  1  0.55372000  0.18180000  0.00362000  1.0
  O  O92  1  0.77827000  0.84238000  0.59397000  1.0
  O  O93  1  0.22174000  0.15763000  0.09397000  1.0
  O  O94  1  0.79879000  0.85348000  0.42453000  1.0
  O  O95  1  0.20121000  0.14652000  0.92453000  1.0
  O  O96  1  0.91134000  0.70149000  0.50364000  1.0
  O  O97  1  0.08866000  0.29851000  0.00363000  1.0
  O  O98  1  0.27188000  0.44447000  0.19838000  1.0
  O  O99  1  0.72812000  0.55554000  0.69839000  1.0
