# generated using pymatgen
data_CuH4C5BrNCl2
_symmetry_space_group_name_H-M   'P 1'
_cell_length_a   9.05817000
_cell_length_b   9.05768000
_cell_length_c   12.00580000
_cell_angle_alpha   78.54180000
_cell_angle_beta   78.54260000
_cell_angle_gamma   60.56750000
_symmetry_Int_Tables_number   1
_chemical_formula_structural   CuH4C5BrNCl2
_chemical_formula_sum   'Cu4 H16 C20 Br4 N4 Cl8'
_cell_volume   834.88829770
_cell_formula_units_Z   4
loop_
 _symmetry_equiv_pos_site_id
 _symmetry_equiv_pos_as_xyz
  1  'x, y, z'
loop_
 _atom_site_type_symbol
 _atom_site_label
 _atom_site_symmetry_multiplicity
 _atom_site_fract_x
 _atom_site_fract_y
 _atom_site_fract_z
 _atom_site_occupancy
  Cu  Cu0  1  0.63115000  0.45794000  0.36976000  1.0
  Cu  Cu1  1  0.54203000  0.36883000  0.13029000  1.0
  Cu  Cu2  1  0.36908000  0.54181000  0.63018000  1.0
  Cu  Cu3  1  0.45818000  0.63095000  0.86977000  1.0
  H  H4  1  0.22567000  0.37321000  0.38241000  1.0
  H  H5  1  0.62688000  0.77424000  0.11759000  1.0
  H  H6  1  0.77420000  0.62691000  0.61764000  1.0
  H  H7  1  0.37310000  0.22586000  0.88244000  1.0
  H  H8  1  0.06604000  0.06084000  0.64504000  1.0
  H  H9  1  0.93900000  0.93411000  0.85491000  1.0
  H  H10  1  0.93388000  0.93925000  0.35493000  1.0
  H  H11  1  0.06079000  0.06604000  0.14506000  1.0
  H  H12  1  0.28871000  0.15211000  0.55326000  1.0
  H  H13  1  0.84787000  0.71132000  0.94668000  1.0
  H  H14  1  0.71120000  0.84801000  0.44675000  1.0
  H  H15  1  0.15203000  0.28877000  0.05332000  1.0
  H  H16  1  0.78495000  0.20342000  0.56336000  1.0
  H  H17  1  0.79642000  0.21517000  0.93664000  1.0
  H  H18  1  0.21494000  0.79672000  0.43663000  1.0
  H  H19  1  0.20336000  0.78500000  0.06332000  1.0
  C  C20  1  0.13382000  0.32876000  0.42364000  1.0
  C  C21  1  0.67129000  0.86614000  0.07636000  1.0
  C  C22  1  0.86609000  0.67134000  0.57638000  1.0
  C  C23  1  0.32867000  0.13392000  0.92365000  1.0
  C  C24  1  0.04319000  0.15707000  0.57073000  1.0
  C  C25  1  0.84285000  0.95688000  0.92925000  1.0
  C  C26  1  0.95676000  0.84302000  0.42925000  1.0
  C  C27  1  0.15702000  0.04321000  0.07074000  1.0
  C  C28  1  0.16719000  0.20604000  0.51921000  1.0
  C  C29  1  0.79395000  0.83283000  0.98077000  1.0
  C  C30  1  0.83274000  0.79406000  0.48080000  1.0
  C  C31  1  0.20597000  0.16725000  0.01923000  1.0
  C  C32  1  0.88862000  0.23324000  0.52622000  1.0
  C  C33  1  0.76667000  0.11145000  0.97377000  1.0
  C  C34  1  0.11139000  0.76673000  0.47377000  1.0
  C  C35  1  0.23331000  0.88858000  0.02621000  1.0
  C  C36  1  0.97701000  0.39516000  0.38263000  1.0
  C  C37  1  0.60488000  0.02293000  0.11739000  1.0
  C  C38  1  0.02298000  0.60489000  0.61734000  1.0
  C  C39  1  0.39510000  0.97707000  0.88265000  1.0
  Br  Br40  1  0.92781000  0.55423000  0.24925000  1.0
  Br  Br41  1  0.44588000  0.07205000  0.25081000  1.0
  Br  Br42  1  0.07197000  0.44606000  0.75082000  1.0
  Br  Br43  1  0.55389000  0.92814000  0.74916000  1.0
  N  N44  1  0.85629000  0.35093000  0.43298000  1.0
  N  N45  1  0.64906000  0.14370000  0.06705000  1.0
  N  N46  1  0.14374000  0.64906000  0.56702000  1.0
  N  N47  1  0.35095000  0.85628000  0.93294000  1.0
  Cl  Cl48  1  0.41898000  0.58095000  0.25004000  1.0
  Cl  Cl49  1  0.58133000  0.41871000  0.74997000  1.0
  Cl  Cl50  1  0.75661000  0.24336000  0.25001000  1.0
  Cl  Cl51  1  0.24393000  0.75609000  0.74998000  1.0
  Cl  Cl52  1  0.51646000  0.68846000  0.46737000  1.0
  Cl  Cl53  1  0.31156000  0.48351000  0.03261000  1.0
  Cl  Cl54  1  0.48379000  0.31113000  0.53254000  1.0
  Cl  Cl55  1  0.68877000  0.51624000  0.96750000  1.0
