# generated using pymatgen
data_ZnH9C13N2O5
_symmetry_space_group_name_H-M   'P 1'
_cell_length_a   7.73954000
_cell_length_b   8.47456000
_cell_length_c   11.16850000
_cell_angle_alpha   107.57900000
_cell_angle_beta   93.91920000
_cell_angle_gamma   101.60000000
_symmetry_Int_Tables_number   1
_chemical_formula_structural   ZnH9C13N2O5
_chemical_formula_sum   'Zn2 H18 C26 N4 O10'
_cell_volume   677.49512291
_cell_formula_units_Z   2
loop_
 _symmetry_equiv_pos_site_id
 _symmetry_equiv_pos_as_xyz
  1  'x, y, z'
loop_
 _atom_site_type_symbol
 _atom_site_label
 _atom_site_symmetry_multiplicity
 _atom_site_fract_x
 _atom_site_fract_y
 _atom_site_fract_z
 _atom_site_occupancy
  Zn  Zn0  1  0.54127000  0.91391000  0.84809000  1.0
  Zn  Zn1  1  0.45873000  0.08609000  0.15191000  1.0
  H  H2  1  0.00981000  0.81969000  0.99289000  1.0
  H  H3  1  0.99020000  0.18031000  0.00711000  1.0
  H  H4  1  0.21374000  0.66481000  0.06673000  1.0
  H  H5  1  0.78627000  0.33519000  0.93327000  1.0
  H  H6  1  0.64935000  0.69450000  0.24564000  1.0
  H  H7  1  0.35065000  0.30550000  0.75436000  1.0
  H  H8  1  0.85654000  0.77981000  0.76226000  1.0
  H  H9  1  0.14346000  0.22019000  0.23773000  1.0
  H  H10  1  0.07569000  0.82717000  0.61868000  1.0
  H  H11  1  0.92431000  0.17283000  0.38131000  1.0
  H  H12  1  0.75157000  0.12818000  0.49515000  1.0
  H  H13  1  0.24842000  0.87182000  0.50485000  1.0
  H  H14  1  0.55130000  0.07253000  0.64852000  1.0
  H  H15  1  0.44870000  0.92747000  0.35148000  1.0
  H  H16  1  0.76955000  0.61245000  0.41031000  1.0
  H  H17  1  0.23045000  0.38755000  0.58969000  1.0
  H  H18  1  0.96213000  0.52690000  0.39295000  1.0
  H  H19  1  0.03787000  0.47310000  0.60705000  1.0
  C  C20  1  0.69041000  0.86142000  0.07425000  1.0
  C  C21  1  0.30959000  0.13858000  0.92575000  1.0
  C  C22  1  0.81241000  0.76769000  0.11338000  1.0
  C  C23  1  0.18759000  0.23231000  0.88662000  1.0
  C  C24  1  0.97526000  0.75729000  0.06294000  1.0
  C  C25  1  0.02474000  0.24271000  0.93706000  1.0
  C  C26  1  0.08791000  0.67302000  0.10355000  1.0
  C  C27  1  0.91210000  0.32698000  0.89645000  1.0
  C  C28  1  0.77239000  0.69137000  0.20406000  1.0
  C  C29  1  0.22761000  0.30863000  0.79594000  1.0
  C  C30  1  0.83987000  0.85768000  0.70231000  1.0
  C  C31  1  0.16013000  0.14232000  0.29769000  1.0
  C  C32  1  0.96093000  0.88377000  0.62012000  1.0
  C  C33  1  0.03906000  0.11623000  0.37987000  1.0
  C  C34  1  0.78213000  0.04969000  0.55138000  1.0
  C  C35  1  0.21787000  0.95031000  0.44861000  1.0
  C  C36  1  0.66820000  0.01910000  0.63663000  1.0
  C  C37  1  0.33179000  0.98090000  0.36337000  1.0
  C  C38  1  0.93520000  0.98318000  0.54304000  1.0
  C  C39  1  0.06480000  0.01682000  0.45696000  1.0
  C  C40  1  0.83769000  0.53165000  0.34256000  1.0
  C  C41  1  0.16230000  0.46835000  0.65744000  1.0
  C  C42  1  0.04640000  0.58900000  0.19598000  1.0
  C  C43  1  0.95360000  0.41099000  0.80402000  1.0
  C  C44  1  0.71618000  0.35268000  0.29368000  1.0
  C  C45  1  0.28381000  0.64732000  0.70632000  1.0
  N  N46  1  0.88349000  0.60878000  0.24536000  1.0
  N  N47  1  0.11651000  0.39122000  0.75464000  1.0
  N  N48  1  0.69690000  0.92636000  0.71179000  1.0
  N  N49  1  0.30310000  0.07365000  0.28820000  1.0
  O  O50  1  0.72598000  0.91887000  0.98286000  1.0
  O  O51  1  0.27401000  0.08112000  0.01714000  1.0
  O  O52  1  0.55753000  0.88357000  0.13488000  1.0
  O  O53  1  0.44247000  0.11643000  0.86512000  1.0
  O  O54  1  0.63335000  0.30347000  0.17965000  1.0
  O  O55  1  0.36665000  0.69653000  0.82035000  1.0
  O  O56  1  0.70051000  0.26860000  0.36862000  1.0
  O  O57  1  0.29949000  0.73140000  0.63137000  1.0
  O  O58  1  0.13803000  0.50491000  0.23480000  1.0
  O  O59  1  0.86196000  0.49508000  0.76520000  1.0
