# generated using pymatgen
data_AgH6C7N5
_symmetry_space_group_name_H-M   'P 1'
_cell_length_a   8.34385000
_cell_length_b   8.34387000
_cell_length_c   12.58480000
_cell_angle_alpha   71.27530000
_cell_angle_beta   71.27520000
_cell_angle_gamma   72.36580000
_symmetry_Int_Tables_number   1
_chemical_formula_structural   AgH6C7N5
_chemical_formula_sum   'Ag4 H24 C28 N20'
_cell_volume   766.09941624
_cell_formula_units_Z   4
loop_
 _symmetry_equiv_pos_site_id
 _symmetry_equiv_pos_as_xyz
  1  'x, y, z'
loop_
 _atom_site_type_symbol
 _atom_site_label
 _atom_site_symmetry_multiplicity
 _atom_site_fract_x
 _atom_site_fract_y
 _atom_site_fract_z
 _atom_site_occupancy
  Ag  Ag0  1  0.05247000  0.12623000  0.09162000  1.0
  Ag  Ag1  1  0.87377000  0.94753000  0.40838000  1.0
  Ag  Ag2  1  0.94753000  0.87377000  0.90838000  1.0
  Ag  Ag3  1  0.12623000  0.05247000  0.59162000  1.0
  H  H4  1  0.56876000  0.33197000  0.20427000  1.0
  H  H5  1  0.66803000  0.43124000  0.29573000  1.0
  H  H6  1  0.43124000  0.66803000  0.79573000  1.0
  H  H7  1  0.33197000  0.56876000  0.70427000  1.0
  H  H8  1  0.81831000  0.36265000  0.84358000  1.0
  H  H9  1  0.63735000  0.18169000  0.65642000  1.0
  H  H10  1  0.18169000  0.63734000  0.15642000  1.0
  H  H11  1  0.36265000  0.81831000  0.34358000  1.0
  H  H12  1  0.60091000  0.22445000  0.83170000  1.0
  H  H13  1  0.77554000  0.39909000  0.66830000  1.0
  H  H14  1  0.39909000  0.77555000  0.16830000  1.0
  H  H15  1  0.22445000  0.60091000  0.33170000  1.0
  H  H16  1  0.36897000  0.14006000  0.00429000  1.0
  H  H17  1  0.85994000  0.63103000  0.49571000  1.0
  H  H18  1  0.63102000  0.85995000  0.99571000  1.0
  H  H19  1  0.14006000  0.36897000  0.50429000  1.0
  H  H20  1  0.79773000  0.49955000  0.09109000  1.0
  H  H21  1  0.50045000  0.20227000  0.40890000  1.0
  H  H22  1  0.20227000  0.50044000  0.90890000  1.0
  H  H23  1  0.49955000  0.79773000  0.59110000  1.0
  H  H24  1  0.90356000  0.48394000  0.95601000  1.0
  H  H25  1  0.51606000  0.09644000  0.54399000  1.0
  H  H26  1  0.09644000  0.51605000  0.04399000  1.0
  H  H27  1  0.48395000  0.90356000  0.45601000  1.0
  C  C28  1  0.31514000  0.18828000  0.21886000  1.0
  C  C29  1  0.81172000  0.68485000  0.28114000  1.0
  C  C30  1  0.68486000  0.81172000  0.78114000  1.0
  C  C31  1  0.18828000  0.31514000  0.71886000  1.0
  C  C32  1  0.45343000  0.23168000  0.11571000  1.0
  C  C33  1  0.76833000  0.54657000  0.38429000  1.0
  C  C34  1  0.54657000  0.76833000  0.88428000  1.0
  C  C35  1  0.23167000  0.45343000  0.61572000  1.0
  C  C36  1  0.57722000  0.30734000  0.12257000  1.0
  C  C37  1  0.69267000  0.42278000  0.37743000  1.0
  C  C38  1  0.42278000  0.69266000  0.87743000  1.0
  C  C39  1  0.30734000  0.57721000  0.62257000  1.0
  C  C40  1  0.70961000  0.35383000  0.02542000  1.0
  C  C41  1  0.64617000  0.29039000  0.47458000  1.0
  C  C42  1  0.29039000  0.64617000  0.97458000  1.0
  C  C43  1  0.35383000  0.70961000  0.52542000  1.0
  C  C44  1  0.71706000  0.32361000  0.92015000  1.0
  C  C45  1  0.67639000  0.28294000  0.57985000  1.0
  C  C46  1  0.28294000  0.67639000  0.07985000  1.0
  C  C47  1  0.32361000  0.71706000  0.42015000  1.0
  C  C48  1  0.59494000  0.24696000  0.91364000  1.0
  C  C49  1  0.75304000  0.40506000  0.58636000  1.0
  C  C50  1  0.40506000  0.75304000  0.08636000  1.0
  C  C51  1  0.24696000  0.59494000  0.41364000  1.0
  C  C52  1  0.46306000  0.20058000  0.01052000  1.0
  C  C53  1  0.79942000  0.53694000  0.48948000  1.0
  C  C54  1  0.53694000  0.79942000  0.98948000  1.0
  C  C55  1  0.20058000  0.46306000  0.51052000  1.0
  N  N56  1  0.16879000  0.14612000  0.22214000  1.0
  N  N57  1  0.85389000  0.83121000  0.27786000  1.0
  N  N58  1  0.83121000  0.85388000  0.77786000  1.0
  N  N59  1  0.14612000  0.16879000  0.72214000  1.0
  N  N60  1  0.07978000  0.11624000  0.33396000  1.0
  N  N61  1  0.88376000  0.92022000  0.16604000  1.0
  N  N62  1  0.92022000  0.88376000  0.66604000  1.0
  N  N63  1  0.11624000  0.07978000  0.83396000  1.0
  N  N64  1  0.16830000  0.14055000  0.39558000  1.0
  N  N65  1  0.85945000  0.83170000  0.10442000  1.0
  N  N66  1  0.83171000  0.85945000  0.60442000  1.0
  N  N67  1  0.14055000  0.16829000  0.89558000  1.0
  N  N68  1  0.31594000  0.18538000  0.32658000  1.0
  N  N69  1  0.81462000  0.68406000  0.17342000  1.0
  N  N70  1  0.68406000  0.81462000  0.67342000  1.0
  N  N71  1  0.18538000  0.31594000  0.82658000  1.0
  N  N72  1  0.83776000  0.42190000  0.03431000  1.0
  N  N73  1  0.57810000  0.16224000  0.46569000  1.0
  N  N74  1  0.16223000  0.57810000  0.96569000  1.0
  N  N75  1  0.42190000  0.83777000  0.53431000  1.0
