# generated using pymatgen
data_ZnH10(C2O)8
_symmetry_space_group_name_H-M   'P 1'
_cell_length_a   6.97880000
_cell_length_b   7.60358031
_cell_length_c   14.90860000
_cell_angle_alpha   85.57147229
_cell_angle_beta   84.81750000
_cell_angle_gamma   64.72397215
_symmetry_Int_Tables_number   1
_chemical_formula_structural   ZnH10(C2O)8
_chemical_formula_sum   'Zn2 H20 C32 O16'
_cell_volume   711.78755472
_cell_formula_units_Z   2
loop_
 _symmetry_equiv_pos_site_id
 _symmetry_equiv_pos_as_xyz
  1  'x, y, z'
loop_
 _atom_site_type_symbol
 _atom_site_label
 _atom_site_symmetry_multiplicity
 _atom_site_fract_x
 _atom_site_fract_y
 _atom_site_fract_z
 _atom_site_occupancy
  Zn  Zn0  1  0.23190000  0.69978000  0.43412000  1.0
  Zn  Zn1  1  0.76858000  0.29977000  0.56577000  1.0
  H  H2  1  0.92427000  0.98319000  0.86797000  1.0
  H  H3  1  0.07598000  0.01667000  0.13179000  1.0
  H  H4  1  0.47614000  0.34929000  0.76008000  1.0
  H  H5  1  0.52451000  0.65042000  0.24003000  1.0
  H  H6  1  0.57361000  0.07595000  0.06682000  1.0
  H  H7  1  0.42645000  0.92420000  0.93333000  1.0
  H  H8  1  0.47012000  0.10412000  0.23191000  1.0
  H  H9  1  0.52982000  0.89634000  0.76824000  1.0
  H  H10  1  0.19094000  0.41685000  0.28914000  1.0
  H  H11  1  0.80885000  0.58361000  0.71087000  1.0
  H  H12  1  0.00684000  0.69363000  0.18136000  1.0
  H  H13  1  0.99299000  0.30670000  0.81852000  1.0
  H  H14  1  0.30605000  0.01147000  0.42452000  1.0
  H  H15  1  0.69052000  0.98969000  0.57573000  1.0
  H  H16  1  0.31483000  0.94887000  0.52836000  1.0
  H  H17  1  0.68294000  0.05150000  0.47185000  1.0
  H  H18  1  0.94151000  0.51359000  0.42452000  1.0
  H  H19  1  0.05858000  0.48635000  0.57516000  1.0
  H  H20  1  0.87000000  0.74448000  0.39222000  1.0
  H  H21  1  0.13021000  0.25584000  0.60788000  1.0
  C  C22  1  0.04441000  0.84608000  0.84288000  1.0
  C  C23  1  0.95589000  0.15371000  0.15698000  1.0
  C  C24  1  0.11290000  0.82675000  0.75167000  1.0
  C  C25  1  0.88753000  0.17284000  0.24820000  1.0
  C  C26  1  0.26316000  0.64474000  0.72131000  1.0
  C  C27  1  0.73750000  0.35486000  0.27863000  1.0
  C  C28  1  0.35439000  0.48886000  0.78206000  1.0
  C  C29  1  0.64612000  0.51088000  0.21796000  1.0
  C  C30  1  0.29470000  0.51062000  0.87369000  1.0
  C  C31  1  0.70561000  0.48926000  0.12631000  1.0
  C  C32  1  0.40928000  0.34312000  0.93594000  1.0
  C  C33  1  0.59095000  0.65686000  0.06412000  1.0
  C  C34  1  0.34732000  0.36563000  0.03308000  1.0
  C  C35  1  0.65280000  0.63448000  0.96697000  1.0
  C  C36  1  0.44955000  0.20901000  0.09341000  1.0
  C  C37  1  0.55051000  0.79118000  0.90669000  1.0
  C  C38  1  0.39124000  0.22644000  0.18507000  1.0
  C  C39  1  0.60873000  0.77391000  0.81502000  1.0
  C  C40  1  0.23370000  0.40142000  0.21721000  1.0
  C  C41  1  0.76617000  0.59898000  0.78280000  1.0
  C  C42  1  0.13128000  0.55733000  0.15759000  1.0
  C  C43  1  0.86866000  0.44297000  0.84237000  1.0
  C  C44  1  0.18524000  0.54076000  0.06481000  1.0
  C  C45  1  0.81484000  0.45942000  0.93516000  1.0
  C  C46  1  0.06821000  0.70716000  0.00231000  1.0
  C  C47  1  0.93196000  0.29294000  0.99761000  1.0
  C  C48  1  0.13641000  0.68804000  0.90443000  1.0
  C  C49  1  0.86387000  0.31189000  0.09550000  1.0
  C  C50  1  0.05512000  0.99638000  0.68419000  1.0
  C  C51  1  0.94518000  0.00297000  0.31556000  1.0
  C  C52  1  0.32854000  0.61477000  0.62383000  1.0
  C  C53  1  0.67238000  0.38462000  0.37614000  1.0
  O  O54  1  0.91661000  0.85383000  0.03060000  1.0
  O  O55  1  0.08357000  0.14635000  0.96927000  1.0
  O  O56  1  0.55401000  0.19316000  0.90626000  1.0
  O  O57  1  0.44632000  0.80678000  0.09388000  1.0
  O  O58  1  0.21119000  0.01738000  0.64119000  1.0
  O  O59  1  0.78901000  0.98198000  0.35846000  1.0
  O  O60  1  0.85926000  0.10661000  0.67365000  1.0
  O  O61  1  0.14102000  0.89256000  0.32605000  1.0
  O  O62  1  0.17817000  0.66595000  0.56955000  1.0
  O  O63  1  0.82295000  0.33301000  0.43038000  1.0
  O  O64  1  0.52414000  0.54157000  0.60018000  1.0
  O  O65  1  0.47685000  0.45810000  0.39989000  1.0
  O  O66  1  0.36043000  0.89927000  0.46666000  1.0
  O  O67  1  0.63747000  0.10169000  0.53340000  1.0
  O  O68  1  0.98336000  0.62230000  0.41655000  1.0
  O  O69  1  0.01591000  0.37822000  0.58434000  1.0
