# generated using pymatgen
data_CdH9C12N2O5
_symmetry_space_group_name_H-M   'P 1'
_cell_length_a   7.74309000
_cell_length_b   14.42770000
_cell_length_c   26.77880000
_cell_angle_alpha   90.00010000
_cell_angle_beta   90.00050000
_cell_angle_gamma   89.68990000
_symmetry_Int_Tables_number   1
_chemical_formula_structural   CdH9C12N2O5
_chemical_formula_sum   'Cd8 H72 C96 N16 O40'
_cell_volume   2991.54927971
_cell_formula_units_Z   8
loop_
 _symmetry_equiv_pos_site_id
 _symmetry_equiv_pos_as_xyz
  1  'x, y, z'
loop_
 _atom_site_type_symbol
 _atom_site_label
 _atom_site_symmetry_multiplicity
 _atom_site_fract_x
 _atom_site_fract_y
 _atom_site_fract_z
 _atom_site_occupancy
  Cd  Cd0  1  0.25485000  0.33488000  0.09609000  1.0
  Cd  Cd1  1  0.74514000  0.16512000  0.59609000  1.0
  Cd  Cd2  1  0.74515000  0.66511000  0.90390000  1.0
  Cd  Cd3  1  0.25486000  0.83488000  0.40391000  1.0
  Cd  Cd4  1  0.36957000  0.74962000  0.16802000  1.0
  Cd  Cd5  1  0.63041000  0.75038000  0.66802000  1.0
  Cd  Cd6  1  0.63044000  0.25038000  0.83198000  1.0
  Cd  Cd7  1  0.36957000  0.24961000  0.33198000  1.0
  H  H8  1  0.75619000  0.75063000  0.14934000  1.0
  H  H9  1  0.24380000  0.74938000  0.64935000  1.0
  H  H10  1  0.24384000  0.24937000  0.85065000  1.0
  H  H11  1  0.75620000  0.25062000  0.35065000  1.0
  H  H12  1  0.41396000  0.53768000  0.11936000  1.0
  H  H13  1  0.58603000  0.96231000  0.61936000  1.0
  H  H14  1  0.58606000  0.46232000  0.88065000  1.0
  H  H15  1  0.41397000  0.03768000  0.38065000  1.0
  H  H16  1  0.65477000  0.43703000  0.08525000  1.0
  H  H17  1  0.34520000  0.06296000  0.58524000  1.0
  H  H18  1  0.34523000  0.56297000  0.91476000  1.0
  H  H19  1  0.65480000  0.93703000  0.41476000  1.0
  H  H20  1  0.19459000  0.25830000  0.21561000  1.0
  H  H21  1  0.80540000  0.24171000  0.71560000  1.0
  H  H22  1  0.80541000  0.74173000  0.78439000  1.0
  H  H23  1  0.19459000  0.75829000  0.28439000  1.0
  H  H24  1  0.94794000  0.25728000  0.27546000  1.0
  H  H25  1  0.05206000  0.24272000  0.77546000  1.0
  H  H26  1  0.05207000  0.74274000  0.72454000  1.0
  H  H27  1  0.94791000  0.75727000  0.22454000  1.0
  H  H28  1  0.86272000  0.27565000  0.09430000  1.0
  H  H29  1  0.13726000  0.22435000  0.59430000  1.0
  H  H30  1  0.13727000  0.72434000  0.90570000  1.0
  H  H31  1  0.86274000  0.77566000  0.40569000  1.0
  H  H32  1  0.24833000  0.13198000  0.11040000  1.0
  H  H33  1  0.75167000  0.36803000  0.61040000  1.0
  H  H34  1  0.75161000  0.86801000  0.88960000  1.0
  H  H35  1  0.24839000  0.63198000  0.38960000  1.0
  H  H36  1  0.13440000  0.98406000  0.07942000  1.0
  H  H37  1  0.86560000  0.51595000  0.57942000  1.0
  H  H38  1  0.86551000  0.01595000  0.92058000  1.0
  H  H39  1  0.13449000  0.48405000  0.42058000  1.0
  H  H40  1  0.95238000  0.13389000  0.94875000  1.0
  H  H41  1  0.04763000  0.36610000  0.44875000  1.0
  H  H42  1  0.04753000  0.86612000  0.05125000  1.0
  H  H43  1  0.95244000  0.63388000  0.55125000  1.0
  H  H44  1  0.06313000  0.27604000  0.98708000  1.0
  H  H45  1  0.93688000  0.22396000  0.48708000  1.0
  H  H46  1  0.93683000  0.72396000  0.01291000  1.0
  H  H47  1  0.06315000  0.77604000  0.51292000  1.0
  H  H48  1  0.37443000  0.74652000  0.05044000  1.0
  H  H49  1  0.62554000  0.75349000  0.55044000  1.0
  H  H50  1  0.62553000  0.25349000  0.94957000  1.0
  H  H51  1  0.37449000  0.24651000  0.44956000  1.0
  H  H52  1  0.41850000  0.84635000  0.97660000  1.0
  H  H53  1  0.58148000  0.65366000  0.47660000  1.0
  H  H54  1  0.58143000  0.15367000  0.02340000  1.0
  H  H55  1  0.41857000  0.34633000  0.52340000  1.0
  H  H56  1  0.57833000  0.06379000  0.07897000  1.0
  H  H57  1  0.42167000  0.43620000  0.57897000  1.0
  H  H58  1  0.42164000  0.93621000  0.92103000  1.0
  H  H59  1  0.57836000  0.56379000  0.42103000  1.0
  H  H60  1  0.53726000  0.95113000  0.14764000  1.0
  H  H61  1  0.46271000  0.54887000  0.64764000  1.0
  H  H62  1  0.46272000  0.04887000  0.85236000  1.0
  H  H63  1  0.53729000  0.45113000  0.35237000  1.0
  H  H64  1  0.38304000  0.49054000  0.03160000  1.0
  H  H65  1  0.61694000  0.00948000  0.53159000  1.0
  H  H66  1  0.61696000  0.50947000  0.96841000  1.0
  H  H67  1  0.38308000  0.99053000  0.46840000  1.0
  H  H68  1  0.21013000  0.44367000  0.01732000  1.0
  H  H69  1  0.78986000  0.05635000  0.51732000  1.0
  H  H70  1  0.78991000  0.55633000  0.98267000  1.0
  H  H71  1  0.21017000  0.94367000  0.48269000  1.0
  H  H72  1  0.18016000  0.90117000  0.23372000  1.0
  H  H73  1  0.81982000  0.59884000  0.73373000  1.0
  H  H74  1  0.81983000  0.09883000  0.76628000  1.0
  H  H75  1  0.18018000  0.40117000  0.26628000  1.0
  H  H76  1  0.37896000  0.90503000  0.22350000  1.0
  H  H77  1  0.62103000  0.59498000  0.72350000  1.0
  H  H78  1  0.62103000  0.09496000  0.77650000  1.0
  H  H79  1  0.37897000  0.40503000  0.27650000  1.0
  C  C80  1  0.99569000  0.47477000  0.08626000  1.0
  C  C81  1  0.00429000  0.02520000  0.58626000  1.0
  C  C82  1  0.00431000  0.52521000  0.91375000  1.0
  C  C83  1  0.99571000  0.97478000  0.41374000  1.0
  C  C84  1  0.85037000  0.53868000  0.10085000  1.0
  C  C85  1  0.14961000  0.96131000  0.60085000  1.0
  C  C86  1  0.14964000  0.46131000  0.89915000  1.0
  C  C87  1  0.85039000  0.03868000  0.39915000  1.0
  C  C88  1  0.88079000  0.62802000  0.11950000  1.0
  C  C89  1  0.11919000  0.87197000  0.61951000  1.0
  C  C90  1  0.11922000  0.37197000  0.88049000  1.0
  C  C91  1  0.88080000  0.12802000  0.38049000  1.0
  C  C92  1  0.73905000  0.68024000  0.13528000  1.0
  C  C93  1  0.26094000  0.81976000  0.63528000  1.0
  C  C94  1  0.26097000  0.31976000  0.86471000  1.0
  C  C95  1  0.73906000  0.18023000  0.36472000  1.0
  C  C96  1  0.54742000  0.56178000  0.11777000  1.0
  C  C97  1  0.45256000  0.93822000  0.61777000  1.0
  C  C98  1  0.45259000  0.43822000  0.88223000  1.0
  C  C99  1  0.54745000  0.06178000  0.38223000  1.0
  C  C100  1  0.68078000  0.50618000  0.09960000  1.0
  C  C101  1  0.31919000  0.99381000  0.59960000  1.0
  C  C102  1  0.31922000  0.49381000  0.90040000  1.0
  C  C103  1  0.68081000  0.00618000  0.40040000  1.0
  C  C104  1  0.05932000  0.66897000  0.12212000  1.0
  C  C105  1  0.94067000  0.83104000  0.62214000  1.0
  C  C106  1  0.94069000  0.33104000  0.87787000  1.0
  C  C107  1  0.05932000  0.16896000  0.37787000  1.0
  C  C108  1  0.06117000  0.26308000  0.20243000  1.0
  C  C109  1  0.93883000  0.23693000  0.70243000  1.0
  C  C110  1  0.93883000  0.73694000  0.79757000  1.0
  C  C111  1  0.06117000  0.76308000  0.29757000  1.0
  C  C112  1  0.92273000  0.26355000  0.23558000  1.0
  C  C113  1  0.07727000  0.23645000  0.73558000  1.0
  C  C114  1  0.07727000  0.73647000  0.76442000  1.0
  C  C115  1  0.92272000  0.76355000  0.26441000  1.0
  C  C116  1  0.75394000  0.27110000  0.21715000  1.0
  C  C117  1  0.24606000  0.22891000  0.71715000  1.0
  C  C118  1  0.24606000  0.72891000  0.78286000  1.0
  C  C119  1  0.75394000  0.77109000  0.28285000  1.0
  C  C120  1  0.73148000  0.27307000  0.16516000  1.0
  C  C121  1  0.26851000  0.22693000  0.66516000  1.0
  C  C122  1  0.26853000  0.72693000  0.83484000  1.0
  C  C123  1  0.73148000  0.77308000  0.33484000  1.0
  C  C124  1  0.87809000  0.27151000  0.13477000  1.0
  C  C125  1  0.12190000  0.22850000  0.63477000  1.0
  C  C126  1  0.12191000  0.72849000  0.86523000  1.0
  C  C127  1  0.87809000  0.77151000  0.36523000  1.0
  C  C128  1  0.56014000  0.28617000  0.14041000  1.0
  C  C129  1  0.43986000  0.21383000  0.64041000  1.0
  C  C130  1  0.43987000  0.71383000  0.85959000  1.0
  C  C131  1  0.56013000  0.78618000  0.35959000  1.0
  C  C132  1  0.60629000  0.27644000  0.25369000  1.0
  C  C133  1  0.39371000  0.22356000  0.75369000  1.0
  C  C134  1  0.39371000  0.72358000  0.74631000  1.0
  C  C135  1  0.60628000  0.77643000  0.24631000  1.0
  C  C136  1  0.18119000  0.12904000  0.07468000  1.0
  C  C137  1  0.81881000  0.37097000  0.57468000  1.0
  C  C138  1  0.81879000  0.87096000  0.92531000  1.0
  C  C139  1  0.18122000  0.62904000  0.42532000  1.0
  C  C140  1  0.11678000  0.04606000  0.05684000  1.0
  C  C141  1  0.88323000  0.45394000  0.55684000  1.0
  C  C142  1  0.88317000  0.95394000  0.94316000  1.0
  C  C143  1  0.11682000  0.54605000  0.44315000  1.0
  C  C144  1  0.03346000  0.04386000  0.01033000  1.0
  C  C145  1  0.96654000  0.45614000  0.51033000  1.0
  C  C146  1  0.96646000  0.95615000  0.98967000  1.0
  C  C147  1  0.03353000  0.54385000  0.48967000  1.0
  C  C148  1  0.01698000  0.12849000  0.98470000  1.0
  C  C149  1  0.98302000  0.37151000  0.48470000  1.0
  C  C150  1  0.98294000  0.87152000  0.01530000  1.0
  C  C151  1  0.01704000  0.62848000  0.51530000  1.0
  C  C152  1  0.08152000  0.20940000  0.00565000  1.0
  C  C153  1  0.91848000  0.29060000  0.50565000  1.0
  C  C154  1  0.91841000  0.79060000  0.99436000  1.0
  C  C155  1  0.08157000  0.70939000  0.49435000  1.0
  C  C156  1  0.42187000  0.81709000  0.05462000  1.0
  C  C157  1  0.57812000  0.68291000  0.55462000  1.0
  C  C158  1  0.57811000  0.18291000  0.94538000  1.0
  C  C159  1  0.42189000  0.31709000  0.44538000  1.0
  C  C160  1  0.44390000  0.87474000  0.01358000  1.0
  C  C161  1  0.55608000  0.62525000  0.51359000  1.0
  C  C162  1  0.55606000  0.12527000  0.98642000  1.0
  C  C163  1  0.44395000  0.37473000  0.48642000  1.0
  C  C164  1  0.49508000  0.96695000  0.02100000  1.0
  C  C165  1  0.50493000  0.53305000  0.52101000  1.0
  C  C166  1  0.50491000  0.03307000  0.97900000  1.0
  C  C167  1  0.49509000  0.46693000  0.47900000  1.0
  C  C168  1  0.53442000  0.99405000  0.07014000  1.0
  C  C169  1  0.46557000  0.50594000  0.57014000  1.0
  C  C170  1  0.46553000  0.00595000  0.92986000  1.0
  C  C171  1  0.53447000  0.49405000  0.42986000  1.0
  C  C172  1  0.50999000  0.93201000  0.10909000  1.0
  C  C173  1  0.48999000  0.56798000  0.60909000  1.0
  C  C174  1  0.48998000  0.06799000  0.89092000  1.0
  C  C175  1  0.51002000  0.43201000  0.39092000  1.0
  N  N176  1  0.57653000  0.64799000  0.13480000  1.0
  N  N177  1  0.42345000  0.85202000  0.63480000  1.0
  N  N178  1  0.42348000  0.35201000  0.86520000  1.0
  N  N179  1  0.57656000  0.14798000  0.36520000  1.0
  N  N180  1  0.03983000  0.26910000  0.15260000  1.0
  N  N181  1  0.96018000  0.23091000  0.65260000  1.0
  N  N182  1  0.96018000  0.73091000  0.84740000  1.0
  N  N183  1  0.03983000  0.76910000  0.34740000  1.0
  N  N184  1  0.16405000  0.20948000  0.04977000  1.0
  N  N185  1  0.83596000  0.29052000  0.54977000  1.0
  N  N186  1  0.83591000  0.79052000  0.95023000  1.0
  N  N187  1  0.16408000  0.70948000  0.45023000  1.0
  N  N188  1  0.44948000  0.84581000  0.10174000  1.0
  N  N189  1  0.55050000  0.65419000  0.60174000  1.0
  N  N190  1  0.55049000  0.15419000  0.89826000  1.0
  N  N191  1  0.44952000  0.34581000  0.39826000  1.0
  O  O192  1  0.98278000  0.42774000  0.04664000  1.0
  O  O193  1  0.01718000  0.07220000  0.54662000  1.0
  O  O194  1  0.01719000  0.57219000  0.95339000  1.0
  O  O195  1  0.98280000  0.92775000  0.45336000  1.0
  O  O196  1  0.12004000  0.46939000  0.11772000  1.0
  O  O197  1  0.87996000  0.03062000  0.61772000  1.0
  O  O198  1  0.88001000  0.53063000  0.88228000  1.0
  O  O199  1  0.12006000  0.96939000  0.38228000  1.0
  O  O200  1  0.33506000  0.43084000  0.02179000  1.0
  O  O201  1  0.66493000  0.06918000  0.52178000  1.0
  O  O202  1  0.66498000  0.56918000  0.97821000  1.0
  O  O203  1  0.33509000  0.93083000  0.47822000  1.0
  O  O204  1  0.14947000  0.67294000  0.08348000  1.0
  O  O205  1  0.85049000  0.82707000  0.58350000  1.0
  O  O206  1  0.85051000  0.32710000  0.91651000  1.0
  O  O207  1  0.14950000  0.17294000  0.41651000  1.0
  O  O208  1  0.26559000  0.90099000  0.20702000  1.0
  O  O209  1  0.73439000  0.59901000  0.70703000  1.0
  O  O210  1  0.73439000  0.09900000  0.79298000  1.0
  O  O211  1  0.26560000  0.40099000  0.29298000  1.0
  O  O212  1  0.10181000  0.69921000  0.16584000  1.0
  O  O213  1  0.89815000  0.80080000  0.66585000  1.0
  O  O214  1  0.89821000  0.30077000  0.83416000  1.0
  O  O215  1  0.10185000  0.19919000  0.33416000  1.0
  O  O216  1  0.60883000  0.34362000  0.28447000  1.0
  O  O217  1  0.39118000  0.15638000  0.78448000  1.0
  O  O218  1  0.39119000  0.65640000  0.71552000  1.0
  O  O219  1  0.60880000  0.84360000  0.21552000  1.0
  O  O220  1  0.49478000  0.21199000  0.25390000  1.0
  O  O221  1  0.50523000  0.28801000  0.75390000  1.0
  O  O222  1  0.50521000  0.78803000  0.74611000  1.0
  O  O223  1  0.49477000  0.71197000  0.24610000  1.0
  O  O224  1  0.53465000  0.24857000  0.09798000  1.0
  O  O225  1  0.46534000  0.25143000  0.59798000  1.0
  O  O226  1  0.46535000  0.75140000  0.90202000  1.0
  O  O227  1  0.53466000  0.74859000  0.40202000  1.0
  O  O228  1  0.45042000  0.33947000  0.16173000  1.0
  O  O229  1  0.54956000  0.16053000  0.66172000  1.0
  O  O230  1  0.54959000  0.66054000  0.83827000  1.0
  O  O231  1  0.45042000  0.83947000  0.33827000  1.0
