# generated using pymatgen
data_Cd3H32C48S4N6(ClO8)2
_symmetry_space_group_name_H-M   'P 1'
_cell_length_a   12.29510000
_cell_length_b   12.29510000
_cell_length_c   19.48760000
_cell_angle_alpha   93.73320000
_cell_angle_beta   93.73320000
_cell_angle_gamma   110.62700000
_symmetry_Int_Tables_number   1
_chemical_formula_structural   Cd3H32C48S4N6(ClO8)2
_chemical_formula_sum   'Cd6 H64 C96 S8 N12 Cl4 O32'
_cell_volume   2738.97270508
_cell_formula_units_Z   2
loop_
 _symmetry_equiv_pos_site_id
 _symmetry_equiv_pos_as_xyz
  1  'x, y, z'
loop_
 _atom_site_type_symbol
 _atom_site_label
 _atom_site_symmetry_multiplicity
 _atom_site_fract_x
 _atom_site_fract_y
 _atom_site_fract_z
 _atom_site_occupancy
  Cd  Cd0  1  0.71324000  0.28676000  0.75000000  1.0
  Cd  Cd1  1  0.28676000  0.71324000  0.25000000  1.0
  Cd  Cd2  1  0.56068000  0.15368000  0.54713000  1.0
  Cd  Cd3  1  0.84632000  0.43932000  0.95287000  1.0
  Cd  Cd4  1  0.43932000  0.84632000  0.45287000  1.0
  Cd  Cd5  1  0.15368000  0.56068000  0.04713000  1.0
  H  H6  1  0.73609000  0.23910000  0.45227000  1.0
  H  H7  1  0.76090000  0.26391000  0.04773000  1.0
  H  H8  1  0.26390000  0.76090000  0.54773000  1.0
  H  H9  1  0.23910000  0.73609000  0.95227000  1.0
  H  H10  1  0.80740000  0.25028000  0.52626000  1.0
  H  H11  1  0.74972000  0.19260000  0.97374000  1.0
  H  H12  1  0.19260000  0.74972000  0.47374000  1.0
  H  H13  1  0.25028000  0.80740000  0.02626000  1.0
  H  H14  1  0.70977000  0.80702000  0.63792000  1.0
  H  H15  1  0.19298000  0.29023000  0.86208000  1.0
  H  H16  1  0.29023000  0.19298000  0.36208000  1.0
  H  H17  1  0.80702000  0.70977000  0.13792000  1.0
  H  H18  1  0.02540000  0.11180000  0.66273000  1.0
  H  H19  1  0.88820000  0.97459000  0.83727000  1.0
  H  H20  1  0.97460000  0.88820000  0.33727000  1.0
  H  H21  1  0.11180000  0.02541000  0.16273000  1.0
  H  H22  1  0.28061000  0.98328000  0.53216000  1.0
  H  H23  1  0.01672000  0.71939000  0.96784000  1.0
  H  H24  1  0.71939000  0.01672000  0.46784000  1.0
  H  H25  1  0.98328000  0.28061000  0.03216000  1.0
  H  H26  1  0.08609000  0.00474000  0.52878000  1.0
  H  H27  1  0.99526000  0.91391000  0.97122000  1.0
  H  H28  1  0.91391000  0.99526000  0.47122000  1.0
  H  H29  1  0.00474000  0.08609000  0.02878000  1.0
  H  H30  1  0.07717000  0.20729000  0.54275000  1.0
  H  H31  1  0.79271000  0.92284000  0.95725000  1.0
  H  H32  1  0.92283000  0.79271000  0.45725000  1.0
  H  H33  1  0.20729000  0.07716000  0.04275000  1.0
  H  H34  1  0.18357000  0.42098000  0.56694000  1.0
  H  H35  1  0.57902000  0.81643000  0.93305000  1.0
  H  H36  1  0.81643000  0.57902000  0.43306000  1.0
  H  H37  1  0.42098000  0.18357000  0.06694000  1.0
  H  H38  1  0.37335000  0.58949000  0.58976000  1.0
  H  H39  1  0.41051000  0.62665000  0.91023000  1.0
  H  H40  1  0.62665000  0.41051000  0.41024000  1.0
  H  H41  1  0.58949000  0.37335000  0.08976000  1.0
  H  H42  1  0.58701000  0.66270000  0.60397000  1.0
  H  H43  1  0.33730000  0.41299000  0.89603000  1.0
  H  H44  1  0.41299000  0.33730000  0.39603000  1.0
  H  H45  1  0.66270000  0.58701000  0.10397000  1.0
  H  H46  1  0.77527000  0.62154000  0.60869000  1.0
  H  H47  1  0.37846000  0.22472000  0.89131000  1.0
  H  H48  1  0.22473000  0.37846000  0.39131000  1.0
  H  H49  1  0.62154000  0.77527000  0.10869000  1.0
  H  H50  1  0.76283000  0.41360000  0.58717000  1.0
  H  H51  1  0.58640000  0.23717000  0.91283000  1.0
  H  H52  1  0.23717000  0.58640000  0.41283000  1.0
  H  H53  1  0.41360000  0.76283000  0.08717000  1.0
  H  H54  1  0.44329000  0.10153000  0.72224000  1.0
  H  H55  1  0.89847000  0.55670000  0.77776000  1.0
  H  H56  1  0.55670000  0.89847000  0.27776000  1.0
  H  H57  1  0.10153000  0.44330000  0.22224000  1.0
  H  H58  1  0.23948000  0.10545000  0.71179000  1.0
  H  H59  1  0.89454000  0.76052000  0.78821000  1.0
  H  H60  1  0.76052000  0.89455000  0.28822000  1.0
  H  H61  1  0.10545000  0.23948000  0.21179000  1.0
  H  H62  1  0.21252000  0.29935000  0.72050000  1.0
  H  H63  1  0.70065000  0.78748000  0.77950000  1.0
  H  H64  1  0.78748000  0.70065000  0.27950000  1.0
  H  H65  1  0.29935000  0.21252000  0.22050000  1.0
  H  H66  1  0.30363000  0.51719000  0.74054000  1.0
  H  H67  1  0.48281000  0.69637000  0.75946000  1.0
  H  H68  1  0.69637000  0.48281000  0.25946000  1.0
  H  H69  1  0.51719000  0.30363000  0.24054000  1.0
  C  C70  1  0.86409000  0.14300000  0.65358000  1.0
  C  C71  1  0.85700000  0.13591000  0.84642000  1.0
  C  C72  1  0.13591000  0.85700000  0.34642000  1.0
  C  C73  1  0.14301000  0.86409000  0.15358000  1.0
  C  C74  1  0.73970000  0.09647000  0.64706000  1.0
  C  C75  1  0.90353000  0.26030000  0.85294000  1.0
  C  C76  1  0.26030000  0.90353000  0.35294000  1.0
  C  C77  1  0.09647000  0.73970000  0.14706000  1.0
  C  C78  1  0.68663000  0.97253000  0.64148000  1.0
  C  C79  1  0.02747000  0.31337000  0.85852000  1.0
  C  C80  1  0.31338000  0.02747000  0.35852000  1.0
  C  C81  1  0.97253000  0.68663000  0.14148000  1.0
  C  C82  1  0.75311000  0.90125000  0.64321000  1.0
  C  C83  1  0.09875000  0.24689000  0.85679000  1.0
  C  C84  1  0.24690000  0.09875000  0.35679000  1.0
  C  C85  1  0.90125000  0.75311000  0.14321000  1.0
  C  C86  1  0.87461000  0.95112000  0.65126000  1.0
  C  C87  1  0.04888000  0.12539000  0.84874000  1.0
  C  C88  1  0.12539000  0.04889000  0.34874000  1.0
  C  C89  1  0.95112000  0.87461000  0.15126000  1.0
  C  C90  1  0.93058000  0.07189000  0.65677000  1.0
  C  C91  1  0.92811000  0.06942000  0.84323000  1.0
  C  C92  1  0.06942000  0.92811000  0.34323000  1.0
  C  C93  1  0.07189000  0.93058000  0.15677000  1.0
  C  C94  1  0.27412000  0.06960000  0.53827000  1.0
  C  C95  1  0.93040000  0.72588000  0.96173000  1.0
  C  C96  1  0.72588000  0.93040000  0.46173000  1.0
  C  C97  1  0.06960000  0.27412000  0.03827000  1.0
  C  C98  1  0.16483000  0.08258000  0.53594000  1.0
  C  C99  1  0.91742000  0.83517000  0.96406000  1.0
  C  C100  1  0.83517000  0.91742000  0.46406000  1.0
  C  C101  1  0.08258000  0.16483000  0.03594000  1.0
  C  C102  1  0.16008000  0.19333000  0.54372000  1.0
  C  C103  1  0.80667000  0.83992000  0.95628000  1.0
  C  C104  1  0.83992000  0.80667000  0.45627000  1.0
  C  C105  1  0.19333000  0.16008000  0.04372000  1.0
  C  C106  1  0.26502000  0.29140000  0.55501000  1.0
  C  C107  1  0.70860000  0.73498000  0.94499000  1.0
  C  C108  1  0.73498000  0.70860000  0.44499000  1.0
  C  C109  1  0.29140000  0.26502000  0.05501000  1.0
  C  C110  1  0.37162000  0.27025000  0.55646000  1.0
  C  C111  1  0.72975000  0.62838000  0.94354000  1.0
  C  C112  1  0.62838000  0.72975000  0.44354000  1.0
  C  C113  1  0.27025000  0.37162000  0.05646000  1.0
  C  C114  1  0.26694000  0.40824000  0.56673000  1.0
  C  C115  1  0.59176000  0.73306000  0.93327000  1.0
  C  C116  1  0.73306000  0.59176000  0.43327000  1.0
  C  C117  1  0.40824000  0.26694000  0.06673000  1.0
  C  C118  1  0.37034000  0.50021000  0.57966000  1.0
  C  C119  1  0.49979000  0.62966000  0.92033000  1.0
  C  C120  1  0.62966000  0.49979000  0.42033000  1.0
  C  C121  1  0.50021000  0.37034000  0.07966000  1.0
  C  C122  1  0.48102000  0.36781000  0.56949000  1.0
  C  C123  1  0.63219000  0.51898000  0.93051000  1.0
  C  C124  1  0.51898000  0.63219000  0.43051000  1.0
  C  C125  1  0.36781000  0.48102000  0.06949000  1.0
  C  C126  1  0.47935000  0.48215000  0.58134000  1.0
  C  C127  1  0.51785000  0.52065000  0.91865000  1.0
  C  C128  1  0.52065000  0.51785000  0.41865000  1.0
  C  C129  1  0.48215000  0.47935000  0.08134000  1.0
  C  C130  1  0.58812000  0.57470000  0.59529000  1.0
  C  C131  1  0.42530000  0.41188000  0.90471000  1.0
  C  C132  1  0.41188000  0.42530000  0.40471000  1.0
  C  C133  1  0.57470000  0.58812000  0.09529000  1.0
  C  C134  1  0.69040000  0.55181000  0.59743000  1.0
  C  C135  1  0.44819000  0.30960000  0.90257000  1.0
  C  C136  1  0.30960000  0.44819000  0.40257000  1.0
  C  C137  1  0.55181000  0.69040000  0.09743000  1.0
  C  C138  1  0.68416000  0.43577000  0.58530000  1.0
  C  C139  1  0.56423000  0.31584000  0.91470000  1.0
  C  C140  1  0.31584000  0.56423000  0.41470000  1.0
  C  C141  1  0.43577000  0.68416000  0.08530000  1.0
  C  C142  1  0.42743000  0.18366000  0.72684000  1.0
  C  C143  1  0.81634000  0.57257000  0.77316000  1.0
  C  C144  1  0.57257000  0.81634000  0.27316000  1.0
  C  C145  1  0.18366000  0.42743000  0.22684000  1.0
  C  C146  1  0.31406000  0.18702000  0.72092000  1.0
  C  C147  1  0.81298000  0.68594000  0.77908000  1.0
  C  C148  1  0.68594000  0.81298000  0.27908000  1.0
  C  C149  1  0.18702000  0.31406000  0.22092000  1.0
  C  C150  1  0.29924000  0.29366000  0.72627000  1.0
  C  C151  1  0.70634000  0.70076000  0.77373000  1.0
  C  C152  1  0.70076000  0.70634000  0.27373000  1.0
  C  C153  1  0.29366000  0.29924000  0.22627000  1.0
  C  C154  1  0.39833000  0.39771000  0.73820000  1.0
  C  C155  1  0.60229000  0.60167000  0.76181000  1.0
  C  C156  1  0.60167000  0.60229000  0.26180000  1.0
  C  C157  1  0.39771000  0.39833000  0.23820000  1.0
  C  C158  1  0.50959000  0.38650000  0.74361000  1.0
  C  C159  1  0.61350000  0.49041000  0.75638000  1.0
  C  C160  1  0.49041000  0.61350000  0.25639000  1.0
  C  C161  1  0.38650000  0.50959000  0.24361000  1.0
  C  C162  1  0.39030000  0.51140000  0.74453000  1.0
  C  C163  1  0.48860000  0.60970000  0.75547000  1.0
  C  C164  1  0.60970000  0.48860000  0.25547000  1.0
  C  C165  1  0.51140000  0.39030000  0.24453000  1.0
  S  S166  1  0.93942000  0.29665000  0.65220000  1.0
  S  S167  1  0.70335000  0.06058000  0.84781000  1.0
  S  S168  1  0.06058000  0.70335000  0.34781000  1.0
  S  S169  1  0.29665000  0.93942000  0.15220000  1.0
  S  S170  1  0.53081000  0.90640000  0.62731000  1.0
  S  S171  1  0.09360000  0.46919000  0.87269000  1.0
  S  S172  1  0.46919000  0.09360000  0.37269000  1.0
  S  S173  1  0.90640000  0.53081000  0.12731000  1.0
  N  N174  1  0.37385000  0.16084000  0.54787000  1.0
  N  N175  1  0.83916000  0.62615000  0.95213000  1.0
  N  N176  1  0.62615000  0.83916000  0.45213000  1.0
  N  N177  1  0.16084000  0.37385000  0.04787000  1.0
  N  N178  1  0.58268000  0.34748000  0.57126000  1.0
  N  N179  1  0.65252000  0.41731000  0.92874000  1.0
  N  N180  1  0.41731000  0.65252000  0.42874000  1.0
  N  N181  1  0.34748000  0.58268000  0.07126000  1.0
  N  N182  1  0.52163000  0.28098000  0.73768000  1.0
  N  N183  1  0.71902000  0.47837000  0.76232000  1.0
  N  N184  1  0.47836000  0.71902000  0.26232000  1.0
  N  N185  1  0.28098000  0.52163000  0.23768000  1.0
  Cl  Cl186  1  0.95800000  0.86221000  0.65162000  1.0
  Cl  Cl187  1  0.13779000  0.04200000  0.84838000  1.0
  Cl  Cl188  1  0.04201000  0.13780000  0.34838000  1.0
  Cl  Cl189  1  0.86221000  0.95800000  0.15162000  1.0
  O  O190  1  0.88844000  0.35603000  0.70212000  1.0
  O  O191  1  0.64397000  0.11156000  0.79788000  1.0
  O  O192  1  0.11156000  0.64397000  0.29788000  1.0
  O  O193  1  0.35603000  0.88844000  0.20211000  1.0
  O  O194  1  0.73662000  0.20076000  0.49429000  1.0
  O  O195  1  0.79924000  0.26338000  0.00571000  1.0
  O  O196  1  0.26338000  0.79924000  0.50571000  1.0
  O  O197  1  0.20076000  0.73662000  0.99429000  1.0
  O  O198  1  0.06243000  0.31860000  0.67037000  1.0
  O  O199  1  0.68140000  0.93757000  0.82963000  1.0
  O  O200  1  0.93757000  0.68140000  0.32963000  1.0
  O  O201  1  0.31860000  0.06243000  0.17037000  1.0
  O  O202  1  0.91666000  0.32262000  0.58044000  1.0
  O  O203  1  0.67738000  0.08334000  0.91956000  1.0
  O  O204  1  0.08334000  0.67738000  0.41956000  1.0
  O  O205  1  0.32262000  0.91666000  0.08044000  1.0
  O  O206  1  0.50344000  0.78125000  0.61081000  1.0
  O  O207  1  0.21875000  0.49656000  0.88919000  1.0
  O  O208  1  0.49656000  0.21875000  0.38919000  1.0
  O  O209  1  0.78125000  0.50344000  0.11081000  1.0
  O  O210  1  0.47731000  0.93862000  0.68530000  1.0
  O  O211  1  0.06138000  0.52269000  0.81470000  1.0
  O  O212  1  0.52270000  0.06138000  0.31470000  1.0
  O  O213  1  0.93862000  0.47731000  0.18530000  1.0
  O  O214  1  0.50226000  0.95710000  0.56240000  1.0
  O  O215  1  0.04291000  0.49773000  0.93761000  1.0
  O  O216  1  0.49774000  0.04290000  0.43760000  1.0
  O  O217  1  0.95710000  0.50227000  0.06240000  1.0
  O  O218  1  0.67785000  0.16540000  0.64572000  1.0
  O  O219  1  0.83460000  0.32215000  0.85428000  1.0
  O  O220  1  0.32215000  0.83460000  0.35428000  1.0
  O  O221  1  0.16540000  0.67785000  0.14572000  1.0
