# generated using pymatgen
data_Zn3H34C38(NO3)4
_symmetry_space_group_name_H-M   'P 1'
_cell_length_a   9.78256000
_cell_length_b   10.16460000
_cell_length_c   11.16520000
_cell_angle_alpha   113.09200000
_cell_angle_beta   99.51800000
_cell_angle_gamma   110.37300000
_symmetry_Int_Tables_number   1
_chemical_formula_structural   Zn3H34C38(NO3)4
_chemical_formula_sum   'Zn3 H34 C38 N4 O12'
_cell_volume   896.79365784
_cell_formula_units_Z   1
loop_
 _symmetry_equiv_pos_site_id
 _symmetry_equiv_pos_as_xyz
  1  'x, y, z'
loop_
 _atom_site_type_symbol
 _atom_site_label
 _atom_site_symmetry_multiplicity
 _atom_site_fract_x
 _atom_site_fract_y
 _atom_site_fract_z
 _atom_site_occupancy
  Zn  Zn0  1  0.00000000  0.00000000  0.50000000  1.0
  Zn  Zn1  1  0.30076000  0.14663000  0.77210000  1.0
  Zn  Zn2  1  0.69924000  0.85337000  0.22790000  1.0
  H  H3  1  0.21796000  0.32176000  0.36358000  1.0
  H  H4  1  0.78205000  0.67825000  0.63642000  1.0
  H  H5  1  0.82328000  0.29841000  0.75745000  1.0
  H  H6  1  0.17673000  0.70161000  0.24255000  1.0
  H  H7  1  0.62713000  0.47459000  0.69605000  1.0
  H  H8  1  0.37287000  0.52541000  0.30395000  1.0
  H  H9  1  0.36146000  0.90012000  0.61643000  1.0
  H  H10  1  0.63854000  0.09987000  0.38356000  1.0
  H  H11  1  0.51255000  0.84364000  0.62144000  1.0
  H  H12  1  0.48746000  0.15636000  0.37856000  1.0
  H  H13  1  0.25319000  0.50556000  0.08920000  1.0
  H  H14  1  0.74682000  0.49445000  0.91080000  1.0
  H  H15  1  0.77276000  0.20915000  0.12165000  1.0
  H  H16  1  0.22724000  0.79084000  0.87835000  1.0
  H  H17  1  0.07248000  0.68256000  0.39962000  1.0
  H  H18  1  0.92752000  0.31744000  0.60038000  1.0
  H  H19  1  0.67095000  0.05577000  0.58096000  1.0
  H  H20  1  0.32905000  0.94424000  0.41904000  1.0
  H  H21  1  0.56166000  0.16229000  0.63121000  1.0
  H  H22  1  0.43834000  0.83772000  0.36880000  1.0
  H  H23  1  0.99357000  0.60736000  0.73993000  1.0
  H  H24  1  0.00642000  0.39263000  0.26007000  1.0
  H  H25  1  0.74876000  0.91873000  0.74435000  1.0
  H  H26  1  0.25123000  0.08126000  0.25565000  1.0
  H  H27  1  0.76337000  0.89887000  0.89715000  1.0
  H  H28  1  0.23662000  0.10112000  0.10285000  1.0
  H  H29  1  0.89729000  0.07241000  0.90431000  1.0
  H  H30  1  0.10270000  0.92759000  0.09569000  1.0
  H  H31  1  0.42187000  0.32656000  0.06355000  1.0
  H  H32  1  0.57811000  0.67343000  0.93646000  1.0
  H  H33  1  0.62409000  0.45346000  0.15174000  1.0
  H  H34  1  0.37589000  0.54652000  0.84826000  1.0
  H  H35  1  0.52706000  0.30573000  0.19544000  1.0
  H  H36  1  0.47292000  0.69425000  0.80455000  1.0
  C  C37  1  0.41335000  0.38635000  0.53345000  1.0
  C  C38  1  0.58665000  0.61365000  0.46655000  1.0
  C  C39  1  0.32107000  0.26615000  0.57094000  1.0
  C  C40  1  0.67893000  0.73385000  0.42906000  1.0
  C  C41  1  0.08952000  0.27271000  0.82178000  1.0
  C  C42  1  0.91049000  0.72729000  0.17822000  1.0
  C  C43  1  0.34121000  0.40054000  0.42293000  1.0
  C  C44  1  0.65879000  0.59946000  0.57708000  1.0
  C  C45  1  0.08800000  0.83749000  0.66635000  1.0
  C  C46  1  0.91200000  0.16251000  0.33365000  1.0
  C  C47  1  0.90052000  0.38757000  0.86365000  1.0
  C  C48  1  0.09949000  0.61243000  0.13635000  1.0
  C  C49  1  0.57262000  0.48637000  0.61013000  1.0
  C  C50  1  0.42738000  0.51363000  0.38986000  1.0
  C  C51  1  0.03850000  0.66261000  0.57823000  1.0
  C  C52  1  0.96149000  0.33739000  0.42177000  1.0
  C  C53  1  0.48841000  0.94729000  0.64912000  1.0
  C  C54  1  0.51159000  0.05272000  0.35088000  1.0
  C  C55  1  0.67421000  0.06245000  0.89385000  1.0
  C  C56  1  0.32579000  0.93754000  0.10615000  1.0
  C  C57  1  0.14194000  0.50312000  0.05130000  1.0
  C  C58  1  0.85807000  0.49689000  0.94870000  1.0
  C  C59  1  0.68682000  0.17028000  0.02456000  1.0
  C  C60  1  0.31317000  0.82971000  0.97544000  1.0
  C  C61  1  0.04184000  0.60181000  0.44285000  1.0
  C  C62  1  0.95816000  0.39818000  0.55714000  1.0
  C  C63  1  0.55299000  0.04166000  0.57582000  1.0
  C  C64  1  0.44701000  0.95835000  0.42418000  1.0
  C  C65  1  0.04261000  0.38945000  0.91387000  1.0
  C  C66  1  0.95740000  0.61055000  0.08613000  1.0
  C  C67  1  0.99629000  0.55952000  0.63476000  1.0
  C  C68  1  0.00370000  0.44048000  0.36524000  1.0
  C  C69  1  0.77445000  0.98293000  0.85642000  1.0
  C  C70  1  0.22554000  0.01706000  0.14358000  1.0
  C  C71  1  0.53250000  0.33019000  0.10853000  1.0
  C  C72  1  0.46749000  0.66980000  0.89147000  1.0
  C  C73  1  0.56775000  0.21382000  0.00397000  1.0
  C  C74  1  0.43224000  0.78618000  0.99603000  1.0
  N  N75  1  0.48387000  0.13494000  0.86676000  1.0
  N  N76  1  0.51613000  0.86505000  0.13323000  1.0
  N  N77  1  0.54967000  0.04256000  0.80039000  1.0
  N  N78  1  0.45033000  0.95744000  0.19961000  1.0
  O  O79  1  0.14463000  0.93101000  0.61192000  1.0
  O  O80  1  0.85537000  0.06899000  0.38808000  1.0
  O  O81  1  0.18170000  0.16644000  0.49006000  1.0
  O  O82  1  0.81830000  0.83356000  0.50994000  1.0
  O  O83  1  0.21753000  0.27883000  0.88242000  1.0
  O  O84  1  0.78249000  0.72117000  0.11758000  1.0
  O  O85  1  0.39195000  0.27359000  0.68196000  1.0
  O  O86  1  0.60805000  0.72642000  0.31804000  1.0
  O  O87  1  0.00496000  0.18014000  0.69506000  1.0
  O  O88  1  0.99505000  0.81987000  0.30494000  1.0
  O  O89  1  0.08780000  0.89272000  0.78700000  1.0
  O  O90  1  0.91221000  0.10728000  0.21300000  1.0
