# generated using pymatgen
data_ZnTeH4CN
_symmetry_space_group_name_H-M   'P 1'
_cell_length_a   6.91999000
_cell_length_b   6.99208000
_cell_length_c   17.15090000
_cell_angle_alpha   89.99990000
_cell_angle_beta   89.99950000
_cell_angle_gamma   89.99910000
_symmetry_Int_Tables_number   1
_chemical_formula_structural   ZnTeH4CN
_chemical_formula_sum   'Zn8 Te8 H32 C8 N8'
_cell_volume   829.84841757
_cell_formula_units_Z   8
loop_
 _symmetry_equiv_pos_site_id
 _symmetry_equiv_pos_as_xyz
  1  'x, y, z'
loop_
 _atom_site_type_symbol
 _atom_site_label
 _atom_site_symmetry_multiplicity
 _atom_site_fract_x
 _atom_site_fract_y
 _atom_site_fract_z
 _atom_site_occupancy
  Zn  Zn0  1  0.21201000  0.89878000  0.30346000  1.0
  Zn  Zn1  1  0.78798000  0.60122000  0.80346000  1.0
  Zn  Zn2  1  0.28798000  0.39879000  0.69654000  1.0
  Zn  Zn3  1  0.71201000  0.10121000  0.19654000  1.0
  Zn  Zn4  1  0.78799000  0.10123000  0.69654000  1.0
  Zn  Zn5  1  0.21201000  0.39878000  0.19654000  1.0
  Zn  Zn6  1  0.71201000  0.60121000  0.30346000  1.0
  Zn  Zn7  1  0.28799000  0.89879000  0.80346000  1.0
  Te  Te8  1  0.08428000  0.54667000  0.32816000  1.0
  Te  Te9  1  0.91571000  0.95333000  0.82816000  1.0
  Te  Te10  1  0.41572000  0.04668000  0.67184000  1.0
  Te  Te11  1  0.58428000  0.45332000  0.17184000  1.0
  Te  Te12  1  0.91572000  0.45333000  0.67184000  1.0
  Te  Te13  1  0.08428000  0.04667000  0.17184000  1.0
  Te  Te14  1  0.58428000  0.95332000  0.32816000  1.0
  Te  Te15  1  0.41571000  0.54668000  0.82816000  1.0
  H  H16  1  0.11497000  0.18710000  0.39614000  1.0
  H  H17  1  0.88502000  0.31291000  0.89614000  1.0
  H  H18  1  0.38503000  0.68709000  0.60386000  1.0
  H  H19  1  0.61498000  0.81290000  0.10386000  1.0
  H  H20  1  0.88502000  0.81292000  0.60386000  1.0
  H  H21  1  0.11498000  0.68709000  0.10386000  1.0
  H  H22  1  0.61497000  0.31290000  0.39614000  1.0
  H  H23  1  0.38502000  0.18710000  0.89614000  1.0
  H  H24  1  0.92790000  0.05229000  0.37479000  1.0
  H  H25  1  0.07210000  0.44771000  0.87479000  1.0
  H  H26  1  0.57210000  0.55229000  0.62521000  1.0
  H  H27  1  0.42791000  0.94771000  0.12521000  1.0
  H  H28  1  0.07210000  0.94771000  0.62521000  1.0
  H  H29  1  0.92790000  0.55229000  0.12521000  1.0
  H  H30  1  0.42790000  0.44771000  0.37479000  1.0
  H  H31  1  0.57209000  0.05229000  0.87479000  1.0
  H  H32  1  0.22040000  0.97093000  0.49590000  1.0
  H  H33  1  0.77959000  0.52908000  0.99590000  1.0
  H  H34  1  0.27958000  0.47093000  0.50410000  1.0
  H  H35  1  0.72042000  0.02908000  0.00410000  1.0
  H  H36  1  0.77956000  0.02910000  0.50410000  1.0
  H  H37  1  0.22044000  0.47091000  0.00410000  1.0
  H  H38  1  0.72043000  0.52906000  0.49590000  1.0
  H  H39  1  0.27958000  0.97091000  0.99590000  1.0
  H  H40  1  0.04536000  0.80294000  0.46402000  1.0
  H  H41  1  0.95464000  0.69707000  0.96402000  1.0
  H  H42  1  0.45462000  0.30294000  0.53598000  1.0
  H  H43  1  0.54537000  0.19706000  0.03598000  1.0
  H  H44  1  0.95464000  0.19709000  0.53599000  1.0
  H  H45  1  0.04537000  0.30291000  0.03599000  1.0
  H  H46  1  0.54538000  0.69706000  0.46401000  1.0
  H  H47  1  0.45464000  0.80293000  0.96401000  1.0
  C  C48  1  0.07359000  0.95688000  0.47182000  1.0
  C  C49  1  0.92642000  0.54311000  0.97183000  1.0
  C  C50  1  0.42643000  0.45689000  0.52818000  1.0
  C  C51  1  0.57360000  0.04311000  0.02818000  1.0
  C  C52  1  0.92645000  0.04308000  0.52818000  1.0
  C  C53  1  0.07357000  0.45692000  0.02818000  1.0
  C  C54  1  0.57357000  0.54310000  0.47182000  1.0
  C  C55  1  0.42644000  0.95690000  0.97182000  1.0
  N  N56  1  0.06907000  0.04707000  0.39424000  1.0
  N  N57  1  0.93092000  0.45292000  0.89424000  1.0
  N  N58  1  0.43092000  0.54710000  0.60577000  1.0
  N  N59  1  0.56907000  0.95292000  0.10576000  1.0
  N  N60  1  0.93092000  0.95292000  0.60578000  1.0
  N  N61  1  0.06908000  0.54708000  0.10578000  1.0
  N  N62  1  0.56908000  0.45290000  0.39423000  1.0
  N  N63  1  0.43093000  0.04709000  0.89422000  1.0
