# generated using pymatgen
data_Cu2H12C17(NO2)6
_symmetry_space_group_name_H-M   'P 1'
_cell_length_a   10.55952115
_cell_length_b   10.56000000
_cell_length_c   17.02370000
_cell_angle_alpha   89.99920000
_cell_angle_beta   90.00000000
_cell_angle_gamma   119.99850000
_symmetry_Int_Tables_number   1
_chemical_formula_structural   Cu2H12C17(NO2)6
_chemical_formula_sum   'Cu6 H36 C51 N18 O36'
_cell_volume   1643.99047073
_cell_formula_units_Z   3
loop_
 _symmetry_equiv_pos_site_id
 _symmetry_equiv_pos_as_xyz
  1  'x, y, z'
loop_
 _atom_site_type_symbol
 _atom_site_label
 _atom_site_symmetry_multiplicity
 _atom_site_fract_x
 _atom_site_fract_y
 _atom_site_fract_z
 _atom_site_occupancy
  Cu  Cu0  1  0.43733000  0.13727000  0.36404000  1.0
  Cu  Cu1  1  0.69988000  0.56260000  0.03072000  1.0
  Cu  Cu2  1  0.86276000  0.30011000  0.69734000  1.0
  Cu  Cu3  1  0.13728000  0.43739000  0.96928000  1.0
  Cu  Cu4  1  0.56265000  0.69989000  0.30266000  1.0
  Cu  Cu5  1  0.30006000  0.86273000  0.63596000  1.0
  H  H6  1  0.48790000  0.09883000  0.07365000  1.0
  H  H7  1  0.61085000  0.51208000  0.74032000  1.0
  H  H8  1  0.90112000  0.38905000  0.40691000  1.0
  H  H9  1  0.09876000  0.48791000  0.25968000  1.0
  H  H10  1  0.51206000  0.61094000  0.59309000  1.0
  H  H11  1  0.38907000  0.90117000  0.92635000  1.0
  H  H12  1  0.58067000  0.26021000  0.19156000  1.0
  H  H13  1  0.67946000  0.41930000  0.85823000  1.0
  H  H14  1  0.73984000  0.32050000  0.52487000  1.0
  H  H15  1  0.26015000  0.58069000  0.14178000  1.0
  H  H16  1  0.41934000  0.67950000  0.47513000  1.0
  H  H17  1  0.32046000  0.73980000  0.80844000  1.0
  H  H18  1  0.26772000  0.84232000  0.10750000  1.0
  H  H19  1  0.57455000  0.73230000  0.77417000  1.0
  H  H20  1  0.15769000  0.42542000  0.44070000  1.0
  H  H21  1  0.84224000  0.26770000  0.22583000  1.0
  H  H22  1  0.73227000  0.57458000  0.55930000  1.0
  H  H23  1  0.42540000  0.15768000  0.89251000  1.0
  H  H24  1  0.11224000  0.73331000  0.24837000  1.0
  H  H25  1  0.62111000  0.88780000  0.91508000  1.0
  H  H26  1  0.26679000  0.37902000  0.58170000  1.0
  H  H27  1  0.73330000  0.11219000  0.08492000  1.0
  H  H28  1  0.88777000  0.62098000  0.41830000  1.0
  H  H29  1  0.37894000  0.26670000  0.75163000  1.0
  H  H30  1  0.10814000  0.88026000  0.29598000  1.0
  H  H31  1  0.77209000  0.89177000  0.96269000  1.0
  H  H32  1  0.11982000  0.22801000  0.62929000  1.0
  H  H33  1  0.88032000  0.10823000  0.03731000  1.0
  H  H34  1  0.89181000  0.77199000  0.37071000  1.0
  H  H35  1  0.22789000  0.11975000  0.70402000  1.0
  H  H36  1  0.13626000  0.72630000  0.39277000  1.0
  H  H37  1  0.58997000  0.86368000  0.05947000  1.0
  H  H38  1  0.27374000  0.41004000  0.72607000  1.0
  H  H39  1  0.72629000  0.13632000  0.94052000  1.0
  H  H40  1  0.86370000  0.58996000  0.27393000  1.0
  H  H41  1  0.40997000  0.27371000  0.60723000  1.0
  C  C42  1  0.49051000  0.14861000  0.19255000  1.0
  C  C43  1  0.65795000  0.50942000  0.85923000  1.0
  C  C44  1  0.85146000  0.34197000  0.52584000  1.0
  C  C45  1  0.14852000  0.49057000  0.14077000  1.0
  C  C46  1  0.50949000  0.65803000  0.47416000  1.0
  C  C47  1  0.34191000  0.85140000  0.80745000  1.0
  C  C48  1  0.32379000  0.92990000  0.14953000  1.0
  C  C49  1  0.60603000  0.67620000  0.81621000  1.0
  C  C50  1  0.07014000  0.39389000  0.48277000  1.0
  C  C51  1  0.92982000  0.32379000  0.18379000  1.0
  C  C52  1  0.67625000  0.60611000  0.51723000  1.0
  C  C53  1  0.39390000  0.07012000  0.85047000  1.0
  C  C54  1  0.29911000  0.94088000  0.22798000  1.0
  C  C55  1  0.64169000  0.70085000  0.89466000  1.0
  C  C56  1  0.05920000  0.35829000  0.56124000  1.0
  C  C57  1  0.94083000  0.29914000  0.10534000  1.0
  C  C58  1  0.70091000  0.64171000  0.43876000  1.0
  C  C59  1  0.35823000  0.05912000  0.77203000  1.0
  C  C60  1  0.17949000  0.83585000  0.28046000  1.0
  C  C61  1  0.65635000  0.82049000  0.94715000  1.0
  C  C62  1  0.16422000  0.34374000  0.61376000  1.0
  C  C63  1  0.83586000  0.17951000  0.05285000  1.0
  C  C64  1  0.82048000  0.65626000  0.38624000  1.0
  C  C65  1  0.34365000  0.16416000  0.71954000  1.0
  C  C66  1  0.23258000  0.80251000  0.35804000  1.0
  C  C67  1  0.56988000  0.76739000  0.02472000  1.0
  C  C68  1  0.19751000  0.43016000  0.69135000  1.0
  C  C69  1  0.80249000  0.23261000  0.97528000  1.0
  C  C70  1  0.76735000  0.56984000  0.30865000  1.0
  C  C71  1  0.43008000  0.19750000  0.64196000  1.0
  C  C72  1  0.32734000  0.92688000  0.47959000  1.0
  C  C73  1  0.59948000  0.67260000  0.14627000  1.0
  C  C74  1  0.07314000  0.40056000  0.81292000  1.0
  C  C75  1  0.92688000  0.32740000  0.85373000  1.0
  C  C76  1  0.67258000  0.59944000  0.18708000  1.0
  C  C77  1  0.40046000  0.07312000  0.52041000  1.0
  C  C78  1  0.31335000  0.71885000  0.33900000  1.0
  C  C79  1  0.40547000  0.68665000  0.00566000  1.0
  C  C80  1  0.28117000  0.59459000  0.67235000  1.0
  C  C81  1  0.71882000  0.31335000  0.99434000  1.0
  C  C82  1  0.68658000  0.40541000  0.32765000  1.0
  C  C83  1  0.59450000  0.28115000  0.66100000  1.0
  C  C84  1  0.71851000  0.04561000  0.35634000  1.0
  C  C85  1  0.32739000  0.28162000  0.02296000  1.0
  C  C86  1  0.95435000  0.67293000  0.68980000  1.0
  C  C87  1  0.04577000  0.71837000  0.97704000  1.0
  C  C88  1  0.28143000  0.32708000  0.31019000  1.0
  C  C89  1  0.67289000  0.95439000  0.64367000  1.0
  C  C90  1  0.03180000  0.03163000  0.16652000  1.0
  C  C91  1  0.00019000  0.96838000  0.83350000  1.0
  C  C92  1  0.96825000  0.99999000  0.50000000  1.0
  N  N93  1  0.40516000  0.07832000  0.25386000  1.0
  N  N94  1  0.67302000  0.59476000  0.92054000  1.0
  N  N95  1  0.92177000  0.32693000  0.58714000  1.0
  N  N96  1  0.07826000  0.40524000  0.07946000  1.0
  N  N97  1  0.59484000  0.67307000  0.41286000  1.0
  N  N98  1  0.32684000  0.92168000  0.74614000  1.0
  N  N99  1  0.44427000  0.06119000  0.12891000  1.0
  N  N100  1  0.61680000  0.55569000  0.79559000  1.0
  N  N101  1  0.93884000  0.38312000  0.46218000  1.0
  N  N102  1  0.06110000  0.44431000  0.20441000  1.0
  N  N103  1  0.55572000  0.61688000  0.53782000  1.0
  N  N104  1  0.38308000  0.93881000  0.87109000  1.0
  N  N105  1  0.31698000  0.93595000  0.40296000  1.0
  N  N106  1  0.61887000  0.68292000  0.06964000  1.0
  N  N107  1  0.06406000  0.38113000  0.73628000  1.0
  N  N108  1  0.93595000  0.31708000  0.93036000  1.0
  N  N109  1  0.68293000  0.61887000  0.26372000  1.0
  N  N110  1  0.38103000  0.06405000  0.59704000  1.0
  O  O111  1  0.27687000  0.81005000  0.52113000  1.0
  O  O112  1  0.53322000  0.72319000  0.18781000  1.0
  O  O113  1  0.18996000  0.46691000  0.85446000  1.0
  O  O114  1  0.81003000  0.27681000  0.81219000  1.0
  O  O115  1  0.72304000  0.53308000  0.14554000  1.0
  O  O116  1  0.46683000  0.18997000  0.47887000  1.0
  O  O117  1  0.23842000  0.58256000  0.32956000  1.0
  O  O118  1  0.34407000  0.76155000  0.99626000  1.0
  O  O119  1  0.41748000  0.65603000  0.66294000  1.0
  O  O120  1  0.58251000  0.23844000  0.00374000  1.0
  O  O121  1  0.76145000  0.34397000  0.33706000  1.0
  O  O122  1  0.65587000  0.41744000  0.67044000  1.0
  O  O123  1  0.45235000  0.79643000  0.33219000  1.0
  O  O124  1  0.34411000  0.54766000  0.99877000  1.0
  O  O125  1  0.20354000  0.65595000  0.66552000  1.0
  O  O126  1  0.79644000  0.45233000  0.00123000  1.0
  O  O127  1  0.54759000  0.34406000  0.33448000  1.0
  O  O128  1  0.65592000  0.20357000  0.66781000  1.0
  O  O129  1  0.69306000  0.05636000  0.42231000  1.0
  O  O130  1  0.36352000  0.30711000  0.08895000  1.0
  O  O131  1  0.94355000  0.63651000  0.75574000  1.0
  O  O132  1  0.05641000  0.69289000  0.91106000  1.0
  O  O133  1  0.30706000  0.36351000  0.24426000  1.0
  O  O134  1  0.63667000  0.94362000  0.57770000  1.0
  O  O135  1  0.74676000  0.03460000  0.29069000  1.0
  O  O136  1  0.28822000  0.25334000  0.95731000  1.0
  O  O137  1  0.96539000  0.71240000  0.62420000  1.0
  O  O138  1  0.03488000  0.74665000  0.04269000  1.0
  O  O139  1  0.25298000  0.28760000  0.37580000  1.0
  O  O140  1  0.71216000  0.96541000  0.70931000  1.0
  O  O141  1  0.02709000  0.03488000  0.23545000  1.0
  O  O142  1  0.00812000  0.97267000  0.90244000  1.0
  O  O143  1  0.96487000  0.99217000  0.56895000  1.0
  O  O144  1  0.03541000  0.02729000  0.09758000  1.0
  O  O145  1  0.97273000  0.00781000  0.43107000  1.0
  O  O146  1  0.99224000  0.96518000  0.76457000  1.0
