# generated using pymatgen
data_Ag2H5C4NO4
_symmetry_space_group_name_H-M   'P 1'
_cell_length_a   6.88800000
_cell_length_b   9.45968000
_cell_length_c   19.54150000
_cell_angle_alpha   90.00000000
_cell_angle_beta   89.99990000
_cell_angle_gamma   90.00000000
_symmetry_Int_Tables_number   1
_chemical_formula_structural   Ag2H5C4NO4
_chemical_formula_sum   'Ag16 H40 C32 N8 O32'
_cell_volume   1273.29044733
_cell_formula_units_Z   8
loop_
 _symmetry_equiv_pos_site_id
 _symmetry_equiv_pos_as_xyz
  1  'x, y, z'
loop_
 _atom_site_type_symbol
 _atom_site_label
 _atom_site_symmetry_multiplicity
 _atom_site_fract_x
 _atom_site_fract_y
 _atom_site_fract_z
 _atom_site_occupancy
  Ag  Ag0  1  0.13507000  0.55949000  0.42724000  1.0
  Ag  Ag1  1  0.63507000  0.55949000  0.07276000  1.0
  Ag  Ag2  1  0.13507000  0.94051000  0.92724000  1.0
  Ag  Ag3  1  0.36493000  0.05949000  0.42724000  1.0
  Ag  Ag4  1  0.86493000  0.44051000  0.57276000  1.0
  Ag  Ag5  1  0.36493000  0.44051000  0.92724000  1.0
  Ag  Ag6  1  0.86493000  0.05949000  0.07276000  1.0
  Ag  Ag7  1  0.63507000  0.94051000  0.57276000  1.0
  Ag  Ag8  1  0.94691000  0.42172000  0.13948000  1.0
  Ag  Ag9  1  0.44691000  0.42172000  0.36052000  1.0
  Ag  Ag10  1  0.94691000  0.07828000  0.63948000  1.0
  Ag  Ag11  1  0.55309000  0.92172000  0.13948000  1.0
  Ag  Ag12  1  0.05309000  0.57828000  0.86052000  1.0
  Ag  Ag13  1  0.55309000  0.57828000  0.63948000  1.0
  Ag  Ag14  1  0.05309000  0.92172000  0.36052000  1.0
  Ag  Ag15  1  0.44691000  0.07828000  0.86052000  1.0
  H  H16  1  0.26733000  0.58644000  0.15021000  1.0
  H  H17  1  0.76733000  0.58644000  0.34979000  1.0
  H  H18  1  0.26733000  0.91356000  0.65021000  1.0
  H  H19  1  0.23267000  0.08644000  0.15021000  1.0
  H  H20  1  0.73267000  0.41356000  0.84979000  1.0
  H  H21  1  0.23266000  0.41356000  0.65021000  1.0
  H  H22  1  0.73267000  0.08644000  0.34979000  1.0
  H  H23  1  0.76733000  0.91356000  0.84979000  1.0
  H  H24  1  0.18777000  0.79734000  0.21452000  1.0
  H  H25  1  0.68777000  0.79734000  0.28548000  1.0
  H  H26  1  0.18777000  0.70266000  0.71452000  1.0
  H  H27  1  0.31223000  0.29734000  0.21452000  1.0
  H  H28  1  0.81223000  0.20266000  0.78548000  1.0
  H  H29  1  0.31223000  0.20266000  0.71452000  1.0
  H  H30  1  0.81223000  0.29734000  0.28548000  1.0
  H  H31  1  0.68777000  0.70266000  0.78548000  1.0
  H  H32  1  0.94328000  0.74629000  0.21009000  1.0
  H  H33  1  0.44328000  0.74629000  0.28991000  1.0
  H  H34  1  0.94328000  0.75371000  0.71009000  1.0
  H  H35  1  0.55672000  0.24629000  0.21009000  1.0
  H  H36  1  0.05672000  0.25371000  0.78991000  1.0
  H  H37  1  0.55672000  0.25371000  0.71009000  1.0
  H  H38  1  0.05672000  0.24629000  0.28991000  1.0
  H  H39  1  0.44328000  0.75371000  0.78991000  1.0
  H  H40  1  0.21557000  0.80812000  0.09178000  1.0
  H  H41  1  0.71557000  0.80812000  0.40822000  1.0
  H  H42  1  0.21557000  0.69188000  0.59178000  1.0
  H  H43  1  0.28443000  0.30812000  0.09178000  1.0
  H  H44  1  0.78443000  0.19188000  0.90822000  1.0
  H  H45  1  0.28443000  0.19188000  0.59178000  1.0
  H  H46  1  0.78443000  0.30812000  0.40822000  1.0
  H  H47  1  0.71557000  0.69188000  0.90822000  1.0
  H  H48  1  0.96687000  0.76103000  0.08436000  1.0
  H  H49  1  0.46687000  0.76103000  0.41564000  1.0
  H  H50  1  0.96687000  0.73897000  0.58436000  1.0
  H  H51  1  0.53313000  0.26103000  0.08436000  1.0
  H  H52  1  0.03313000  0.23897000  0.91564000  1.0
  H  H53  1  0.53313000  0.23897000  0.58436000  1.0
  H  H54  1  0.03313000  0.26103000  0.41564000  1.0
  H  H55  1  0.46687000  0.73897000  0.91564000  1.0
  C  C56  1  0.12420000  0.61459000  0.27420000  1.0
  C  C57  1  0.62420000  0.61459000  0.22580000  1.0
  C  C58  1  0.12420000  0.88541000  0.77420000  1.0
  C  C59  1  0.37580000  0.11459000  0.27420000  1.0
  C  C60  1  0.87580000  0.38541000  0.72580000  1.0
  C  C61  1  0.37580000  0.38541000  0.77420000  1.0
  C  C62  1  0.87580000  0.11459000  0.22580000  1.0
  C  C63  1  0.62420000  0.88541000  0.72580000  1.0
  C  C64  1  0.09153000  0.70396000  0.21070000  1.0
  C  C65  1  0.59153000  0.70396000  0.28930000  1.0
  C  C66  1  0.09153000  0.79604000  0.71070000  1.0
  C  C67  1  0.40847000  0.20396000  0.21070000  1.0
  C  C68  1  0.90847000  0.29604000  0.78930000  1.0
  C  C69  1  0.40847000  0.29604000  0.71070000  1.0
  C  C70  1  0.90847000  0.20396000  0.28930000  1.0
  C  C71  1  0.59153000  0.79604000  0.78930000  1.0
  C  C72  1  0.16266000  0.64265000  0.02114000  1.0
  C  C73  1  0.66266000  0.64266000  0.47886000  1.0
  C  C74  1  0.16266000  0.85735000  0.52114000  1.0
  C  C75  1  0.33734000  0.14266000  0.02114000  1.0
  C  C76  1  0.83734000  0.35734000  0.97886000  1.0
  C  C77  1  0.33734000  0.35735000  0.52114000  1.0
  C  C78  1  0.83734000  0.14266000  0.47886000  1.0
  C  C79  1  0.66266000  0.85734000  0.97886000  1.0
  C  C80  1  0.11436000  0.71720000  0.08772000  1.0
  C  C81  1  0.61436000  0.71721000  0.41228000  1.0
  C  C82  1  0.11436000  0.78280000  0.58772000  1.0
  C  C83  1  0.38564000  0.21720000  0.08772000  1.0
  C  C84  1  0.88564000  0.28280000  0.91228000  1.0
  C  C85  1  0.38564000  0.28280000  0.58772000  1.0
  C  C86  1  0.88564000  0.21721000  0.41228000  1.0
  C  C87  1  0.61436000  0.78280000  0.91228000  1.0
  N  N88  1  0.12794000  0.62408000  0.14769000  1.0
  N  N89  1  0.62794000  0.62408000  0.35231000  1.0
  N  N90  1  0.12794000  0.87592000  0.64769000  1.0
  N  N91  1  0.37206000  0.12408000  0.14769000  1.0
  N  N92  1  0.87206000  0.37592000  0.85231000  1.0
  N  N93  1  0.37205000  0.37592000  0.64769000  1.0
  N  N94  1  0.87206000  0.12408000  0.35231000  1.0
  N  N95  1  0.62794000  0.87592000  0.85231000  1.0
  O  O96  1  0.06957000  0.67200000  0.33126000  1.0
  O  O97  1  0.56957000  0.67200000  0.16874000  1.0
  O  O98  1  0.06957000  0.82800000  0.83126000  1.0
  O  O99  1  0.43043000  0.17200000  0.33126000  1.0
  O  O100  1  0.93043000  0.32800000  0.66874000  1.0
  O  O101  1  0.43043000  0.32800000  0.83126000  1.0
  O  O102  1  0.93044000  0.17200000  0.16874000  1.0
  O  O103  1  0.56957000  0.82800000  0.66874000  1.0
  O  O104  1  0.20546000  0.49653000  0.26914000  1.0
  O  O105  1  0.70546000  0.49653000  0.23086000  1.0
  O  O106  1  0.20546000  0.00347000  0.76914000  1.0
  O  O107  1  0.29454000  0.99653000  0.26914000  1.0
  O  O108  1  0.79454000  0.50347000  0.73086000  1.0
  O  O109  1  0.29454000  0.50347000  0.76914000  1.0
  O  O110  1  0.79454000  0.99654000  0.23086000  1.0
  O  O111  1  0.70546000  0.00347000  0.73086000  1.0
  O  O112  1  0.27659000  0.53610000  0.02427000  1.0
  O  O113  1  0.77659000  0.53610000  0.47573000  1.0
  O  O114  1  0.27659000  0.96390000  0.52427000  1.0
  O  O115  1  0.22341000  0.03610000  0.02427000  1.0
  O  O116  1  0.72341000  0.46390000  0.97573000  1.0
  O  O117  1  0.22341000  0.46390000  0.52427000  1.0
  O  O118  1  0.72341000  0.03610000  0.47573000  1.0
  O  O119  1  0.77659000  0.96390000  0.97573000  1.0
  O  O120  1  0.09040000  0.69331000  0.96693000  1.0
  O  O121  1  0.59040000  0.69331000  0.53307000  1.0
  O  O122  1  0.09040000  0.80669000  0.46693000  1.0
  O  O123  1  0.40960000  0.19331000  0.96693000  1.0
  O  O124  1  0.90960000  0.30669000  0.03307000  1.0
  O  O125  1  0.40960000  0.30669000  0.46693000  1.0
  O  O126  1  0.90960000  0.19331000  0.53307000  1.0
  O  O127  1  0.59040000  0.80669000  0.03307000  1.0
