# generated using pymatgen
data_Cu3H4C8(N11O)2
_symmetry_space_group_name_H-M   'P 1'
_cell_length_a   8.63311000
_cell_length_b   8.63619000
_cell_length_c   12.72040000
_cell_angle_alpha   90.57080000
_cell_angle_beta   89.97980000
_cell_angle_gamma   89.97090000
_symmetry_Int_Tables_number   1
_chemical_formula_structural   Cu3H4C8(N11O)2
_chemical_formula_sum   'Cu6 H8 C16 N44 O4'
_cell_volume   948.34988429
_cell_formula_units_Z   2
loop_
 _symmetry_equiv_pos_site_id
 _symmetry_equiv_pos_as_xyz
  1  'x, y, z'
loop_
 _atom_site_type_symbol
 _atom_site_label
 _atom_site_symmetry_multiplicity
 _atom_site_fract_x
 _atom_site_fract_y
 _atom_site_fract_z
 _atom_site_occupancy
  Cu  Cu0  1  0.99993000  0.99974000  0.49998000  1.0
  Cu  Cu1  1  0.49995000  0.00002000  0.00002000  1.0
  Cu  Cu2  1  0.53928000  0.64128000  0.12188000  1.0
  Cu  Cu3  1  0.03946000  0.35898000  0.37837000  1.0
  Cu  Cu4  1  0.46079000  0.35865000  0.87812000  1.0
  Cu  Cu5  1  0.96056000  0.64104000  0.62167000  1.0
  H  H6  1  0.22611000  0.88707000  0.60371000  1.0
  H  H7  1  0.72589000  0.11293000  0.89622000  1.0
  H  H8  1  0.77416000  0.11323000  0.39622000  1.0
  H  H9  1  0.27415000  0.88700000  0.10377000  1.0
  H  H10  1  0.21988000  0.77625000  0.49472000  1.0
  H  H11  1  0.71949000  0.22347000  0.00535000  1.0
  H  H12  1  0.78043000  0.22368000  0.50530000  1.0
  H  H13  1  0.28050000  0.77651000  0.99460000  1.0
  C  C14  1  0.83527000  0.49301000  0.22927000  1.0
  C  C15  1  0.33521000  0.50700000  0.27070000  1.0
  C  C16  1  0.16473000  0.50714000  0.77084000  1.0
  C  C17  1  0.66463000  0.49294000  0.72918000  1.0
  C  C18  1  0.83027000  0.60195000  0.31524000  1.0
  C  C19  1  0.33030000  0.39817000  0.18470000  1.0
  C  C20  1  0.16968000  0.39821000  0.68487000  1.0
  C  C21  1  0.66966000  0.60175000  0.81521000  1.0
  C  C22  1  0.78495000  0.75477000  0.33581000  1.0
  C  C23  1  0.28519000  0.24531000  0.16442000  1.0
  C  C24  1  0.21504000  0.24540000  0.66425000  1.0
  C  C25  1  0.71490000  0.75456000  0.83555000  1.0
  C  C26  1  0.71087000  0.86755000  0.26940000  1.0
  C  C27  1  0.21121000  0.13258000  0.23086000  1.0
  C  C28  1  0.28901000  0.13258000  0.73067000  1.0
  C  C29  1  0.78898000  0.86729000  0.76913000  1.0
  N  N30  1  0.83004000  0.78949000  0.43604000  1.0
  N  N31  1  0.33004000  0.21049000  0.06416000  1.0
  N  N32  1  0.17001000  0.21072000  0.56402000  1.0
  N  N33  1  0.67004000  0.78936000  0.93583000  1.0
  N  N34  1  0.89887000  0.66427000  0.47347000  1.0
  N  N35  1  0.39846000  0.33531000  0.02629000  1.0
  N  N36  1  0.10113000  0.33591000  0.52662000  1.0
  N  N37  1  0.60154000  0.66455000  0.97366000  1.0
  N  N38  1  0.90126000  0.55030000  0.40351000  1.0
  N  N39  1  0.40113000  0.44989000  0.09637000  1.0
  N  N40  1  0.09864000  0.44984000  0.59662000  1.0
  N  N41  1  0.59881000  0.55002000  0.90354000  1.0
  N  N42  1  0.93649000  0.37449000  0.23811000  1.0
  N  N43  1  0.43622000  0.62557000  0.26185000  1.0
  N  N44  1  0.06356000  0.62573000  0.76197000  1.0
  N  N45  1  0.56361000  0.37439000  0.73810000  1.0
  N  N46  1  0.91757000  0.28405000  0.15309000  1.0
  N  N47  1  0.41730000  0.71582000  0.34701000  1.0
  N  N48  1  0.08247000  0.71617000  0.84696000  1.0
  N  N49  1  0.58245000  0.28408000  0.65299000  1.0
  N  N50  1  0.80863000  0.34637000  0.09501000  1.0
  N  N51  1  0.30856000  0.65324000  0.40511000  1.0
  N  N52  1  0.19139000  0.65378000  0.90507000  1.0
  N  N53  1  0.69118000  0.34658000  0.59482000  1.0
  N  N54  1  0.75370000  0.47823000  0.14105000  1.0
  N  N55  1  0.25375000  0.52147000  0.35902000  1.0
  N  N56  1  0.24628000  0.52191000  0.85906000  1.0
  N  N57  1  0.74604000  0.47837000  0.64084000  1.0
  N  N58  1  0.64533000  0.83769000  0.17518000  1.0
  N  N59  1  0.14533000  0.16243000  0.32502000  1.0
  N  N60  1  0.35465000  0.16239000  0.82485000  1.0
  N  N61  1  0.85495000  0.83745000  0.67497000  1.0
  N  N62  1  0.59457000  0.97596000  0.14172000  1.0
  N  N63  1  0.09449000  0.02411000  0.35836000  1.0
  N  N64  1  0.40530000  0.02406000  0.85831000  1.0
  N  N65  1  0.90567000  0.97550000  0.64157000  1.0
  N  N66  1  0.62592000  0.08527000  0.21096000  1.0
  N  N67  1  0.12609000  0.91488000  0.28913000  1.0
  N  N68  1  0.37377000  0.91478000  0.78908000  1.0
  N  N69  1  0.87401000  0.08494000  0.71074000  1.0
  N  N70  1  0.69904000  0.02018000  0.29185000  1.0
  N  N71  1  0.19950000  0.97996000  0.20834000  1.0
  N  N72  1  0.30065000  0.97993000  0.70823000  1.0
  N  N73  1  0.80062000  0.01993000  0.79155000  1.0
  O  O74  1  0.15739000  0.83945000  0.54696000  1.0
  O  O75  1  0.65695000  0.16050000  0.95297000  1.0
  O  O76  1  0.84307000  0.16068000  0.45296000  1.0
  O  O77  1  0.34310000  0.83942000  0.04700000  1.0
