# generated using pymatgen
data_SnH14C10NClO2
_symmetry_space_group_name_H-M   'P 1'
_cell_length_a   6.47222000
_cell_length_b   9.79987000
_cell_length_c   11.06150000
_cell_angle_alpha   67.40080000
_cell_angle_beta   75.89470000
_cell_angle_gamma   73.98760000
_symmetry_Int_Tables_number   1
_chemical_formula_structural   SnH14C10NClO2
_chemical_formula_sum   'Sn2 H28 C20 N2 Cl2 O4'
_cell_volume   615.05315087
_cell_formula_units_Z   2
loop_
 _symmetry_equiv_pos_site_id
 _symmetry_equiv_pos_as_xyz
  1  'x, y, z'
loop_
 _atom_site_type_symbol
 _atom_site_label
 _atom_site_symmetry_multiplicity
 _atom_site_fract_x
 _atom_site_fract_y
 _atom_site_fract_z
 _atom_site_occupancy
  Sn  Sn0  1  0.94542000  0.88952000  0.37114000  1.0
  Sn  Sn1  1  0.47812000  0.35640000  0.51478000  1.0
  H  H2  1  0.40992000  0.40919000  0.23597000  1.0
  H  H3  1  0.63407000  0.38392000  0.11309000  1.0
  H  H4  1  0.09960000  0.49489000  0.13457000  1.0
  H  H5  1  0.57144000  0.11598000  0.06276000  1.0
  H  H6  1  0.31607000  0.09876000  0.93218000  1.0
  H  H7  1  0.00768000  0.61364000  0.79097000  1.0
  H  H8  1  0.99484000  0.79734000  0.67224000  1.0
  H  H9  1  0.07500000  0.94873000  0.76946000  1.0
  H  H10  1  0.47597000  0.50449000  0.82299000  1.0
  H  H11  1  0.70670000  0.56706000  0.93969000  1.0
  H  H12  1  0.19346000  0.70234000  0.23950000  1.0
  H  H13  1  0.10739000  0.88440000  0.12160000  1.0
  H  H14  1  0.92315000  0.75800000  0.20032000  1.0
  H  H15  1  0.72879000  0.69692000  0.58163000  1.0
  H  H16  1  0.54633000  0.82123000  0.46881000  1.0
  H  H17  1  0.61842000  0.88680000  0.57944000  1.0
  H  H18  1  0.14635000  0.00006000  0.49209000  1.0
  H  H19  1  0.06382000  0.14622000  0.34469000  1.0
  H  H20  1  0.30230000  0.00304000  0.33441000  1.0
  H  H21  1  0.65907000  0.21965000  0.74053000  1.0
  H  H22  1  0.80612000  0.13437000  0.61847000  1.0
  H  H23  1  0.55181000  0.08748000  0.71187000  1.0
  H  H24  1  0.04483000  0.36401000  0.58815000  1.0
  H  H25  1  0.15750000  0.24288000  0.49105000  1.0
  H  H26  1  0.10233000  0.44363000  0.41207000  1.0
  H  H27  1  0.78981000  0.46176000  0.30936000  1.0
  H  H28  1  0.71135000  0.57735000  0.41155000  1.0
  H  H29  1  0.54360000  0.60277000  0.29548000  1.0
  C  C30  1  0.62227000  0.19050000  0.28100000  1.0
  C  C31  1  0.50258000  0.33040000  0.18424000  1.0
  C  C32  1  0.15478000  0.40478000  0.09167000  1.0
  C  C33  1  0.35716000  0.30721000  0.10941000  1.0
  C  C34  1  0.41615000  0.19503000  0.05091000  1.0
  C  C35  1  0.27669000  0.18509000  0.97828000  1.0
  C  C36  1  0.08161000  0.29097000  0.96616000  1.0
  C  C37  1  0.22222000  0.61805000  0.61280000  1.0
  C  C38  1  0.10738000  0.69238000  0.71656000  1.0
  C  C39  1  0.21375000  0.86029000  0.80542000  1.0
  C  C40  1  0.25558000  0.72162000  0.78613000  1.0
  C  C41  1  0.43566000  0.61379000  0.83615000  1.0
  C  C42  1  0.56425000  0.64750000  0.90053000  1.0
  C  C43  1  0.50442000  0.78961000  0.91373000  1.0
  C  C44  1  0.05618000  0.79730000  0.21379000  1.0
  C  C45  1  0.67786000  0.81399000  0.51872000  1.0
  C  C46  1  0.13750000  0.02688000  0.38752000  1.0
  C  C47  1  0.64470000  0.17770000  0.66509000  1.0
  C  C48  1  0.15635000  0.35078000  0.49950000  1.0
  C  C49  1  0.65197000  0.51932000  0.36385000  1.0
  N  N50  1  0.01821000  0.39752000  0.02105000  1.0
  N  N51  1  0.33561000  0.89439000  0.86830000  1.0
  Cl  Cl52  1  0.90648000  0.28673000  0.87066000  1.0
  Cl  Cl53  1  0.66208000  0.83454000  0.99541000  1.0
  O  O54  1  0.62218000  0.18578000  0.39694000  1.0
  O  O55  1  0.73072000  0.08329000  0.23755000  1.0
  O  O56  1  0.35193000  0.49039000  0.65363000  1.0
  O  O57  1  0.18513000  0.67770000  0.49444000  1.0
