# generated using pymatgen
data_ZnH28C26N4(ClO4)2
_symmetry_space_group_name_H-M   'P 1'
_cell_length_a   8.91795000
_cell_length_b   10.39770000
_cell_length_c   11.66270000
_cell_angle_alpha   111.11610000
_cell_angle_beta   90.95880000
_cell_angle_gamma   112.21670000
_symmetry_Int_Tables_number   1
_chemical_formula_structural   ZnH28C26N4(ClO4)2
_chemical_formula_sum   'Zn1 H28 C26 N4 Cl2 O8'
_cell_volume   919.16273122
_cell_formula_units_Z   1
loop_
 _symmetry_equiv_pos_site_id
 _symmetry_equiv_pos_as_xyz
  1  'x, y, z'
loop_
 _atom_site_type_symbol
 _atom_site_label
 _atom_site_symmetry_multiplicity
 _atom_site_fract_x
 _atom_site_fract_y
 _atom_site_fract_z
 _atom_site_occupancy
  Zn  Zn0  1  0.50000000  0.00000000  0.50000000  1.0
  H  H1  1  0.07281000  0.50008000  0.29324000  1.0
  H  H2  1  0.92719000  0.49991000  0.70677000  1.0
  H  H3  1  0.94879000  0.60271000  0.33848000  1.0
  H  H4  1  0.05120000  0.39728000  0.66152000  1.0
  H  H5  1  0.74179000  0.43291000  0.14868000  1.0
  H  H6  1  0.25821000  0.56710000  0.85132000  1.0
  H  H7  1  0.93740000  0.51049000  0.11076000  1.0
  H  H8  1  0.06261000  0.48950000  0.88924000  1.0
  H  H9  1  0.97398000  0.27124000  0.07629000  1.0
  H  H10  1  0.02601000  0.72875000  0.92371000  1.0
  H  H11  1  0.77846000  0.19416000  0.11555000  1.0
  H  H12  1  0.22153000  0.80584000  0.88444000  1.0
  H  H13  1  0.86515000  0.12186000  0.45155000  1.0
  H  H14  1  0.13484000  0.87815000  0.54845000  1.0
  H  H15  1  0.03658000  0.30274000  0.36618000  1.0
  H  H16  1  0.96341000  0.69726000  0.63382000  1.0
  H  H17  1  0.63837000  0.44092000  0.35445000  1.0
  H  H18  1  0.36162000  0.55907000  0.64554000  1.0
  H  H19  1  0.48331000  0.25587000  0.44266000  1.0
  H  H20  1  0.51668000  0.74412000  0.55733000  1.0
  H  H21  1  0.40575000  0.10218000  0.75637000  1.0
  H  H22  1  0.59425000  0.89783000  0.24363000  1.0
  H  H23  1  0.52947000  0.19948000  0.98003000  1.0
  H  H24  1  0.47054000  0.80054000  0.01997000  1.0
  H  H25  1  0.98775000  0.20945000  0.85858000  1.0
  H  H26  1  0.01225000  0.79055000  0.14142000  1.0
  H  H27  1  0.84559000  0.11026000  0.64197000  1.0
  H  H28  1  0.15441000  0.88973000  0.35803000  1.0
  C  C29  1  0.94507000  0.48935000  0.28823000  1.0
  C  C30  1  0.05493000  0.51065000  0.71176000  1.0
  C  C31  1  0.86457000  0.43144000  0.15142000  1.0
  C  C32  1  0.13543000  0.56855000  0.84858000  1.0
  C  C33  1  0.85071000  0.27160000  0.07302000  1.0
  C  C34  1  0.14929000  0.72840000  0.92698000  1.0
  C  C35  1  0.81928000  0.19559000  0.43055000  1.0
  C  C36  1  0.18071000  0.80441000  0.56945000  1.0
  C  C37  1  0.91392000  0.29617000  0.38057000  1.0
  C  C38  1  0.08607000  0.70383000  0.61943000  1.0
  C  C39  1  0.85151000  0.38675000  0.35005000  1.0
  C  C40  1  0.14849000  0.61325000  0.64996000  1.0
  C  C41  1  0.69374000  0.37241000  0.37445000  1.0
  C  C42  1  0.30626000  0.62759000  0.62554000  1.0
  C  C43  1  0.60676000  0.26982000  0.42486000  1.0
  C  C44  1  0.39322000  0.73017000  0.57513000  1.0
  C  C45  1  0.53460000  0.12806000  0.78359000  1.0
  C  C46  1  0.46540000  0.87194000  0.21641000  1.0
  C  C47  1  0.60465000  0.18217000  0.90791000  1.0
  C  C48  1  0.39535000  0.81784000  0.09209000  1.0
  C  C49  1  0.77078000  0.21311000  0.93967000  1.0
  C  C50  1  0.22922000  0.78689000  0.06033000  1.0
  C  C51  1  0.85827000  0.18808000  0.84153000  1.0
  C  C52  1  0.14173000  0.81192000  0.15847000  1.0
  C  C53  1  0.77956000  0.13335000  0.71907000  1.0
  C  C54  1  0.22044000  0.86665000  0.28094000  1.0
  N  N55  1  0.66686000  0.18095000  0.45217000  1.0
  N  N56  1  0.33313000  0.81904000  0.54783000  1.0
  N  N57  1  0.62007000  0.10323000  0.68978000  1.0
  N  N58  1  0.37994000  0.89677000  0.31022000  1.0
  Cl  Cl59  1  0.26911000  0.23147000  0.60756000  1.0
  Cl  Cl60  1  0.73090000  0.76854000  0.39244000  1.0
  O  O61  1  0.31692000  0.10315000  0.54943000  1.0
  O  O62  1  0.68310000  0.89685000  0.45058000  1.0
  O  O63  1  0.21793000  0.26774000  0.50827000  1.0
  O  O64  1  0.78208000  0.73226000  0.49172000  1.0
  O  O65  1  0.13325000  0.18251000  0.67142000  1.0
  O  O66  1  0.86675000  0.81750000  0.32858000  1.0
  O  O67  1  0.40919000  0.36057000  0.69557000  1.0
  O  O68  1  0.59082000  0.63944000  0.30443000  1.0
