# generated using pymatgen
data_CdH6C9O5
_symmetry_space_group_name_H-M   'P 1'
_cell_length_a   6.55889000
_cell_length_b   7.72727000
_cell_length_c   16.95250000
_cell_angle_alpha   90.00040000
_cell_angle_beta   90.00010000
_cell_angle_gamma   72.21900000
_symmetry_Int_Tables_number   1
_chemical_formula_structural   CdH6C9O5
_chemical_formula_sum   'Cd4 H24 C36 O20'
_cell_volume   818.14894096
_cell_formula_units_Z   4
loop_
 _symmetry_equiv_pos_site_id
 _symmetry_equiv_pos_as_xyz
  1  'x, y, z'
loop_
 _atom_site_type_symbol
 _atom_site_label
 _atom_site_symmetry_multiplicity
 _atom_site_fract_x
 _atom_site_fract_y
 _atom_site_fract_z
 _atom_site_occupancy
  Cd  Cd0  1  0.09683000  0.21660000  0.47309000  1.0
  Cd  Cd1  1  0.40317000  0.78340000  0.97309000  1.0
  Cd  Cd2  1  0.90317000  0.78340000  0.52691000  1.0
  Cd  Cd3  1  0.59683000  0.21660000  0.02691000  1.0
  H  H4  1  0.21986000  0.87282000  0.23358000  1.0
  H  H5  1  0.28014000  0.12718000  0.73358000  1.0
  H  H6  1  0.78015000  0.12718000  0.76642000  1.0
  H  H7  1  0.71986000  0.87282000  0.26642000  1.0
  H  H8  1  0.47349000  0.29271000  0.20743000  1.0
  H  H9  1  0.02652000  0.70729000  0.70743000  1.0
  H  H10  1  0.52651000  0.70729000  0.79257000  1.0
  H  H11  1  0.97348000  0.29271000  0.29257000  1.0
  H  H12  1  0.36369000  0.52942000  0.43910000  1.0
  H  H13  1  0.13630000  0.47058000  0.93910000  1.0
  H  H14  1  0.63631000  0.47058000  0.56090000  1.0
  H  H15  1  0.86370000  0.52942000  0.06090000  1.0
  H  H16  1  0.47902000  0.10455000  0.32522000  1.0
  H  H17  1  0.02098000  0.89546000  0.82522000  1.0
  H  H18  1  0.52098000  0.89545000  0.67478000  1.0
  H  H19  1  0.97902000  0.10455000  0.17478000  1.0
  H  H20  1  0.70050000  0.16546000  0.36243000  1.0
  H  H21  1  0.79949000  0.83454000  0.86244000  1.0
  H  H22  1  0.29950000  0.83454000  0.63756000  1.0
  H  H23  1  0.20051000  0.16545000  0.13756000  1.0
  H  H24  1  0.56729000  0.18187000  0.47918000  1.0
  H  H25  1  0.93271000  0.81813000  0.97919000  1.0
  H  H26  1  0.43271000  0.81813000  0.52081000  1.0
  H  H27  1  0.06729000  0.18187000  0.02081000  1.0
  C  C28  1  0.20127000  0.88036000  0.39302000  1.0
  C  C29  1  0.29873000  0.11964000  0.89302000  1.0
  C  C30  1  0.79873000  0.11964000  0.60698000  1.0
  C  C31  1  0.70127000  0.88035000  0.10698000  1.0
  C  C32  1  0.28122000  0.71818000  0.34163000  1.0
  C  C33  1  0.21877000  0.28182000  0.84163000  1.0
  C  C34  1  0.71878000  0.28183000  0.65837000  1.0
  C  C35  1  0.78123000  0.71818000  0.15837000  1.0
  C  C36  1  0.27735000  0.73821000  0.25964000  1.0
  C  C37  1  0.22265000  0.26179000  0.75964000  1.0
  C  C38  1  0.72265000  0.26179000  0.74036000  1.0
  C  C39  1  0.77735000  0.73821000  0.24036000  1.0
  C  C40  1  0.34605000  0.58522000  0.21101000  1.0
  C  C41  1  0.15396000  0.41477000  0.71101000  1.0
  C  C42  1  0.65396000  0.41478000  0.78899000  1.0
  C  C43  1  0.84604000  0.58523000  0.28899000  1.0
  C  C44  1  0.42082000  0.41248000  0.24507000  1.0
  C  C45  1  0.07918000  0.58752000  0.74507000  1.0
  C  C46  1  0.57918000  0.58752000  0.75493000  1.0
  C  C47  1  0.92082000  0.41248000  0.25493000  1.0
  C  C48  1  0.43188000  0.39147000  0.32710000  1.0
  C  C49  1  0.06811000  0.60853000  0.82710000  1.0
  C  C50  1  0.56812000  0.60852000  0.67290000  1.0
  C  C51  1  0.93189000  0.39147000  0.17290000  1.0
  C  C52  1  0.36013000  0.54453000  0.37516000  1.0
  C  C53  1  0.13986000  0.45548000  0.87516000  1.0
  C  C54  1  0.63987000  0.45547000  0.62484000  1.0
  C  C55  1  0.86014000  0.54453000  0.12483000  1.0
  C  C56  1  0.34387000  0.60838000  0.12340000  1.0
  C  C57  1  0.15613000  0.39162000  0.62341000  1.0
  C  C58  1  0.65612000  0.39163000  0.87660000  1.0
  C  C59  1  0.84387000  0.60838000  0.37659000  1.0
  C  C60  1  0.52431000  0.20424000  0.36187000  1.0
  C  C61  1  0.97569000  0.79576000  0.86187000  1.0
  C  C62  1  0.47569000  0.79576000  0.63813000  1.0
  C  C63  1  0.02431000  0.20424000  0.13813000  1.0
  O  O64  1  0.20783000  0.86006000  0.46914000  1.0
  O  O65  1  0.29218000  0.13993000  0.96914000  1.0
  O  O66  1  0.79218000  0.13993000  0.53086000  1.0
  O  O67  1  0.70782000  0.86007000  0.03086000  1.0
  O  O68  1  0.12927000  0.03712000  0.36219000  1.0
  O  O69  1  0.37072000  0.96288000  0.86219000  1.0
  O  O70  1  0.87074000  0.96288000  0.63781000  1.0
  O  O71  1  0.62927000  0.03711000  0.13781000  1.0
  O  O72  1  0.30886000  0.77088000  0.09797000  1.0
  O  O73  1  0.19113000  0.22912000  0.59797000  1.0
  O  O74  1  0.69113000  0.22913000  0.90203000  1.0
  O  O75  1  0.80887000  0.77088000  0.40203000  1.0
  O  O76  1  0.37498000  0.47196000  0.07775000  1.0
  O  O77  1  0.12503000  0.52803000  0.57776000  1.0
  O  O78  1  0.62503000  0.52804000  0.92225000  1.0
  O  O79  1  0.87497000  0.47198000  0.42225000  1.0
  O  O80  1  0.44967000  0.19302000  0.44041000  1.0
  O  O81  1  0.05033000  0.80698000  0.94041000  1.0
  O  O82  1  0.55033000  0.80698000  0.55959000  1.0
  O  O83  1  0.94967000  0.19302000  0.05959000  1.0
