# generated using pymatgen
data_FeH8C9N7O
_symmetry_space_group_name_H-M   'P 1'
_cell_length_a   16.76089657
_cell_length_b   16.76100000
_cell_length_c   16.76130000
_cell_angle_alpha   71.27600000
_cell_angle_beta   71.27851821
_cell_angle_gamma   110.97905182
_symmetry_Int_Tables_number   1
_chemical_formula_structural   FeH8C9N7O
_chemical_formula_sum   'Fe8 H64 C72 N56 O8'
_cell_volume   3622.89086074
_cell_formula_units_Z   8
loop_
 _symmetry_equiv_pos_site_id
 _symmetry_equiv_pos_as_xyz
  1  'x, y, z'
loop_
 _atom_site_type_symbol
 _atom_site_label
 _atom_site_symmetry_multiplicity
 _atom_site_fract_x
 _atom_site_fract_y
 _atom_site_fract_z
 _atom_site_occupancy
  Fe  Fe0  1  0.53898000  0.63027000  0.88041000  1.0
  Fe  Fe1  1  0.01071000  0.41940000  0.61956000  1.0
  Fe  Fe2  1  0.91938000  0.03898000  0.59127000  1.0
  Fe  Fe3  1  0.13025000  0.51067000  0.90872000  1.0
  Fe  Fe4  1  0.46103000  0.36973000  0.11960000  1.0
  Fe  Fe5  1  0.98932000  0.58062000  0.38041000  1.0
  Fe  Fe6  1  0.08059000  0.96103000  0.40872000  1.0
  Fe  Fe7  1  0.86976000  0.48931000  0.09128000  1.0
  H  H8  1  0.71190000  0.99334000  0.77663000  1.0
  H  H9  1  0.36423000  0.56280000  0.07932000  1.0
  H  H10  1  0.30799000  0.64286000  0.16996000  1.0
  H  H11  1  0.40584000  0.82641000  0.09404000  1.0
  H  H12  1  0.55765000  0.92271000  0.93215000  1.0
  H  H13  1  0.88551000  0.73267000  0.53886000  1.0
  H  H14  1  0.61513000  0.53737000  0.81077000  1.0
  H  H15  1  0.67444000  0.64388000  0.71799000  1.0
  H  H16  1  0.26997000  0.48854000  0.72338000  1.0
  H  H17  1  0.14215000  0.44355000  0.42068000  1.0
  H  H18  1  0.31285000  0.47794000  0.33006000  1.0
  H  H19  1  0.42048000  0.49988000  0.40600000  1.0
  H  H20  1  0.35486000  0.48982000  0.56787000  1.0
  H  H21  1  0.77151000  0.42436000  0.96115000  1.0
  H  H22  1  0.84815000  0.42589000  0.68921000  1.0
  H  H23  1  0.86186000  0.39242000  0.78201000  1.0
  H  H24  1  0.98858000  0.21192000  0.78139000  1.0
  H  H25  1  0.94356000  0.86425000  0.69846000  1.0
  H  H26  1  0.97796000  0.80795000  0.83474000  1.0
  H  H27  1  0.99990000  0.90578000  0.92049000  1.0
  H  H28  1  0.98982000  0.05758000  0.86501000  1.0
  H  H29  1  0.92439000  0.38554000  0.34714000  1.0
  H  H30  1  0.92590000  0.11515000  0.42221000  1.0
  H  H31  1  0.89241000  0.17444000  0.46941000  1.0
  H  H32  1  0.49333000  0.76999000  0.71859000  1.0
  H  H33  1  0.06274000  0.64206000  0.80150000  1.0
  H  H34  1  0.14272000  0.81275000  0.66524000  1.0
  H  H35  1  0.32631000  0.92045000  0.57951000  1.0
  H  H36  1  0.42262000  0.85488000  0.63499000  1.0
  H  H37  1  0.23266000  0.27154000  0.15286000  1.0
  H  H38  1  0.03736000  0.34813000  0.07779000  1.0
  H  H39  1  0.14385000  0.36182000  0.03059000  1.0
  H  H40  1  0.28807000  0.00664000  0.22337000  1.0
  H  H41  1  0.63576000  0.43720000  0.92070000  1.0
  H  H42  1  0.69201000  0.35717000  0.83004000  1.0
  H  H43  1  0.59415000  0.17360000  0.90595000  1.0
  H  H44  1  0.44235000  0.07731000  0.06784000  1.0
  H  H45  1  0.11449000  0.26733000  0.46114000  1.0
  H  H46  1  0.38487000  0.46265000  0.18923000  1.0
  H  H47  1  0.32556000  0.35615000  0.28202000  1.0
  H  H48  1  0.73002000  0.51145000  0.27662000  1.0
  H  H49  1  0.85788000  0.55644000  0.57931000  1.0
  H  H50  1  0.68719000  0.52205000  0.66995000  1.0
  H  H51  1  0.57955000  0.50013000  0.59402000  1.0
  H  H52  1  0.64515000  0.51020000  0.43214000  1.0
  H  H53  1  0.22847000  0.57561000  0.03887000  1.0
  H  H54  1  0.15184000  0.57408000  0.31081000  1.0
  H  H55  1  0.13817000  0.60758000  0.21799000  1.0
  H  H56  1  0.01142000  0.78808000  0.21862000  1.0
  H  H57  1  0.05645000  0.13576000  0.30149000  1.0
  H  H58  1  0.02201000  0.19202000  0.16522000  1.0
  H  H59  1  0.00005000  0.09418000  0.07950000  1.0
  H  H60  1  0.01013000  0.94238000  0.13499000  1.0
  H  H61  1  0.07562000  0.61446000  0.65287000  1.0
  H  H62  1  0.07410000  0.88486000  0.57776000  1.0
  H  H63  1  0.10758000  0.82556000  0.53056000  1.0
  H  H64  1  0.50670000  0.23003000  0.28141000  1.0
  H  H65  1  0.93728000  0.35795000  0.19850000  1.0
  H  H66  1  0.85727000  0.18724000  0.33478000  1.0
  H  H67  1  0.67370000  0.07955000  0.42050000  1.0
  H  H68  1  0.57738000  0.14513000  0.36502000  1.0
  H  H69  1  0.76735000  0.72848000  0.84715000  1.0
  H  H70  1  0.96263000  0.65187000  0.92224000  1.0
  H  H71  1  0.85613000  0.63814000  0.96944000  1.0
  C  C72  1  0.40599000  0.64221000  0.04997000  1.0
  C  C73  1  0.37478000  0.68654000  0.10003000  1.0
  C  C74  1  0.42983000  0.78962000  0.05718000  1.0
  C  C75  1  0.51376000  0.84279000  0.96746000  1.0
  C  C76  1  0.54193000  0.79273000  0.92138000  1.0
  C  C77  1  0.62612000  0.83734000  0.82985000  1.0
  C  C78  1  0.73209000  0.84918000  0.70536000  1.0
  C  C79  1  0.79536000  0.83339000  0.63935000  1.0
  C  C80  1  0.86862000  0.77999000  0.56356000  1.0
  C  C81  1  0.19220000  0.45595000  0.45004000  1.0
  C  C82  1  0.28659000  0.47481000  0.39999000  1.0
  C  C83  1  0.34682000  0.48701000  0.44283000  1.0
  C  C84  1  0.31027000  0.48123000  0.53255000  1.0
  C  C85  1  0.21412000  0.46331000  0.57862000  1.0
  C  C86  1  0.16719000  0.45597000  0.67015000  1.0
  C  C87  1  0.05453000  0.43745000  0.79463000  1.0
  C  C88  1  0.97273000  0.43471000  0.86064000  1.0
  C  C89  1  0.84354000  0.43218000  0.93644000  1.0
  C  C90  1  0.95595000  0.90598000  0.73613000  1.0
  C  C91  1  0.97480000  0.87473000  0.81167000  1.0
  C  C92  1  0.98701000  0.92977000  0.85971000  1.0
  C  C93  1  0.98124000  0.01371000  0.82896000  1.0
  C  C94  1  0.96330000  0.04188000  0.75076000  1.0
  C  C95  1  0.95597000  0.12609000  0.71120000  1.0
  C  C96  1  0.93749000  0.23209000  0.61705000  1.0
  C  C97  1  0.93476000  0.29540000  0.53799000  1.0
  C  C98  1  0.93220000  0.36865000  0.41136000  1.0
  C  C99  1  0.14213000  0.69211000  0.76384000  1.0
  C  C100  1  0.18644000  0.78652000  0.68830000  1.0
  C  C101  1  0.28951000  0.84677000  0.64028000  1.0
  C  C102  1  0.34270000  0.81025000  0.67102000  1.0
  C  C103  1  0.29267000  0.71410000  0.74922000  1.0
  C  C104  1  0.33730000  0.66719000  0.78878000  1.0
  C  C105  1  0.34915000  0.55455000  0.88293000  1.0
  C  C106  1  0.33333333  0.47270333  0.96204667  1.0
  C  C107  1  0.27999000  0.34356000  0.08864000  1.0
  C  C108  1  0.59401000  0.35779000  0.95005000  1.0
  C  C109  1  0.62522000  0.31348000  0.89997000  1.0
  C  C110  1  0.57017000  0.21040000  0.94281000  1.0
  C  C111  1  0.48625000  0.15723000  0.03252000  1.0
  C  C112  1  0.45808000  0.20727000  0.07862000  1.0
  C  C113  1  0.37388000  0.16265000  0.17015000  1.0
  C  C114  1  0.26791000  0.15082000  0.29463000  1.0
  C  C115  1  0.20461000  0.16659000  0.36066000  1.0
  C  C116  1  0.13137000  0.22000000  0.43644000  1.0
  C  C117  1  0.80784000  0.54405000  0.54994000  1.0
  C  C118  1  0.71344000  0.52519000  0.60002000  1.0
  C  C119  1  0.65321000  0.51299000  0.55717000  1.0
  C  C120  1  0.68975000  0.51878000  0.46746000  1.0
  C  C121  1  0.78590000  0.53670000  0.42137000  1.0
  C  C122  1  0.83281000  0.54403000  0.32985000  1.0
  C  C123  1  0.94546000  0.56253000  0.20538000  1.0
  C  C124  1  0.02725000  0.56526000  0.13937000  1.0
  C  C125  1  0.15645000  0.56781000  0.06357000  1.0
  C  C126  1  0.04404000  0.09403000  0.26382000  1.0
  C  C127  1  0.02517000  0.12524000  0.18830000  1.0
  C  C128  1  0.01295000  0.07020000  0.14028000  1.0
  C  C129  1  0.01873000  0.98626000  0.17102000  1.0
  C  C130  1  0.03667000  0.95810000  0.24923000  1.0
  C  C131  1  0.04402000  0.87390000  0.28879000  1.0
  C  C132  1  0.06252000  0.76792000  0.38294000  1.0
  C  C133  1  0.06525000  0.70462000  0.46200000  1.0
  C  C134  1  0.06782000  0.63137000  0.58864000  1.0
  C  C135  1  0.85787000  0.30787000  0.23618000  1.0
  C  C136  1  0.81356000  0.21348000  0.31171000  1.0
  C  C137  1  0.71049000  0.15323000  0.35973000  1.0
  C  C138  1  0.65729000  0.18975000  0.32899000  1.0
  C  C139  1  0.70733000  0.28590000  0.25079000  1.0
  C  C140  1  0.66271000  0.33282000  0.21122000  1.0
  C  C141  1  0.65086000  0.44547000  0.11708000  1.0
  C  C142  1  0.66663000  0.52726000  0.03801000  1.0
  C  C143  1  0.72002000  0.65646000  0.91136000  1.0
  N  N144  1  0.48732000  0.69188000  0.96276000  1.0
  N  N145  1  0.64521000  0.78296000  0.78947000  1.0
  N  N146  1  0.70036000  0.93340000  0.76897000  1.0
  N  N147  1  0.76848000  0.94230000  0.68972000  1.0
  N  N148  1  0.78061000  0.74989000  0.63569000  1.0
  N  N149  1  0.88727000  0.91077000  0.57359000  1.0
  N  N150  1  0.93446000  0.87557000  0.52457000  1.0
  N  N151  1  0.15465000  0.45007000  0.53724000  1.0
  N  N152  1  0.07242000  0.43467000  0.71054000  1.0
  N  N153  1  0.20236000  0.46933000  0.73104000  1.0
  N  N154  1  0.13201000  0.45820000  0.81027000  1.0
  N  N155  1  0.88555000  0.41629000  0.86432000  1.0
  N  N156  1  0.98436000  0.46088000  0.92638000  1.0
  N  N157  1  0.90013000  0.45904000  0.97543000  1.0
  N  N158  1  0.95007000  0.98732000  0.70448000  1.0
  N  N159  1  0.93467000  0.14519000  0.63773000  1.0
  N  N160  1  0.96937000  0.20035000  0.73300000  1.0
  N  N161  1  0.95827000  0.26848000  0.67377000  1.0
  N  N162  1  0.91631000  0.28064000  0.46926000  1.0
  N  N163  1  0.96093000  0.38732000  0.52344000  1.0
  N  N164  1  0.95909000  0.43451000  0.44105000  1.0
  N  N165  1  0.19183000  0.65460000  0.79547000  1.0
  N  N166  1  0.28294000  0.57242000  0.86224000  1.0
  N  N167  1  0.43337000  0.70239000  0.76697000  1.0
  N  N168  1  0.44227000  0.63206000  0.82620000  1.0
  N  N169  1  0.24989000  0.38558000  0.03073000  1.0
  N  N170  1  0.41076000  0.48438000  0.97654000  1.0
  N  N171  1  0.37557000  0.40015000  0.05892000  1.0
  N  N172  1  0.51269000  0.30813000  0.03727000  1.0
  N  N173  1  0.35479000  0.21703000  0.21054000  1.0
  N  N174  1  0.29962000  0.06659000  0.23102000  1.0
  N  N175  1  0.23151000  0.05771000  0.31025000  1.0
  N  N176  1  0.21938000  0.25009000  0.36433000  1.0
  N  N177  1  0.11269000  0.08923000  0.42640000  1.0
  N  N178  1  0.06550000  0.12443000  0.47542000  1.0
  N  N179  1  0.84539000  0.54994000  0.46274000  1.0
  N  N180  1  0.92757000  0.56532000  0.28948000  1.0
  N  N181  1  0.79761000  0.53065000  0.26899000  1.0
  N  N182  1  0.86797000  0.54177000  0.18975000  1.0
  N  N183  1  0.11442000  0.58369000  0.13570000  1.0
  N  N184  1  0.01562000  0.53909000  0.07362000  1.0
  N  N185  1  0.09985000  0.54093000  0.02460000  1.0
  N  N186  1  0.04991000  0.01270000  0.29548000  1.0
  N  N187  1  0.06532000  0.85480000  0.36227000  1.0
  N  N188  1  0.03063000  0.79964000  0.26701000  1.0
  N  N189  1  0.04175000  0.73152000  0.32622000  1.0
  N  N190  1  0.08370000  0.71937000  0.53074000  1.0
  N  N191  1  0.03910000  0.61272000  0.47653000  1.0
  N  N192  1  0.04095000  0.56551000  0.55891000  1.0
  N  N193  1  0.80818000  0.34540000  0.20453000  1.0
  N  N194  1  0.71708000  0.42759000  0.13775000  1.0
  N  N195  1  0.56664000  0.29764000  0.23304000  1.0
  N  N196  1  0.55775000  0.36798000  0.17381000  1.0
  N  N197  1  0.75013000  0.61444000  0.96926000  1.0
  N  N198  1  0.58925000  0.51563000  0.02348000  1.0
  N  N199  1  0.62444000  0.59986000  0.94109000  1.0
  O  O200  1  0.60589000  0.58611000  0.77076000  1.0
  O  O201  1  0.85685000  0.37663000  0.72924000  1.0
  O  O202  1  0.87663000  0.10590000  0.48017000  1.0
  O  O203  1  0.08607000  0.35680000  0.01983000  1.0
  O  O204  1  0.39411000  0.41394000  0.22928000  1.0
  O  O205  1  0.14318000  0.62337000  0.27075000  1.0
  O  O206  1  0.12334000  0.89411000  0.51979000  1.0
  O  O207  1  0.91391000  0.64315000  0.98021000  1.0
