# generated using pymatgen
data_HgH11PbC17N5Cl2
_symmetry_space_group_name_H-M   'P 1'
_cell_length_a   8.93594000
_cell_length_b   14.52660000
_cell_length_c   14.54000000
_cell_angle_alpha   90.00000000
_cell_angle_beta   95.73230000
_cell_angle_gamma   90.00000000
_symmetry_Int_Tables_number   1
_chemical_formula_structural   HgH11PbC17N5Cl2
_chemical_formula_sum   'Hg4 H44 Pb4 C68 N20 Cl8'
_cell_volume   1877.98213601
_cell_formula_units_Z   4
loop_
 _symmetry_equiv_pos_site_id
 _symmetry_equiv_pos_as_xyz
  1  'x, y, z'
loop_
 _atom_site_type_symbol
 _atom_site_label
 _atom_site_symmetry_multiplicity
 _atom_site_fract_x
 _atom_site_fract_y
 _atom_site_fract_z
 _atom_site_occupancy
  Hg  Hg0  1  0.61074000  0.37029000  0.51465000  1.0
  Hg  Hg1  1  0.88925000  0.87029000  0.98534000  1.0
  Hg  Hg2  1  0.38927000  0.62972000  0.48535000  1.0
  Hg  Hg3  1  0.11074000  0.12971000  0.01465000  1.0
  H  H4  1  0.05156000  0.53633000  0.23771000  1.0
  H  H5  1  0.44844000  0.03633000  0.26229000  1.0
  H  H6  1  0.94844000  0.46367000  0.76229000  1.0
  H  H7  1  0.55156000  0.96367000  0.73771000  1.0
  H  H8  1  0.92445000  0.65992000  0.13699000  1.0
  H  H9  1  0.57556000  0.15992000  0.36300000  1.0
  H  H10  1  0.07556000  0.34008000  0.86301000  1.0
  H  H11  1  0.42444000  0.84008000  0.63699000  1.0
  H  H12  1  0.71253000  0.61528000  0.02095000  1.0
  H  H13  1  0.78747000  0.11528000  0.47904000  1.0
  H  H14  1  0.28746000  0.38472000  0.97905000  1.0
  H  H15  1  0.21253000  0.88472000  0.52095000  1.0
  H  H16  1  0.62895000  0.45075000  0.01240000  1.0
  H  H17  1  0.87104000  0.95075000  0.48760000  1.0
  H  H18  1  0.37104000  0.54925000  0.98761000  1.0
  H  H19  1  0.12895000  0.04925000  0.51240000  1.0
  H  H20  1  0.47515000  0.16192000  0.03567000  1.0
  H  H21  1  0.02486000  0.66192000  0.46434000  1.0
  H  H22  1  0.52486000  0.83809000  0.96434000  1.0
  H  H23  1  0.97514000  0.33808000  0.53566000  1.0
  H  H24  1  0.53907000  0.32664000  0.03590000  1.0
  H  H25  1  0.96093000  0.82664000  0.46409000  1.0
  H  H26  1  0.46094000  0.67336000  0.96410000  1.0
  H  H27  1  0.03907000  0.17336000  0.53590000  1.0
  H  H28  1  0.64879000  0.05133000  0.12203000  1.0
  H  H29  1  0.85121000  0.55133000  0.37797000  1.0
  H  H30  1  0.35121000  0.94867000  0.87798000  1.0
  H  H31  1  0.14878000  0.44867000  0.62203000  1.0
  H  H32  1  0.81817000  0.96643000  0.16760000  1.0
  H  H33  1  0.68183000  0.46643000  0.33240000  1.0
  H  H34  1  0.18182000  0.03358000  0.83241000  1.0
  H  H35  1  0.31817000  0.53357000  0.66759000  1.0
  H  H36  1  0.01164000  0.86884000  0.25226000  1.0
  H  H37  1  0.48837000  0.36884000  0.24774000  1.0
  H  H38  1  0.98836000  0.13116000  0.74773000  1.0
  H  H39  1  0.51164000  0.63116000  0.75226000  1.0
  H  H40  1  0.21874000  0.94281000  0.35529000  1.0
  H  H41  1  0.28126000  0.44280000  0.14472000  1.0
  H  H42  1  0.78127000  0.05719000  0.64471000  1.0
  H  H43  1  0.71873000  0.55719000  0.85529000  1.0
  H  H44  1  0.22334000  0.11677000  0.36622000  1.0
  H  H45  1  0.27664000  0.61676000  0.13378000  1.0
  H  H46  1  0.77666000  0.88323000  0.63378000  1.0
  H  H47  1  0.72334000  0.38323000  0.86622000  1.0
  Pb  Pb48  1  0.05803000  0.30961000  0.28384000  1.0
  Pb  Pb49  1  0.44195000  0.80962000  0.21616000  1.0
  Pb  Pb50  1  0.94193000  0.69036000  0.71616000  1.0
  Pb  Pb51  1  0.55804000  0.19037000  0.78386000  1.0
  C  C52  1  0.95782000  0.52043000  0.18620000  1.0
  C  C53  1  0.54218000  0.02043000  0.31379000  1.0
  C  C54  1  0.04219000  0.47957000  0.81379000  1.0
  C  C55  1  0.45781000  0.97957000  0.68621000  1.0
  C  C56  1  0.88727000  0.58874000  0.13050000  1.0
  C  C57  1  0.61273000  0.08874000  0.36950000  1.0
  C  C58  1  0.11273000  0.41126000  0.86950000  1.0
  C  C59  1  0.38727000  0.91126000  0.63050000  1.0
  C  C60  1  0.76757000  0.56328000  0.06667000  1.0
  C  C61  1  0.73243000  0.06328000  0.43332000  1.0
  C  C62  1  0.23243000  0.43672000  0.93333000  1.0
  C  C63  1  0.26758000  0.93672000  0.56667000  1.0
  C  C64  1  0.72177000  0.47163000  0.06215000  1.0
  C  C65  1  0.77823000  0.97163000  0.43785000  1.0
  C  C66  1  0.27823000  0.52837000  0.93785000  1.0
  C  C67  1  0.22178000  0.02837000  0.56215000  1.0
  C  C68  1  0.57903000  0.18562000  0.07372000  1.0
  C  C69  1  0.92097000  0.68562000  0.42628000  1.0
  C  C70  1  0.42098000  0.81439000  0.92629000  1.0
  C  C71  1  0.07903000  0.31439000  0.57372000  1.0
  C  C72  1  0.61605000  0.27849000  0.07320000  1.0
  C  C73  1  0.88395000  0.77849000  0.42679000  1.0
  C  C74  1  0.38396000  0.72151000  0.92679000  1.0
  C  C75  1  0.11605000  0.22151000  0.57321000  1.0
  C  C76  1  0.75088000  0.30831000  0.12150000  1.0
  C  C77  1  0.74912000  0.80831000  0.37850000  1.0
  C  C78  1  0.24913000  0.69169000  0.87850000  1.0
  C  C79  1  0.25088000  0.19169000  0.62150000  1.0
  C  C80  1  0.79675000  0.40660000  0.12152000  1.0
  C  C81  1  0.70325000  0.90660000  0.37848000  1.0
  C  C82  1  0.20326000  0.59340000  0.87848000  1.0
  C  C83  1  0.29675000  0.09340000  0.62152000  1.0
  C  C84  1  0.67698000  0.12416000  0.12163000  1.0
  C  C85  1  0.82302000  0.62416000  0.37837000  1.0
  C  C86  1  0.32303000  0.87584000  0.87837000  1.0
  C  C87  1  0.17697000  0.37584000  0.62163000  1.0
  C  C88  1  0.80948000  0.15790000  0.16966000  1.0
  C  C89  1  0.69052000  0.65790000  0.33035000  1.0
  C  C90  1  0.19054000  0.84209000  0.83034000  1.0
  C  C91  1  0.30947000  0.34209000  0.66966000  1.0
  C  C92  1  0.91855000  0.09495000  0.22149000  1.0
  C  C93  1  0.58144000  0.59495000  0.27852000  1.0
  C  C94  1  0.08145000  0.90505000  0.77851000  1.0
  C  C95  1  0.41855000  0.40505000  0.72149000  1.0
  C  C96  1  0.90874000  0.99897000  0.21172000  1.0
  C  C97  1  0.59125000  0.49897000  0.28829000  1.0
  C  C98  1  0.09125000  0.00103000  0.78828000  1.0
  C  C99  1  0.40874000  0.50103000  0.71172000  1.0
  C  C100  1  0.01698000  0.94349000  0.25980000  1.0
  C  C101  1  0.48301000  0.44349000  0.24020000  1.0
  C  C102  1  0.98301000  0.05651000  0.74020000  1.0
  C  C103  1  0.51698000  0.55651000  0.75980000  1.0
  C  C104  1  0.13245000  0.98463000  0.31702000  1.0
  C  C105  1  0.36755000  0.48463000  0.18299000  1.0
  C  C106  1  0.86756000  0.01537000  0.68298000  1.0
  C  C107  1  0.63244000  0.51537000  0.81702000  1.0
  C  C108  1  0.13497000  0.08026000  0.32353000  1.0
  C  C109  1  0.36502000  0.58026000  0.17648000  1.0
  C  C110  1  0.86504000  0.91974000  0.67647000  1.0
  C  C111  1  0.63496000  0.41974000  0.82353000  1.0
  C  C112  1  0.75531000  0.46747000  0.57574000  1.0
  C  C113  1  0.74470000  0.96747000  0.92425000  1.0
  C  C114  1  0.24471000  0.53253000  0.42425000  1.0
  C  C115  1  0.25529000  0.03252000  0.07574000  1.0
  C  C116  1  0.43054000  0.30174000  0.44791000  1.0
  C  C117  1  0.06945000  0.80174000  0.05208000  1.0
  C  C118  1  0.56948000  0.69825000  0.55208000  1.0
  C  C119  1  0.93054000  0.19825000  0.94792000  1.0
  N  N120  1  0.03088000  0.13374000  0.27724000  1.0
  N  N121  1  0.46911000  0.63373000  0.22277000  1.0
  N  N122  1  0.96913000  0.86626000  0.72276000  1.0
  N  N123  1  0.53087000  0.36626000  0.77724000  1.0
  N  N124  1  0.84355000  0.24840000  0.16968000  1.0
  N  N125  1  0.65644000  0.74840000  0.33033000  1.0
  N  N126  1  0.15646000  0.75160000  0.83032000  1.0
  N  N127  1  0.34356000  0.25160000  0.66968000  1.0
  N  N128  1  0.91416000  0.43203000  0.18158000  1.0
  N  N129  1  0.58584000  0.93203000  0.31842000  1.0
  N  N130  1  0.08585000  0.56797000  0.81842000  1.0
  N  N131  1  0.41416000  0.06797000  0.68158000  1.0
  N  N132  1  0.33480000  0.25866000  0.40771000  1.0
  N  N133  1  0.16519000  0.75866000  0.09228000  1.0
  N  N134  1  0.66521000  0.74134000  0.59229000  1.0
  N  N135  1  0.83481000  0.24134000  0.90771000  1.0
  N  N136  1  0.84603000  0.51754000  0.61091000  1.0
  N  N137  1  0.65397000  0.01754000  0.88909000  1.0
  N  N138  1  0.15396000  0.48247000  0.38909000  1.0
  N  N139  1  0.34601000  0.98245000  0.11091000  1.0
  Cl  Cl140  1  0.79838000  0.30705000  0.38243000  1.0
  Cl  Cl141  1  0.70163000  0.80704000  0.11757000  1.0
  Cl  Cl142  1  0.20164000  0.69296000  0.61757000  1.0
  Cl  Cl143  1  0.29837000  0.19295000  0.88243000  1.0
  Cl  Cl144  1  0.72467000  0.22944000  0.63040000  1.0
  Cl  Cl145  1  0.77535000  0.72943000  0.86959000  1.0
  Cl  Cl146  1  0.27533000  0.77057000  0.36960000  1.0
  Cl  Cl147  1  0.22466000  0.27056000  0.13039000  1.0
