# generated using pymatgen
data_Zn4H24C40N4O13
_symmetry_space_group_name_H-M   'P 1'
_cell_length_a   23.83871497
_cell_length_b   23.83910000
_cell_length_c   23.83790000
_cell_angle_alpha   66.98530000
_cell_angle_beta   72.26820212
_cell_angle_gamma   107.72730985
_symmetry_Int_Tables_number   1
_chemical_formula_structural   Zn4H24C40N4O13
_chemical_formula_sum   'Zn8 H48 C80 N8 O26'
_cell_volume   10398.19331555
_cell_formula_units_Z   2
loop_
 _symmetry_equiv_pos_site_id
 _symmetry_equiv_pos_as_xyz
  1  'x, y, z'
loop_
 _atom_site_type_symbol
 _atom_site_label
 _atom_site_symmetry_multiplicity
 _atom_site_fract_x
 _atom_site_fract_y
 _atom_site_fract_z
 _atom_site_occupancy
  Zn  Zn0  1  0.05699000  0.09976000  0.45639000  1.0
  Zn  Zn1  1  0.05699000  0.95724000  0.48662000  1.0
  Zn  Zn2  1  0.94299000  0.95638000  0.59978000  1.0
  Zn  Zn3  1  0.94300000  0.98662000  0.45723000  1.0
  Zn  Zn4  1  0.94385000  0.40024000  0.04276000  1.0
  Zn  Zn5  1  0.05615000  0.54277000  0.90023000  1.0
  Zn  Zn6  1  0.94385000  0.54361000  0.01338000  1.0
  Zn  Zn7  1  0.05614000  0.51338000  0.04361000  1.0
  H  H8  1  0.92316000  0.27190000  0.96347000  1.0
  H  H9  1  0.92295000  0.20854000  0.90105000  1.0
  H  H10  1  0.07706000  0.40105000  0.70851000  1.0
  H  H11  1  0.07684000  0.46348000  0.77186000  1.0
  H  H12  1  0.92435000  0.09805000  0.79126000  1.0
  H  H13  1  0.92496000  0.03553000  0.72795000  1.0
  H  H14  1  0.07503000  0.22793000  0.53551000  1.0
  H  H15  1  0.07563000  0.29126000  0.59801000  1.0
  H  H16  1  0.07685000  0.61338000  0.15126000  1.0
  H  H17  1  0.07707000  0.67602000  0.21440000  1.0
  H  H18  1  0.92294000  0.71442000  0.17601000  1.0
  H  H19  1  0.92315000  0.65128000  0.11337000  1.0
  H  H20  1  0.07564000  0.78438000  0.32633000  1.0
  H  H21  1  0.07504000  0.84711000  0.38944000  1.0
  H  H22  1  0.92496000  0.88945000  0.34710000  1.0
  H  H23  1  0.92435000  0.82633000  0.28439000  1.0
  H  H24  1  0.73654000  0.27207000  0.15289000  1.0
  H  H25  1  0.61072000  0.20875000  0.21561000  1.0
  H  H26  1  0.61070000  0.40196000  0.17369000  1.0
  H  H27  1  0.73653000  0.46448000  0.11056000  1.0
  H  H28  1  0.39043000  0.09897000  0.32399000  1.0
  H  H29  1  0.26465000  0.03653000  0.38663000  1.0
  H  H30  1  0.26462000  0.22811000  0.34876000  1.0
  H  H31  1  0.39041000  0.29147000  0.28562000  1.0
  H  H32  1  0.26346000  0.65290000  0.77206000  1.0
  H  H33  1  0.38929000  0.71563000  0.70874000  1.0
  H  H34  1  0.38927000  0.67367000  0.90199000  1.0
  H  H35  1  0.26345000  0.61055000  0.96448000  1.0
  H  H36  1  0.60957000  0.82399000  0.59897000  1.0
  H  H37  1  0.73536000  0.88664000  0.53653000  1.0
  H  H38  1  0.73535000  0.84874000  0.72813000  1.0
  H  H39  1  0.60956000  0.78560000  0.79149000  1.0
  H  H40  1  0.91648000  0.07442000  0.33381000  1.0
  H  H41  1  0.90935000  0.10633000  0.25951000  1.0
  H  H42  1  0.09175000  0.42559000  0.15796000  1.0
  H  H43  1  0.13416000  0.39369000  0.19696000  1.0
  H  H44  1  0.90822000  0.25029000  0.16619000  1.0
  H  H45  1  0.86583000  0.16886000  0.24049000  1.0
  H  H46  1  0.08355000  0.24972000  0.34204000  1.0
  H  H47  1  0.09066000  0.33114000  0.30302000  1.0
  H  H48  1  0.91645000  0.84204000  0.74975000  1.0
  H  H49  1  0.90934000  0.80302000  0.83117000  1.0
  H  H50  1  0.09178000  0.66620000  0.75025000  1.0
  H  H51  1  0.13417000  0.74051000  0.66882000  1.0
  H  H52  1  0.90824000  0.65794000  0.92560000  1.0
  H  H53  1  0.86584000  0.69696000  0.89370000  1.0
  H  H54  1  0.08352000  0.83384000  0.57441000  1.0
  H  H55  1  0.09064000  0.75953000  0.60630000  1.0
  C  C56  1  0.18227000  0.09113000  0.40887000  1.0
  C  C57  1  0.99998000  0.86061000  0.63942000  1.0
  C  C58  1  0.99999000  0.09062000  0.59063000  1.0
  C  C59  1  0.81771000  0.90887000  0.59115000  1.0
  C  C60  1  0.00002000  0.13940000  0.36059000  1.0
  C  C61  1  1.00000000  0.90938000  0.40938000  1.0
  C  C62  1  1.00000000  0.40887000  0.90884000  1.0
  C  C63  1  0.00001000  0.63940000  0.86059000  1.0
  C  C64  1  0.81876000  0.40939000  0.09062000  1.0
  C  C65  1  1.00000000  0.59115000  0.09113000  1.0
  C  C66  1  0.99998000  0.36061000  0.13941000  1.0
  C  C67  1  0.18124000  0.59061000  0.90938000  1.0
  C  C68  1  0.00002000  0.19545000  0.30454000  1.0
  C  C69  1  0.99998000  0.30455000  0.19546000  1.0
  C  C70  1  0.95680000  0.17939000  0.27638000  1.0
  C  C71  1  0.04422000  0.32062000  0.22260000  1.0
  C  C72  1  0.95577000  0.23317000  0.22362000  1.0
  C  C73  1  0.04323000  0.26683000  0.27739000  1.0
  C  C74  1  0.99999000  0.80456000  0.69545000  1.0
  C  C75  1  0.00001000  0.69545000  0.80455000  1.0
  C  C76  1  0.95678000  0.77740000  0.76684000  1.0
  C  C77  1  0.04423000  0.72362000  0.73316000  1.0
  C  C78  1  0.95578000  0.72260000  0.82062000  1.0
  C  C79  1  0.04321000  0.77640000  0.67938000  1.0
  C  C80  1  0.00001000  0.37136000  0.87133000  1.0
  C  C81  1  0.95657000  0.29946000  0.90770000  1.0
  C  C82  1  0.95648000  0.26437000  0.87299000  1.0
  C  C83  1  0.00001000  0.30062000  0.80061000  1.0
  C  C84  1  0.04353000  0.37300000  0.76434000  1.0
  C  C85  1  0.04345000  0.40772000  0.79943000  1.0
  C  C86  1  1.00000000  0.26507000  0.76505000  1.0
  C  C87  1  0.99999000  0.23436000  0.73433000  1.0
  C  C88  1  0.99998000  0.19879000  0.69878000  1.0
  C  C89  1  0.95730000  0.12620000  0.73529000  1.0
  C  C90  1  0.95758000  0.09148000  0.70022000  1.0
  C  C91  1  0.99999000  0.12809000  0.62810000  1.0
  C  C92  1  0.04240000  0.20021000  0.59146000  1.0
  C  C93  1  0.04267000  0.23529000  0.62617000  1.0
  C  C94  1  1.00000000  0.62866000  0.12864000  1.0
  C  C95  1  0.04344000  0.63574000  0.15710000  1.0
  C  C96  1  0.04353000  0.67054000  0.19211000  1.0
  C  C97  1  0.00000000  0.69939000  0.19938000  1.0
  C  C98  1  0.95648000  0.69213000  0.17053000  1.0
  C  C99  1  0.95656000  0.65712000  0.13573000  1.0
  C  C100  1  1.00000000  0.73494000  0.23494000  1.0
  C  C101  1  1.00000000  0.76566000  0.26566000  1.0
  C  C102  1  0.00000000  0.80121000  0.30121000  1.0
  C  C103  1  0.04267000  0.80738000  0.33114000  1.0
  C  C104  1  0.04241000  0.84219000  0.36611000  1.0
  C  C105  1  1.00000000  0.87191000  0.37190000  1.0
  C  C106  1  0.95759000  0.86612000  0.34219000  1.0
  C  C107  1  0.95732000  0.83113000  0.30739000  1.0
  C  C108  1  0.74381000  0.37191000  0.12809000  1.0
  C  C109  1  0.70831000  0.29978000  0.15780000  1.0
  C  C110  1  0.63852000  0.26471000  0.19262000  1.0
  C  C111  1  0.60243000  0.30122000  0.19879000  1.0
  C  C112  1  0.63852000  0.37381000  0.16888000  1.0
  C  C113  1  0.70831000  0.40853000  0.13388000  1.0
  C  C114  1  0.53132000  0.26566000  0.23435000  1.0
  C  C115  1  0.46987000  0.23493000  0.26509000  1.0
  C  C116  1  0.39876000  0.19938000  0.30064000  1.0
  C  C117  1  0.36264000  0.12701000  0.32949000  1.0
  C  C118  1  0.29283000  0.09229000  0.36428000  1.0
  C  C119  1  0.25730000  0.12865000  0.37136000  1.0
  C  C120  1  0.29283000  0.20054000  0.34291000  1.0
  C  C121  1  0.36264000  0.23565000  0.30790000  1.0
  C  C122  1  0.25618000  0.62809000  0.87191000  1.0
  C  C123  1  0.29168000  0.65780000  0.79979000  1.0
  C  C124  1  0.36147000  0.69261000  0.76472000  1.0
  C  C125  1  0.39757000  0.69880000  0.80122000  1.0
  C  C126  1  0.36147000  0.66886000  0.87382000  1.0
  C  C127  1  0.29167000  0.63387000  0.90854000  1.0
  C  C128  1  0.46868000  0.73436000  0.76566000  1.0
  C  C129  1  0.53012000  0.76508000  0.73494000  1.0
  C  C130  1  0.60123000  0.80064000  0.69939000  1.0
  C  C131  1  0.63735000  0.82948000  0.62701000  1.0
  C  C132  1  0.70716000  0.86427000  0.59230000  1.0
  C  C133  1  0.74269000  0.87136000  0.62866000  1.0
  C  C134  1  0.70715000  0.84291000  0.70056000  1.0
  C  C135  1  0.63734000  0.80789000  0.73566000  1.0
  N  N136  1  0.91200000  0.11199000  0.29897000  1.0
  N  N137  1  0.08904000  0.38802000  0.20000000  1.0
  N  N138  1  0.91094000  0.21096000  0.20104000  1.0
  N  N139  1  0.08802000  0.28904000  0.30000000  1.0
  N  N140  1  0.91197000  0.79999000  0.78908000  1.0
  N  N141  1  0.08906000  0.70105000  0.71092000  1.0
  N  N142  1  0.91096000  0.69999000  0.88803000  1.0
  N  N143  1  0.08800000  0.79898000  0.61197000  1.0
  O  O144  1  0.99999000  0.00000000  0.50001000  1.0
  O  O145  1  0.15309000  0.12674000  0.41610000  1.0
  O  O146  1  0.04355000  0.88799000  0.57566000  1.0
  O  O147  1  0.96288000  0.02446000  0.62768000  1.0
  O  O148  1  0.15310000  0.02634000  0.43081000  1.0
  O  O149  1  0.03708000  0.12763000  0.52448000  1.0
  O  O150  1  0.95641000  0.88078000  0.65561000  1.0
  O  O151  1  0.84689000  0.91608000  0.62676000  1.0
  O  O152  1  0.95644000  0.07565000  0.38798000  1.0
  O  O153  1  0.84689000  0.93083000  0.52635000  1.0
  O  O154  1  0.04360000  0.15559000  0.38075000  1.0
  O  O155  1  0.03711000  0.90946000  0.43842000  1.0
  O  O156  1  0.96290000  0.93844000  0.40945000  1.0
  O  O157  1  1.00000000  0.50000000  0.99999000  1.0
  O  O158  1  0.95716000  0.37325000  0.97364000  1.0
  O  O159  1  0.03639000  0.61203000  0.84439000  1.0
  O  O160  1  0.84787000  0.47553000  0.06158000  1.0
  O  O161  1  0.04284000  0.47367000  0.87321000  1.0
  O  O162  1  0.84788000  0.37235000  0.09055000  1.0
  O  O163  1  0.96364000  0.61921000  0.92434000  1.0
  O  O164  1  0.95716000  0.58393000  0.06918000  1.0
  O  O165  1  0.03634000  0.42435000  0.11924000  1.0
  O  O166  1  0.04283000  0.56919000  0.08392000  1.0
  O  O167  1  0.96362000  0.34442000  0.11202000  1.0
  O  O168  1  0.15212000  0.59055000  0.87234000  1.0
  O  O169  1  0.15211000  0.56156000  0.97553000  1.0
