# generated using pymatgen
data_Cu3H32C16S4I3
_symmetry_space_group_name_H-M   'P 1'
_cell_length_a   8.51562000
_cell_length_b   9.87637000
_cell_length_c   15.86780000
_cell_angle_alpha   76.34880000
_cell_angle_beta   74.58050000
_cell_angle_gamma   84.60410000
_symmetry_Int_Tables_number   1
_chemical_formula_structural   Cu3H32C16S4I3
_chemical_formula_sum   'Cu6 H64 C32 S8 I6'
_cell_volume   1249.45910764
_cell_formula_units_Z   2
loop_
 _symmetry_equiv_pos_site_id
 _symmetry_equiv_pos_as_xyz
  1  'x, y, z'
loop_
 _atom_site_type_symbol
 _atom_site_label
 _atom_site_symmetry_multiplicity
 _atom_site_fract_x
 _atom_site_fract_y
 _atom_site_fract_z
 _atom_site_occupancy
  Cu  Cu0  1  0.97788000  0.87952000  0.25135000  1.0
  Cu  Cu1  1  0.02212000  0.12047000  0.74865000  1.0
  Cu  Cu2  1  0.96318000  0.54978000  0.25692000  1.0
  Cu  Cu3  1  0.03681000  0.45021000  0.74309000  1.0
  Cu  Cu4  1  0.23728000  0.68940000  0.21294000  1.0
  Cu  Cu5  1  0.76272000  0.31060000  0.78706000  1.0
  H  H6  1  0.00279000  0.23923000  0.22003000  1.0
  H  H7  1  0.99721000  0.76077000  0.77997000  1.0
  H  H8  1  0.14865000  0.93315000  0.38699000  1.0
  H  H9  1  0.85136000  0.06685000  0.61301000  1.0
  H  H10  1  0.20668000  0.06606000  0.28924000  1.0
  H  H11  1  0.79332000  0.93393000  0.71076000  1.0
  H  H12  1  0.04669000  0.11756000  0.47888000  1.0
  H  H13  1  0.95332000  0.88243000  0.52112000  1.0
  H  H14  1  0.25690000  0.12501000  0.42684000  1.0
  H  H15  1  0.74311000  0.87499000  0.57315000  1.0
  H  H16  1  0.20416000  0.32137000  0.30266000  1.0
  H  H17  1  0.79584000  0.67864000  0.69734000  1.0
  H  H18  1  0.13022000  0.36279000  0.40989000  1.0
  H  H19  1  0.86978000  0.63721000  0.59011000  1.0
  H  H20  1  0.72650000  0.36121000  0.22885000  1.0
  H  H21  1  0.27350000  0.63879000  0.77115000  1.0
  H  H22  1  0.63861000  0.22878000  0.32115000  1.0
  H  H23  1  0.36139000  0.77121000  0.67885000  1.0
  H  H24  1  0.70663000  0.05560000  0.22316000  1.0
  H  H25  1  0.29336000  0.94440000  0.77684000  1.0
  H  H26  1  0.51710000  0.31878000  0.15039000  1.0
  H  H27  1  0.48290000  0.68123000  0.84961000  1.0
  H  H28  1  0.43760000  0.18920000  0.24703000  1.0
  H  H29  1  0.56239000  0.81080000  0.75297000  1.0
  H  H30  1  0.49462000  0.14691000  0.13999000  1.0
  H  H31  1  0.50537000  0.85310000  0.86002000  1.0
  H  H32  1  0.83333000  0.30877000  0.07304000  1.0
  H  H33  1  0.16667000  0.69123000  0.92696000  1.0
  H  H34  1  0.79070000  0.14744000  0.05513000  1.0
  H  H35  1  0.20929000  0.85256000  0.94487000  1.0
  H  H36  1  0.94723000  0.15445000  0.10859000  1.0
  H  H37  1  0.05277000  0.84554000  0.89141000  1.0
  H  H38  1  0.54842000  0.84719000  0.23156000  1.0
  H  H39  1  0.45158000  0.15281000  0.76844000  1.0
  H  H40  1  0.54586000  0.63504000  0.04656000  1.0
  H  H41  1  0.45414000  0.36497000  0.95344000  1.0
  H  H42  1  0.54711000  0.80639000  0.06327000  1.0
  H  H43  1  0.45289000  0.19362000  0.93673000  1.0
  H  H44  1  0.83064000  0.58697000  0.07174000  1.0
  H  H45  1  0.16935000  0.41303000  0.92826000  1.0
  H  H46  1  0.82075000  0.72627000  0.97988000  1.0
  H  H47  1  0.17925000  0.27373000  0.02012000  1.0
  H  H48  1  0.80927000  0.89980000  0.07426000  1.0
  H  H49  1  0.19074000  0.10020000  0.92574000  1.0
  H  H50  1  0.98863000  0.79086000  0.06894000  1.0
  H  H51  1  0.01137000  0.20914000  0.93106000  1.0
  H  H52  1  0.41479000  0.66312000  0.37110000  1.0
  H  H53  1  0.58521000  0.33688000  0.62890000  1.0
  H  H54  1  0.60639000  0.57360000  0.36285000  1.0
  H  H55  1  0.39361000  0.42640000  0.63715000  1.0
  H  H56  1  0.72056000  0.78710000  0.38569000  1.0
  H  H57  1  0.27944000  0.21290000  0.61431000  1.0
  H  H58  1  0.43885000  0.64171000  0.53324000  1.0
  H  H59  1  0.56114000  0.35829000  0.46676000  1.0
  H  H60  1  0.58935000  0.73605000  0.55122000  1.0
  H  H61  1  0.41065000  0.26395000  0.44877000  1.0
  H  H62  1  0.64721000  0.58289000  0.50890000  1.0
  H  H63  1  0.35279000  0.41711000  0.49110000  1.0
  H  H64  1  0.36317000  0.88069000  0.44681000  1.0
  H  H65  1  0.63683000  0.11931000  0.55319000  1.0
  H  H66  1  0.49115000  0.95824000  0.34117000  1.0
  H  H67  1  0.50885000  0.04176000  0.65883000  1.0
  H  H68  1  0.53985000  0.96890000  0.44094000  1.0
  H  H69  1  0.46016000  0.03110000  0.55906000  1.0
  C  C70  1  0.90021000  0.21888000  0.28014000  1.0
  C  C71  1  0.09979000  0.78112000  0.71986000  1.0
  C  C72  1  0.12221000  0.04164000  0.35626000  1.0
  C  C73  1  0.87780000  0.95836000  0.64374000  1.0
  C  C74  1  0.13532000  0.14128000  0.41338000  1.0
  C  C75  1  0.86469000  0.85872000  0.58662000  1.0
  C  C76  1  0.11590000  0.29291000  0.36816000  1.0
  C  C77  1  0.88410000  0.70709000  0.63184000  1.0
  C  C78  1  0.73491000  0.24841000  0.25807000  1.0
  C  C79  1  0.26509000  0.75158000  0.74193000  1.0
  C  C80  1  0.70047000  0.16844000  0.19320000  1.0
  C  C81  1  0.29952000  0.83156000  0.80680000  1.0
  C  C82  1  0.52819000  0.20769000  0.18194000  1.0
  C  C83  1  0.47181000  0.79232000  0.81806000  1.0
  C  C84  1  0.82551000  0.19630000  0.10276000  1.0
  C  C85  1  0.17448000  0.80370000  0.89725000  1.0
  C  C86  1  0.59552000  0.73976000  0.25069000  1.0
  C  C87  1  0.40448000  0.26024000  0.74930000  1.0
  C  C88  1  0.59665000  0.69922000  0.08017000  1.0
  C  C89  1  0.40335000  0.30079000  0.91983000  1.0
  C  C90  1  0.78158000  0.69387000  0.05344000  1.0
  C  C91  1  0.21842000  0.30613000  0.94656000  1.0
  C  C92  1  0.85519000  0.79178000  0.09191000  1.0
  C  C93  1  0.14481000  0.20822000  0.90809000  1.0
  C  C94  1  0.54749000  0.67815000  0.35132000  1.0
  C  C95  1  0.45252000  0.32185000  0.64868000  1.0
  C  C96  1  0.59014000  0.76348000  0.41090000  1.0
  C  C97  1  0.40986000  0.23652000  0.58910000  1.0
  C  C98  1  0.56520000  0.67571000  0.50637000  1.0
  C  C99  1  0.43480000  0.32430000  0.49363000  1.0
  C  C100  1  0.49059000  0.90058000  0.40951000  1.0
  C  C101  1  0.50941000  0.09941000  0.59049000  1.0
  S  S102  1  0.91892000  0.03806000  0.34057000  1.0
  S  S103  1  0.08109000  0.96194000  0.65943000  1.0
  S  S104  1  0.91302000  0.33808000  0.35077000  1.0
  S  S105  1  0.08698000  0.66192000  0.64923000  1.0
  S  S106  1  0.82049000  0.74307000  0.21289000  1.0
  S  S107  1  0.17951000  0.25693000  0.78711000  1.0
  S  S108  1  0.51140000  0.62796000  0.19859000  1.0
  S  S109  1  0.48860000  0.37205000  0.80141000  1.0
  I  I110  1  0.23511000  0.95244000  0.12150000  1.0
  I  I111  1  0.76489000  0.04756000  0.87850000  1.0
  I  I112  1  0.06767000  0.66155000  0.38158000  1.0
  I  I113  1  0.93233000  0.33844000  0.61842000  1.0
  I  I114  1  0.19271000  0.51117000  0.11886000  1.0
  I  I115  1  0.80729000  0.48883000  0.88114000  1.0
