# generated using pymatgen
data_Al4H23C44N3(ClO13)2
_symmetry_space_group_name_H-M   'P 1'
_cell_length_a   6.64422000
_cell_length_b   15.84120000
_cell_length_c   17.18600000
_cell_angle_alpha   101.72900000
_cell_angle_beta   91.34790000
_cell_angle_gamma   91.81450000
_symmetry_Int_Tables_number   1
_chemical_formula_structural   Al4H23C44N3(ClO13)2
_chemical_formula_sum   'Al4 H23 C44 N3 Cl2 O26'
_cell_volume   1769.38117073
_cell_formula_units_Z   1
loop_
 _symmetry_equiv_pos_site_id
 _symmetry_equiv_pos_as_xyz
  1  'x, y, z'
loop_
 _atom_site_type_symbol
 _atom_site_label
 _atom_site_symmetry_multiplicity
 _atom_site_fract_x
 _atom_site_fract_y
 _atom_site_fract_z
 _atom_site_occupancy
  Al  Al0  1  0.11518000  0.50227000  0.49559000  1.0
  Al  Al1  1  0.61810000  0.49781000  0.49950000  1.0
  Al  Al2  1  0.65390000  0.99815000  0.00506000  1.0
  Al  Al3  1  0.15139000  0.00051000  0.00133000  1.0
  H  H4  1  0.63184000  0.80864000  0.14148000  1.0
  H  H5  1  0.23967000  0.90583000  0.20033000  1.0
  H  H6  1  0.49038000  0.69093000  0.20347000  1.0
  H  H7  1  0.27755000  0.80825000  0.29649000  1.0
  H  H8  1  0.52827000  0.59382000  0.30006000  1.0
  H  H9  1  0.13701000  0.69026000  0.35773000  1.0
  H  H10  1  0.71640000  0.80085000  0.64165000  1.0
  H  H11  1  0.53177000  0.77989000  0.78491000  1.0
  H  H12  1  0.70961000  0.61544000  0.76756000  1.0
  H  H13  1  0.05044000  0.69659000  0.85961000  1.0
  H  H14  1  0.23436000  0.71784000  0.71697000  1.0
  H  H15  1  0.05736000  0.88254000  0.73411000  1.0
  H  H16  1  0.24333000  0.11134000  0.27210000  1.0
  H  H17  1  0.74488000  0.23402000  0.22437000  1.0
  H  H18  1  0.52605000  0.38808000  0.23241000  1.0
  H  H19  1  0.21218000  0.28737000  0.13509000  1.0
  H  H20  1  0.02266000  0.26314000  0.27853000  1.0
  H  H21  1  0.64077000  0.06696000  0.77846000  1.0
  H  H22  1  0.57548000  0.28108000  0.62225000  1.0
  H  H23  1  0.38172000  0.60818000  0.53729000  1.0
  H  H24  1  0.87071000  0.39708000  0.52275000  1.0
  H  H25  1  0.38949000  0.88946000  0.96611000  1.0
  H  H26  1  0.90071000  0.09956000  0.97283000  1.0
  C  C27  1  0.34609000  0.37978000  0.38853000  1.0
  C  C28  1  0.36794000  0.41854000  0.60382000  1.0
  C  C29  1  0.88740000  0.62147000  0.60931000  1.0
  C  C30  1  0.85234000  0.58065000  0.39334000  1.0
  C  C31  1  0.93222000  0.86231000  0.16587000  1.0
  C  C32  1  0.83637000  0.63686000  0.33388000  1.0
  C  C33  1  0.63085000  0.69137000  0.23781000  1.0
  C  C34  1  0.65173000  0.63708000  0.29036000  1.0
  C  C35  1  0.99632000  0.69144000  0.32398000  1.0
  C  C36  1  0.97734000  0.74954000  0.27190000  1.0
  C  C37  1  0.79086000  0.74956000  0.22770000  1.0
  C  C38  1  0.77223000  0.80758000  0.17548000  1.0
  C  C39  1  0.11645000  0.86231000  0.20969000  1.0
  C  C40  1  0.13723000  0.80786000  0.26205000  1.0
  C  C41  1  0.68738000  0.76564000  0.76923000  1.0
  C  C42  1  0.78975000  0.77868000  0.69115000  1.0
  C  C43  1  0.89063000  0.68861000  0.68283000  1.0
  C  C44  1  0.78565000  0.67582000  0.76140000  1.0
  C  C45  1  0.97661000  0.71933000  0.81058000  1.0
  C  C46  1  0.07894000  0.73239000  0.73256000  1.0
  C  C47  1  0.98061000  0.82221000  0.74034000  1.0
  C  C48  1  0.87584000  0.80935000  0.81908000  1.0
  C  C49  1  0.48007000  0.22799000  0.31234000  1.0
  C  C50  1  0.30255000  0.17335000  0.26225000  1.0
  C  C51  1  0.41021000  0.18810000  0.18464000  1.0
  C  C52  1  0.58528000  0.24183000  0.23608000  1.0
  C  C53  1  0.46257000  0.32536000  0.23872000  1.0
  C  C54  1  0.28651000  0.27148000  0.18740000  1.0
  C  C55  1  0.18156000  0.25690000  0.26466000  1.0
  C  C56  1  0.35457000  0.31082000  0.31629000  1.0
  C  C57  1  0.40746000  0.14248000  0.84088000  1.0
  C  C58  1  0.35266000  0.36931000  0.66964000  1.0
  C  C59  1  0.17750000  0.33797000  0.78422000  1.0
  C  C60  1  0.20655000  0.38824000  0.72830000  1.0
  C  C61  1  0.46688000  0.29814000  0.66882000  1.0
  C  C62  1  0.44380000  0.24542000  0.72547000  1.0
  C  C63  1  0.29855000  0.26591000  0.78734000  1.0
  C  C64  1  0.29079000  0.21460000  0.84676000  1.0
  C  C65  1  0.54573000  0.12193000  0.77957000  1.0
  C  C66  1  0.56521000  0.17243000  0.72369000  1.0
  C  C67  1  0.39807000  0.08554000  0.90099000  1.0
  C  C68  1  0.42326000  0.11876000  0.11277000  1.0
  C  C69  1  0.91757000  0.91873000  0.10662000  1.0
  C  C70  1  0.87851000  0.87766000  0.89173000  1.0
  N  N71  1  0.57370000  0.20717000  0.38412000  1.0
  N  N72  1  0.00773000  0.36110000  0.83814000  1.0
  N  N73  1  0.08573000  0.46551000  0.73088000  1.0
  Cl  Cl74  1  0.15569000  0.24509000  0.93200000  1.0
  Cl  Cl75  1  0.74307000  0.14725000  0.65198000  1.0
  O  O76  1  0.54294000  0.43972000  0.58535000  1.0
  O  O77  1  0.17940000  0.41466000  0.40607000  1.0
  O  O78  1  0.02567000  0.57120000  0.42319000  1.0
  O  O79  1  0.20059000  0.43129000  0.57158000  1.0
  O  O80  1  0.05556000  0.59255000  0.58380000  1.0
  O  O81  1  0.51430000  0.39916000  0.42580000  1.0
  O  O82  1  0.37277000  0.55196000  0.50183000  1.0
  O  O83  1  0.71432000  0.59752000  0.57652000  1.0
  O  O84  1  0.68749000  0.54762000  0.41163000  1.0
  O  O85  1  0.86560000  0.44744000  0.49890000  1.0
  O  O86  1  0.25902000  0.10054000  0.07229000  1.0
  O  O87  1  0.56538000  0.07414000  0.93387000  1.0
  O  O88  1  0.71100000  0.91088000  0.91329000  1.0
  O  O89  1  0.59065000  0.08336000  0.09686000  1.0
  O  O90  1  0.74612000  0.92614000  0.07421000  1.0
  O  O91  1  0.22640000  0.05363000  0.91238000  1.0
  O  O92  1  0.39735000  0.94686000  0.99944000  1.0
  O  O93  1  0.08200000  0.95428000  0.09085000  1.0
  O  O94  1  0.04979000  0.89913000  0.92711000  1.0
  O  O95  1  0.90485000  0.05248000  0.00113000  1.0
  O  O96  1  0.75641000  0.19368000  0.38432000  1.0
  O  O97  1  0.45999000  0.20504000  0.44012000  1.0
  O  O98  1  0.85931000  0.31081000  0.82715000  1.0
  O  O99  1  0.02554000  0.42975000  0.88734000  1.0
  O  O100  1  0.18214000  0.53506000  0.74104000  1.0
  O  O101  1  0.90074000  0.45492000  0.72337000  1.0
