# generated using pymatgen
data_CdH14C20N2O5
_symmetry_space_group_name_H-M   'P 1'
_cell_length_a   7.74031000
_cell_length_b   10.49060000
_cell_length_c   10.49060000
_cell_angle_alpha   85.35280000
_cell_angle_beta   88.34620000
_cell_angle_gamma   88.34600000
_symmetry_Int_Tables_number   1
_chemical_formula_structural   CdH14C20N2O5
_chemical_formula_sum   'Cd2 H28 C40 N4 O10'
_cell_volume   848.38696234
_cell_formula_units_Z   2
loop_
 _symmetry_equiv_pos_site_id
 _symmetry_equiv_pos_as_xyz
  1  'x, y, z'
loop_
 _atom_site_type_symbol
 _atom_site_label
 _atom_site_symmetry_multiplicity
 _atom_site_fract_x
 _atom_site_fract_y
 _atom_site_fract_z
 _atom_site_occupancy
  Cd  Cd0  1  0.00000000  0.00000000  0.00000000  1.0
  Cd  Cd1  1  0.50000000  0.00000000  0.00000000  1.0
  H  H2  1  0.61998000  0.32747000  0.10076000  1.0
  H  H3  1  0.88003000  0.89924000  0.67253000  1.0
  H  H4  1  0.38002000  0.67253000  0.89924000  1.0
  H  H5  1  0.11997000  0.10076000  0.32747000  1.0
  H  H6  1  0.62059000  0.56327000  0.12924000  1.0
  H  H7  1  0.87941000  0.87075000  0.43673000  1.0
  H  H8  1  0.37941000  0.43673000  0.87076000  1.0
  H  H9  1  0.12059000  0.12925000  0.56327000  1.0
  H  H10  1  0.98758000  0.72555000  0.77289000  1.0
  H  H11  1  0.51242000  0.22711000  0.27445000  1.0
  H  H12  1  0.01242000  0.27445000  0.22711000  1.0
  H  H13  1  0.48758000  0.77289000  0.72555000  1.0
  H  H14  1  0.13265000  0.62125000  0.59329000  1.0
  H  H15  1  0.36735000  0.40671000  0.37875000  1.0
  H  H16  1  0.86734000  0.37875000  0.40671000  1.0
  H  H17  1  0.63265000  0.59329000  0.62125000  1.0
  H  H18  1  0.10733000  0.38640000  0.57743000  1.0
  H  H19  1  0.39268000  0.42257000  0.61360000  1.0
  H  H20  1  0.89267000  0.61361000  0.42257000  1.0
  H  H21  1  0.60732000  0.57743000  0.38640000  1.0
  H  H22  1  0.94240000  0.25541000  0.74388000  1.0
  H  H23  1  0.55760000  0.25612000  0.74459000  1.0
  H  H24  1  0.05760000  0.74459000  0.25612000  1.0
  H  H25  1  0.44240000  0.74388000  0.25541000  1.0
  H  H26  1  0.74607000  0.08216000  0.80928000  1.0
  H  H27  1  0.75393000  0.19072000  0.91784000  1.0
  H  H28  1  0.25393000  0.91784000  0.19072000  1.0
  H  H29  1  0.24607000  0.80928000  0.08216000  1.0
  C  C30  1  0.69111000  0.39277000  0.03366000  1.0
  C  C31  1  0.80890000  0.96634000  0.60723000  1.0
  C  C32  1  0.30889000  0.60723000  0.96634000  1.0
  C  C33  1  0.19110000  0.03366000  0.39277000  1.0
  C  C34  1  0.69208000  0.52471000  0.04948000  1.0
  C  C35  1  0.80792000  0.95051000  0.47529000  1.0
  C  C36  1  0.30792000  0.47529000  0.95052000  1.0
  C  C37  1  0.19208000  0.04949000  0.52471000  1.0
  C  C38  1  0.78001000  0.60626000  0.96178000  1.0
  C  C39  1  0.71999000  0.03822000  0.39374000  1.0
  C  C40  1  0.21999000  0.39374000  0.03822000  1.0
  C  C41  1  0.28001000  0.96178000  0.60626000  1.0
  C  C42  1  0.87235000  0.55267000  0.85773000  1.0
  C  C43  1  0.62765000  0.14227000  0.44733000  1.0
  C  C44  1  0.12765000  0.44733000  0.14227000  1.0
  C  C45  1  0.37235000  0.85773000  0.55267000  1.0
  C  C46  1  0.97281000  0.62408000  0.76299000  1.0
  C  C47  1  0.52718000  0.23701000  0.37592000  1.0
  C  C48  1  0.02719000  0.37592000  0.23701000  1.0
  C  C49  1  0.47282000  0.76299000  0.62408000  1.0
  C  C50  1  0.05472000  0.56502000  0.66426000  1.0
  C  C51  1  0.44529000  0.33574000  0.43497000  1.0
  C  C52  1  0.94528000  0.43498000  0.33575000  1.0
  C  C53  1  0.55472000  0.66426000  0.56503000  1.0
  C  C54  1  0.04170000  0.43182000  0.65573000  1.0
  C  C55  1  0.45830000  0.34426000  0.56818000  1.0
  C  C56  1  0.95830000  0.56818000  0.34427000  1.0
  C  C57  1  0.54170000  0.65573000  0.43182000  1.0
  C  C58  1  0.94836000  0.35883000  0.74684000  1.0
  C  C59  1  0.55164000  0.25315000  0.64117000  1.0
  C  C60  1  0.05164000  0.64117000  0.25316000  1.0
  C  C61  1  0.44836000  0.74685000  0.35883000  1.0
  C  C62  1  0.86131000  0.41728000  0.84859000  1.0
  C  C63  1  0.63869000  0.15140000  0.58272000  1.0
  C  C64  1  0.13869000  0.58272000  0.15141000  1.0
  C  C65  1  0.36131000  0.84860000  0.41728000  1.0
  C  C66  1  0.77162000  0.74860000  0.97830000  1.0
  C  C67  1  0.72837000  0.02170000  0.25140000  1.0
  C  C68  1  0.22838000  0.25140000  0.02170000  1.0
  C  C69  1  0.27163000  0.97830000  0.74860000  1.0
  N  N70  1  0.76935000  0.34098000  0.93603000  1.0
  N  N71  1  0.73065000  0.06397000  0.65902000  1.0
  N  N72  1  0.23065000  0.65902000  0.06397000  1.0
  N  N73  1  0.26934000  0.93603000  0.34098000  1.0
  O  O74  1  0.75000000  0.09355000  0.90645000  1.0
  O  O75  1  0.25000000  0.90645000  0.09355000  1.0
  O  O76  1  0.90842000  0.80917000  0.94768000  1.0
  O  O77  1  0.59158000  0.05232000  0.19083000  1.0
  O  O78  1  0.09158000  0.19083000  0.05232000  1.0
  O  O79  1  0.40842000  0.94768000  0.80917000  1.0
  O  O80  1  0.62912000  0.79268000  0.02065000  1.0
  O  O81  1  0.87088000  0.97935000  0.20732000  1.0
  O  O82  1  0.37087000  0.20732000  0.97935000  1.0
  O  O83  1  0.12913000  0.02065000  0.79268000  1.0
