# generated using pymatgen
data_ZnH13C21NO5
_symmetry_space_group_name_H-M   'P 1'
_cell_length_a   8.94629000
_cell_length_b   18.36960000
_cell_length_c   19.68670000
_cell_angle_alpha   88.62990000
_cell_angle_beta   87.24010000
_cell_angle_gamma   82.96460000
_symmetry_Int_Tables_number   1
_chemical_formula_structural   ZnH13C21NO5
_chemical_formula_sum   'Zn2 H26 C42 N2 O10'
_cell_volume   3206.69406625
_cell_formula_units_Z   2
loop_
 _symmetry_equiv_pos_site_id
 _symmetry_equiv_pos_as_xyz
  1  'x, y, z'
loop_
 _atom_site_type_symbol
 _atom_site_label
 _atom_site_symmetry_multiplicity
 _atom_site_fract_x
 _atom_site_fract_y
 _atom_site_fract_z
 _atom_site_occupancy
  Zn  Zn0  1  0.49626000  0.57672000  0.49800000  1.0
  Zn  Zn1  1  0.50379000  0.42327000  0.50199000  1.0
  H  H2  1  0.02151000  0.41567000  0.49438000  1.0
  H  H3  1  0.97855000  0.58434000  0.50565000  1.0
  H  H4  1  0.69739000  0.82290000  0.42583000  1.0
  H  H5  1  0.30274000  0.17708000  0.57422000  1.0
  H  H6  1  0.74453000  0.91991000  0.49062000  1.0
  H  H7  1  0.25547000  0.08008000  0.50937000  1.0
  H  H8  1  0.74149000  0.05423000  0.49132000  1.0
  H  H9  1  0.25852000  0.94577000  0.50866000  1.0
  H  H10  1  0.50907000  0.38684000  0.71785000  1.0
  H  H11  1  0.49093000  0.61315000  0.28216000  1.0
  H  H12  1  0.51066000  0.38426000  0.84438000  1.0
  H  H13  1  0.48927000  0.61574000  0.15563000  1.0
  H  H14  1  0.48351000  0.62014000  0.84288000  1.0
  H  H15  1  0.51642000  0.37986000  0.15712000  1.0
  H  H16  1  0.47881000  0.62156000  0.71629000  1.0
  H  H17  1  0.52118000  0.37843000  0.28372000  1.0
  H  H18  1  0.33541000  0.59726000  0.94038000  1.0
  H  H19  1  0.66449000  0.40276000  0.05964000  1.0
  H  H20  1  0.33748000  0.59553000  0.06562000  1.0
  H  H21  1  0.66238000  0.40448000  0.93439000  1.0
  H  H22  1  0.32500000  0.69951000  0.56167000  1.0
  H  H23  1  0.67497000  0.30049000  0.43827000  1.0
  H  H24  1  0.31359000  0.83538000  0.57019000  1.0
  H  H25  1  0.68631000  0.16462000  0.42973000  1.0
  H  H26  1  0.71080000  0.62024000  0.40668000  1.0
  H  H27  1  0.28932000  0.37976000  0.59332000  1.0
  C  C28  1  0.50876000  0.49431000  0.36656000  1.0
  C  C29  1  0.49126000  0.50568000  0.63344000  1.0
  C  C30  1  0.40984000  0.55511000  0.96630000  1.0
  C  C31  1  0.59006000  0.44490000  0.03371000  1.0
  C  C32  1  0.41101000  0.55413000  0.03697000  1.0
  C  C33  1  0.58888000  0.44588000  0.96304000  1.0
  C  C34  1  0.50115000  0.49900000  0.07222000  1.0
  C  C35  1  0.49873000  0.50101000  0.92779000  1.0
  C  C36  1  0.40469000  0.72977000  0.53246000  1.0
  C  C37  1  0.59529000  0.27023000  0.46750000  1.0
  C  C38  1  0.39891000  0.80560000  0.53649000  1.0
  C  C39  1  0.60106000  0.19440000  0.46347000  1.0
  C  C40  1  0.50436000  0.84243000  0.49835000  1.0
  C  C41  1  0.49565000  0.15757000  0.50163000  1.0
  C  C42  1  0.61239000  0.79932000  0.45798000  1.0
  C  C43  1  0.38770000  0.20067000  0.54204000  1.0
  C  C44  1  0.61084000  0.72370000  0.45599000  1.0
  C  C45  1  0.38926000  0.27629000  0.54403000  1.0
  C  C46  1  0.63686000  0.95492000  0.49387000  1.0
  C  C47  1  0.36314000  0.04507000  0.50610000  1.0
  C  C48  1  0.63501000  0.03073000  0.49407000  1.0
  C  C49  1  0.36500000  0.96927000  0.50590000  1.0
  C  C50  1  0.79465000  0.47796000  0.49973000  1.0
  C  C51  1  0.20541000  0.52205000  0.50029000  1.0
  C  C52  1  0.49812000  0.07717000  0.50025000  1.0
  C  C53  1  0.50189000  0.92283000  0.49974000  1.0
  C  C54  1  0.96189000  0.47094000  0.49831000  1.0
  C  C55  1  0.03817000  0.52907000  0.50171000  1.0
  C  C56  1  0.50343000  0.43760000  0.74591000  1.0
  C  C57  1  0.49654000  0.56239000  0.25411000  1.0
  C  C58  1  0.50566000  0.43650000  0.81652000  1.0
  C  C59  1  0.49428000  0.56350000  0.18349000  1.0
  C  C60  1  0.49713000  0.50207000  0.85282000  1.0
  C  C61  1  0.50278000  0.49793000  0.14719000  1.0
  C  C62  1  0.48680000  0.56883000  0.81573000  1.0
  C  C63  1  0.51313000  0.43118000  0.18427000  1.0
  C  C64  1  0.48515000  0.56998000  0.74511000  1.0
  C  C65  1  0.51482000  0.43001000  0.25489000  1.0
  C  C66  1  0.49304000  0.50439000  0.70943000  1.0
  C  C67  1  0.50696000  0.49560000  0.29057000  1.0
  C  C68  1  0.72476000  0.67901000  0.41037000  1.0
  C  C69  1  0.27544000  0.32098000  0.58968000  1.0
  N  N70  1  0.50805000  0.68924000  0.49279000  1.0
  N  N71  1  0.49201000  0.31076000  0.50721000  1.0
  O  O72  1  0.50188000  0.55623000  0.39556000  1.0
  O  O73  1  0.49820000  0.44376000  0.60444000  1.0
  O  O74  1  0.51705000  0.43205000  0.39697000  1.0
  O  O75  1  0.48296000  0.56794000  0.60303000  1.0
  O  O76  1  0.72332000  0.54249000  0.50159000  1.0
  O  O77  1  0.27673000  0.45752000  0.49844000  1.0
  O  O78  1  0.73530000  0.41832000  0.49897000  1.0
  O  O79  1  0.26477000  0.58169000  0.50102000  1.0
  O  O80  1  0.82541000  0.70694000  0.37909000  1.0
  O  O81  1  0.17489000  0.29304000  0.62105000  1.0
