# generated using pymatgen
data_CoH28C26N4(ClO4)2
_symmetry_space_group_name_H-M   'P 1'
_cell_length_a   8.90823000
_cell_length_b   10.39630000
_cell_length_c   11.42070000
_cell_angle_alpha   109.81400000
_cell_angle_beta   91.03890000
_cell_angle_gamma   113.99900000
_symmetry_Int_Tables_number   1
_chemical_formula_structural   CoH28C26N4(ClO4)2
_chemical_formula_sum   'Co1 H28 C26 N4 Cl2 O8'
_cell_volume   893.96143413
_cell_formula_units_Z   1
loop_
 _symmetry_equiv_pos_site_id
 _symmetry_equiv_pos_as_xyz
  1  'x, y, z'
loop_
 _atom_site_type_symbol
 _atom_site_label
 _atom_site_symmetry_multiplicity
 _atom_site_fract_x
 _atom_site_fract_y
 _atom_site_fract_z
 _atom_site_occupancy
  Co  Co0  1  0.50000000  0.50000000  0.50000000  1.0
  H  H1  1  0.05540000  0.90236000  0.66333000  1.0
  H  H2  1  0.94460000  0.09764000  0.33667000  1.0
  H  H3  1  0.93540000  0.00555000  0.70966000  1.0
  H  H4  1  0.06460000  0.99445000  0.29034000  1.0
  H  H5  1  0.26952000  0.07165000  0.85511000  1.0
  H  H6  1  0.73049000  0.92836000  0.14490000  1.0
  H  H7  1  0.07091000  0.99277000  0.89445000  1.0
  H  H8  1  0.92910000  0.00724000  0.10556000  1.0
  H  H9  1  0.24527000  0.31327000  0.88896000  1.0
  H  H10  1  0.75473000  0.68673000  0.11104000  1.0
  H  H11  1  0.04341000  0.23508000  0.92458000  1.0
  H  H12  1  0.95660000  0.76494000  0.07543000  1.0
  H  H13  1  0.14404000  0.37717000  0.53417000  1.0
  H  H14  1  0.85597000  0.62284000  0.46583000  1.0
  H  H15  1  0.96920000  0.19123000  0.61979000  1.0
  H  H16  1  0.03081000  0.80879000  0.38022000  1.0
  H  H17  1  0.38267000  0.08282000  0.65900000  1.0
  H  H18  1  0.61732000  0.91718000  0.34100000  1.0
  H  H19  1  0.54220000  0.27353000  0.57108000  1.0
  H  H20  1  0.45779000  0.72647000  0.42892000  1.0
  H  H21  1  0.60392000  0.39468000  0.25936000  1.0
  H  H22  1  0.39608000  0.60531000  0.74064000  1.0
  H  H23  1  0.48449000  0.29696000  0.03219000  1.0
  H  H24  1  0.51552000  0.70305000  0.96780000  1.0
  H  H25  1  0.02414000  0.29734000  0.14538000  1.0
  H  H26  1  0.97587000  0.70267000  0.85462000  1.0
  H  H27  1  0.16209000  0.39875000  0.36572000  1.0
  H  H28  1  0.83792000  0.60125000  0.63429000  1.0
  C  C29  1  0.06365000  0.01636000  0.71394000  1.0
  C  C30  1  0.93635000  0.98364000  0.28606000  1.0
  C  C31  1  0.14665000  0.07308000  0.85233000  1.0
  C  C32  1  0.85335000  0.92693000  0.14767000  1.0
  C  C33  1  0.16608000  0.23352000  0.93071000  1.0
  C  C34  1  0.83393000  0.76649000  0.06929000  1.0
  C  C35  1  0.19253000  0.30827000  0.56021000  1.0
  C  C36  1  0.80746000  0.69174000  0.43980000  1.0
  C  C37  1  0.09566000  0.20450000  0.61100000  1.0
  C  C38  1  0.90434000  0.79551000  0.38901000  1.0
  C  C39  1  0.16042000  0.12077000  0.65009000  1.0
  C  C40  1  0.83958000  0.87923000  0.34992000  1.0
  C  C41  1  0.32384000  0.14513000  0.63269000  1.0
  C  C42  1  0.67615000  0.85486000  0.36732000  1.0
  C  C43  1  0.41422000  0.25094000  0.58202000  1.0
  C  C44  1  0.58579000  0.74906000  0.41797000  1.0
  C  C45  1  0.47586000  0.37128000  0.22973000  1.0
  C  C46  1  0.52414000  0.62871000  0.77027000  1.0
  C  C47  1  0.40739000  0.31673000  0.10294000  1.0
  C  C48  1  0.59262000  0.68328000  0.89706000  1.0
  C  C49  1  0.24237000  0.28919000  0.06700000  1.0
  C  C50  1  0.75763000  0.71082000  0.93300000  1.0
  C  C51  1  0.15336000  0.31658000  0.16461000  1.0
  C  C52  1  0.84665000  0.68342000  0.83539000  1.0
  C  C53  1  0.22956000  0.37213000  0.29003000  1.0
  C  C54  1  0.77045000  0.62786000  0.70997000  1.0
  N  N55  1  0.35120000  0.33351000  0.54635000  1.0
  N  N56  1  0.64880000  0.66649000  0.45365000  1.0
  N  N57  1  0.38923000  0.40039000  0.32360000  1.0
  N  N58  1  0.61077000  0.59961000  0.67640000  1.0
  Cl  Cl59  1  0.27344000  0.74369000  0.61038000  1.0
  Cl  Cl60  1  0.72654000  0.25630000  0.38961000  1.0
  O  O61  1  0.30694000  0.60906000  0.55193000  1.0
  O  O62  1  0.69304000  0.39093000  0.44807000  1.0
  O  O63  1  0.22614000  0.78329000  0.50935000  1.0
  O  O64  1  0.77389000  0.21671000  0.49064000  1.0
  O  O65  1  0.13671000  0.70181000  0.67914000  1.0
  O  O66  1  0.86324000  0.29816000  0.32082000  1.0
  O  O67  1  0.42303000  0.86962000  0.69626000  1.0
  O  O68  1  0.57693000  0.13035000  0.30375000  1.0
