# generated using pymatgen
data_H7PbC8S(O2F)3
_symmetry_space_group_name_H-M   'P 1'
_cell_length_a   7.68778000
_cell_length_b   8.13511000
_cell_length_c   10.01290000
_cell_angle_alpha   85.14990000
_cell_angle_beta   77.63760000
_cell_angle_gamma   87.59420000
_symmetry_Int_Tables_number   1
_chemical_formula_structural   H7PbC8S(O2F)3
_chemical_formula_sum   'H14 Pb2 C16 S2 O12 F6'
_cell_volume   609.32235971
_cell_formula_units_Z   2
loop_
 _symmetry_equiv_pos_site_id
 _symmetry_equiv_pos_as_xyz
  1  'x, y, z'
loop_
 _atom_site_type_symbol
 _atom_site_label
 _atom_site_symmetry_multiplicity
 _atom_site_fract_x
 _atom_site_fract_y
 _atom_site_fract_z
 _atom_site_occupancy
  H  H0  1  0.86907000  0.77752000  0.75217000  1.0
  H  H1  1  0.13095000  0.22252000  0.24783000  1.0
  H  H2  1  0.45276000  0.51224000  0.87524000  1.0
  H  H3  1  0.54724000  0.48776000  0.12474000  1.0
  H  H4  1  0.32112000  0.64326000  0.07305000  1.0
  H  H5  1  0.67890000  0.35675000  0.92694000  1.0
  H  H6  1  0.05612000  0.80363000  0.11580000  1.0
  H  H7  1  0.94390000  0.19637000  0.88420000  1.0
  H  H8  1  0.86262000  0.86950000  0.96560000  1.0
  H  H9  1  0.13739000  0.13051000  0.03442000  1.0
  H  H10  1  0.97633000  0.21708000  0.64704000  1.0
  H  H11  1  0.02366000  0.78291000  0.35298000  1.0
  H  H12  1  0.13259000  0.09568000  0.58516000  1.0
  H  H13  1  0.86739000  0.90430000  0.41486000  1.0
  Pb  Pb14  1  0.27016000  0.40575000  0.46448000  1.0
  Pb  Pb15  1  0.72988000  0.59418000  0.53553000  1.0
  C  C16  1  0.09642000  0.62185000  0.72097000  1.0
  C  C17  1  0.90357000  0.37816000  0.27903000  1.0
  C  C18  1  0.26940000  0.56163000  0.74983000  1.0
  C  C19  1  0.73060000  0.43837000  0.25017000  1.0
  C  C20  1  0.97752000  0.73041000  0.80068000  1.0
  C  C21  1  0.02248000  0.26961000  0.19931000  1.0
  C  C22  1  0.32555000  0.57664000  0.87361000  1.0
  C  C23  1  0.67446000  0.42336000  0.12638000  1.0
  C  C24  1  0.24753000  0.65526000  0.99057000  1.0
  C  C25  1  0.75248000  0.34475000  0.00943000  1.0
  C  C26  1  0.09109000  0.75092000  0.01675000  1.0
  C  C27  1  0.90891000  0.24907000  0.98325000  1.0
  C  C28  1  0.50052000  0.05470000  0.77973000  1.0
  C  C29  1  0.49947000  0.94531000  0.22027000  1.0
  C  C30  1  0.97469000  0.78679000  0.92843000  1.0
  C  C31  1  0.02532000  0.21321000  0.07157000  1.0
  S  S32  1  0.65659000  0.13236000  0.61893000  1.0
  S  S33  1  0.34340000  0.86764000  0.38107000  1.0
  O  O34  1  0.37577000  0.48562000  0.65453000  1.0
  O  O35  1  0.62423000  0.51438000  0.34546000  1.0
  O  O36  1  0.05715000  0.57657000  0.60958000  1.0
  O  O37  1  0.94285000  0.42343000  0.39041000  1.0
  O  O38  1  0.54523000  0.18731000  0.52307000  1.0
  O  O39  1  0.45476000  0.81269000  0.47693000  1.0
  O  O40  1  0.74779000  0.26548000  0.66642000  1.0
  O  O41  1  0.25219000  0.73452000  0.33358000  1.0
  O  O42  1  0.77338000  0.98934000  0.58263000  1.0
  O  O43  1  0.22661000  0.01067000  0.41737000  1.0
  O  O44  1  0.10582000  0.19350000  0.63847000  1.0
  O  O45  1  0.89417000  0.80650000  0.36153000  1.0
  F  F46  1  0.41384000  0.18095000  0.84805000  1.0
  F  F47  1  0.58616000  0.81907000  0.15195000  1.0
  F  F48  1  0.59448000  0.96678000  0.86379000  1.0
  F  F49  1  0.40552000  0.03321000  0.13621000  1.0
  F  F50  1  0.37914000  0.95533000  0.75194000  1.0
  F  F51  1  0.62083000  0.04468000  0.24808000  1.0
