# generated using pymatgen
data_MnH16C16S(NO)4
_symmetry_space_group_name_H-M   'P 1'
_cell_length_a   8.52856000
_cell_length_b   8.79197000
_cell_length_c   12.90840000
_cell_angle_alpha   103.74600000
_cell_angle_beta   90.38400000
_cell_angle_gamma   117.70400000
_symmetry_Int_Tables_number   1
_chemical_formula_structural   MnH16C16S(NO)4
_chemical_formula_sum   'Mn2 H32 C32 S2 N8 O8'
_cell_volume   824.64239683
_cell_formula_units_Z   2
loop_
 _symmetry_equiv_pos_site_id
 _symmetry_equiv_pos_as_xyz
  1  'x, y, z'
loop_
 _atom_site_type_symbol
 _atom_site_label
 _atom_site_symmetry_multiplicity
 _atom_site_fract_x
 _atom_site_fract_y
 _atom_site_fract_z
 _atom_site_occupancy
  Mn  Mn0  1  0.00000000  0.00000000  0.00000000  1.0
  Mn  Mn1  1  0.00000000  0.00000000  0.50000000  1.0
  H  H2  1  0.44373000  0.01891000  0.08287000  1.0
  H  H3  1  0.43380000  0.98226000  0.42744000  1.0
  H  H4  1  0.55626000  0.98109000  0.91713000  1.0
  H  H5  1  0.56620000  0.01775000  0.57256000  1.0
  H  H6  1  0.60415000  0.63367000  0.98654000  1.0
  H  H7  1  0.97552000  0.36342000  0.51016000  1.0
  H  H8  1  0.39585000  0.36633000  0.01346000  1.0
  H  H9  1  0.02448000  0.63658000  0.48984000  1.0
  H  H10  1  0.43394000  0.36855000  0.79249000  1.0
  H  H11  1  0.05761000  0.61934000  0.70725000  1.0
  H  H12  1  0.56606000  0.63145000  0.20751000  1.0
  H  H13  1  0.94239000  0.38066000  0.29275000  1.0
  H  H14  1  0.90311000  0.79419000  0.73666000  1.0
  H  H15  1  0.10563000  0.18326000  0.75682000  1.0
  H  H16  1  0.09689000  0.20580000  0.26334000  1.0
  H  H17  1  0.89437000  0.81674000  0.24318000  1.0
  H  H18  1  0.53477000  0.32594000  0.60376000  1.0
  H  H19  1  0.20944000  0.65325000  0.89421000  1.0
  H  H20  1  0.46523000  0.67406000  0.39624000  1.0
  H  H21  1  0.79056000  0.34674000  0.10579000  1.0
  H  H22  1  0.74299000  0.49658000  0.58499000  1.0
  H  H23  1  0.22972000  0.46788000  0.91127000  1.0
  H  H24  1  0.25701000  0.50343000  0.41501000  1.0
  H  H25  1  0.77028000  0.53211000  0.08874000  1.0
  H  H26  1  0.59917000  0.68805000  0.57784000  1.0
  H  H27  1  0.90391000  0.30784000  0.92687000  1.0
  H  H28  1  0.40083000  0.31195000  0.42216000  1.0
  H  H29  1  0.09609000  0.69216000  0.07314000  1.0
  H  H30  1  0.39165000  0.51389000  0.59327000  1.0
  H  H31  1  0.87971000  0.48763000  0.90541000  1.0
  H  H32  1  0.60835000  0.48611000  0.40673000  1.0
  H  H33  1  0.12029000  0.51237000  0.09460000  1.0
  C  C34  1  0.48129000  0.01659000  0.16289000  1.0
  C  C35  1  0.47219000  0.98607000  0.34777000  1.0
  C  C36  1  0.51870000  0.98340000  0.83711000  1.0
  C  C37  1  0.52781000  0.01393000  0.65222000  1.0
  C  C38  1  0.63132000  0.01303000  0.20048000  1.0
  C  C39  1  0.62786000  0.99766000  0.30962000  1.0
  C  C40  1  0.36868000  0.98697000  0.79951000  1.0
  C  C41  1  0.37214000  0.00234000  0.69038000  1.0
  C  C42  1  0.76130000  0.00521000  0.12614000  1.0
  C  C43  1  0.77001000  0.00512000  0.37969000  1.0
  C  C44  1  0.23869000  0.99478000  0.87386000  1.0
  C  C45  1  0.22999000  0.99488000  0.62031000  1.0
  C  C46  1  0.64077000  0.62685000  0.90600000  1.0
  C  C47  1  0.01425000  0.36420000  0.59038000  1.0
  C  C48  1  0.35923000  0.37315000  0.09400000  1.0
  C  C49  1  0.98575000  0.63581000  0.40962000  1.0
  C  C50  1  0.55507000  0.49620000  0.81111000  1.0
  C  C51  1  0.05285000  0.49035000  0.68704000  1.0
  C  C52  1  0.44493000  0.50380000  0.18889000  1.0
  C  C53  1  0.94715000  0.50965000  0.31296000  1.0
  C  C54  1  0.80144000  0.71585000  0.78068000  1.0
  C  C55  1  0.08145000  0.26476000  0.71416000  1.0
  C  C56  1  0.19856000  0.28415000  0.21932000  1.0
  C  C57  1  0.91855000  0.73524000  0.28584000  1.0
  C  C58  1  0.61654000  0.47051000  0.61681000  1.0
  C  C59  1  0.13818000  0.50782000  0.88076000  1.0
  C  C60  1  0.38346000  0.52949000  0.38319000  1.0
  C  C61  1  0.86182000  0.49218000  0.11925000  1.0
  C  C62  1  0.51836000  0.54225000  0.56059000  1.0
  C  C63  1  0.97375000  0.45338000  0.93967000  1.0
  C  C64  1  0.48164000  0.45775000  0.43941000  1.0
  C  C65  1  0.02625000  0.54661000  0.06033000  1.0
  S  S66  1  0.33661000  0.99708000  0.25553000  1.0
  S  S67  1  0.66339000  0.00292000  0.74447000  1.0
  N  N68  1  0.79501000  0.76286000  0.88618000  1.0
  N  N69  1  0.03367000  0.22387000  0.60798000  1.0
  N  N70  1  0.20499000  0.23714000  0.11382000  1.0
  N  N71  1  0.96633000  0.77613000  0.39202000  1.0
  N  N72  1  0.65907000  0.55482000  0.73280000  1.0
  N  N73  1  0.09460000  0.42516000  0.76434000  1.0
  N  N74  1  0.34093000  0.44518000  0.26720000  1.0
  N  N75  1  0.90540000  0.57484000  0.23566000  1.0
  O  O76  1  0.84034000  0.91442000  0.13478000  1.0
  O  O77  1  0.93749000  0.09202000  0.37160000  1.0
  O  O78  1  0.15967000  0.08559000  0.86522000  1.0
  O  O79  1  0.06251000  0.90798000  0.62840000  1.0
  O  O80  1  0.78845000  0.08527000  0.05207000  1.0
  O  O81  1  0.73146000  0.92546000  0.45515000  1.0
  O  O82  1  0.21155000  0.91473000  0.94793000  1.0
  O  O83  1  0.26853000  0.07454000  0.54485000  1.0
