# generated using pymatgen
data_CdH36C40(NO)10
_symmetry_space_group_name_H-M   'P 1'
_cell_length_a   10.08010000
_cell_length_b   10.55530000
_cell_length_c   11.49240000
_cell_angle_alpha   67.47200000
_cell_angle_beta   67.98580000
_cell_angle_gamma   69.98230000
_symmetry_Int_Tables_number   1
_chemical_formula_structural   CdH36C40(NO)10
_chemical_formula_sum   'Cd1 H36 C40 N10 O10'
_cell_volume   1018.54151661
_cell_formula_units_Z   1
loop_
 _symmetry_equiv_pos_site_id
 _symmetry_equiv_pos_as_xyz
  1  'x, y, z'
loop_
 _atom_site_type_symbol
 _atom_site_label
 _atom_site_symmetry_multiplicity
 _atom_site_fract_x
 _atom_site_fract_y
 _atom_site_fract_z
 _atom_site_occupancy
  Cd  Cd0  1  0.50000000  0.50000000  0.99999000  1.0
  H  H1  1  0.68046000  0.99531000  0.07643000  1.0
  H  H2  1  0.31954000  0.00468000  0.92359000  1.0
  H  H3  1  0.47692000  0.74810000  0.09746000  1.0
  H  H4  1  0.52308000  0.25189000  0.90254000  1.0
  H  H5  1  0.84924000  0.49596000  0.91275000  1.0
  H  H6  1  0.15076000  0.50404000  0.08725000  1.0
  H  H7  1  0.01117000  0.64000000  0.89577000  1.0
  H  H8  1  0.98884000  0.35999000  0.10423000  1.0
  H  H9  1  0.89905000  0.84530000  0.98749000  1.0
  H  H10  1  0.10096000  0.15468000  0.01253000  1.0
  H  H11  1  0.32939000  0.11550000  0.25519000  1.0
  H  H12  1  0.67060000  0.88449000  0.74482000  1.0
  H  H13  1  0.50791000  0.14865000  0.17194000  1.0
  H  H14  1  0.49208000  0.85134000  0.82806000  1.0
  H  H15  1  0.25107000  0.02097000  0.49023000  1.0
  H  H16  1  0.74892000  0.97903000  0.50978000  1.0
  H  H17  1  0.70507000  0.04005000  0.29521000  1.0
  H  H18  1  0.29492000  0.95994000  0.70480000  1.0
  H  H19  1  0.37962000  0.73880000  0.42498000  1.0
  H  H20  1  0.62039000  0.26120000  0.57501000  1.0
  H  H21  1  0.34552000  0.58362000  0.78015000  1.0
  H  H22  1  0.65449000  0.41638000  0.21985000  1.0
  H  H23  1  0.78022000  0.56062000  0.73675000  1.0
  H  H24  1  0.21979000  0.43939000  0.26323000  1.0
  H  H25  1  0.83740000  0.63977000  0.49139000  1.0
  H  H26  1  0.16261000  0.36024000  0.50859000  1.0
  H  H27  1  0.63847000  0.68939000  0.38941000  1.0
  H  H28  1  0.36153000  0.31061000  0.61058000  1.0
  H  H29  1  0.00663000  0.80627000  0.70666000  1.0
  H  H30  1  0.99335000  0.19374000  0.29334000  1.0
  H  H31  1  0.10056000  0.94753000  0.28580000  1.0
  H  H32  1  0.89944000  0.05247000  0.71419000  1.0
  H  H33  1  0.18312000  0.70512000  0.39148000  1.0
  H  H34  1  0.81687000  0.29488000  0.60852000  1.0
  H  H35  1  0.04092000  0.64718000  0.53365000  1.0
  H  H36  1  0.95908000  0.35282000  0.46635000  1.0
  C  C37  1  0.67898000  0.81048000  0.05328000  1.0
  C  C38  1  0.32102000  0.18951000  0.94673000  1.0
  C  C39  1  0.59540000  0.72704000  0.05501000  1.0
  C  C40  1  0.40460000  0.27295000  0.94499000  1.0
  C  C41  1  0.80369000  0.58822000  0.94839000  1.0
  C  C42  1  0.19632000  0.41178000  0.05160000  1.0
  C  C43  1  0.89337000  0.66760000  0.94104000  1.0
  C  C44  1  0.10663000  0.33240000  0.05897000  1.0
  C  C45  1  0.83095000  0.78091000  0.99297000  1.0
  C  C46  1  0.16905000  0.21907000  0.00704000  1.0
  C  C47  1  0.48859000  0.93890000  0.20452000  1.0
  C  C48  1  0.51140000  0.06109000  0.79548000  1.0
  C  C49  1  0.44715000  0.07061000  0.24694000  1.0
  C  C50  1  0.55285000  0.92938000  0.75307000  1.0
  C  C51  1  0.47445000  0.03500000  0.37779000  1.0
  C  C52  1  0.52554000  0.96499000  0.62222000  1.0
  C  C53  1  0.36055000  0.01163000  0.49426000  1.0
  C  C54  1  0.63944000  0.98837000  0.50575000  1.0
  C  C55  1  0.61446000  0.02276000  0.38472000  1.0
  C  C56  1  0.38554000  0.97723000  0.61529000  1.0
  C  C57  1  0.47573000  0.64041000  0.57715000  1.0
  C  C58  1  0.52427000  0.35959000  0.42284000  1.0
  C  C59  1  0.45309000  0.59585000  0.71362000  1.0
  C  C60  1  0.54691000  0.40415000  0.28637000  1.0
  C  C61  1  0.69620000  0.58426000  0.68864000  1.0
  C  C62  1  0.30380000  0.41575000  0.31134000  1.0
  C  C63  1  0.72716000  0.62823000  0.55260000  1.0
  C  C64  1  0.27285000  0.37179000  0.44739000  1.0
  C  C65  1  0.61637000  0.65685000  0.49569000  1.0
  C  C66  1  0.38363000  0.34316000  0.50430000  1.0
  C  C67  1  0.23116000  0.63495000  0.57846000  1.0
  C  C68  1  0.76884000  0.36506000  0.42153000  1.0
  C  C69  1  0.00297000  0.89111000  0.61569000  1.0
  C  C70  1  0.99703000  0.10889000  0.38431000  1.0
  C  C71  1  0.05928000  0.85907000  0.49611000  1.0
  C  C72  1  0.94071000  0.14093000  0.50389000  1.0
  C  C73  1  0.05596000  0.96994000  0.38006000  1.0
  C  C74  1  0.94404000  0.03006000  0.61993000  1.0
  C  C75  1  0.12586000  0.70769000  0.49319000  1.0
  C  C76  1  0.87414000  0.29232000  0.50681000  1.0
  N  N77  1  0.65735000  0.61935000  0.00240000  1.0
  N  N78  1  0.34265000  0.38064000  0.99760000  1.0
  N  N79  1  0.61519000  0.92482000  0.10557000  1.0
  N  N80  1  0.38481000  0.07517000  0.89445000  1.0
  N  N81  1  0.56099000  0.56937000  0.76717000  1.0
  N  N82  1  0.43902000  0.43063000  0.23282000  1.0
  N  N83  1  0.36320000  0.67363000  0.52040000  1.0
  N  N84  1  0.63680000  0.32637000  0.47960000  1.0
  N  N85  1  0.22216000  0.79020000  0.95827000  1.0
  N  N86  1  0.77784000  0.20980000  0.04173000  1.0
  O  O87  1  0.41232000  0.84973000  0.25909000  1.0
  O  O88  1  0.58767000  0.15026000  0.74091000  1.0
  O  O89  1  0.19694000  0.55329000  0.69007000  1.0
  O  O90  1  0.80306000  0.44673000  0.30994000  1.0
  O  O91  1  0.18047000  0.73815000  0.90061000  1.0
  O  O92  1  0.81954000  0.26185000  0.09939000  1.0
  O  O93  1  0.18311000  0.92152000  0.94460000  1.0
  O  O94  1  0.81688000  0.07848000  0.05541000  1.0
  O  O95  1  0.30623000  0.71113000  0.03288000  1.0
  O  O96  1  0.69377000  0.28887000  0.96712000  1.0
