# generated using pymatgen
data_CoBH48C45N3Cl2
_symmetry_space_group_name_H-M   'P 1'
_cell_length_a   17.62680000
_cell_length_b   17.62709928
_cell_length_c   18.73710000
_cell_angle_alpha   89.99794160
_cell_angle_beta   118.05930000
_cell_angle_gamma   120.00431492
_symmetry_Int_Tables_number   1
_chemical_formula_structural   CoBH48C45N3Cl2
_chemical_formula_sum   'Co4 B4 H192 C180 N12 Cl8'
_cell_volume   4233.08551265
_cell_formula_units_Z   4
loop_
 _symmetry_equiv_pos_site_id
 _symmetry_equiv_pos_as_xyz
  1  'x, y, z'
loop_
 _atom_site_type_symbol
 _atom_site_label
 _atom_site_symmetry_multiplicity
 _atom_site_fract_x
 _atom_site_fract_y
 _atom_site_fract_z
 _atom_site_occupancy
  Co  Co0  1  0.97866000  0.88223000  0.48933000  1.0
  Co  Co1  1  0.39288000  0.51072000  0.48929000  1.0
  Co  Co2  1  0.60708000  0.09642000  0.48934000  1.0
  Co  Co3  1  0.98864000  0.99436000  0.98289000  1.0
  B  B4  1  0.99998000  0.60622000  0.00106000  1.0
  B  B5  1  0.60724000  0.00108000  0.00099000  1.0
  B  B6  1  0.39488000  0.39373000  0.00098000  1.0
  B  B7  1  0.99971000  0.49984000  0.49966000  1.0
  H  H8  1  0.02550000  0.95267000  0.65952000  1.0
  H  H9  1  0.58667000  0.63406000  0.65948000  1.0
  H  H10  1  0.70684000  0.07272000  0.65956000  1.0
  H  H11  1  0.40280000  0.04344000  0.33932000  1.0
  H  H12  1  0.29586000  0.35951000  0.33928000  1.0
  H  H13  1  0.98006000  0.93658000  0.33939000  1.0
  H  H14  1  0.02146000  0.89005000  0.77826000  1.0
  H  H15  1  0.64680000  0.75677000  0.77827000  1.0
  H  H16  1  0.88823000  0.13132000  0.77828000  1.0
  H  H17  1  0.34523000  0.10902000  0.22299000  1.0
  H  H18  1  0.11393000  0.23630000  0.22296000  1.0
  H  H19  1  0.98692000  0.87784000  0.22306000  1.0
  H  H20  1  0.94005000  0.63942000  0.63751000  1.0
  H  H21  1  0.33684000  0.69746000  0.63749000  1.0
  H  H22  1  0.99806000  0.30059000  0.63752000  1.0
  H  H23  1  0.66004000  0.35385000  0.36249000  1.0
  H  H24  1  0.00861000  0.30614000  0.36253000  1.0
  H  H25  1  0.05620000  0.70240000  0.36247000  1.0
  H  H26  1  0.93136000  0.70639000  0.51956000  1.0
  H  H27  1  0.29458000  0.58829000  0.51947000  1.0
  H  H28  1  0.81311000  0.22488000  0.51957000  1.0
  H  H29  1  0.70019000  0.28401000  0.47906000  1.0
  H  H30  1  0.19505000  0.41616000  0.47910000  1.0
  H  H31  1  0.06290000  0.77889000  0.47908000  1.0
  H  H32  1  0.23052000  0.78500000  0.88057000  1.0
  H  H33  1  0.43508000  0.65006000  0.88059000  1.0
  H  H34  1  0.09566000  0.44554000  0.88056000  1.0
  H  H35  1  0.56442000  0.21361000  0.12166000  1.0
  H  H36  1  0.90803000  0.35086000  0.12175000  1.0
  H  H37  1  0.77087000  0.55725000  0.12171000  1.0
  H  H38  1  0.14831000  0.77812000  0.77586000  1.0
  H  H39  1  0.40564000  0.62752000  0.77586000  1.0
  H  H40  1  0.99779000  0.37018000  0.77586000  1.0
  H  H41  1  0.59102000  0.21827000  0.22543000  1.0
  H  H42  1  0.00711000  0.37279000  0.22552000  1.0
  H  H43  1  0.85274000  0.63440000  0.22550000  1.0
  H  H44  1  0.15214000  0.68195000  0.79681000  1.0
  H  H45  1  0.32657000  0.64457000  0.79683000  1.0
  H  H46  1  0.11490000  0.47017000  0.79677000  1.0
  H  H47  1  0.67221000  0.31559000  0.20694000  1.0
  H  H48  1  0.89123000  0.35654000  0.20697000  1.0
  H  H49  1  0.85039000  0.53474000  0.20696000  1.0
  H  H50  1  0.20127000  0.66584000  0.92633000  1.0
  H  H51  1  0.39085000  0.72506000  0.92632000  1.0
  H  H52  1  0.26060000  0.53542000  0.92633000  1.0
  H  H53  1  0.60643000  0.32881000  0.07470000  1.0
  H  H54  1  0.74588000  0.27756000  0.07459000  1.0
  H  H55  1  0.79705000  0.46832000  0.07463000  1.0
  H  H56  1  0.12032000  0.58043000  0.95452000  1.0
  H  H57  1  0.41455000  0.83417000  0.95450000  1.0
  H  H58  1  0.37414000  0.53988000  0.95435000  1.0
  H  H59  1  0.59269000  0.42076000  0.05402000  1.0
  H  H60  1  0.63331000  0.17191000  0.05408000  1.0
  H  H61  1  0.88215000  0.46141000  0.05404000  1.0
  H  H62  1  0.20725000  0.69593000  0.01955000  1.0
  H  H63  1  0.50821000  0.81234000  0.01950000  1.0
  H  H64  1  0.32387000  0.51132000  0.01951000  1.0
  H  H65  1  0.49381000  0.30857000  0.98269000  1.0
  H  H66  1  0.67400000  0.18505000  0.98265000  1.0
  H  H67  1  0.79755000  0.48898000  0.98267000  1.0
  H  H68  1  0.82372000  0.69589000  0.89617000  1.0
  H  H69  1  0.76826000  0.07236000  0.89612000  1.0
  H  H70  1  0.20028000  0.12781000  0.89610000  1.0
  H  H71  1  0.22966000  0.30281000  0.10289000  1.0
  H  H72  1  0.80016000  0.92691000  0.10289000  1.0
  H  H73  1  0.17605000  0.87331000  0.10297000  1.0
  H  H74  1  0.84965000  0.62349000  0.95371000  1.0
  H  H75  1  0.72749000  0.10399000  0.95366000  1.0
  H  H76  1  0.33024000  0.22612000  0.95359000  1.0
  H  H77  1  0.27239000  0.37582000  0.04640000  1.0
  H  H78  1  0.67062000  0.89654000  0.04641000  1.0
  H  H79  1  0.14994000  0.77416000  0.04648000  1.0
  H  H80  1  0.75668000  0.57917000  0.84231000  1.0
  H  H81  1  0.66483000  0.08568000  0.84228000  1.0
  H  H82  1  0.26312000  0.17740000  0.84220000  1.0
  H  H83  1  0.33395000  0.41922000  0.15770000  1.0
  H  H84  1  0.73856000  0.91467000  0.15772000  1.0
  H  H85  1  0.24313000  0.82396000  0.15777000  1.0
  H  H86  1  0.74485000  0.63757000  0.73205000  1.0
  H  H87  1  0.62461000  0.98716000  0.73192000  1.0
  H  H88  1  0.09444000  0.10723000  0.73196000  1.0
  H  H89  1  0.36475000  0.35499000  0.26345000  1.0
  H  H90  1  0.90851000  0.00974000  0.26344000  1.0
  H  H91  1  0.25378000  0.89880000  0.26351000  1.0
  H  H92  1  0.81608000  0.71890000  0.69476000  1.0
  H  H93  1  0.59738000  0.87864000  0.69462000  1.0
  H  H94  1  0.97584000  0.09714000  0.69469000  1.0
  H  H95  1  0.39608000  0.27674000  0.30365000  1.0
  H  H96  1  0.02692000  0.11935000  0.30366000  1.0
  H  H97  1  0.18440000  0.90762000  0.30372000  1.0
  H  H98  1  0.82280000  0.75702000  0.78601000  1.0
  H  H99  1  0.72005000  0.96314000  0.78585000  1.0
  H  H100  1  0.02898000  0.06577000  0.78594000  1.0
  H  H101  1  0.27344000  0.23469000  0.21055000  1.0
  H  H102  1  0.97589000  0.03881000  0.21053000  1.0
  H  H103  1  0.17185000  0.93715000  0.21062000  1.0
  H  H104  1  0.83202000  0.49311000  0.86154000  1.0
  H  H105  1  0.52258000  0.02952000  0.86154000  1.0
  H  H106  1  0.36851000  0.33889000  0.86151000  1.0
  H  H107  1  0.48056000  0.50645000  0.14068000  1.0
  H  H108  1  0.63420000  0.97393000  0.14065000  1.0
  H  H109  1  0.16673000  0.66028000  0.14069000  1.0
  H  H110  1  0.75344000  0.37498000  0.85014000  1.0
  H  H111  1  0.47169000  0.09674000  0.85014000  1.0
  H  H112  1  0.47524000  0.37844000  0.85010000  1.0
  H  H113  1  0.53338000  0.62503000  0.15321000  1.0
  H  H114  1  0.52817000  0.90822000  0.15325000  1.0
  H  H115  1  0.24507000  0.62001000  0.15331000  1.0
  H  H116  1  0.81678000  0.40841000  0.79520000  1.0
  H  H117  1  0.38678000  0.97846000  0.79518000  1.0
  H  H118  1  0.38684000  0.40832000  0.79513000  1.0
  H  H119  1  0.61668000  0.58972000  0.20683000  1.0
  H  H120  1  0.61719000  0.02686000  0.20684000  1.0
  H  H121  1  0.17999000  0.59032000  0.20687000  1.0
  H  H122  1  0.84096000  0.21401000  0.85963000  1.0
  H  H123  1  0.23258000  0.01862000  0.85963000  1.0
  H  H124  1  0.64566000  0.62697000  0.85955000  1.0
  H  H125  1  0.77015000  0.78542000  0.14173000  1.0
  H  H126  1  0.35646000  0.98474000  0.14186000  1.0
  H  H127  1  0.15712000  0.37171000  0.14177000  1.0
  H  H128  1  0.82645000  0.28455000  0.79399000  1.0
  H  H129  1  0.25203000  0.96753000  0.79400000  1.0
  H  H130  1  0.50950000  0.54187000  0.79393000  1.0
  H  H131  1  0.75044000  0.71525000  0.20750000  1.0
  H  H132  1  0.49242000  0.03517000  0.20755000  1.0
  H  H133  1  0.17239000  0.45718000  0.20752000  1.0
  H  H134  1  0.75586000  0.24763000  0.84250000  1.0
  H  H135  1  0.33420000  0.08662000  0.84252000  1.0
  H  H136  1  0.59497000  0.50827000  0.84249000  1.0
  H  H137  1  0.66840000  0.75234000  0.15853000  1.0
  H  H138  1  0.40626000  0.91601000  0.15864000  1.0
  H  H139  1  0.24262000  0.49027000  0.15860000  1.0
  H  H140  1  0.05652000  0.29039000  0.91652000  1.0
  H  H141  1  0.15031000  0.85999000  0.91654000  1.0
  H  H142  1  0.62619000  0.76612000  0.91649000  1.0
  H  H143  1  0.85494000  0.71540000  0.08350000  1.0
  H  H144  1  0.36820000  0.13948000  0.08356000  1.0
  H  H145  1  0.94404000  0.22869000  0.08353000  1.0
  H  H146  1  0.05040000  0.14671000  0.91384000  1.0
  H  H147  1  0.01008000  0.86351000  0.91380000  1.0
  H  H148  1  0.76717000  0.90369000  0.91378000  1.0
  H  H149  1  0.98960000  0.86107000  0.08156000  1.0
  H  H150  1  0.22063000  0.12858000  0.08157000  1.0
  H  H151  1  0.95306000  0.09208000  0.08159000  1.0
  H  H152  1  0.85122000  0.94018000  0.48684000  1.0
  H  H153  1  0.57581000  0.63563000  0.48681000  1.0
  H  H154  1  0.54658000  0.91104000  0.48677000  1.0
  H  H155  1  0.44152000  0.06486000  0.51803000  1.0
  H  H156  1  0.45302000  0.37665000  0.51789000  1.0
  H  H157  1  0.14135000  0.07648000  0.51805000  1.0
  H  H158  1  0.85239000  0.08208000  0.48983000  1.0
  H  H159  1  0.71961000  0.63749000  0.48992000  1.0
  H  H160  1  0.40772000  0.77030000  0.48981000  1.0
  H  H161  1  0.28978000  0.92736000  0.51285000  1.0
  H  H162  1  0.58536000  0.36240000  0.51277000  1.0
  H  H163  1  0.15042000  0.22303000  0.51283000  1.0
  H  H164  1  0.15890000  0.26845000  0.64608000  1.0
  H  H165  1  0.75561000  0.48721000  0.64607000  1.0
  H  H166  1  0.37763000  0.89042000  0.64608000  1.0
  H  H167  1  0.24149000  0.73665000  0.35362000  1.0
  H  H168  1  0.61702000  0.50499000  0.35371000  1.0
  H  H169  1  0.84860000  0.11199000  0.35367000  1.0
  H  H170  1  0.19783000  0.37478000  0.70200000  1.0
  H  H171  1  0.87897000  0.50425000  0.70203000  1.0
  H  H172  1  0.32724000  0.82301000  0.70202000  1.0
  H  H173  1  0.11759000  0.63093000  0.29695000  1.0
  H  H174  1  0.66603000  0.48680000  0.29702000  1.0
  H  H175  1  0.81010000  0.17919000  0.29699000  1.0
  H  H176  1  0.24835000  0.37232000  0.63991000  1.0
  H  H177  1  0.76389000  0.39159000  0.64000000  1.0
  H  H178  1  0.26767000  0.87607000  0.64000000  1.0
  H  H179  1  0.23169000  0.63196000  0.35698000  1.0
  H  H180  1  0.72507000  0.59987000  0.35706000  1.0
  H  H181  1  0.75710000  0.12518000  0.35706000  1.0
  H  H182  1  0.25403000  0.51242000  0.64973000  1.0
  H  H183  1  0.90811000  0.39561000  0.64980000  1.0
  H  H184  1  0.13731000  0.74161000  0.64986000  1.0
  H  H185  1  0.09232000  0.49071000  0.35034000  1.0
  H  H186  1  0.85961000  0.60167000  0.35036000  1.0
  H  H187  1  0.74853000  0.25782000  0.35035000  1.0
  H  H188  1  0.18286000  0.49048000  0.69746000  1.0
  H  H189  1  0.00508000  0.51454000  0.69746000  1.0
  H  H190  1  0.20691000  0.69229000  0.69743000  1.0
  H  H191  1  0.99474000  0.51173000  0.30104000  1.0
  H  H192  1  0.78922000  0.48304000  0.30110000  1.0
  H  H193  1  0.81789000  0.30614000  0.30108000  1.0
  H  H194  1  0.17945000  0.55894000  0.62818000  1.0
  H  H195  1  0.00761000  0.44862000  0.62819000  1.0
  H  H196  1  0.06917000  0.62050000  0.62821000  1.0
  H  H197  1  0.99154000  0.44323000  0.37025000  1.0
  H  H198  1  0.92694000  0.54832000  0.37026000  1.0
  H  H199  1  0.82175000  0.37853000  0.37028000  1.0
  C  C200  1  0.00366000  0.88242000  0.65646000  1.0
  C  C201  1  0.53519000  0.65283000  0.65643000  1.0
  C  C202  1  0.77402000  0.12115000  0.65650000  1.0
  C  C203  1  0.45683000  0.11280000  0.34243000  1.0
  C  C204  1  0.22961000  0.34411000  0.34241000  1.0
  C  C205  1  0.99848000  0.88565000  0.34248000  1.0
  C  C206  1  0.00368000  0.84775000  0.72303000  1.0
  C  C207  1  0.56706000  0.71935000  0.72302000  1.0
  C  C208  1  0.87528000  0.15585000  0.72306000  1.0
  C  C209  1  0.42592000  0.14912000  0.27704000  1.0
  C  C210  1  0.12790000  0.27687000  0.27704000  1.0
  C  C211  1  0.00032000  0.85117000  0.27709000  1.0
  C  C212  1  0.98271000  0.75935000  0.71873000  1.0
  C  C213  1  0.49531000  0.73598000  0.71871000  1.0
  C  C214  1  0.95938000  0.22332000  0.71876000  1.0
  C  C215  1  0.49975000  0.23643000  0.28129000  1.0
  C  C216  1  0.04484000  0.26332000  0.28132000  1.0
  C  C217  1  0.01800000  0.78156000  0.28132000  1.0
  C  C218  1  0.95791000  0.70858000  0.64467000  1.0
  C  C219  1  0.39531000  0.68677000  0.64464000  1.0
  C  C220  1  0.93606000  0.24928000  0.64470000  1.0
  C  C221  1  0.60032000  0.28507000  0.35489000  1.0
  C  C222  1  0.06981000  0.31524000  0.35494000  1.0
  C  C223  1  0.03962000  0.75457000  0.35491000  1.0
  C  C224  1  0.95418000  0.74602000  0.57902000  1.0
  C  C225  1  0.37084000  0.62489000  0.57895000  1.0
  C  C226  1  0.83296000  0.20808000  0.57904000  1.0
  C  C227  1  0.62402000  0.24616000  0.41948000  1.0
  C  C228  1  0.17329000  0.37785000  0.41951000  1.0
  C  C229  1  0.04163000  0.79547000  0.41951000  1.0
  C  C230  1  0.98635000  0.71961000  0.78919000  1.0
  C  C231  1  0.52236000  0.80280000  0.78914000  1.0
  C  C232  1  0.06960000  0.26671000  0.78917000  1.0
  C  C233  1  0.47419000  0.27707000  0.21134000  1.0
  C  C234  1  0.93425000  0.19712000  0.21137000  1.0
  C  C235  1  0.01428000  0.73719000  0.21139000  1.0
  C  C236  1  0.06687000  0.70660000  0.83720000  1.0
  C  C237  1  0.47685000  0.77031000  0.83715000  1.0
  C  C238  1  0.13065000  0.36025000  0.83717000  1.0
  C  C239  1  0.52144000  0.29109000  0.16456000  1.0
  C  C240  1  0.87345000  0.23035000  0.16459000  1.0
  C  C241  1  0.93426000  0.64316000  0.16459000  1.0
  C  C242  1  0.06864000  0.66711000  0.90283000  1.0
  C  C243  1  0.50118000  0.83417000  0.90274000  1.0
  C  C244  1  0.23580000  0.40152000  0.90275000  1.0
  C  C245  1  0.49858000  0.33145000  0.09941000  1.0
  C  C246  1  0.76795000  0.16709000  0.09941000  1.0
  C  C247  1  0.93236000  0.60090000  0.09944000  1.0
  C  C248  1  0.99506000  0.64711000  0.92487000  1.0
  C  C249  1  0.57680000  0.92979000  0.92477000  1.0
  C  C250  1  0.27780000  0.34792000  0.92476000  1.0
  C  C251  1  0.42313000  0.35183000  0.07673000  1.0
  C  C252  1  0.72490000  0.07126000  0.07674000  1.0
  C  C253  1  0.00554000  0.65369000  0.07680000  1.0
  C  C254  1  0.91662000  0.66269000  0.87689000  1.0
  C  C255  1  0.62282000  0.96023000  0.87677000  1.0
  C  C256  1  0.21422000  0.25390000  0.87677000  1.0
  C  C257  1  0.37525000  0.33515000  0.12335000  1.0
  C  C258  1  0.78821000  0.04009000  0.12338000  1.0
  C  C259  1  0.08336000  0.74817000  0.12345000  1.0
  C  C260  1  0.90955000  0.69572000  0.80698000  1.0
  C  C261  1  0.59300000  0.89740000  0.80687000  1.0
  C  C262  1  0.11128000  0.21381000  0.80690000  1.0
  C  C263  1  0.40288000  0.30051000  0.19242000  1.0
  C  C264  1  0.89192000  0.10238000  0.19246000  1.0
  C  C265  1  0.09015000  0.78960000  0.19252000  1.0
  C  C266  1  0.15343000  0.73944000  0.82159000  1.0
  C  C267  1  0.40758000  0.66814000  0.82159000  1.0
  C  C268  1  0.08222000  0.41398000  0.82158000  1.0
  C  C269  1  0.59081000  0.25816000  0.18073000  1.0
  C  C270  1  0.92252000  0.33265000  0.18078000  1.0
  C  C271  1  0.84812000  0.58993000  0.18076000  1.0
  C  C272  1  0.15369000  0.65169000  0.95290000  1.0
  C  C273  1  0.45083000  0.79922000  0.95285000  1.0
  C  C274  1  0.30133000  0.50199000  0.95283000  1.0
  C  C275  1  0.55075000  0.34799000  0.05065000  1.0
  C  C276  1  0.70263000  0.20268000  0.05062000  1.0
  C  C277  1  0.84794000  0.49998000  0.05064000  1.0
  C  C278  1  0.83314000  0.63902000  0.89376000  1.0
  C  C279  1  0.69957000  0.06058000  0.89369000  1.0
  C  C280  1  0.25474000  0.19408000  0.89365000  1.0
  C  C281  1  0.29902000  0.35952000  0.10604000  1.0
  C  C282  1  0.74657000  0.93949000  0.10605000  1.0
  C  C283  1  0.16663000  0.80714000  0.10612000  1.0
  C  C284  1  0.81909000  0.70294000  0.75210000  1.0
  C  C285  1  0.63577000  0.93295000  0.75197000  1.0
  C  C286  1  0.04914000  0.11613000  0.75203000  1.0
  C  C287  1  0.35714000  0.29105000  0.24527000  1.0
  C  C288  1  0.95425000  0.06611000  0.24528000  1.0
  C  C289  1  0.17925000  0.88818000  0.24535000  1.0
  C  C290  1  0.99925000  0.51630000  0.00114000  1.0
  C  C291  1  0.51814000  0.00190000  0.00111000  1.0
  C  C292  1  0.48493000  0.48293000  0.00109000  1.0
  C  C293  1  0.91879000  0.43546000  0.93036000  1.0
  C  C294  1  0.44698000  0.01158000  0.93034000  1.0
  C  C295  1  0.49495000  0.48331000  0.93029000  1.0
  C  C296  1  0.55624000  0.56382000  0.07181000  1.0
  C  C297  1  0.50798000  0.99230000  0.07183000  1.0
  C  C298  1  0.07956000  0.51572000  0.07185000  1.0
  C  C299  1  0.91923000  0.35574000  0.92947000  1.0
  C  C300  1  0.36593000  0.01024000  0.92946000  1.0
  C  C301  1  0.57379000  0.56349000  0.92940000  1.0
  C  C302  1  0.63685000  0.64362000  0.07233000  1.0
  C  C303  1  0.42871000  0.99310000  0.07236000  1.0
  C  C304  1  0.07927000  0.43563000  0.07236000  1.0
  C  C305  1  0.82655000  0.42866000  0.85603000  1.0
  C  C306  1  0.45809000  0.02950000  0.85601000  1.0
  C  C307  1  0.42743000  0.39786000  0.85597000  1.0
  C  C308  1  0.54556000  0.57061000  0.14639000  1.0
  C  C309  1  0.57578000  0.97482000  0.14640000  1.0
  C  C310  1  0.17160000  0.60098000  0.14644000  1.0
  C  C311  1  0.83223000  0.27127000  0.85314000  1.0
  C  C312  1  0.29211000  0.02089000  0.85315000  1.0
  C  C313  1  0.58193000  0.56097000  0.85308000  1.0
  C  C314  1  0.71049000  0.72842000  0.14828000  1.0
  C  C315  1  0.41995000  0.98202000  0.14836000  1.0
  C  C316  1  0.16634000  0.43792000  0.14832000  1.0
  C  C317  1  0.99930000  0.35639000  0.00083000  1.0
  C  C318  1  0.35788000  0.00151000  0.00084000  1.0
  C  C319  1  0.64451000  0.64290000  0.00078000  1.0
  C  C320  1  0.00004000  0.27238000  0.00015000  1.0
  C  C321  1  0.27246000  0.00009000  0.00018000  1.0
  C  C322  1  0.72784000  0.72768000  0.00010000  1.0
  C  C323  1  0.03092000  0.24779000  0.95283000  1.0
  C  C324  1  0.16965000  0.92192000  0.95285000  1.0
  C  C325  1  0.70514000  0.78315000  0.95280000  1.0
  C  C326  1  0.83199000  0.75581000  0.04622000  1.0
  C  C327  1  0.29049000  0.07613000  0.04627000  1.0
  C  C328  1  0.97013000  0.21436000  0.04625000  1.0
  C  C329  1  0.02920000  0.16824000  0.95196000  1.0
  C  C330  1  0.09096000  0.92281000  0.95196000  1.0
  C  C331  1  0.78378000  0.86098000  0.95192000  1.0
  C  C332  1  0.90752000  0.83596000  0.04445000  1.0
  C  C333  1  0.20858000  0.07158000  0.04449000  1.0
  C  C334  1  0.97295000  0.13704000  0.04448000  1.0
  C  C335  1  0.91706000  0.00529000  0.49481000  1.0
  C  C336  1  0.58305000  0.57776000  0.49480000  1.0
  C  C337  1  0.48945000  0.91176000  0.49477000  1.0
  C  C338  1  0.42794000  0.99699000  0.50923000  1.0
  C  C339  1  0.51216000  0.43097000  0.50915000  1.0
  C  C340  1  0.07825000  0.08126000  0.50924000  1.0
  C  C341  1  0.91791000  0.08433000  0.49531000  1.0
  C  C342  1  0.66177000  0.57743000  0.49536000  1.0
  C  C343  1  0.41093000  0.83356000  0.49529000  1.0
  C  C344  1  0.34544000  0.92058000  0.50776000  1.0
  C  C345  1  0.58711000  0.42487000  0.50772000  1.0
  C  C346  1  0.08288000  0.16229000  0.50776000  1.0
  C  C347  1  0.00169000  0.16535000  0.50098000  1.0
  C  C348  1  0.66466000  0.49931000  0.50102000  1.0
  C  C349  1  0.33558000  0.83631000  0.50098000  1.0
  C  C350  1  0.00282000  0.24987000  0.49985000  1.0
  C  C351  1  0.74690000  0.49701000  0.49988000  1.0
  C  C352  1  0.24988000  0.75294000  0.49983000  1.0
  C  C353  1  0.08837000  0.33265000  0.56661000  1.0
  C  C354  1  0.81085000  0.47817000  0.56662000  1.0
  C  C355  1  0.23388000  0.75572000  0.56660000  1.0
  C  C356  1  0.18612000  0.67058000  0.43252000  1.0
  C  C357  1  0.76195000  0.51564000  0.43259000  1.0
  C  C358  1  0.91687000  0.24628000  0.43257000  1.0
  C  C359  1  0.08817000  0.41263000  0.56456000  1.0
  C  C360  1  0.88895000  0.47627000  0.56456000  1.0
  C  C361  1  0.15182000  0.67555000  0.56455000  1.0
  C  C362  1  0.10880000  0.58972000  0.43428000  1.0
  C  C363  1  0.84454000  0.51916000  0.43434000  1.0
  C  C364  1  0.91506000  0.32534000  0.43433000  1.0
  C  C365  1  0.17758000  0.33699000  0.64230000  1.0
  C  C366  1  0.80170000  0.46473000  0.64234000  1.0
  C  C367  1  0.30531000  0.84058000  0.64233000  1.0
  C  C368  1  0.19497000  0.66767000  0.35645000  1.0
  C  C369  1  0.68882000  0.52744000  0.35653000  1.0
  C  C370  1  0.82899000  0.16134000  0.35651000  1.0
  C  C371  1  0.18039000  0.49829000  0.63814000  1.0
  C  C372  1  0.95598000  0.45764000  0.63815000  1.0
  C  C373  1  0.13978000  0.68209000  0.63816000  1.0
  C  C374  1  0.04336000  0.50428000  0.36083000  1.0
  C  C375  1  0.85651000  0.53913000  0.36088000  1.0
  C  C376  1  0.82159000  0.31731000  0.36087000  1.0
  C  C377  1  0.00109000  0.41012000  0.49955000  1.0
  C  C378  1  0.90851000  0.49836000  0.49955000  1.0
  C  C379  1  0.08932000  0.59097000  0.49954000  1.0
  N  N380  1  0.97873000  0.83227000  0.58533000  1.0
  N  N381  1  0.43886000  0.60665000  0.58529000  1.0
  N  N382  1  0.75302000  0.14637000  0.58536000  1.0
  N  N383  1  0.55439000  0.15997000  0.41225000  1.0
  N  N384  1  0.25225000  0.39448000  0.41225000  1.0
  N  N385  1  0.01787000  0.85788000  0.41229000  1.0
  N  N386  1  0.99607000  0.00337000  0.50197000  1.0
  N  N387  1  0.50922000  0.50591000  0.50190000  1.0
  N  N388  1  0.49855000  0.99269000  0.50193000  1.0
  N  N389  1  0.00115000  0.11343000  0.99739000  1.0
  N  N390  1  0.10966000  0.99631000  0.99737000  1.0
  N  N391  1  0.88402000  0.88775000  0.99735000  1.0
  Cl  Cl392  1  0.18015000  0.96758000  0.60118000  1.0
  Cl  Cl393  1  0.38859000  0.42106000  0.60112000  1.0
  Cl  Cl394  1  0.63360000  0.21253000  0.60116000  1.0
  Cl  Cl395  1  0.61067000  0.02112000  0.39242000  1.0
  Cl  Cl396  1  0.37135000  0.58969000  0.39244000  1.0
  Cl  Cl397  1  0.80285000  0.78170000  0.39245000  1.0
  Cl  Cl398  1  0.89104000  0.94556000  0.83647000  1.0
  Cl  Cl399  1  0.10082000  0.05039000  0.15114000  1.0
