# generated using pymatgen
data_GdH12C11O8
_symmetry_space_group_name_H-M   'P 1'
_cell_length_a   5.82260000
_cell_length_b   13.31520000
_cell_length_c   15.49900000
_cell_angle_alpha   93.95470000
_cell_angle_beta   90.00000000
_cell_angle_gamma   90.00000000
_symmetry_Int_Tables_number   1
_chemical_formula_structural   GdH12C11O8
_chemical_formula_sum   'Gd4 H48 C44 O32'
_cell_volume   1198.76206868
_cell_formula_units_Z   4
loop_
 _symmetry_equiv_pos_site_id
 _symmetry_equiv_pos_as_xyz
  1  'x, y, z'
loop_
 _atom_site_type_symbol
 _atom_site_label
 _atom_site_symmetry_multiplicity
 _atom_site_fract_x
 _atom_site_fract_y
 _atom_site_fract_z
 _atom_site_occupancy
  Gd  Gd0  1  0.56076000  0.36701000  0.41774000  1.0
  Gd  Gd1  1  0.06076000  0.13300000  0.08226000  1.0
  Gd  Gd2  1  0.43924000  0.63300000  0.58226000  1.0
  Gd  Gd3  1  0.93924000  0.86700000  0.91774000  1.0
  H  H4  1  0.12434000  0.28235000  0.33307000  1.0
  H  H5  1  0.62434000  0.21765000  0.16693000  1.0
  H  H6  1  0.87566000  0.71765000  0.66693000  1.0
  H  H7  1  0.37566000  0.78235000  0.83307000  1.0
  H  H8  1  0.30907000  0.28575000  0.25695000  1.0
  H  H9  1  0.80906000  0.21425000  0.24305000  1.0
  H  H10  1  0.69094000  0.71425000  0.74305000  1.0
  H  H11  1  0.19094000  0.78575000  0.75695000  1.0
  H  H12  1  0.09820000  0.31050000  0.50519000  1.0
  H  H13  1  0.59820000  0.18950000  0.99481000  1.0
  H  H14  1  0.90180000  0.68951000  0.49481000  1.0
  H  H15  1  0.40180000  0.81050000  0.00519000  1.0
  H  H16  1  0.20137000  0.41099000  0.54128000  1.0
  H  H17  1  0.70137000  0.08901000  0.95872000  1.0
  H  H18  1  0.79863000  0.58901000  0.45872000  1.0
  H  H19  1  0.29863000  0.91099000  0.04128000  1.0
  H  H20  1  0.79933000  0.52550000  0.15687000  1.0
  H  H21  1  0.29933000  0.97450000  0.34312000  1.0
  H  H22  1  0.20068000  0.47449000  0.84313000  1.0
  H  H23  1  0.70066000  0.02551000  0.65687000  1.0
  H  H24  1  0.48753000  0.69338000  0.28780000  1.0
  H  H25  1  0.98755000  0.80662000  0.21220000  1.0
  H  H26  1  0.51246000  0.30662000  0.71220000  1.0
  H  H27  1  0.01246000  0.19337000  0.78781000  1.0
  H  H28  1  0.39266000  0.71618000  0.13532000  1.0
  H  H29  1  0.89265000  0.78381000  0.36468000  1.0
  H  H30  1  0.60735000  0.28381000  0.86468000  1.0
  H  H31  1  0.10733000  0.21618000  0.63532000  1.0
  H  H32  1  0.11722000  0.11917000  0.40384000  1.0
  H  H33  1  0.61722000  0.38083000  0.09616000  1.0
  H  H34  1  0.88277000  0.88082000  0.59616000  1.0
  H  H35  1  0.38277000  0.61917000  0.90384000  1.0
  H  H36  1  0.91663000  0.03667000  0.35330000  1.0
  H  H37  1  0.41664000  0.46333000  0.14670000  1.0
  H  H38  1  0.08335000  0.96332000  0.64670000  1.0
  H  H39  1  0.58337000  0.53667000  0.85331000  1.0
  H  H40  1  0.03806000  0.63679000  0.06898000  1.0
  H  H41  1  0.53804000  0.86320000  0.43101000  1.0
  H  H42  1  0.96196000  0.36320000  0.93102000  1.0
  H  H43  1  0.46194000  0.13679000  0.56898000  1.0
  H  H44  1  0.73665000  0.00549000  0.49489000  1.0
  H  H45  1  0.23663000  0.49450000  0.00511000  1.0
  H  H46  1  0.26336000  0.99451000  0.50512000  1.0
  H  H47  1  0.76335000  0.50550000  0.99489000  1.0
  H  H48  1  0.91299000  0.09711000  0.54853000  1.0
  H  H49  1  0.41299000  0.40289000  0.95147000  1.0
  H  H50  1  0.08702000  0.90289000  0.45147000  1.0
  H  H51  1  0.58700000  0.59711000  0.04853000  1.0
  C  C52  1  0.84814000  0.48608000  0.32084000  1.0
  C  C53  1  0.34816000  0.01392000  0.17916000  1.0
  C  C54  1  0.15185000  0.51392000  0.67917000  1.0
  C  C55  1  0.65187000  0.98608000  0.82083000  1.0
  C  C56  1  0.25852000  0.59808000  0.40319000  1.0
  C  C57  1  0.75853000  0.90193000  0.09680000  1.0
  C  C58  1  0.74148000  0.40193000  0.59681000  1.0
  C  C59  1  0.24150000  0.09807000  0.90319000  1.0
  C  C60  1  0.77810000  0.17634000  0.39891000  1.0
  C  C61  1  0.27810000  0.32366000  0.10110000  1.0
  C  C62  1  0.22190000  0.82366000  0.60110000  1.0
  C  C63  1  0.72189000  0.67634000  0.89891000  1.0
  C  C64  1  0.00117000  0.55066000  0.27136000  1.0
  C  C65  1  0.50118000  0.94935000  0.22863000  1.0
  C  C66  1  0.99882000  0.44935000  0.72864000  1.0
  C  C67  1  0.49883000  0.05065000  0.77136000  1.0
  C  C68  1  0.19367000  0.59982000  0.30960000  1.0
  C  C69  1  0.69369000  0.90018000  0.19040000  1.0
  C  C70  1  0.80632000  0.40018000  0.69040000  1.0
  C  C71  1  0.30633000  0.09982000  0.80960000  1.0
  C  C72  1  0.95012000  0.56362000  0.18443000  1.0
  C  C73  1  0.45013000  0.93638000  0.31557000  1.0
  C  C74  1  0.04988000  0.43638000  0.81557000  1.0
  C  C75  1  0.54987000  0.06361000  0.68443000  1.0
  C  C76  1  0.33570000  0.65704000  0.25904000  1.0
  C  C77  1  0.83570000  0.84296000  0.24096000  1.0
  C  C78  1  0.66430000  0.34296000  0.74097000  1.0
  C  C79  1  0.16430000  0.15703000  0.75904000  1.0
  C  C80  1  0.28217000  0.66936000  0.17269000  1.0
  C  C81  1  0.78216000  0.83064000  0.32731000  1.0
  C  C82  1  0.71784000  0.33064000  0.82731000  1.0
  C  C83  1  0.21783000  0.16935000  0.67269000  1.0
  C  C84  1  0.94097000  0.09075000  0.40976000  1.0
  C  C85  1  0.44097000  0.40925000  0.09025000  1.0
  C  C86  1  0.05902000  0.90925000  0.59025000  1.0
  C  C87  1  0.55902000  0.59075000  0.90975000  1.0
  C  C88  1  0.08591000  0.62413000  0.13538000  1.0
  C  C89  1  0.58591000  0.87587000  0.36462000  1.0
  C  C90  1  0.91409000  0.37587000  0.86462000  1.0
  C  C91  1  0.41408000  0.12413000  0.63538000  1.0
  C  C92  1  0.90825000  0.03974000  0.49391000  1.0
  C  C93  1  0.40823000  0.46026000  0.00609000  1.0
  C  C94  1  0.09176000  0.96026000  0.50609000  1.0
  C  C95  1  0.59175000  0.53974000  0.99391000  1.0
  O  O96  1  0.38688000  0.52866000  0.42933000  1.0
  O  O97  1  0.88689000  0.97134000  0.07066000  1.0
  O  O98  1  0.61312000  0.47134000  0.57066000  1.0
  O  O99  1  0.11313000  0.02866000  0.92933000  1.0
  O  O100  1  0.27752000  0.30993000  0.31759000  1.0
  O  O101  1  0.77752000  0.19007000  0.18241000  1.0
  O  O102  1  0.72248000  0.69007000  0.68241000  1.0
  O  O103  1  0.22248000  0.80994000  0.81759000  1.0
  O  O104  1  0.87692000  0.48430000  0.40372000  1.0
  O  O105  1  0.37693000  0.01570000  0.09628000  1.0
  O  O106  1  0.12308000  0.51570000  0.59628000  1.0
  O  O107  1  0.62309000  0.98430000  0.90372000  1.0
  O  O108  1  0.58054000  0.18105000  0.43187000  1.0
  O  O109  1  0.08054000  0.31895000  0.06813000  1.0
  O  O110  1  0.41946000  0.81895000  0.56813000  1.0
  O  O111  1  0.91946000  0.68104000  0.93187000  1.0
  O  O112  1  0.69073000  0.43361000  0.28330000  1.0
  O  O113  1  0.19074000  0.06639000  0.21670000  1.0
  O  O114  1  0.30927000  0.56639000  0.71671000  1.0
  O  O115  1  0.80928000  0.93361000  0.78329000  1.0
  O  O116  1  0.84858000  0.25123000  0.35465000  1.0
  O  O117  1  0.34858000  0.24877000  0.14535000  1.0
  O  O118  1  0.15142000  0.74877000  0.64535000  1.0
  O  O119  1  0.65141000  0.75123000  0.85465000  1.0
  O  O120  1  0.24666000  0.34509000  0.51063000  1.0
  O  O121  1  0.74666000  0.15491000  0.98937000  1.0
  O  O122  1  0.75334000  0.65491000  0.48937000  1.0
  O  O123  1  0.25334000  0.84509000  0.01063000  1.0
  O  O124  1  0.20513000  0.67297000  0.45485000  1.0
  O  O125  1  0.70513000  0.82704000  0.04515000  1.0
  O  O126  1  0.79487000  0.32704000  0.54515000  1.0
  O  O127  1  0.29489000  0.17296000  0.95485000  1.0
