# generated using pymatgen
data_Al3H4C42O14F15
_symmetry_space_group_name_H-M   'P 1'
_cell_length_a   13.72578830
_cell_length_b   13.77650000
_cell_length_c   28.23360000
_cell_angle_alpha   90.05740000
_cell_angle_beta   90.09075878
_cell_angle_gamma   60.17128534
_symmetry_Int_Tables_number   1
_chemical_formula_structural   Al3H4C42O14F15
_chemical_formula_sum   'Al6 H8 C84 O28 F30'
_cell_volume   4631.47714292
_cell_formula_units_Z   2
loop_
 _symmetry_equiv_pos_site_id
 _symmetry_equiv_pos_as_xyz
  1  'x, y, z'
loop_
 _atom_site_type_symbol
 _atom_site_label
 _atom_site_symmetry_multiplicity
 _atom_site_fract_x
 _atom_site_fract_y
 _atom_site_fract_z
 _atom_site_occupancy
  Al  Al0  1  0.48820000  0.75109000  0.49978000  1.0
  Al  Al1  1  0.72746000  0.52400000  0.50083000  1.0
  Al  Al2  1  0.72746000  0.74154000  0.50088000  1.0
  Al  Al3  1  0.23875000  0.24964000  0.99985000  1.0
  Al  Al4  1  0.25176000  0.47657000  0.00087000  1.0
  Al  Al5  1  0.46864000  0.25863000  0.00080000  1.0
  H  H6  1  0.02464000  0.32362000  0.71998000  1.0
  H  H7  1  0.65841000  0.02476000  0.72032000  1.0
  H  H8  1  0.32620000  0.64903000  0.72071000  1.0
  H  H9  1  0.34850000  0.67700000  0.21966000  1.0
  H  H10  1  0.68348000  0.97629000  0.22002000  1.0
  H  H11  1  0.97422000  0.35149000  0.22050000  1.0
  H  H12  1  0.30313000  0.86066000  0.52698000  1.0
  H  H13  1  0.15045000  0.15306000  0.02857000  1.0
  C  C14  1  0.56656000  0.87220000  0.56679000  1.0
  C  C15  1  0.48785000  0.49147000  0.20011000  1.0
  C  C16  1  0.49652000  0.02168000  0.20276000  1.0
  C  C17  1  0.02112000  0.49269000  0.20537000  1.0
  C  C18  1  0.93048000  0.47959000  0.77170000  1.0
  C  C19  1  0.60142000  0.92729000  0.77286000  1.0
  C  C20  1  0.47668000  0.59330000  0.77541000  1.0
  C  C21  1  0.40910000  0.52146000  0.27154000  1.0
  C  C22  1  0.52954000  0.07334000  0.27285000  1.0
  C  C23  1  0.06934000  0.40671000  0.27529000  1.0
  C  C24  1  0.89402000  0.58676000  0.74016000  1.0
  C  C25  1  0.56776000  0.55786000  0.56881000  1.0
  C  C26  1  0.52777000  0.89193000  0.74235000  1.0
  C  C27  1  0.58745000  0.51932000  0.74628000  1.0
  C  C28  1  0.48003000  0.41401000  0.24021000  1.0
  C  C29  1  0.42040000  0.10838000  0.24250000  1.0
  C  C30  1  0.10641000  0.48065000  0.24625000  1.0
  C  C31  1  0.05069000  0.48808000  0.84476000  1.0
  C  C32  1  0.47811000  0.04655000  0.84726000  1.0
  C  C33  1  0.47609000  0.47122000  0.84981000  1.0
  C  C34  1  0.53681000  0.51325000  0.34493000  1.0
  C  C35  1  0.52630000  0.95372000  0.34726000  1.0
  C  C36  1  0.86375000  0.56383000  0.56522000  1.0
  C  C37  1  0.94701000  0.52878000  0.34980000  1.0
  C  C38  1  0.94995000  0.52046000  0.65160000  1.0
  C  C39  1  0.53101000  0.95266000  0.65406000  1.0
  C  C40  1  0.52960000  0.51908000  0.65682000  1.0
  C  C41  1  0.47084000  0.47943000  0.15165000  1.0
  C  C42  1  0.48370000  0.04796000  0.15416000  1.0
  C  C43  1  0.04817000  0.48151000  0.15677000  1.0
  C  C44  1  0.56625000  0.86955000  0.43381000  1.0
  C  C45  1  0.56844000  0.55412000  0.43365000  1.0
  C  C46  1  0.86266000  0.56771000  0.43633000  1.0
  C  C47  1  0.43722000  0.12895000  0.06703000  1.0
  C  C48  1  0.43532000  0.13021000  0.93397000  1.0
  C  C49  1  0.12354000  0.44625000  0.93339000  1.0
  C  C50  1  0.42997000  0.43318000  0.93637000  1.0
  C  C51  1  0.07386000  0.52693000  0.72382000  1.0
  C  C52  1  0.40652000  0.07157000  0.72792000  1.0
  C  C53  1  0.52893000  0.39813000  0.73065000  1.0
  C  C54  1  0.60052000  0.47350000  0.22413000  1.0
  C  C55  1  0.47895000  0.92863000  0.22805000  1.0
  C  C56  1  0.92694000  0.60216000  0.23071000  1.0
  C  C57  1  0.98899000  0.60373000  0.76304000  1.0
  C  C58  1  0.12482000  0.44376000  0.06870000  1.0
  C  C59  1  0.41802000  0.98474000  0.76690000  1.0
  C  C60  1  0.60167000  0.41047000  0.77084000  1.0
  C  C61  1  0.59168000  0.39705000  0.26334000  1.0
  C  C62  1  0.40386000  0.01532000  0.26713000  1.0
  C  C63  1  0.01211000  0.58949000  0.27090000  1.0
  C  C64  1  0.07631000  0.47473000  0.88649000  1.0
  C  C65  1  0.46524000  0.07684000  0.88836000  1.0
  C  C66  1  0.45857000  0.45878000  0.89100000  1.0
  C  C67  1  0.54888000  0.52645000  0.38670000  1.0
  C  C68  1  0.54363000  0.92322000  0.38831000  1.0
  C  C69  1  0.42847000  0.43546000  0.06528000  1.0
  C  C70  1  0.91699000  0.54155000  0.39099000  1.0
  C  C71  1  0.91904000  0.53628000  0.61047000  1.0
  C  C72  1  0.54404000  0.92400000  0.61273000  1.0
  C  C73  1  0.54696000  0.52954000  0.61540000  1.0
  C  C74  1  0.45587000  0.46320000  0.11056000  1.0
  C  C75  1  0.46750000  0.07682000  0.11287000  1.0
  C  C76  1  0.07598000  0.47137000  0.11535000  1.0
  C  C77  1  0.10814000  0.42047000  0.75558000  1.0
  C  C78  1  0.48130000  0.10491000  0.75862000  1.0
  C  C79  1  0.41861000  0.47358000  0.75987000  1.0
  C  C80  1  0.97892000  0.50890000  0.70005000  1.0
  C  C81  1  0.52815000  0.58024000  0.25572000  1.0
  C  C82  1  0.58715000  0.89560000  0.25859000  1.0
  C  C83  1  0.89180000  0.52672000  0.25985000  1.0
  C  C84  1  0.02464000  0.49801000  0.79611000  1.0
  C  C85  1  0.49130000  0.01936000  0.79882000  1.0
  C  C86  1  0.49192000  0.48407000  0.80146000  1.0
  C  C87  1  0.52136000  0.50311000  0.29623000  1.0
  C  C88  1  0.51190000  0.98104000  0.29885000  1.0
  C  C89  1  0.97574000  0.51587000  0.30145000  1.0
  C  C90  1  0.01450000  0.40283000  0.73284000  1.0
  C  C91  1  0.51722000  0.97882000  0.70267000  1.0
  C  C92  1  0.59067000  0.01349000  0.73435000  1.0
  C  C93  1  0.40386000  0.58170000  0.73565000  1.0
  C  C94  1  0.41718000  0.59785000  0.23271000  1.0
  C  C95  1  0.60476000  0.98727000  0.23426000  1.0
  C  C96  1  0.98484000  0.41864000  0.23553000  1.0
  C  C97  1  0.51394000  0.50761000  0.70540000  1.0
  O  O98  1  0.49739000  0.65321000  0.55326000  1.0
  O  O99  1  0.34245000  0.15242000  0.05068000  1.0
  O  O100  1  0.14495000  0.51599000  0.04860000  1.0
  O  O101  1  0.49804000  0.34006000  0.04787000  1.0
  O  O102  1  0.49587000  0.64687000  0.45056000  1.0
  O  O103  1  0.83869000  0.49702000  0.45423000  1.0
  O  O104  1  0.65760000  0.85097000  0.45473000  1.0
  O  O105  1  0.14521000  0.35234000  0.94948000  1.0
  O  O106  1  0.33488000  0.50386000  0.95388000  1.0
  O  O107  1  0.50779000  0.15071000  0.95396000  1.0
  O  O108  1  0.49684000  0.84177000  0.44837000  1.0
  O  O109  1  0.83857000  0.49364000  0.54747000  1.0
  O  O110  1  0.66167000  0.48248000  0.45350000  1.0
  O  O111  1  0.83776000  0.66268000  0.45420000  1.0
  O  O112  1  0.33944000  0.15600000  0.94951000  1.0
  O  O113  1  0.14341000  0.51831000  0.95406000  1.0
  O  O114  1  0.49995000  0.33882000  0.95465000  1.0
  O  O115  1  0.64961000  0.67134000  0.50075000  1.0
  O  O116  1  0.32068000  0.32922000  0.00079000  1.0
  O  O117  1  0.66214000  0.84762000  0.54843000  1.0
  O  O118  1  0.14740000  0.34966000  0.05236000  1.0
  O  O119  1  0.33408000  0.50619000  0.04706000  1.0
  O  O120  1  0.50903000  0.15113000  0.04767000  1.0
  O  O121  1  0.49432000  0.85127000  0.54940000  1.0
  O  O122  1  0.65856000  0.48488000  0.54798000  1.0
  O  O123  1  0.83924000  0.65846000  0.54738000  1.0
  O  O124  1  0.34169000  0.82122000  0.49857000  1.0
  O  O125  1  0.16233000  0.17944000  0.99863000  1.0
  F  F126  1  0.97703000  0.70205000  0.77841000  1.0
  F  F127  1  0.69451000  0.44923000  0.19963000  1.0
  F  F128  1  0.45364000  0.85849000  0.20452000  1.0
  F  F129  1  0.85857000  0.69793000  0.20729000  1.0
  F  F130  1  0.78846000  0.66866000  0.73077000  1.0
  F  F131  1  0.55004000  0.78700000  0.73258000  1.0
  F  F132  1  0.67041000  0.54240000  0.73777000  1.0
  F  F133  1  0.45626000  0.33216000  0.23070000  1.0
  F  F134  1  0.33754000  0.21314000  0.23277000  1.0
  F  F135  1  0.21248000  0.45733000  0.23775000  1.0
  F  F136  1  0.86138000  0.45532000  0.79665000  1.0
  F  F137  1  0.33349000  0.97090000  0.78361000  1.0
  F  F138  1  0.69707000  0.85707000  0.79626000  1.0
  F  F139  1  0.45054000  0.68915000  0.79859000  1.0
  F  F140  1  0.31537000  0.54602000  0.29625000  1.0
  F  F141  1  0.55497000  0.14372000  0.29619000  1.0
  F  F142  1  0.13881000  0.31070000  0.29835000  1.0
  F  F143  1  0.21381000  0.33770000  0.76455000  1.0
  F  F144  1  0.45809000  0.21026000  0.76858000  1.0
  F  F145  1  0.33439000  0.45199000  0.76823000  1.0
  F  F146  1  0.55122000  0.66296000  0.26475000  1.0
  F  F147  1  0.66927000  0.79034000  0.26858000  1.0
  F  F148  1  0.69804000  0.32644000  0.78892000  1.0
  F  F149  1  0.78600000  0.54842000  0.26823000  1.0
  F  F150  1  0.67759000  0.29880000  0.27895000  1.0
  F  F151  1  0.30585000  0.02882000  0.28411000  1.0
  F  F152  1  0.02464000  0.67340000  0.28908000  1.0
  F  F153  1  0.14351000  0.55096000  0.69910000  1.0
  F  F154  1  0.31111000  0.14159000  0.70440000  1.0
  F  F155  1  0.55590000  0.30252000  0.70713000  1.0
