# generated using pymatgen
data_ZnH8C13NO4F
_symmetry_space_group_name_H-M   'P 1'
_cell_length_a   8.40144000
_cell_length_b   10.96090000
_cell_length_c   35.15120000
_cell_angle_alpha   90.08210000
_cell_angle_beta   89.88990000
_cell_angle_gamma   89.89350000
_symmetry_Int_Tables_number   1
_chemical_formula_structural   ZnH8C13NO4F
_chemical_formula_sum   'Zn4 H32 C52 N4 O16 F4'
_cell_volume   3236.96572762
_cell_formula_units_Z   4
loop_
 _symmetry_equiv_pos_site_id
 _symmetry_equiv_pos_as_xyz
  1  'x, y, z'
loop_
 _atom_site_type_symbol
 _atom_site_label
 _atom_site_symmetry_multiplicity
 _atom_site_fract_x
 _atom_site_fract_y
 _atom_site_fract_z
 _atom_site_occupancy
  Zn  Zn0  1  0.66488000  0.00157000  0.49991000  1.0
  Zn  Zn1  1  0.34944000  0.00228000  0.50005000  1.0
  Zn  Zn2  1  0.24435000  0.99652000  0.99997000  1.0
  Zn  Zn3  1  0.55966000  0.99619000  0.99982000  1.0
  H  H4  1  0.71335000  0.99195000  0.87561000  1.0
  H  H5  1  0.68822000  0.99065000  0.80566000  1.0
  H  H6  1  0.17579000  0.00609000  0.81694000  1.0
  H  H7  1  0.20476000  0.00680000  0.88699000  1.0
  H  H8  1  0.73322000  0.00406000  0.68308000  1.0
  H  H9  1  0.22066000  0.99199000  0.69412000  1.0
  H  H10  1  0.19595000  0.99491000  0.62418000  1.0
  H  H11  1  0.70467000  0.00678000  0.61299000  1.0
  H  H12  1  0.71266000  0.99607000  0.12371000  1.0
  H  H13  1  0.68897000  0.99546000  0.19374000  1.0
  H  H14  1  0.17596000  0.99317000  0.18339000  1.0
  H  H15  1  0.20366000  0.99392000  0.11331000  1.0
  H  H16  1  0.73342000  0.99071000  0.31680000  1.0
  H  H17  1  0.22077000  0.99886000  0.30598000  1.0
  H  H18  1  0.19567000  0.00077000  0.37591000  1.0
  H  H19  1  0.70445000  0.99296000  0.38689000  1.0
  H  H20  1  0.21168000  0.61960000  0.47537000  1.0
  H  H21  1  0.20651000  0.61608000  0.52616000  1.0
  H  H22  1  0.21027000  0.38575000  0.52485000  1.0
  H  H23  1  0.20731000  0.38926000  0.47404000  1.0
  H  H24  1  0.69823000  0.61248000  0.02461000  1.0
  H  H25  1  0.70371000  0.60813000  0.97381000  1.0
  H  H26  1  0.69865000  0.37774000  0.97532000  1.0
  H  H27  1  0.70157000  0.38225000  0.02611000  1.0
  H  H28  1  0.86964000  0.28794000  0.50243000  1.0
  H  H29  1  0.96004000  0.42337000  0.51467000  1.0
  H  H30  1  0.86988000  0.71433000  0.49828000  1.0
  H  H31  1  0.96049000  0.57849000  0.48627000  1.0
  H  H32  1  0.03904000  0.28390000  0.99748000  1.0
  H  H33  1  0.94917000  0.41965000  0.98520000  1.0
  H  H34  1  0.04028000  0.71033000  0.00142000  1.0
  H  H35  1  0.94910000  0.57512000  0.01347000  1.0
  C  C36  1  0.57419000  0.76868000  0.50075000  1.0
  C  C37  1  0.44133000  0.00224000  0.57180000  1.0
  C  C38  1  0.57351000  0.23490000  0.49953000  1.0
  C  C39  1  0.44090000  0.99927000  0.42823000  1.0
  C  C40  1  0.33596000  0.76327000  0.99907000  1.0
  C  C41  1  0.46828000  0.99804000  0.92809000  1.0
  C  C42  1  0.33492000  0.22947000  0.00049000  1.0
  C  C43  1  0.46688000  0.99541000  0.07170000  1.0
  C  C44  1  0.46043000  0.99909000  0.88578000  1.0
  C  C45  1  0.59595000  0.99505000  0.86248000  1.0
  C  C46  1  0.58143000  0.99446000  0.82305000  1.0
  C  C47  1  0.42942000  0.99812000  0.80575000  1.0
  C  C48  1  0.29382000  0.00288000  0.82956000  1.0
  C  C49  1  0.30953000  0.00328000  0.86875000  1.0
  C  C50  1  0.40254000  0.99730000  0.76488000  1.0
  C  C51  1  0.50610000  0.99714000  0.73501000  1.0
  C  C52  1  0.61528000  0.00219000  0.67039000  1.0
  C  C53  1  0.47948000  0.99813000  0.69413000  1.0
  C  C54  1  0.32756000  0.99555000  0.67677000  1.0
  C  C55  1  0.31331000  0.99719000  0.63734000  1.0
  C  C56  1  0.44897000  0.00131000  0.61410000  1.0
  C  C57  1  0.59980000  0.00381000  0.63120000  1.0
  C  C58  1  0.45949000  0.99483000  0.11403000  1.0
  C  C59  1  0.59546000  0.99530000  0.13709000  1.0
  C  C60  1  0.58171000  0.99493000  0.17656000  1.0
  C  C61  1  0.42991000  0.99403000  0.19416000  1.0
  C  C62  1  0.29385000  0.99362000  0.17057000  1.0
  C  C63  1  0.30880000  0.99404000  0.13135000  1.0
  C  C64  1  0.40341000  0.99376000  0.23508000  1.0
  C  C65  1  0.50687000  0.99429000  0.26489000  1.0
  C  C66  1  0.61532000  0.99288000  0.32952000  1.0
  C  C67  1  0.47968000  0.99470000  0.30580000  1.0
  C  C68  1  0.32765000  0.99734000  0.32325000  1.0
  C  C69  1  0.31314000  0.99844000  0.36270000  1.0
  C  C70  1  0.44867000  0.99704000  0.38590000  1.0
  C  C71  1  0.59965000  0.99410000  0.36873000  1.0
  C  C72  1  0.58145000  0.63457000  0.50119000  1.0
  C  C73  1  0.58104000  0.36895000  0.49942000  1.0
  C  C74  1  0.44086000  0.56494000  0.50095000  1.0
  C  C75  1  0.72573000  0.43553000  0.50033000  1.0
  C  C76  1  0.44066000  0.43923000  0.49964000  1.0
  C  C77  1  0.72592000  0.56729000  0.50049000  1.0
  C  C78  1  0.26120000  0.57485000  0.50077000  1.0
  C  C79  1  0.26100000  0.43025000  0.49952000  1.0
  C  C80  1  0.32858000  0.62917000  0.99867000  1.0
  C  C81  1  0.32786000  0.36356000  0.00061000  1.0
  C  C82  1  0.46890000  0.55876000  0.99902000  1.0
  C  C83  1  0.18345000  0.43087000  0.99961000  1.0
  C  C84  1  0.46851000  0.43307000  0.00043000  1.0
  C  C85  1  0.18381000  0.56260000  0.99936000  1.0
  C  C86  1  0.64862000  0.56766000  0.99921000  1.0
  C  C87  1  0.64809000  0.42302000  0.00059000  1.0
  N  N88  1  0.87317000  0.38043000  0.49975000  1.0
  N  N89  1  0.87340000  0.62186000  0.50115000  1.0
  N  N90  1  0.03585000  0.37646000  0.00014000  1.0
  N  N91  1  0.03646000  0.61783000  0.99860000  1.0
  O  O92  1  0.70845000  0.82912000  0.50049000  1.0
  O  O93  1  0.43854000  0.82047000  0.50045000  1.0
  O  O94  1  0.30476000  0.00237000  0.55497000  1.0
  O  O95  1  0.57414000  0.00280000  0.55443000  1.0
  O  O96  1  0.43774000  0.18357000  0.49976000  1.0
  O  O97  1  0.70775000  0.17408000  0.49948000  1.0
  O  O98  1  0.57363000  0.00051000  0.44552000  1.0
  O  O99  1  0.30431000  0.99996000  0.44519000  1.0
  O  O100  1  0.20173000  0.82409000  0.99921000  1.0
  O  O101  1  0.47165000  0.81468000  0.99947000  1.0
  O  O102  1  0.60489000  0.99764000  0.94491000  1.0
  O  O103  1  0.33552000  0.99745000  0.94549000  1.0
  O  O104  1  0.47058000  0.17760000  0.00022000  1.0
  O  O105  1  0.20058000  0.16917000  0.00049000  1.0
  O  O106  1  0.33401000  0.99572000  0.05448000  1.0
  O  O107  1  0.60345000  0.99547000  0.05473000  1.0
  F  F108  1  0.24449000  0.99758000  0.75513000  1.0
  F  F109  1  0.66418000  0.99743000  0.74478000  1.0
  F  F110  1  0.24539000  0.99284000  0.24501000  1.0
  F  F111  1  0.66497000  0.99479000  0.25503000  1.0
