# generated using pymatgen
data_ZnH27C30NO6
_symmetry_space_group_name_H-M   'P 1'
_cell_length_a   10.99180000
_cell_length_b   18.23150000
_cell_length_c   19.23900000
_cell_angle_alpha   88.95930000
_cell_angle_beta   89.77040000
_cell_angle_gamma   89.73360000
_symmetry_Int_Tables_number   1
_chemical_formula_structural   ZnH27C30NO6
_chemical_formula_sum   'Zn2 H54 C60 N2 O12'
_cell_volume   3854.73060701
_cell_formula_units_Z   2
loop_
 _symmetry_equiv_pos_site_id
 _symmetry_equiv_pos_as_xyz
  1  'x, y, z'
loop_
 _atom_site_type_symbol
 _atom_site_label
 _atom_site_symmetry_multiplicity
 _atom_site_fract_x
 _atom_site_fract_y
 _atom_site_fract_z
 _atom_site_occupancy
  Zn  Zn0  1  0.51219000  0.42350000  0.50059000  1.0
  Zn  Zn1  1  0.51190000  0.57598000  0.49731000  1.0
  H  H2  1  0.12166000  0.55704000  0.58835000  1.0
  H  H3  1  0.89357000  0.55864000  0.58504000  1.0
  H  H4  1  0.67082000  0.30349000  0.55531000  1.0
  H  H5  1  0.34902000  0.31123000  0.44480000  1.0
  H  H6  1  0.67290000  0.16622000  0.55770000  1.0
  H  H7  1  0.33529000  0.17431000  0.44292000  1.0
  H  H8  1  0.42094000  0.06957000  0.39865000  1.0
  H  H9  1  0.57876000  0.06497000  0.60356000  1.0
  H  H10  1  0.41965000  0.93421000  0.39893000  1.0
  H  H11  1  0.57906000  0.92965000  0.60329000  1.0
  H  H12  1  0.68059000  0.83008000  0.54801000  1.0
  H  H13  1  0.32491000  0.82901000  0.45281000  1.0
  H  H14  1  0.67902000  0.69270000  0.54333000  1.0
  H  H15  1  0.33737000  0.69165000  0.45450000  1.0
  H  H16  1  0.24403000  0.43560000  0.38058000  1.0
  H  H17  1  0.79056000  0.44363000  0.36976000  1.0
  H  H18  1  0.13693000  0.38915000  0.27826000  1.0
  H  H19  1  0.90907000  0.39469000  0.27261000  1.0
  H  H20  1  0.56643000  0.54551000  0.86813000  1.0
  H  H21  1  0.24651000  0.57793000  0.17374000  1.0
  H  H22  1  0.23187000  0.43761000  0.81776000  1.0
  H  H23  1  0.50799000  0.40484000  0.14174000  1.0
  H  H24  1  0.37290000  0.60772000  0.06343000  1.0
  H  H25  1  0.38573000  0.60822000  0.93430000  1.0
  H  H26  1  0.74584000  0.66297000  0.71159000  1.0
  H  H27  1  0.59013000  0.65601000  0.68650000  1.0
  H  H28  1  0.62858000  0.66869000  0.77531000  1.0
  H  H29  1  0.72902000  0.54404000  0.77836000  1.0
  H  H30  1  0.69403000  0.53249000  0.68981000  1.0
  H  H31  1  0.44222000  0.68242000  0.31121000  1.0
  H  H32  1  0.34195000  0.69830000  0.23998000  1.0
  H  H33  1  0.29630000  0.72304000  0.32512000  1.0
  H  H34  1  0.19507000  0.60595000  0.29395000  1.0
  H  H35  1  0.29852000  0.58995000  0.36246000  1.0
  H  H36  1  0.15682000  0.37081000  0.73725000  1.0
  H  H37  1  0.29201000  0.32719000  0.70651000  1.0
  H  H38  1  0.21549000  0.34665000  0.58274000  1.0
  H  H39  1  0.11613000  0.29034000  0.63471000  1.0
  H  H40  1  0.07827000  0.38384000  0.61612000  1.0
  H  H41  1  0.53958000  0.30251000  0.23320000  1.0
  H  H42  1  0.47422000  0.32979000  0.31429000  1.0
  H  H43  1  0.67822000  0.32016000  0.37111000  1.0
  H  H44  1  0.63723000  0.23481000  0.33390000  1.0
  H  H45  1  0.74542000  0.29272000  0.29131000  1.0
  H  H46  1  0.15769000  0.35562000  0.90493000  1.0
  H  H47  1  0.20484000  0.30139000  0.97844000  1.0
  H  H48  1  0.32687000  0.22028000  0.89973000  1.0
  H  H49  1  0.17058000  0.22183000  0.87509000  1.0
  H  H50  1  0.27955000  0.27402000  0.82640000  1.0
  H  H51  1  0.12970000  0.35632000  0.08548000  1.0
  H  H52  1  0.21332000  0.39862000  0.15311000  1.0
  H  H53  1  0.30639000  0.27744000  0.18675000  1.0
  H  H54  1  0.14455000  0.27298000  0.19043000  1.0
  H  H55  1  0.22448000  0.23394000  0.11924000  1.0
  C  C56  1  0.48535000  0.50156000  0.36353000  1.0
  C  C57  1  0.49441000  0.49572000  0.63393000  1.0
  C  C58  1  0.39520000  0.49189000  0.85104000  1.0
  C  C59  1  0.37251000  0.49116000  0.14900000  1.0
  C  C60  1  0.31848000  0.46125000  0.80153000  1.0
  C  C61  1  0.46292000  0.44390000  0.17553000  1.0
  C  C62  1  0.35161000  0.46304000  0.73140000  1.0
  C  C63  1  0.49916000  0.44888000  0.24444000  1.0
  C  C64  1  0.46248000  0.49464000  0.71002000  1.0
  C  C65  1  0.44676000  0.50108000  0.28873000  1.0
  C  C66  1  0.34071000  0.42569000  0.96335000  1.0
  C  C67  1  0.33124000  0.42570000  0.03655000  1.0
  C  C68  1  0.34794000  0.49110000  0.07332000  1.0
  C  C69  1  0.36521000  0.49144000  0.92619000  1.0
  C  C70  1  0.36132000  0.55692000  0.03517000  1.0
  C  C71  1  0.37050000  0.55701000  0.96313000  1.0
  C  C72  1  0.59855000  0.27207000  0.53130000  1.0
  C  C73  1  0.41873000  0.27633000  0.46866000  1.0
  C  C74  1  0.59831000  0.19593000  0.53268000  1.0
  C  C75  1  0.41242000  0.20032000  0.46771000  1.0
  C  C76  1  0.50359000  0.15807000  0.50040000  1.0
  C  C77  1  0.27445000  0.49883000  0.49697000  1.0
  C  C78  1  0.74750000  0.50088000  0.49306000  1.0
  C  C79  1  0.45385000  0.03911000  0.44417000  1.0
  C  C80  1  0.54587000  0.03653000  0.55799000  1.0
  C  C81  1  0.45322000  0.96284000  0.44425000  1.0
  C  C82  1  0.54591000  0.96032000  0.55794000  1.0
  C  C83  1  0.50009000  0.92223000  0.50094000  1.0
  C  C84  1  0.50071000  0.07726000  0.50089000  1.0
  C  C85  1  0.60212000  0.80174000  0.52711000  1.0
  C  C86  1  0.40561000  0.80125000  0.47312000  1.0
  C  C87  1  0.60232000  0.72569000  0.52480000  1.0
  C  C88  1  0.41151000  0.72516000  0.47367000  1.0
  C  C89  1  0.50237000  0.84143000  0.50043000  1.0
  C  C90  1  0.14486000  0.43725000  0.37880000  1.0
  C  C91  1  0.88943000  0.44179000  0.37298000  1.0
  C  C92  1  0.08476000  0.41109000  0.32163000  1.0
  C  C93  1  0.95626000  0.41395000  0.31854000  1.0
  C  C94  1  0.94823000  0.46913000  0.43287000  1.0
  C  C95  1  0.07891000  0.46775000  0.43520000  1.0
  C  C96  1  0.13870000  0.49964000  0.49282000  1.0
  C  C97  1  0.88335000  0.50123000  0.48936000  1.0
  C  C98  1  0.07327000  0.53265000  0.54520000  1.0
  C  C99  1  0.94543000  0.53330000  0.54334000  1.0
  C  C100  1  0.54045000  0.52516000  0.75918000  1.0
  C  C101  1  0.35475000  0.54824000  0.26298000  1.0
  C  C102  1  0.50520000  0.52360000  0.82917000  1.0
  C  C103  1  0.31886000  0.54204000  0.19352000  1.0
  C  C104  1  0.66153000  0.55788000  0.73796000  1.0
  C  C105  1  0.65621000  0.64150000  0.72718000  1.0
  C  C106  1  0.29248000  0.60507000  0.30713000  1.0
  C  C107  1  0.34646000  0.68182000  0.29517000  1.0
  C  C108  1  0.22027000  0.36746000  0.69283000  1.0
  C  C109  1  0.15358000  0.34579000  0.62760000  1.0
  C  C110  1  0.55834000  0.32974000  0.28288000  1.0
  C  C111  1  0.66104000  0.29221000  0.32208000  1.0
  C  C112  1  0.23092000  0.31976000  0.92563000  1.0
  C  C113  1  0.25331000  0.25510000  0.87884000  1.0
  C  C114  1  0.21379000  0.35272000  0.11670000  1.0
  C  C115  1  0.22310000  0.27987000  0.15541000  1.0
  N  N116  1  0.51027000  0.31149000  0.49986000  1.0
  N  N117  1  0.50847000  0.68813000  0.49863000  1.0
  O  O118  1  0.47604000  0.44034000  0.39616000  1.0
  O  O119  1  0.52576000  0.43549000  0.60651000  1.0
  O  O120  1  0.52051000  0.56149000  0.38940000  1.0
  O  O121  1  0.48717000  0.55785000  0.60301000  1.0
  O  O122  1  0.32567000  0.43766000  0.50976000  1.0
  O  O123  1  0.69430000  0.43973000  0.48475000  1.0
  O  O124  1  0.32705000  0.56028000  0.48716000  1.0
  O  O125  1  0.69543000  0.56174000  0.50607000  1.0
  O  O126  1  0.27738000  0.43740000  0.67979000  1.0
  O  O127  1  0.59321000  0.40490000  0.26910000  1.0
  O  O128  1  0.34244000  0.36080000  0.92782000  1.0
  O  O129  1  0.31718000  0.35865000  0.07021000  1.0
