# generated using pymatgen
data_GdH5C6N2O7
_symmetry_space_group_name_H-M   'P 1'
_cell_length_a   9.72524000
_cell_length_b   9.72524000
_cell_length_c   9.72524000
_cell_angle_alpha   79.52580000
_cell_angle_beta   79.52580000
_cell_angle_gamma   79.52580000
_symmetry_Int_Tables_number   1
_chemical_formula_structural   GdH5C6N2O7
_chemical_formula_sum   'Gd3 H15 C18 N6 O21'
_cell_volume   878.83125344
_cell_formula_units_Z   3
loop_
 _symmetry_equiv_pos_site_id
 _symmetry_equiv_pos_as_xyz
  1  'x, y, z'
loop_
 _atom_site_type_symbol
 _atom_site_label
 _atom_site_symmetry_multiplicity
 _atom_site_fract_x
 _atom_site_fract_y
 _atom_site_fract_z
 _atom_site_occupancy
  Gd  Gd0  1  0.99043000  0.50000000  0.00957000  1.0
  Gd  Gd1  1  0.50000000  0.00957000  0.99042000  1.0
  Gd  Gd2  1  0.00957000  0.99042000  0.50000000  1.0
  H  H3  1  0.41227000  0.58772000  0.00000000  1.0
  H  H4  1  0.58772000  0.00000000  0.41227000  1.0
  H  H5  1  0.00000000  0.41227000  0.58772000  1.0
  H  H6  1  0.14495000  0.23381000  0.92519000  1.0
  H  H7  1  0.23381000  0.92519000  0.14495000  1.0
  H  H8  1  0.92519000  0.14495000  0.23381000  1.0
  H  H9  1  0.85505000  0.07481000  0.76618000  1.0
  H  H10  1  0.76618000  0.85504000  0.07481000  1.0
  H  H11  1  0.07481000  0.76618000  0.85504000  1.0
  H  H12  1  0.97604000  0.23239000  0.93747000  1.0
  H  H13  1  0.23239000  0.93747000  0.97603000  1.0
  H  H14  1  0.93747000  0.97603000  0.23238000  1.0
  H  H15  1  0.02396000  0.06252000  0.76761000  1.0
  H  H16  1  0.76761000  0.02396000  0.06252000  1.0
  H  H17  1  0.06252000  0.76761000  0.02396000  1.0
  C  C18  1  0.33431000  0.33117000  0.99821000  1.0
  C  C19  1  0.33117000  0.99821000  0.33431000  1.0
  C  C20  1  0.99821000  0.33430000  0.33117000  1.0
  C  C21  1  0.66569000  0.00179000  0.66882000  1.0
  C  C22  1  0.66882000  0.66569000  0.00179000  1.0
  C  C23  1  0.00179000  0.66882000  0.66569000  1.0
  C  C24  1  0.48051000  0.36198000  0.00049000  1.0
  C  C25  1  0.36198000  0.00049000  0.48051000  1.0
  C  C26  1  0.00049000  0.48051000  0.36198000  1.0
  C  C27  1  0.51949000  0.99950000  0.63801000  1.0
  C  C28  1  0.63801000  0.51949000  0.99950000  1.0
  C  C29  1  0.99950000  0.63801000  0.51949000  1.0
  C  C30  1  0.49964000  0.50035000  0.00000000  1.0
  C  C31  1  0.50035000  1.00000000  0.49964000  1.0
  C  C32  1  0.00000000  0.49964000  0.50035000  1.0
  C  C33  1  0.72122000  0.27877000  0.00000000  1.0
  C  C34  1  0.27878000  1.00000000  0.72122000  1.0
  C  C35  1  0.00000000  0.72122000  0.27878000  1.0
  N  N36  1  0.58639000  0.25264000  0.99869000  1.0
  N  N37  1  0.25265000  0.99869000  0.58639000  1.0
  N  N38  1  0.99869000  0.58639000  0.25264000  1.0
  N  N39  1  0.41361000  0.00130000  0.74735000  1.0
  N  N40  1  0.74735000  0.41361000  0.00130000  1.0
  N  N41  1  0.00130000  0.74735000  0.41361000  1.0
  O  O42  1  0.23157000  0.42602000  0.02708000  1.0
  O  O43  1  0.42602000  0.02708000  0.23157000  1.0
  O  O44  1  0.02708000  0.23157000  0.42602000  1.0
  O  O45  1  0.76843000  0.97291000  0.57397000  1.0
  O  O46  1  0.57397000  0.76843000  0.97291000  1.0
  O  O47  1  0.97291000  0.57397000  0.76843000  1.0
  O  O48  1  0.32570000  0.21230000  0.96466000  1.0
  O  O49  1  0.21230000  0.96466000  0.32570000  1.0
  O  O50  1  0.96467000  0.32570000  0.21230000  1.0
  O  O51  1  0.67429000  0.03533000  0.78770000  1.0
  O  O52  1  0.78770000  0.67429000  0.03533000  1.0
  O  O53  1  0.03533000  0.78770000  0.67429000  1.0
  O  O54  1  0.82366000  0.17633000  0.00000000  1.0
  O  O55  1  0.17634000  1.00000000  0.82366000  1.0
  O  O56  1  0.00000000  0.82366000  0.17633000  1.0
  O  O57  1  0.05387000  0.29170000  0.90633000  1.0
  O  O58  1  0.29170000  0.90633000  0.05387000  1.0
  O  O59  1  0.90633000  0.05387000  0.29170000  1.0
  O  O60  1  0.94613000  0.09366000  0.70829000  1.0
  O  O61  1  0.70830000  0.94613000  0.09366000  1.0
  O  O62  1  0.09366000  0.70829000  0.94613000  1.0
