# generated using pymatgen
data_CuH10C8SN3
_symmetry_space_group_name_H-M   'P 1'
_cell_length_a   5.71052000
_cell_length_b   9.04109000
_cell_length_c   9.64369000
_cell_angle_alpha   71.98320000
_cell_angle_beta   79.83480000
_cell_angle_gamma   89.34060000
_symmetry_Int_Tables_number   1
_chemical_formula_structural   CuH10C8SN3
_chemical_formula_sum   'Cu2 H20 C16 S2 N6'
_cell_volume   465.55716315
_cell_formula_units_Z   2
loop_
 _symmetry_equiv_pos_site_id
 _symmetry_equiv_pos_as_xyz
  1  'x, y, z'
loop_
 _atom_site_type_symbol
 _atom_site_label
 _atom_site_symmetry_multiplicity
 _atom_site_fract_x
 _atom_site_fract_y
 _atom_site_fract_z
 _atom_site_occupancy
  Cu  Cu0  1  0.38978000  0.84921000  0.54509000  1.0
  Cu  Cu1  1  0.61021000  0.15079000  0.45491000  1.0
  H  H2  1  0.72158000  0.86454000  0.73707000  1.0
  H  H3  1  0.27841000  0.13546000  0.26292000  1.0
  H  H4  1  0.94369000  0.67329000  0.91477000  1.0
  H  H5  1  0.05631000  0.32671000  0.08522000  1.0
  H  H6  1  0.40961000  0.22058000  0.90190000  1.0
  H  H7  1  0.59040000  0.77941000  0.09810000  1.0
  H  H8  1  0.61954000  0.23787000  0.74247000  1.0
  H  H9  1  0.38048000  0.76213000  0.25753000  1.0
  H  H10  1  0.73234000  0.03414000  0.95463000  1.0
  H  H11  1  0.26767000  0.96586000  0.04538000  1.0
  H  H12  1  0.74028000  0.16801000  0.05510000  1.0
  H  H13  1  0.25972000  0.83199000  0.94491000  1.0
  H  H14  1  0.95158000  0.18873000  0.89101000  1.0
  H  H15  1  0.04843000  0.81127000  0.10900000  1.0
  H  H16  1  0.24991000  0.57171000  0.57789000  1.0
  H  H17  1  0.75010000  0.42829000  0.42211000  1.0
  H  H18  1  0.15401000  0.42674000  0.75154000  1.0
  H  H19  1  0.84599000  0.57325000  0.24846000  1.0
  H  H20  1  0.37529000  0.38346000  0.61902000  1.0
  H  H21  1  0.62471000  0.61654000  0.38098000  1.0
  C  C22  1  0.05871000  0.11431000  0.59125000  1.0
  C  C23  1  0.94125000  0.88570000  0.40875000  1.0
  C  C24  1  0.62743000  0.42951000  0.82468000  1.0
  C  C25  1  0.37258000  0.57049000  0.17532000  1.0
  C  C26  1  0.49394000  0.53470000  0.72973000  1.0
  C  C27  1  0.50606000  0.46530000  0.27027000  1.0
  C  C28  1  0.69126000  0.73909000  0.76504000  1.0
  C  C29  1  0.30873000  0.26092000  0.23494000  1.0
  C  C30  1  0.81431000  0.63430000  0.86102000  1.0
  C  C31  1  0.18570000  0.36570000  0.13899000  1.0
  C  C32  1  0.59708000  0.25745000  0.85117000  1.0
  C  C33  1  0.40293000  0.74255000  0.14883000  1.0
  C  C34  1  0.76448000  0.15710000  0.94342000  1.0
  C  C35  1  0.23552000  0.84290000  0.05658000  1.0
  C  C36  1  0.30991000  0.47674000  0.66443000  1.0
  C  C37  1  0.69009000  0.52325000  0.33557000  1.0
  S  S38  1  0.29877000  0.05460000  0.65949000  1.0
  S  S39  1  0.70122000  0.94540000  0.34051000  1.0
  N  N40  1  0.88538000  0.15588000  0.54142000  1.0
  N  N41  1  0.11461000  0.84411000  0.45859000  1.0
  N  N42  1  0.78422000  0.47975000  0.89014000  1.0
  N  N43  1  0.21578000  0.52025000  0.10985000  1.0
  N  N44  1  0.53041000  0.68989000  0.69928000  1.0
  N  N45  1  0.46959000  0.31011000  0.30071000  1.0
