# generated using pymatgen
data_CdH7C7NO7
_symmetry_space_group_name_H-M   'P 1'
_cell_length_a   8.52998000
_cell_length_b   11.04930000
_cell_length_c   11.42550000
_cell_angle_alpha   87.47280000
_cell_angle_beta   79.79910000
_cell_angle_gamma   76.81040000
_symmetry_Int_Tables_number   1
_chemical_formula_structural   CdH7C7NO7
_chemical_formula_sum   'Cd4 H28 C28 N4 O28'
_cell_volume   1031.86911725
_cell_formula_units_Z   4
loop_
 _symmetry_equiv_pos_site_id
 _symmetry_equiv_pos_as_xyz
  1  'x, y, z'
loop_
 _atom_site_type_symbol
 _atom_site_label
 _atom_site_symmetry_multiplicity
 _atom_site_fract_x
 _atom_site_fract_y
 _atom_site_fract_z
 _atom_site_occupancy
  Cd  Cd0  1  0.47704000  0.65958000  0.57702000  1.0
  Cd  Cd1  1  0.52295000  0.34042000  0.42297000  1.0
  Cd  Cd2  1  0.36026000  0.63769000  0.92898000  1.0
  Cd  Cd3  1  0.63974000  0.36231000  0.07102000  1.0
  H  H4  1  0.95156000  0.00893000  0.21857000  1.0
  H  H5  1  0.04845000  0.99108000  0.78143000  1.0
  H  H6  1  0.70232000  0.78547000  0.44393000  1.0
  H  H7  1  0.29767000  0.21454000  0.55607000  1.0
  H  H8  1  0.69471000  0.67615000  0.36740000  1.0
  H  H9  1  0.30530000  0.32385000  0.63259000  1.0
  H  H10  1  0.63452000  0.71770000  0.78286000  1.0
  H  H11  1  0.36548000  0.28230000  0.21715000  1.0
  H  H12  1  0.67531000  0.56741000  0.75127000  1.0
  H  H13  1  0.32469000  0.43259000  0.24873000  1.0
  H  H14  1  0.28304000  0.50365000  0.74778000  1.0
  H  H15  1  0.71697000  0.49634000  0.25222000  1.0
  H  H16  1  0.16856000  0.64492000  0.74171000  1.0
  H  H17  1  0.83143000  0.35507000  0.25829000  1.0
  H  H18  1  0.47067000  0.10431000  0.27552000  1.0
  H  H19  1  0.52932000  0.89569000  0.72449000  1.0
  H  H20  1  0.15284000  0.58794000  0.14702000  1.0
  H  H21  1  0.84716000  0.41206000  0.85298000  1.0
  H  H22  1  0.15812000  0.48859000  0.05274000  1.0
  H  H23  1  0.84190000  0.51140000  0.94726000  1.0
  H  H24  1  0.06748000  0.79184000  0.25869000  1.0
  H  H25  1  0.93252000  0.20817000  0.74131000  1.0
  H  H26  1  0.15247000  0.09719000  0.44465000  1.0
  H  H27  1  0.84752000  0.90282000  0.55535000  1.0
  H  H28  1  0.21064000  0.10759000  0.05178000  1.0
  H  H29  1  0.78936000  0.89241000  0.94823000  1.0
  H  H30  1  0.56926000  0.88628000  0.24699000  1.0
  H  H31  1  0.43073000  0.11373000  0.75302000  1.0
  C  C32  1  0.22773000  0.74840000  0.38882000  1.0
  C  C33  1  0.77227000  0.25160000  0.61118000  1.0
  C  C34  1  0.12351000  0.82823000  0.32384000  1.0
  C  C35  1  0.87650000  0.17177000  0.67615000  1.0
  C  C36  1  0.09376000  0.95764000  0.34312000  1.0
  C  C37  1  0.90624000  0.04236000  0.65688000  1.0
  C  C38  1  0.17132000  0.99835000  0.42805000  1.0
  C  C39  1  0.82868000  0.00166000  0.57195000  1.0
  C  C40  1  0.26890000  0.91194000  0.49096000  1.0
  C  C41  1  0.73110000  0.08806000  0.50905000  1.0
  C  C42  1  0.27830000  0.61025000  0.36510000  1.0
  C  C43  1  0.72170000  0.38976000  0.63489000  1.0
  C  C44  1  0.34872000  0.95385000  0.58461000  1.0
  C  C45  1  0.65128000  0.04615000  0.41539000  1.0
  C  C46  1  0.29003000  0.91232000  0.01310000  1.0
  C  C47  1  0.70998000  0.08768000  0.98691000  1.0
  C  C48  1  0.28950000  0.01971000  0.07180000  1.0
  C  C49  1  0.71049000  0.98028000  0.92820000  1.0
  C  C50  1  0.39052000  0.01155000  0.15765000  1.0
  C  C51  1  0.60947000  0.98844000  0.84236000  1.0
  C  C52  1  0.48921000  0.89491000  0.18098000  1.0
  C  C53  1  0.51079000  0.10509000  0.81903000  1.0
  C  C54  1  0.48016000  0.79218000  0.11861000  1.0
  C  C55  1  0.51984000  0.20782000  0.88139000  1.0
  C  C56  1  0.18693000  0.91331000  0.91762000  1.0
  C  C57  1  0.81307000  0.08670000  0.08238000  1.0
  C  C58  1  0.57483000  0.66178000  0.14020000  1.0
  C  C59  1  0.42518000  0.33821000  0.85981000  1.0
  N  N60  1  0.29712000  0.78896000  0.47202000  1.0
  N  N61  1  0.70288000  0.21104000  0.52798000  1.0
  N  N62  1  0.38258000  0.80139000  0.03660000  1.0
  N  N63  1  0.61742000  0.19861000  0.96341000  1.0
  O  O64  1  0.22181000  0.56645000  0.28460000  1.0
  O  O65  1  0.77819000  0.43356000  0.71540000  1.0
  O  O66  1  0.38058000  0.54648000  0.42584000  1.0
  O  O67  1  0.61942000  0.45353000  0.57415000  1.0
  O  O68  1  0.99880000  0.04308000  0.28735000  1.0
  O  O69  1  0.00120000  0.95693000  0.71266000  1.0
  O  O70  1  0.32990000  0.06728000  0.60326000  1.0
  O  O71  1  0.67010000  0.93272000  0.39674000  1.0
  O  O72  1  0.43429000  0.86712000  0.64115000  1.0
  O  O73  1  0.56569000  0.13288000  0.35886000  1.0
  O  O74  1  0.70759000  0.69432000  0.44857000  1.0
  O  O75  1  0.29240000  0.30568000  0.55143000  1.0
  O  O76  1  0.58710000  0.64663000  0.77130000  1.0
  O  O77  1  0.41290000  0.35336000  0.22870000  1.0
  O  O78  1  0.28016000  0.59574000  0.73473000  1.0
  O  O79  1  0.71984000  0.40425000  0.26527000  1.0
  O  O80  1  0.12103000  0.01881000  0.87902000  1.0
  O  O81  1  0.87899000  0.98119000  0.12097000  1.0
  O  O82  1  0.17504000  0.80951000  0.88081000  1.0
  O  O83  1  0.82496000  0.19049000  0.11919000  1.0
  O  O84  1  0.38844000  0.11477000  0.21498000  1.0
  O  O85  1  0.61155000  0.88523000  0.78503000  1.0
  O  O86  1  0.66017000  0.64220000  0.22194000  1.0
  O  O87  1  0.33983000  0.35780000  0.77805000  1.0
  O  O88  1  0.56006000  0.57710000  0.07208000  1.0
  O  O89  1  0.43994000  0.42290000  0.92791000  1.0
  O  O90  1  0.13649000  0.57810000  0.06429000  1.0
  O  O91  1  0.86351000  0.42189000  0.93570000  1.0
