# generated using pymatgen
data_TiH11C22O5
_symmetry_space_group_name_H-M   'P 1'
_cell_length_a   6.77700000
_cell_length_b   16.19010000
_cell_length_c   29.82380000
_cell_angle_alpha   89.97550000
_cell_angle_beta   89.45580000
_cell_angle_gamma   87.70090000
_symmetry_Int_Tables_number   1
_chemical_formula_structural   TiH11C22O5
_chemical_formula_sum   'Ti4 H44 C88 O20'
_cell_volume   3269.49492776
_cell_formula_units_Z   4
loop_
 _symmetry_equiv_pos_site_id
 _symmetry_equiv_pos_as_xyz
  1  'x, y, z'
loop_
 _atom_site_type_symbol
 _atom_site_label
 _atom_site_symmetry_multiplicity
 _atom_site_fract_x
 _atom_site_fract_y
 _atom_site_fract_z
 _atom_site_occupancy
  Ti  Ti0  1  0.28372000  0.00020000  0.25520000  1.0
  Ti  Ti1  1  0.71995000  0.99980000  0.74583000  1.0
  Ti  Ti2  1  0.21966000  0.99960000  0.75509000  1.0
  Ti  Ti3  1  0.78403000  0.00009000  0.24588000  1.0
  H  H4  1  0.46494000  0.29108000  0.04218000  1.0
  H  H5  1  0.49327000  0.50173000  0.15516000  1.0
  H  H6  1  0.47012000  0.29007000  0.96012000  1.0
  H  H7  1  0.50947000  0.49807000  0.84583000  1.0
  H  H8  1  0.53723000  0.70875000  0.95885000  1.0
  H  H9  1  0.53202000  0.70973000  0.04089000  1.0
  H  H10  1  0.97439000  0.29040000  0.54165000  1.0
  H  H11  1  0.01913000  0.49911000  0.65499000  1.0
  H  H12  1  0.96299000  0.29080000  0.45967000  1.0
  H  H13  1  0.98528000  0.50065000  0.34583000  1.0
  H  H14  1  0.03178000  0.70936000  0.45918000  1.0
  H  H15  1  0.04176000  0.70902000  0.54118000  1.0
  H  H16  1  0.26811000  0.29984000  0.40523000  1.0
  H  H17  1  0.27272000  0.17008000  0.35973000  1.0
  H  H18  1  0.71402000  0.37723000  0.34587000  1.0
  H  H19  1  0.71329000  0.24474000  0.30279000  1.0
  H  H20  1  0.21849000  0.24542000  0.19968000  1.0
  H  H21  1  0.77854000  0.17106000  0.14056000  1.0
  H  H22  1  0.77352000  0.30080000  0.09499000  1.0
  H  H23  1  0.21925000  0.37800000  0.15665000  1.0
  H  H24  1  0.23254000  0.83319000  0.14417000  1.0
  H  H25  1  0.22028000  0.70360000  0.09881000  1.0
  H  H26  1  0.78698000  0.62258000  0.15057000  1.0
  H  H27  1  0.80558000  0.75557000  0.19269000  1.0
  H  H28  1  0.72662000  0.83228000  0.35738000  1.0
  H  H29  1  0.28183000  0.62196000  0.34900000  1.0
  H  H30  1  0.30080000  0.75506000  0.30688000  1.0
  H  H31  1  0.71407000  0.70254000  0.40276000  1.0
  H  H32  1  0.70279000  0.24480000  0.69368000  1.0
  H  H33  1  0.27766000  0.16749000  0.64367000  1.0
  H  H34  1  0.72244000  0.37783000  0.65152000  1.0
  H  H35  1  0.29081000  0.29707000  0.59816000  1.0
  H  H36  1  0.29049000  0.62292000  0.65498000  1.0
  H  H37  1  0.29033000  0.75549000  0.69800000  1.0
  H  H38  1  0.73028000  0.82940000  0.64116000  1.0
  H  H39  1  0.73588000  0.69967000  0.59563000  1.0
  H  H40  1  0.22487000  0.82867000  0.86012000  1.0
  H  H41  1  0.22930000  0.69907000  0.90578000  1.0
  H  H42  1  0.78556000  0.75424000  0.80134000  1.0
  H  H43  1  0.78437000  0.62178000  0.84450000  1.0
  H  H44  1  0.77070000  0.16649000  0.85717000  1.0
  H  H45  1  0.19836000  0.24404000  0.80818000  1.0
  H  H46  1  0.21637000  0.37711000  0.85022000  1.0
  H  H47  1  0.78236000  0.29626000  0.90245000  1.0
  C  C48  1  0.49769000  0.12181000  0.19819000  1.0
  C  C49  1  0.48016000  0.34875000  0.02386000  1.0
  C  C50  1  0.49961000  0.50018000  0.02448000  1.0
  C  C51  1  0.49433000  0.42536000  0.09622000  1.0
  C  C52  1  0.49378000  0.42391000  0.04868000  1.0
  C  C53  1  0.49417000  0.50126000  0.11856000  1.0
  C  C54  1  0.34058000  0.25885000  0.17713000  1.0
  C  C55  1  0.34152000  0.33249000  0.15303000  1.0
  C  C56  1  0.65274000  0.28886000  0.11823000  1.0
  C  C57  1  0.65586000  0.21646000  0.14336000  1.0
  C  C58  1  0.47374000  0.11967000  0.80427000  1.0
  C  C59  1  0.48297000  0.34819000  0.97808000  1.0
  C  C60  1  0.50303000  0.49962000  0.97651000  1.0
  C  C61  1  0.50513000  0.42322000  0.90530000  1.0
  C  C62  1  0.49983000  0.42278000  0.95282000  1.0
  C  C63  1  0.50848000  0.49854000  0.88243000  1.0
  C  C64  1  0.50609000  0.87787000  0.80270000  1.0
  C  C65  1  0.52236000  0.65107000  0.97714000  1.0
  C  C66  1  0.50853000  0.57446000  0.90477000  1.0
  C  C67  1  0.50896000  0.57590000  0.95232000  1.0
  C  C68  1  0.50562000  0.79921000  0.82837000  1.0
  C  C69  1  0.50745000  0.65188000  0.87827000  1.0
  C  C70  1  0.48338000  0.19768000  0.83028000  1.0
  C  C71  1  0.32677000  0.25681000  0.82839000  1.0
  C  C72  1  0.33716000  0.33062000  0.85198000  1.0
  C  C73  1  0.49994000  0.34529000  0.87930000  1.0
  C  C74  1  0.65525000  0.28517000  0.88138000  1.0
  C  C75  1  0.64910000  0.21266000  0.85645000  1.0
  C  C76  1  0.52994000  0.87996000  0.19689000  1.0
  C  C77  1  0.51947000  0.65162000  0.02292000  1.0
  C  C78  1  0.49746000  0.57658000  0.09569000  1.0
  C  C79  1  0.50275000  0.57700000  0.04818000  1.0
  C  C80  1  0.52014000  0.80198000  0.17086000  1.0
  C  C81  1  0.67685000  0.74285000  0.17257000  1.0
  C  C82  1  0.66622000  0.66912000  0.14893000  1.0
  C  C83  1  0.50302000  0.65449000  0.12171000  1.0
  C  C84  1  0.34769000  0.71462000  0.11978000  1.0
  C  C85  1  0.35415000  0.78704000  0.14477000  1.0
  C  C86  1  0.49812000  0.20047000  0.17250000  1.0
  C  C87  1  0.49583000  0.34794000  0.12271000  1.0
  C  C88  1  0.66323000  0.74086000  0.82386000  1.0
  C  C89  1  0.66210000  0.66730000  0.84804000  1.0
  C  C90  1  0.35049000  0.71096000  0.88263000  1.0
  C  C91  1  0.34763000  0.78329000  0.85743000  1.0
  C  C92  1  0.97817000  0.12058000  0.69718000  1.0
  C  C93  1  0.98595000  0.34835000  0.52340000  1.0
  C  C94  1  0.00613000  0.49978000  0.52437000  1.0
  C  C95  1  0.01259000  0.42390000  0.59575000  1.0
  C  C96  1  0.00457000  0.42314000  0.54829000  1.0
  C  C97  1  0.01673000  0.49934000  0.61840000  1.0
  C  C98  1  0.98913000  0.19860000  0.67115000  1.0
  C  C99  1  0.83220000  0.25761000  0.67326000  1.0
  C  C100  1  0.84342000  0.33138000  0.64959000  1.0
  C  C101  1  0.00737000  0.34609000  0.62193000  1.0
  C  C102  1  0.16299000  0.28604000  0.61957000  1.0
  C  C103  1  0.15598000  0.21361000  0.64462000  1.0
  C  C104  1  0.99304000  0.12109000  0.30324000  1.0
  C  C105  1  0.97972000  0.34859000  0.47766000  1.0
  C  C106  1  0.99946000  0.49999000  0.47644000  1.0
  C  C107  1  0.98965000  0.42467000  0.40498000  1.0
  C  C108  1  0.99187000  0.42356000  0.45252000  1.0
  C  C109  1  0.98810000  0.50043000  0.38243000  1.0
  C  C110  1  0.99040000  0.34709000  0.37867000  1.0
  C  C111  1  0.02580000  0.87941000  0.30382000  1.0
  C  C112  1  0.01990000  0.65142000  0.47742000  1.0
  C  C113  1  0.99274000  0.57589000  0.40507000  1.0
  C  C114  1  0.00120000  0.57664000  0.45252000  1.0
  C  C115  1  0.99262000  0.19967000  0.32893000  1.0
  C  C116  1  0.83520000  0.25806000  0.32491000  1.0
  C  C117  1  0.83611000  0.33166000  0.34902000  1.0
  C  C118  1  0.14719000  0.28793000  0.38254000  1.0
  C  C119  1  0.15017000  0.21553000  0.35744000  1.0
  C  C120  1  0.00989000  0.87880000  0.69764000  1.0
  C  C121  1  0.02548000  0.65121000  0.52317000  1.0
  C  C122  1  0.01510000  0.57514000  0.59586000  1.0
  C  C123  1  0.01325000  0.57624000  0.54832000  1.0
  C  C124  1  0.01061000  0.80019000  0.67194000  1.0
  C  C125  1  0.16847000  0.74197000  0.67592000  1.0
  C  C126  1  0.16807000  0.66835000  0.65182000  1.0
  C  C127  1  0.01383000  0.65271000  0.62218000  1.0
  C  C128  1  0.85667000  0.71168000  0.61833000  1.0
  C  C129  1  0.85315000  0.78407000  0.64344000  1.0
  C  C130  1  0.01487000  0.80125000  0.32971000  1.0
  C  C131  1  0.17171000  0.74220000  0.32741000  1.0
  C  C132  1  0.16088000  0.66842000  0.35106000  1.0
  C  C133  1  0.99743000  0.65369000  0.37886000  1.0
  C  C134  1  0.84172000  0.71366000  0.38133000  1.0
  C  C135  1  0.84833000  0.78615000  0.35632000  1.0
  O  O136  1  0.51936000  0.99957000  0.27705000  1.0
  O  O137  1  0.33486000  0.10132000  0.21585000  1.0
  O  O138  1  0.48434000  0.00038000  0.72399000  1.0
  O  O139  1  0.63590000  0.07891000  0.79664000  1.0
  O  O140  1  0.34277000  0.92028000  0.80047000  1.0
  O  O141  1  0.30372000  0.09854000  0.79154000  1.0
  O  O142  1  0.69998000  0.90093000  0.20969000  1.0
  O  O143  1  0.66095000  0.07936000  0.20041000  1.0
  O  O144  1  0.36799000  0.92091000  0.20443000  1.0
  O  O145  1  0.66894000  0.89847000  0.78510000  1.0
  O  O146  1  0.98223000  0.99979000  0.77696000  1.0
  O  O147  1  0.80727000  0.09933000  0.70998000  1.0
  O  O148  1  0.02146000  0.99997000  0.22404000  1.0
  O  O149  1  0.15626000  0.07845000  0.30092000  1.0
  O  O150  1  0.86422000  0.92028000  0.29643000  1.0
  O  O151  1  0.83141000  0.10075000  0.28567000  1.0
  O  O152  1  0.17157000  0.89923000  0.71516000  1.0
  O  O153  1  0.13991000  0.07993000  0.70473000  1.0
  O  O154  1  0.84660000  0.92137000  0.70000000  1.0
  O  O155  1  0.19673000  0.90056000  0.29099000  1.0
