# generated using pymatgen
data_CaAg2H6C12N4O9
_symmetry_space_group_name_H-M   'P 1'
_cell_length_a   8.09432000
_cell_length_b   8.09432000
_cell_length_c   11.46300000
_cell_angle_alpha   93.00360000
_cell_angle_beta   93.00370000
_cell_angle_gamma   103.82300000
_symmetry_Int_Tables_number   1
_chemical_formula_structural   CaAg2H6C12N4O9
_chemical_formula_sum   'Ca2 Ag4 H12 C24 N8 O18'
_cell_volume   726.64616545
_cell_formula_units_Z   2
loop_
 _symmetry_equiv_pos_site_id
 _symmetry_equiv_pos_as_xyz
  1  'x, y, z'
loop_
 _atom_site_type_symbol
 _atom_site_label
 _atom_site_symmetry_multiplicity
 _atom_site_fract_x
 _atom_site_fract_y
 _atom_site_fract_z
 _atom_site_occupancy
  Ca  Ca0  1  0.21035000  0.78965000  0.25000000  1.0
  Ca  Ca1  1  0.78965000  0.21035000  0.75000000  1.0
  Ag  Ag2  1  0.65362000  0.79793000  0.95104000  1.0
  Ag  Ag3  1  0.20207000  0.34638000  0.54896000  1.0
  Ag  Ag4  1  0.34638000  0.20207000  0.04896000  1.0
  Ag  Ag5  1  0.79793000  0.65362000  0.45104000  1.0
  H  H6  1  0.77182000  0.77602000  0.20319000  1.0
  H  H7  1  0.22398000  0.22818000  0.29682000  1.0
  H  H8  1  0.22818000  0.22397000  0.79682000  1.0
  H  H9  1  0.77603000  0.77182000  0.70318000  1.0
  H  H10  1  0.48960000  0.56769000  0.14001000  1.0
  H  H11  1  0.43231000  0.51040000  0.35999000  1.0
  H  H12  1  0.51040000  0.43231000  0.85999000  1.0
  H  H13  1  0.56769000  0.48960000  0.64001000  1.0
  H  H14  1  0.00742000  0.05385000  0.18907000  1.0
  H  H15  1  0.94615000  0.99258000  0.31093000  1.0
  H  H16  1  0.99258000  0.94615000  0.81093000  1.0
  H  H17  1  0.05385000  0.00742000  0.68907000  1.0
  C  C18  1  0.73343000  0.14002000  0.04544000  1.0
  C  C19  1  0.85998000  0.26658000  0.45457000  1.0
  C  C20  1  0.26657000  0.85997000  0.95457000  1.0
  C  C21  1  0.14003000  0.73343000  0.54543000  1.0
  C  C22  1  0.75251000  0.32158000  0.09302000  1.0
  C  C23  1  0.67842000  0.24750000  0.40698000  1.0
  C  C24  1  0.24749000  0.67842000  0.90698000  1.0
  C  C25  1  0.32158000  0.75251000  0.59301000  1.0
  C  C26  1  0.76556000  0.64501000  0.17315000  1.0
  C  C27  1  0.35499000  0.23445000  0.32685000  1.0
  C  C28  1  0.23444000  0.35499000  0.82685000  1.0
  C  C29  1  0.64501000  0.76556000  0.67314000  1.0
  C  C30  1  0.90775000  0.43578000  0.13320000  1.0
  C  C31  1  0.56422000  0.09226000  0.36681000  1.0
  C  C32  1  0.09225000  0.56422000  0.86680000  1.0
  C  C33  1  0.43578000  0.90775000  0.63319000  1.0
  C  C34  1  0.61091000  0.53232000  0.13526000  1.0
  C  C35  1  0.46767000  0.38909000  0.36474000  1.0
  C  C36  1  0.38909000  0.46767000  0.86474000  1.0
  C  C37  1  0.53233000  0.61091000  0.63526000  1.0
  C  C38  1  0.07907000  0.39114000  0.13188000  1.0
  C  C39  1  0.60886000  0.92094000  0.36812000  1.0
  C  C40  1  0.92094000  0.60886000  0.86812000  1.0
  C  C41  1  0.39114000  0.07907000  0.63188000  1.0
  N  N42  1  0.60461000  0.37140000  0.09617000  1.0
  N  N43  1  0.62859000  0.39539000  0.40383000  1.0
  N  N44  1  0.39539000  0.62859000  0.90383000  1.0
  N  N45  1  0.37141000  0.60461000  0.59617000  1.0
  N  N46  1  0.91221000  0.59600000  0.17274000  1.0
  N  N47  1  0.40400000  0.08780000  0.32726000  1.0
  N  N48  1  0.08779000  0.40400000  0.82726000  1.0
  N  N49  1  0.59600000  0.91221000  0.67274000  1.0
  O  O50  1  0.07843000  0.24126000  0.09154000  1.0
  O  O51  1  0.75874000  0.92158000  0.40846000  1.0
  O  O52  1  0.92157000  0.75874000  0.90846000  1.0
  O  O53  1  0.24126000  0.07842000  0.59154000  1.0
  O  O54  1  0.02313000  0.97687000  0.25000000  1.0
  O  O55  1  0.97687000  0.02313000  0.75000000  1.0
  O  O56  1  0.73314000  0.11512000  0.93462000  1.0
  O  O57  1  0.88487000  0.26687000  0.56538000  1.0
  O  O58  1  0.26686000  0.88487000  0.06538000  1.0
  O  O59  1  0.11513000  0.73314000  0.43462000  1.0
  O  O60  1  0.20928000  0.50709000  0.16794000  1.0
  O  O61  1  0.49291000  0.79072000  0.33206000  1.0
  O  O62  1  0.79072000  0.49291000  0.83206000  1.0
  O  O63  1  0.50709000  0.20928000  0.66794000  1.0
  O  O64  1  0.70562000  0.02483000  0.11625000  1.0
  O  O65  1  0.97517000  0.29438000  0.38375000  1.0
  O  O66  1  0.29438000  0.97517000  0.88375000  1.0
  O  O67  1  0.02483000  0.70562000  0.61624000  1.0
