# generated using pymatgen
data_K2H52PdC44S4(NO3)4
_symmetry_space_group_name_H-M   'P 1'
_cell_length_a   8.96396000
_cell_length_b   12.53950000
_cell_length_c   12.88310000
_cell_angle_alpha   115.27800000
_cell_angle_beta   103.48000000
_cell_angle_gamma   96.39190000
_symmetry_Int_Tables_number   1
_chemical_formula_structural   K2H52PdC44S4(NO3)4
_chemical_formula_sum   'K2 H52 Pd1 C44 S4 N4 O12'
_cell_volume   1236.21698469
_cell_formula_units_Z   1
loop_
 _symmetry_equiv_pos_site_id
 _symmetry_equiv_pos_as_xyz
  1  'x, y, z'
loop_
 _atom_site_type_symbol
 _atom_site_label
 _atom_site_symmetry_multiplicity
 _atom_site_fract_x
 _atom_site_fract_y
 _atom_site_fract_z
 _atom_site_occupancy
  K  K0  1  0.99203000  0.17861000  0.11798000  1.0
  K  K1  1  0.00798000  0.82139000  0.88201000  1.0
  H  H2  1  0.58765000  0.44450000  0.33897000  1.0
  H  H3  1  0.41235000  0.55551000  0.66104000  1.0
  H  H4  1  0.85763000  0.47302000  0.46413000  1.0
  H  H5  1  0.14236000  0.52697000  0.53587000  1.0
  H  H6  1  0.04060000  0.42622000  0.60806000  1.0
  H  H7  1  0.95940000  0.57378000  0.39193000  1.0
  H  H8  1  0.93678000  0.28946000  0.68070000  1.0
  H  H9  1  0.06323000  0.71054000  0.31930000  1.0
  H  H10  1  0.64469000  0.21218000  0.62473000  1.0
  H  H11  1  0.35533000  0.78782000  0.37528000  1.0
  H  H12  1  0.37322000  0.20768000  0.52278000  1.0
  H  H13  1  0.62678000  0.79232000  0.47722000  1.0
  H  H14  1  0.11002000  0.22733000  0.50701000  1.0
  H  H15  1  0.88998000  0.77266000  0.49299000  1.0
  H  H16  1  0.14312000  0.09463000  0.39728000  1.0
  H  H17  1  0.85688000  0.90536000  0.60272000  1.0
  H  H18  1  0.85832000  0.08055000  0.38706000  1.0
  H  H19  1  0.14168000  0.91945000  0.61294000  1.0
  H  H20  1  0.85897000  0.20202000  0.34856000  1.0
  H  H21  1  0.14103000  0.79798000  0.65144000  1.0
  H  H22  1  0.68010000  0.07609000  0.14590000  1.0
  H  H23  1  0.31990000  0.92391000  0.85410000  1.0
  H  H24  1  0.65780000  0.96268000  0.19437000  1.0
  H  H25  1  0.34219000  0.03732000  0.80562000  1.0
  H  H26  1  0.77173000  0.83207000  0.03440000  1.0
  H  H27  1  0.22827000  0.16793000  0.96559000  1.0
  H  H28  1  0.58141000  0.85114000  0.97838000  1.0
  H  H29  1  0.41858000  0.14886000  0.02162000  1.0
  H  H30  1  0.60043000  0.04085000  0.93985000  1.0
  H  H31  1  0.39957000  0.95916000  0.06015000  1.0
  H  H32  1  0.55751000  0.88989000  0.81677000  1.0
  H  H33  1  0.44248000  0.11011000  0.18323000  1.0
  H  H34  1  0.78950000  0.96117000  0.76186000  1.0
  H  H35  1  0.21050000  0.03883000  0.23813000  1.0
  H  H36  1  0.62899000  0.03216000  0.74731000  1.0
  H  H37  1  0.37101000  0.96785000  0.25269000  1.0
  H  H38  1  0.80072000  0.20345000  0.77104000  1.0
  H  H39  1  0.19927000  0.79655000  0.22896000  1.0
  H  H40  1  0.97698000  0.15021000  0.79640000  1.0
  H  H41  1  0.02302000  0.84979000  0.20360000  1.0
  H  H42  1  0.02784000  0.37820000  0.89400000  1.0
  H  H43  1  0.97216000  0.62180000  0.10600000  1.0
  H  H44  1  0.89753000  0.37321000  0.97964000  1.0
  H  H45  1  0.10247000  0.62679000  0.02036000  1.0
  H  H46  1  0.10445000  0.48015000  0.17166000  1.0
  H  H47  1  0.89555000  0.51985000  0.82834000  1.0
  H  H48  1  0.23236000  0.50103000  0.09006000  1.0
  H  H49  1  0.76764000  0.49897000  0.90994000  1.0
  H  H50  1  0.40044000  0.37994000  0.15505000  1.0
  H  H51  1  0.59956000  0.62006000  0.84495000  1.0
  H  H52  1  0.39634000  0.52035000  0.27479000  1.0
  H  H53  1  0.60366000  0.47966000  0.72521000  1.0
  Pd  Pd54  1  0.50000000  0.50000000  0.00000000  1.0
  C  C55  1  0.37910000  0.34808000  0.34511000  1.0
  C  C56  1  0.62091000  0.65192000  0.65490000  1.0
  C  C57  1  0.53983000  0.39157000  0.37735000  1.0
  C  C58  1  0.46017000  0.60843000  0.62266000  1.0
  C  C59  1  0.64653000  0.36888000  0.46168000  1.0
  C  C60  1  0.35347000  0.63111000  0.53832000  1.0
  C  C61  1  0.81199000  0.41572000  0.49926000  1.0
  C  C62  1  0.18801000  0.58427000  0.50074000  1.0
  C  C63  1  0.91343000  0.38938000  0.57872000  1.0
  C  C64  1  0.08658000  0.61062000  0.42128000  1.0
  C  C65  1  0.85388000  0.31311000  0.62213000  1.0
  C  C66  1  0.14613000  0.68689000  0.37787000  1.0
  C  C67  1  0.69275000  0.26912000  0.58989000  1.0
  C  C68  1  0.30726000  0.73088000  0.41012000  1.0
  C  C69  1  0.58533000  0.29741000  0.51117000  1.0
  C  C70  1  0.41468000  0.70259000  0.48884000  1.0
  C  C71  1  0.41897000  0.25692000  0.48020000  1.0
  C  C72  1  0.58103000  0.74308000  0.51980000  1.0
  C  C73  1  0.31742000  0.28090000  0.39893000  1.0
  C  C74  1  0.68258000  0.71910000  0.60107000  1.0
  C  C75  1  0.08790000  0.17157000  0.40961000  1.0
  C  C76  1  0.91210000  0.82843000  0.59039000  1.0
  C  C77  1  0.91332000  0.12594000  0.34361000  1.0
  C  C78  1  0.08668000  0.87406000  0.65639000  1.0
  C  C79  1  0.72546000  0.99917000  0.15034000  1.0
  C  C80  1  0.27454000  0.00082000  0.84965000  1.0
  C  C81  1  0.70699000  0.89875000  0.02594000  1.0
  C  C82  1  0.29301000  0.10125000  0.97405000  1.0
  C  C83  1  0.65197000  0.97228000  0.88135000  1.0
  C  C84  1  0.34803000  0.02772000  0.11865000  1.0
  C  C85  1  0.72473000  0.02311000  0.81272000  1.0
  C  C86  1  0.27527000  0.97689000  0.18727000  1.0
  C  C87  1  0.89568000  0.19918000  0.84016000  1.0
  C  C88  1  0.10432000  0.80082000  0.15984000  1.0
  C  C89  1  0.98066000  0.32710000  0.93580000  1.0
  C  C90  1  0.01934000  0.67290000  0.06420000  1.0
  C  C91  1  0.18657000  0.43992000  0.12283000  1.0
  C  C92  1  0.81342000  0.56008000  0.87717000  1.0
  C  C93  1  0.32557000  0.42894000  0.20607000  1.0
  C  C94  1  0.67442000  0.57106000  0.79393000  1.0
  C  C95  1  0.72305000  0.38742000  0.15121000  1.0
  C  C96  1  0.27696000  0.61258000  0.84880000  1.0
  C  C97  1  0.35716000  0.22978000  0.76510000  1.0
  C  C98  1  0.64285000  0.77022000  0.23491000  1.0
  S  S99  1  0.70757000  0.52286000  0.16428000  1.0
  S  S100  1  0.29244000  0.47714000  0.83573000  1.0
  S  S101  1  0.51270000  0.29780000  0.88917000  1.0
  S  S102  1  0.48731000  0.70220000  0.11084000  1.0
  N  N103  1  0.74071000  0.29518000  0.15046000  1.0
  N  N104  1  0.25930000  0.70482000  0.84955000  1.0
  N  N105  1  0.24809000  0.17542000  0.67612000  1.0
  N  N106  1  0.75191000  0.82459000  0.32389000  1.0
  O  O107  1  0.26798000  0.36364000  0.26332000  1.0
  O  O108  1  0.73202000  0.63636000  0.73668000  1.0
  O  O109  1  0.15608000  0.24266000  0.36099000  1.0
  O  O110  1  0.84392000  0.75734000  0.63901000  1.0
  O  O111  1  0.88964000  0.04101000  0.21984000  1.0
  O  O112  1  0.11036000  0.95899000  0.78015000  1.0
  O  O113  1  0.77012000  0.94209000  0.95366000  1.0
  O  O114  1  0.22988000  0.05791000  0.04634000  1.0
  O  O115  1  0.82855000  0.13852000  0.89637000  1.0
  O  O116  1  0.17145000  0.86148000  0.10363000  1.0
  O  O117  1  0.10726000  0.32240000  0.02368000  1.0
  O  O118  1  0.89273000  0.67760000  0.97632000  1.0
