# generated using pymatgen
data_Cd5H46C72(N2O9)2
_symmetry_space_group_name_H-M   'P 1'
_cell_length_a   7.79116000
_cell_length_b   15.13230000
_cell_length_c   16.81000000
_cell_angle_alpha   69.06160000
_cell_angle_beta   79.49580000
_cell_angle_gamma   79.81450000
_symmetry_Int_Tables_number   1
_chemical_formula_structural   Cd5H46C72(N2O9)2
_chemical_formula_sum   'Cd5 H46 C72 N4 O18'
_cell_volume   1806.46588073
_cell_formula_units_Z   1
loop_
 _symmetry_equiv_pos_site_id
 _symmetry_equiv_pos_as_xyz
  1  'x, y, z'
loop_
 _atom_site_type_symbol
 _atom_site_label
 _atom_site_symmetry_multiplicity
 _atom_site_fract_x
 _atom_site_fract_y
 _atom_site_fract_z
 _atom_site_occupancy
  Cd  Cd0  1  0.36652000  0.99241000  0.85675000  1.0
  Cd  Cd1  1  0.60983000  0.18122000  0.90597000  1.0
  Cd  Cd2  1  0.63348000  0.00759000  0.14325000  1.0
  Cd  Cd3  1  0.00000000  0.00000000  0.00000000  1.0
  Cd  Cd4  1  0.39017000  0.81878000  0.09403000  1.0
  H  H5  1  0.60354000  0.51629000  0.94189000  1.0
  H  H6  1  0.87302000  0.96035000  0.46436000  1.0
  H  H7  1  0.67307000  0.99269000  0.97874000  1.0
  H  H8  1  0.48908000  0.38954000  0.90972000  1.0
  H  H9  1  0.53830000  0.25027000  0.08928000  1.0
  H  H10  1  0.11382000  0.21717000  0.50171000  1.0
  H  H11  1  0.88801000  0.65655000  0.04865000  1.0
  H  H12  1  0.67041000  0.34439000  0.14933000  1.0
  H  H13  1  0.06229000  0.70475000  0.68481000  1.0
  H  H14  1  0.62394000  0.05938000  0.32186000  1.0
  H  H15  1  0.32694000  0.00732000  0.02125000  1.0
  H  H16  1  0.01963000  0.77035000  0.08435000  1.0
  H  H17  1  0.73849000  0.03386000  0.77218000  1.0
  H  H18  1  0.46172000  0.74972000  0.91073000  1.0
  H  H19  1  0.88615000  0.78284000  0.49828000  1.0
  H  H20  1  0.03347000  0.97158000  0.34941000  1.0
  H  H21  1  0.37606000  0.94062000  0.67815000  1.0
  H  H22  1  0.06726000  0.81950000  0.35433000  1.0
  H  H23  1  0.35788000  0.73811000  0.33693000  1.0
  H  H24  1  0.18688000  0.37463000  0.31423000  1.0
  H  H25  1  0.39591000  0.25438000  0.41191000  1.0
  H  H26  1  0.26152000  0.96615000  0.22781000  1.0
  H  H27  1  0.84032000  0.57535000  0.97358000  1.0
  H  H28  1  0.93271000  0.18052000  0.64567000  1.0
  H  H29  1  0.93772000  0.29525000  0.31519000  1.0
  H  H30  1  0.11198000  0.34346000  0.95136000  1.0
  H  H31  1  0.50498000  0.59152000  0.73861000  1.0
  H  H32  1  0.32961000  0.65560000  0.85068000  1.0
  H  H33  1  0.51091000  0.61047000  0.09028000  1.0
  H  H34  1  0.41250000  0.06351000  0.45289000  1.0
  H  H35  1  0.15968000  0.42466000  0.02643000  1.0
  H  H36  1  0.80454000  0.19601000  0.25762000  1.0
  H  H37  1  0.98036000  0.22966000  0.91565000  1.0
  H  H38  1  0.96654000  0.02842000  0.65059000  1.0
  H  H39  1  0.69623000  0.29656000  0.39426000  1.0
  H  H40  1  0.19547000  0.80398000  0.74239000  1.0
  H  H41  1  0.12699000  0.03965000  0.53564000  1.0
  H  H42  1  0.81313000  0.62536000  0.68577000  1.0
  H  H43  1  0.39644000  0.48371000  0.05812000  1.0
  H  H44  1  0.18245000  0.69834000  0.47972000  1.0
  H  H45  1  0.81753000  0.30166000  0.52027000  1.0
  H  H46  1  0.49503000  0.40847000  0.26139000  1.0
  H  H47  1  0.60408000  0.74561000  0.58809000  1.0
  H  H48  1  0.30376000  0.70343000  0.60574000  1.0
  H  H49  1  0.64211000  0.26190000  0.66306000  1.0
  H  H50  1  0.58750000  0.93649000  0.54712000  1.0
  C  C51  1  0.68997000  0.45263000  0.93808000  1.0
  C  C52  1  0.28368000  0.25678000  0.16681000  1.0
  C  C53  1  0.98908000  0.73067000  0.73557000  1.0
  C  C54  1  0.01093000  0.26932000  0.26444000  1.0
  C  C55  1  0.62599000  0.38358000  0.91916000  1.0
  C  C56  1  0.73542000  0.65316000  0.73458000  1.0
  C  C57  1  0.86076000  0.81193000  0.28879000  1.0
  C  C58  1  0.71634000  0.74322000  0.83319000  1.0
  C  C59  1  0.71062000  0.01254000  0.72097000  1.0
  C  C60  1  0.50780000  0.96123000  0.66767000  1.0
  C  C61  1  0.93124000  0.80625000  0.36285000  1.0
  C  C62  1  0.58633000  0.76414000  0.37934000  1.0
  C  C63  1  0.45008000  0.25569000  0.46684000  1.0
  C  C64  1  0.53933000  0.72343000  0.86121000  1.0
  C  C65  1  0.30855000  0.21092000  0.70308000  1.0
  C  C66  1  0.68838000  0.83375000  0.93585000  1.0
  C  C67  1  0.91918000  0.98543000  0.50926000  1.0
  C  C68  1  0.31424000  0.71795000  0.47154000  1.0
  C  C69  1  0.97656000  0.84465000  0.20418000  1.0
  C  C70  1  0.06873000  0.19376000  0.63715000  1.0
  C  C71  1  0.39062000  0.21529000  0.77620000  1.0
  C  C72  1  0.34391000  0.23470000  0.54771000  1.0
  C  C73  1  0.86554000  0.43949000  0.95380000  1.0
  C  C74  1  0.53497000  0.32944000  0.17256000  1.0
  C  C75  1  0.37401000  0.61642000  0.08083000  1.0
  C  C76  1  0.58683000  0.26038000  0.60846000  1.0
  C  C77  1  0.20434000  0.01504000  0.41440000  1.0
  C  C78  1  0.16855000  0.21455000  0.55799000  1.0
  C  C79  1  0.26460000  0.34683000  0.26542000  1.0
  C  C80  1  0.96945000  0.81802000  0.83413000  1.0
  C  C81  1  0.18507000  0.29179000  0.23277000  1.0
  C  C82  1  0.28939000  0.98747000  0.27903000  1.0
  C  C83  1  0.46069000  0.27657000  0.13880000  1.0
  C  C84  1  0.56390000  0.63454000  0.76390000  1.0
  C  C85  1  0.93718000  0.21483000  0.23278000  1.0
  C  C86  1  0.31164000  0.16626000  0.06414000  1.0
  C  C87  1  0.83142000  0.78545000  0.44201000  1.0
  C  C88  1  0.20168000  0.20281000  0.13273000  1.0
  C  C89  1  0.83670000  0.01041000  0.65190000  1.0
  C  C90  1  0.31002000  0.54737000  0.06192000  1.0
  C  C91  1  0.08082000  0.01457000  0.49074000  1.0
  C  C92  1  0.54991000  0.74431000  0.53316000  1.0
  C  C93  1  0.06023000  0.87539000  0.86719000  1.0
  C  C94  1  0.79567000  0.98496000  0.58560000  1.0
  C  C95  1  0.09994000  0.70645000  0.07735000  1.0
  C  C96  1  0.41364000  0.23585000  0.62066000  1.0
  C  C97  1  0.61736000  0.27930000  0.45722000  1.0
  C  C98  1  0.65607000  0.76531000  0.45228000  1.0
  C  C99  1  0.06284000  0.78516000  0.76723000  1.0
  C  C100  1  0.69143000  0.78907000  0.29692000  1.0
  C  C101  1  0.92579000  0.50793000  0.98179000  1.0
  C  C102  1  0.79833000  0.79718000  0.86727000  1.0
  C  C103  1  0.62612000  0.95902000  0.59544000  1.0
  C  C104  1  0.49221000  0.03877000  0.33233000  1.0
  C  C105  1  0.81495000  0.70820000  0.76724000  1.0
  C  C106  1  0.43612000  0.36545000  0.23611000  1.0
  C  C107  1  0.68575000  0.28205000  0.52846000  1.0
  C  C108  1  0.93979000  0.12461000  0.13281000  1.0
  C  C109  1  0.37387000  0.04098000  0.40457000  1.0
  C  C110  1  0.13445000  0.56052000  0.04620000  1.0
  C  C111  1  0.38264000  0.72070000  0.54278000  1.0
  C  C112  1  0.46506000  0.67054000  0.82745000  1.0
  C  C113  1  0.41315000  0.73963000  0.39154000  1.0
  C  C114  1  0.90005000  0.29356000  0.92265000  1.0
  C  C115  1  0.13922000  0.18807000  0.71121000  1.0
  C  C116  1  0.60936000  0.78471000  0.22380000  1.0
  C  C117  1  0.16330000  0.98960000  0.34810000  1.0
  C  C118  1  0.03057000  0.18197000  0.16588000  1.0
  C  C119  1  0.07421000  0.49207000  0.01821000  1.0
  C  C120  1  0.02343000  0.15535000  0.79582000  1.0
  C  C121  1  0.97297000  0.35847000  0.94320000  1.0
  C  C122  1  0.02702000  0.64153000  0.05680000  1.0
  N  N123  1  0.45173000  0.01176000  0.27069000  1.0
  N  N124  1  0.27136000  0.69584000  0.08705000  1.0
  N  N125  1  0.72863000  0.30417000  0.91295000  1.0
  N  N126  1  0.54828000  0.98824000  0.72931000  1.0
  O  O127  1  0.00117000  0.11734000  0.06011000  1.0
  O  O128  1  0.71046000  0.04005000  0.99827000  1.0
  O  O129  1  0.52808000  0.86436000  0.17705000  1.0
  O  O130  1  0.89858000  0.89392000  0.13786000  1.0
  O  O131  1  0.64379000  0.77202000  0.00773000  1.0
  O  O132  1  0.28955000  0.95996000  0.00173000  1.0
  O  O133  1  0.36322000  0.07706000  0.08543000  1.0
  O  O134  1  0.80452000  0.08869000  0.18119000  1.0
  O  O135  1  0.60718000  0.70696000  0.21474000  1.0
  O  O136  1  0.63680000  0.92294000  0.91456000  1.0
  O  O137  1  0.85947000  0.17645000  0.79594000  1.0
  O  O138  1  0.10141000  0.10608000  0.86214000  1.0
  O  O139  1  0.19551000  0.91130000  0.81881000  1.0
  O  O140  1  0.47191000  0.13565000  0.82294000  1.0
  O  O141  1  0.14051000  0.82356000  0.20406000  1.0
  O  O142  1  0.35621000  0.22798000  0.99227000  1.0
  O  O143  1  0.39279000  0.29304000  0.78525000  1.0
  O  O144  1  0.99885000  0.88266000  0.93988000  1.0
