# generated using pymatgen
data_CoH14C20(N2Cl)2
_symmetry_space_group_name_H-M   'P 1'
_cell_length_a   12.85490000
_cell_length_b   13.47110000
_cell_length_c   15.92560000
_cell_angle_alpha   89.99960000
_cell_angle_beta   82.79680000
_cell_angle_gamma   89.99950000
_symmetry_Int_Tables_number   1
_chemical_formula_structural   CoH14C20(N2Cl)2
_chemical_formula_sum   'Co4 H56 C80 N16 Cl8'
_cell_volume   2736.06484673
_cell_formula_units_Z   4
loop_
 _symmetry_equiv_pos_site_id
 _symmetry_equiv_pos_as_xyz
  1  'x, y, z'
loop_
 _atom_site_type_symbol
 _atom_site_label
 _atom_site_symmetry_multiplicity
 _atom_site_fract_x
 _atom_site_fract_y
 _atom_site_fract_z
 _atom_site_occupancy
  Co  Co0  1  0.67967000  0.33585000  0.20296000  1.0
  Co  Co1  1  0.82033000  0.83585000  0.29704000  1.0
  Co  Co2  1  0.32033000  0.66415000  0.79704000  1.0
  Co  Co3  1  0.17967000  0.16415000  0.70296000  1.0
  H  H4  1  0.04011000  0.32649000  0.37852000  1.0
  H  H5  1  0.45988000  0.82649000  0.12148000  1.0
  H  H6  1  0.95988000  0.67351000  0.62148000  1.0
  H  H7  1  0.54012000  0.17351000  0.87852000  1.0
  H  H8  1  0.16699000  0.20903000  0.30402000  1.0
  H  H9  1  0.33301000  0.70903000  0.19598000  1.0
  H  H10  1  0.83301000  0.79097000  0.69599000  1.0
  H  H11  1  0.66699000  0.29097000  0.80402000  1.0
  H  H12  1  0.12422000  0.11420000  0.17788000  1.0
  H  H13  1  0.37579000  0.61420000  0.32212000  1.0
  H  H14  1  0.87579000  0.88581000  0.82212000  1.0
  H  H15  1  0.62422000  0.38580000  0.67787000  1.0
  H  H16  1  0.27386000  0.45958000  0.32732000  1.0
  H  H17  1  0.22614000  0.95958000  0.17268000  1.0
  H  H18  1  0.72614000  0.54041000  0.67268000  1.0
  H  H19  1  0.77386000  0.04042000  0.82732000  1.0
  H  H20  1  0.76609000  0.16248000  0.08318000  1.0
  H  H21  1  0.73391000  0.66248000  0.41682000  1.0
  H  H22  1  0.23391000  0.83752000  0.91682000  1.0
  H  H23  1  0.26609000  0.33752000  0.58318000  1.0
  H  H24  1  0.86528000  0.35626000  0.32901000  1.0
  H  H25  1  0.63472000  0.85626000  0.17099000  1.0
  H  H26  1  0.13472000  0.64374000  0.67099000  1.0
  H  H27  1  0.36528000  0.14374000  0.82901000  1.0
  H  H28  1  0.82642000  0.97423000  0.08591000  1.0
  H  H29  1  0.67358000  0.47423000  0.41409000  1.0
  H  H30  1  0.17358000  0.02577000  0.91410000  1.0
  H  H31  1  0.32642000  0.52577000  0.58590000  1.0
  H  H32  1  0.10433000  0.15089000  0.02361000  1.0
  H  H33  1  0.39568000  0.65089000  0.47640000  1.0
  H  H34  1  0.89567000  0.84911000  0.97639000  1.0
  H  H35  1  0.60433000  0.34911000  0.52360000  1.0
  H  H36  1  0.67102000  0.14741000  0.32759000  1.0
  H  H37  1  0.82898000  0.64742000  0.17241000  1.0
  H  H38  1  0.32898000  0.85258000  0.67241000  1.0
  H  H39  1  0.17102000  0.35259000  0.82759000  1.0
  H  H40  1  0.45789000  0.44002000  0.25522000  1.0
  H  H41  1  0.04211000  0.94002000  0.24478000  1.0
  H  H42  1  0.54211000  0.55998000  0.74478000  1.0
  H  H43  1  0.95789000  0.05998000  0.75522000  1.0
  H  H44  1  0.19737000  0.33652000  0.43356000  1.0
  H  H45  1  0.30264000  0.83652000  0.06644000  1.0
  H  H46  1  0.80263000  0.66348000  0.56644000  1.0
  H  H47  1  0.69736000  0.16349000  0.93356000  1.0
  H  H48  1  0.29732000  0.19109000  0.47138000  1.0
  H  H49  1  0.20268000  0.69109000  0.02862000  1.0
  H  H50  1  0.70268000  0.80891000  0.52861000  1.0
  H  H51  1  0.79732000  0.30891000  0.97138000  1.0
  H  H52  1  0.43873000  0.16500000  0.55562000  1.0
  H  H53  1  0.06127000  0.66501000  0.94438000  1.0
  H  H54  1  0.56126000  0.83499000  0.44437000  1.0
  H  H55  1  0.93874000  0.33499000  0.05563000  1.0
  H  H56  1  0.57613000  0.98094000  0.34879000  1.0
  H  H57  1  0.92387000  0.48094000  0.15122000  1.0
  H  H58  1  0.42386000  0.01905000  0.65121000  1.0
  H  H59  1  0.07613000  0.51906000  0.84878000  1.0
  C  C60  1  0.82194000  0.18120000  0.12626000  1.0
  C  C61  1  0.67806000  0.68120000  0.37374000  1.0
  C  C62  1  0.17806000  0.81880000  0.87374000  1.0
  C  C63  1  0.32194000  0.31880000  0.62626000  1.0
  C  C64  1  0.89711000  0.25020000  0.22688000  1.0
  C  C65  1  0.60288000  0.75019000  0.27313000  1.0
  C  C66  1  0.10288000  0.74981000  0.77313000  1.0
  C  C67  1  0.39712000  0.24981000  0.72687000  1.0
  C  C68  1  0.92144000  0.30389000  0.29698000  1.0
  C  C69  1  0.57856000  0.80390000  0.20303000  1.0
  C  C70  1  0.07856000  0.69611000  0.70303000  1.0
  C  C71  1  0.42144000  0.19611000  0.79697000  1.0
  C  C72  1  0.01927000  0.28732000  0.32319000  1.0
  C  C73  1  0.48072000  0.78732000  0.17681000  1.0
  C  C74  1  0.98072000  0.71269000  0.67681000  1.0
  C  C75  1  0.51928000  0.21269000  0.82319000  1.0
  C  C76  1  0.09162000  0.21995000  0.28085000  1.0
  C  C77  1  0.40838000  0.71995000  0.21915000  1.0
  C  C78  1  0.90838000  0.78005000  0.71916000  1.0
  C  C79  1  0.59162000  0.28005000  0.78084000  1.0
  C  C80  1  0.06879000  0.16682000  0.21039000  1.0
  C  C81  1  0.43120000  0.66682000  0.28961000  1.0
  C  C82  1  0.93121000  0.83318000  0.78961000  1.0
  C  C83  1  0.56880000  0.33318000  0.71039000  1.0
  C  C84  1  0.97059000  0.18334000  0.18432000  1.0
  C  C85  1  0.52941000  0.68334000  0.31569000  1.0
  C  C86  1  0.02940000  0.81667000  0.81568000  1.0
  C  C87  1  0.47060000  0.31666000  0.68431000  1.0
  C  C88  1  0.96101000  0.06943000  0.05981000  1.0
  C  C89  1  0.53899000  0.56943000  0.44019000  1.0
  C  C90  1  0.03899000  0.93057000  0.94019000  1.0
  C  C91  1  0.46101000  0.43057000  0.55981000  1.0
  C  C92  1  0.90095000  0.98577000  0.04634000  1.0
  C  C93  1  0.59905000  0.48577000  0.45366000  1.0
  C  C94  1  0.09905000  0.01423000  0.95366000  1.0
  C  C95  1  0.40095000  0.51423000  0.54633000  1.0
  C  C96  1  0.05977000  0.08397000  0.01376000  1.0
  C  C97  1  0.44023000  0.58397000  0.48624000  1.0
  C  C98  1  0.94023000  0.91603000  0.98624000  1.0
  C  C99  1  0.55977000  0.41603000  0.51376000  1.0
  C  C100  1  0.59977000  0.19187000  0.33658000  1.0
  C  C101  1  0.90024000  0.69187000  0.16342000  1.0
  C  C102  1  0.40023000  0.80813000  0.66342000  1.0
  C  C103  1  0.09976000  0.30813000  0.83658000  1.0
  C  C104  1  0.48125000  0.30561000  0.32527000  1.0
  C  C105  1  0.01876000  0.80562000  0.17473000  1.0
  C  C106  1  0.51876000  0.69438000  0.67474000  1.0
  C  C107  1  0.98124000  0.19439000  0.82527000  1.0
  C  C108  1  0.42368000  0.38732000  0.30282000  1.0
  C  C109  1  0.07632000  0.88732000  0.19718000  1.0
  C  C110  1  0.57632000  0.61268000  0.69718000  1.0
  C  C111  1  0.92368000  0.11268000  0.80282000  1.0
  C  C112  1  0.32166000  0.39713000  0.34327000  1.0
  C  C113  1  0.17835000  0.89713000  0.15672000  1.0
  C  C114  1  0.67835000  0.60287000  0.65673000  1.0
  C  C115  1  0.82165000  0.10287000  0.84327000  1.0
  C  C116  1  0.27775000  0.32730000  0.40343000  1.0
  C  C117  1  0.22225000  0.82730000  0.09657000  1.0
  C  C118  1  0.72226000  0.67270000  0.59657000  1.0
  C  C119  1  0.77775000  0.17270000  0.90343000  1.0
  C  C120  1  0.33391000  0.24503000  0.42588000  1.0
  C  C121  1  0.16610000  0.74503000  0.07412000  1.0
  C  C122  1  0.66610000  0.75497000  0.57412000  1.0
  C  C123  1  0.83391000  0.25497000  0.92588000  1.0
  C  C124  1  0.43679000  0.23672000  0.38652000  1.0
  C  C125  1  0.06322000  0.73673000  0.11348000  1.0
  C  C126  1  0.56322000  0.76327000  0.61348000  1.0
  C  C127  1  0.93678000  0.26328000  0.88652000  1.0
  C  C128  1  0.50720000  0.08141000  0.44663000  1.0
  C  C129  1  0.99280000  0.58142000  0.05336000  1.0
  C  C130  1  0.49280000  0.91858000  0.55336000  1.0
  C  C131  1  0.00720000  0.41859000  0.94664000  1.0
  C  C132  1  0.46453000  0.09244000  0.53131000  1.0
  C  C133  1  0.03547000  0.59245000  0.96868000  1.0
  C  C134  1  0.53547000  0.90755000  0.46868000  1.0
  C  C135  1  0.96453000  0.40756000  0.03132000  1.0
  C  C136  1  0.54277000  0.98913000  0.41482000  1.0
  C  C137  1  0.95723000  0.48913000  0.08517000  1.0
  C  C138  1  0.45722000  0.01086000  0.58517000  1.0
  C  C139  1  0.04277000  0.51087000  0.91483000  1.0
  N  N140  1  0.80563000  0.24775000  0.18795000  1.0
  N  N141  1  0.69437000  0.74776000  0.31205000  1.0
  N  N142  1  0.19437000  0.75224000  0.81205000  1.0
  N  N143  1  0.30563000  0.25224000  0.68795000  1.0
  N  N144  1  0.92031000  0.14136000  0.12012000  1.0
  N  N145  1  0.57969000  0.64137000  0.37989000  1.0
  N  N146  1  0.07969000  0.85863000  0.87989000  1.0
  N  N147  1  0.42031000  0.35863000  0.62011000  1.0
  N  N148  1  0.58299000  0.27513000  0.29553000  1.0
  N  N149  1  0.91701000  0.77513000  0.20447000  1.0
  N  N150  1  0.41701000  0.72487000  0.70448000  1.0
  N  N151  1  0.08299000  0.22487000  0.79553000  1.0
  N  N152  1  0.51459000  0.16557000  0.39247000  1.0
  N  N153  1  0.98542000  0.66558000  0.10753000  1.0
  N  N154  1  0.48542000  0.83442000  0.60753000  1.0
  N  N155  1  0.01458000  0.33443000  0.89247000  1.0
  Cl  Cl156  1  0.72678000  0.48673000  0.24035000  1.0
  Cl  Cl157  1  0.77322000  0.98673000  0.25965000  1.0
  Cl  Cl158  1  0.27322000  0.51327000  0.75965000  1.0
  Cl  Cl159  1  0.22678000  0.01327000  0.74036000  1.0
  Cl  Cl160  1  0.61206000  0.32083000  0.08306000  1.0
  Cl  Cl161  1  0.88794000  0.82082000  0.41694000  1.0
  Cl  Cl162  1  0.38794000  0.67917000  0.91694000  1.0
  Cl  Cl163  1  0.11206000  0.17917000  0.58306000  1.0
