# generated using pymatgen
data_SrP2H12(C7O5)2
_symmetry_space_group_name_H-M   'P 1'
_cell_length_a   5.51549000
_cell_length_b   7.80092000
_cell_length_c   19.61194846
_cell_angle_alpha   101.45479292
_cell_angle_beta   97.37974805
_cell_angle_gamma   90.01290000
_symmetry_Int_Tables_number   1
_chemical_formula_structural   SrP2H12(C7O5)2
_chemical_formula_sum   'Sr2 P4 H24 C28 O20'
_cell_volume   819.87619307
_cell_formula_units_Z   2
loop_
 _symmetry_equiv_pos_site_id
 _symmetry_equiv_pos_as_xyz
  1  'x, y, z'
loop_
 _atom_site_type_symbol
 _atom_site_label
 _atom_site_symmetry_multiplicity
 _atom_site_fract_x
 _atom_site_fract_y
 _atom_site_fract_z
 _atom_site_occupancy
  Sr  Sr0  1  0.75000000  0.17452000  0.00002000  1.0
  Sr  Sr1  1  0.25000000  0.82548000  0.99998000  1.0
  P  P2  1  0.33894000  0.30464000  0.10625000  1.0
  P  P3  1  0.16119000  0.19851000  0.89384000  1.0
  P  P4  1  0.66106000  0.69536000  0.89375000  1.0
  P  P5  1  0.83881000  0.80149000  0.10616000  1.0
  H  H6  1  0.51698000  0.55854000  0.08553000  1.0
  H  H7  1  0.98308000  0.47310000  0.91440000  1.0
  H  H8  1  0.48303000  0.44146000  0.91447000  1.0
  H  H9  1  0.01692000  0.52691000  0.08560000  1.0
  H  H10  1  0.82139000  0.58144000  0.50410000  1.0
  H  H11  1  0.67830000  0.07801000  0.49603000  1.0
  H  H12  1  0.17856000  0.41855000  0.49590000  1.0
  H  H13  1  0.32174000  0.92197000  0.50396000  1.0
  H  H14  1  0.17859000  0.51176000  0.23642000  1.0
  H  H15  1  0.32163000  0.27526000  0.76368000  1.0
  H  H16  1  0.82138000  0.48823000  0.76358000  1.0
  H  H17  1  0.67837000  0.72475000  0.23632000  1.0
  H  H18  1  0.37786000  0.56923000  0.36054000  1.0
  H  H19  1  0.12228000  0.20901000  0.63958000  1.0
  H  H20  1  0.62211000  0.43076000  0.63946000  1.0
  H  H21  1  0.87774000  0.79099000  0.36042000  1.0
  H  H22  1  0.97694000  0.24729000  0.29894000  1.0
  H  H23  1  0.52314000  0.94840000  0.70119000  1.0
  H  H24  1  0.02306000  0.75273000  0.70107000  1.0
  H  H25  1  0.47688000  0.05159000  0.29880000  1.0
  H  H26  1  0.77984000  0.18792000  0.17484000  1.0
  H  H27  1  0.72032000  0.01282000  0.82527000  1.0
  H  H28  1  0.22016000  0.81209000  0.82516000  1.0
  H  H29  1  0.27968000  0.98719000  0.17473000  1.0
  C  C30  1  0.46708000  0.34732000  0.19752000  1.0
  C  C31  1  0.03307000  0.14973000  0.80258000  1.0
  C  C32  1  0.53291000  0.65269000  0.80248000  1.0
  C  C33  1  0.96693000  0.85028000  0.19742000  1.0
  C  C34  1  0.35423000  0.45473000  0.24992000  1.0
  C  C35  1  0.14591000  0.20481000  0.75017000  1.0
  C  C36  1  0.64575000  0.54526000  0.75008000  1.0
  C  C37  1  0.85409000  0.79520000  0.24983000  1.0
  C  C38  1  0.46580000  0.48767000  0.31943000  1.0
  C  C39  1  0.03427000  0.16845000  0.68067000  1.0
  C  C40  1  0.53418000  0.51232000  0.68057000  1.0
  C  C41  1  0.96575000  0.83156000  0.31933000  1.0
  C  C42  1  0.69178000  0.41400000  0.33673000  1.0
  C  C43  1  0.80818000  0.07757000  0.66339000  1.0
  C  C44  1  0.30820000  0.58601000  0.66328000  1.0
  C  C45  1  0.19184000  0.92244000  0.33661000  1.0
  C  C46  1  0.80297000  0.30495000  0.28445000  1.0
  C  C47  1  0.69707000  0.02061000  0.71566000  1.0
  C  C48  1  0.19703000  0.69506000  0.71556000  1.0
  C  C49  1  0.30294000  0.97939000  0.28433000  1.0
  C  C50  1  0.69193000  0.27205000  0.21530000  1.0
  C  C51  1  0.80816000  0.05666000  0.78480000  1.0
  C  C52  1  0.30806000  0.72796000  0.78470000  1.0
  C  C53  1  0.19184000  0.94333000  0.21519000  1.0
  C  C54  1  0.82331000  0.45059000  0.40940000  1.0
  C  C55  1  0.67657000  0.04151000  0.59070000  1.0
  C  C56  1  0.17667000  0.54941000  0.59060000  1.0
  C  C57  1  0.32348000  0.95848000  0.40929000  1.0
  O  O58  1  0.06932000  0.35240000  0.09915000  1.0
  O  O59  1  0.43081000  0.25341000  0.90094000  1.0
  O  O60  1  0.93067000  0.64760000  0.90085000  1.0
  O  O61  1  0.56919000  0.74658000  0.09906000  1.0
  O  O62  1  0.39831000  0.12040000  0.07178000  1.0
  O  O63  1  0.10178000  0.04884000  0.92840000  1.0
  O  O64  1  0.60169000  0.87961000  0.92823000  1.0
  O  O65  1  0.89821000  0.95116000  0.07160000  1.0
  O  O66  1  0.49506000  0.42296000  0.06917000  1.0
  O  O67  1  0.00507000  0.35392000  0.93082000  1.0
  O  O68  1  0.50494000  0.57704000  0.93083000  1.0
  O  O69  1  0.99493000  0.64608000  0.06918000  1.0
  O  O70  1  0.02359000  0.38226000  0.42331000  1.0
  O  O71  1  0.47665000  0.95875000  0.57674000  1.0
  O  O72  1  0.97639000  0.61778000  0.57669000  1.0
  O  O73  1  0.52338000  0.04122000  0.42325000  1.0
  O  O74  1  0.71553000  0.56088000  0.45547000  1.0
  O  O75  1  0.78394000  0.10629000  0.54466000  1.0
  O  O76  1  0.28440000  0.43909000  0.54453000  1.0
  O  O77  1  0.21609000  0.89370000  0.45534000  1.0
