# generated using pymatgen
data_GdH14C11NO8
_symmetry_space_group_name_H-M   'P 1'
_cell_length_a   8.38692000
_cell_length_b   11.87350000
_cell_length_c   13.34480000
_cell_angle_alpha   90.00000000
_cell_angle_beta   90.00000000
_cell_angle_gamma   96.27950000
_symmetry_Int_Tables_number   1
_chemical_formula_structural   GdH14C11NO8
_chemical_formula_sum   'Gd4 H56 C44 N4 O32'
_cell_volume   1320.92992205
_cell_formula_units_Z   4
loop_
 _symmetry_equiv_pos_site_id
 _symmetry_equiv_pos_as_xyz
  1  'x, y, z'
loop_
 _atom_site_type_symbol
 _atom_site_label
 _atom_site_symmetry_multiplicity
 _atom_site_fract_x
 _atom_site_fract_y
 _atom_site_fract_z
 _atom_site_occupancy
  Gd  Gd0  1  0.00668000  0.33539000  0.59518000  1.0
  Gd  Gd1  1  0.49333000  0.66461000  0.09518000  1.0
  Gd  Gd2  1  0.99333000  0.66461000  0.40482000  1.0
  Gd  Gd3  1  0.50668000  0.33539000  0.90482000  1.0
  H  H4  1  0.80226000  0.52346000  0.61448000  1.0
  H  H5  1  0.69774000  0.47654000  0.11448000  1.0
  H  H6  1  0.19774000  0.47654000  0.38552000  1.0
  H  H7  1  0.30226000  0.52346000  0.88552000  1.0
  H  H8  1  0.78026000  0.46977000  0.72534000  1.0
  H  H9  1  0.71974000  0.53023000  0.22534000  1.0
  H  H10  1  0.21974000  0.53023000  0.27466000  1.0
  H  H11  1  0.28026000  0.46977000  0.77466000  1.0
  H  H12  1  0.93830000  0.26340000  0.80839000  1.0
  H  H13  1  0.56170000  0.73660000  0.30839000  1.0
  H  H14  1  0.06170000  0.73660000  0.19161000  1.0
  H  H15  1  0.43830000  0.26340000  0.69161000  1.0
  H  H16  1  0.12695000  0.25308000  0.79868000  1.0
  H  H17  1  0.37305000  0.74692000  0.29868000  1.0
  H  H18  1  0.87306000  0.74692000  0.20132000  1.0
  H  H19  1  0.62694000  0.25308000  0.70132000  1.0
  H  H20  1  0.15445000  0.19842000  0.37966000  1.0
  H  H21  1  0.34555000  0.80158000  0.87966000  1.0
  H  H22  1  0.84555000  0.80158000  0.62034000  1.0
  H  H23  1  0.65444000  0.19842000  0.12034000  1.0
  H  H24  1  0.05856000  0.05049000  0.25257000  1.0
  H  H25  1  0.44144000  0.94951000  0.75257000  1.0
  H  H26  1  0.94144000  0.94951000  0.74743000  1.0
  H  H27  1  0.55856000  0.05049000  0.24743000  1.0
  H  H28  1  0.80497000  0.92669000  0.28506000  1.0
  H  H29  1  0.69504000  0.07331000  0.78506000  1.0
  H  H30  1  0.19503000  0.07331000  0.71494000  1.0
  H  H31  1  0.30497000  0.92669000  0.21494000  1.0
  H  H32  1  0.65006000  0.95888000  0.44380000  1.0
  H  H33  1  0.84994000  0.04112000  0.94380000  1.0
  H  H34  1  0.34994000  0.04112000  0.55620000  1.0
  H  H35  1  0.15006000  0.95888000  0.05620000  1.0
  H  H36  1  0.52288000  0.22762000  0.50171000  1.0
  H  H37  1  0.97712000  0.77238000  0.00171000  1.0
  H  H38  1  0.47712000  0.77238000  0.49829000  1.0
  H  H39  1  0.02288000  0.22762000  0.99829000  1.0
  H  H40  1  0.56954000  0.37262000  0.52490000  1.0
  H  H41  1  0.93046000  0.62738000  0.02490000  1.0
  H  H42  1  0.43046000  0.62738000  0.47510000  1.0
  H  H43  1  0.06954000  0.37262000  0.97510000  1.0
  H  H44  1  0.47808000  0.41504000  0.34711000  1.0
  H  H45  1  0.02192000  0.58496000  0.84711000  1.0
  H  H46  1  0.52192000  0.58496000  0.65289000  1.0
  H  H47  1  0.97808000  0.41504000  0.15289000  1.0
  H  H48  1  0.43129000  0.26793000  0.32725000  1.0
  H  H49  1  0.06871000  0.73207000  0.82725000  1.0
  H  H50  1  0.56871000  0.73207000  0.67275000  1.0
  H  H51  1  0.93129000  0.26793000  0.17275000  1.0
  H  H52  1  0.72084000  0.23862000  0.35734000  1.0
  H  H53  1  0.77916000  0.76138000  0.85734000  1.0
  H  H54  1  0.27916000  0.76138000  0.64266000  1.0
  H  H55  1  0.22084000  0.23862000  0.14266000  1.0
  H  H56  1  0.68920000  0.32607000  0.25207000  1.0
  H  H57  1  0.81080000  0.67393000  0.75207000  1.0
  H  H58  1  0.31080000  0.67393000  0.74793000  1.0
  H  H59  1  0.18920000  0.32607000  0.24793000  1.0
  C  C60  1  0.04343000  0.14332000  0.39127000  1.0
  C  C61  1  0.45657000  0.85668000  0.89127000  1.0
  C  C62  1  0.95657000  0.85668000  0.60873000  1.0
  C  C63  1  0.54343000  0.14332000  0.10873000  1.0
  C  C64  1  0.99046000  0.06094000  0.32077000  1.0
  C  C65  1  0.50954000  0.93906000  0.82077000  1.0
  C  C66  1  0.00954000  0.93906000  0.67923000  1.0
  C  C67  1  0.49046000  0.06094000  0.17923000  1.0
  C  C68  1  0.84802000  0.99187000  0.33882000  1.0
  C  C69  1  0.65198000  0.00813000  0.83882000  1.0
  C  C70  1  0.15198000  0.00813000  0.66118000  1.0
  C  C71  1  0.34802000  0.99187000  0.16118000  1.0
  C  C72  1  0.76361000  0.00827000  0.42647000  1.0
  C  C73  1  0.73639000  0.99173000  0.92647000  1.0
  C  C74  1  0.23639000  0.99173000  0.57353000  1.0
  C  C75  1  0.26361000  0.00827000  0.07353000  1.0
  C  C76  1  0.82371000  0.09371000  0.49235000  1.0
  C  C77  1  0.67629000  0.90629000  0.99234000  1.0
  C  C78  1  0.17629000  0.90629000  0.50766000  1.0
  C  C79  1  0.32371000  0.09371000  0.00766000  1.0
  C  C80  1  0.72917000  0.11730000  0.58467000  1.0
  C  C81  1  0.77083000  0.88270000  0.08467000  1.0
  C  C82  1  0.27083000  0.88270000  0.41533000  1.0
  C  C83  1  0.22917000  0.11730000  0.91533000  1.0
  C  C84  1  0.32183000  0.31756000  0.51977000  1.0
  C  C85  1  0.17817000  0.68244000  0.01977000  1.0
  C  C86  1  0.67817000  0.68244000  0.48023000  1.0
  C  C87  1  0.82183000  0.31756000  0.98023000  1.0
  C  C88  1  0.48933000  0.31139000  0.48097000  1.0
  C  C89  1  0.01067000  0.68861000  0.98096000  1.0
  C  C90  1  0.51068000  0.68861000  0.51903000  1.0
  C  C91  1  0.98933000  0.31139000  0.01903000  1.0
  C  C92  1  0.51135000  0.33128000  0.36858000  1.0
  C  C93  1  0.98865000  0.66872000  0.86858000  1.0
  C  C94  1  0.48865000  0.66872000  0.63142000  1.0
  C  C95  1  0.01135000  0.33128000  0.13142000  1.0
  C  C96  1  0.68433000  0.32070000  0.33414000  1.0
  C  C97  1  0.81567000  0.67930000  0.83414000  1.0
  C  C98  1  0.31567000  0.67930000  0.66586000  1.0
  C  C99  1  0.18433000  0.32070000  0.16586000  1.0
  C  C100  1  0.79957000  0.41549000  0.37697000  1.0
  C  C101  1  0.70044000  0.58451000  0.87697000  1.0
  C  C102  1  0.20044000  0.58451000  0.62303000  1.0
  C  C103  1  0.29957000  0.41549000  0.12303000  1.0
  N  N104  1  0.96186000  0.16103000  0.47560000  1.0
  N  N105  1  0.53814000  0.83897000  0.97560000  1.0
  N  N106  1  0.03814000  0.83897000  0.52440000  1.0
  N  N107  1  0.46186000  0.16103000  0.02440000  1.0
  O  O108  1  0.61116000  0.05069000  0.60923000  1.0
  O  O109  1  0.88884000  0.94931000  0.10923000  1.0
  O  O110  1  0.38884000  0.94931000  0.39077000  1.0
  O  O111  1  0.11116000  0.05069000  0.89077000  1.0
  O  O112  1  0.77798000  0.21126000  0.63145000  1.0
  O  O113  1  0.72202000  0.78874000  0.13145000  1.0
  O  O114  1  0.22202000  0.78874000  0.36855000  1.0
  O  O115  1  0.27798000  0.21126000  0.86855000  1.0
  O  O116  1  0.22038000  0.36880000  0.47018000  1.0
  O  O117  1  0.27962000  0.63120000  0.97018000  1.0
  O  O118  1  0.77962000  0.63120000  0.52982000  1.0
  O  O119  1  0.72038000  0.36880000  0.02982000  1.0
  O  O120  1  0.27955000  0.27049000  0.60328000  1.0
  O  O121  1  0.22045000  0.72951000  0.10328000  1.0
  O  O122  1  0.72044000  0.72951000  0.39672000  1.0
  O  O123  1  0.77956000  0.27049000  0.89672000  1.0
  O  O124  1  0.87891000  0.40002000  0.45565000  1.0
  O  O125  1  0.62109000  0.59998000  0.95564000  1.0
  O  O126  1  0.12109000  0.59998000  0.54436000  1.0
  O  O127  1  0.37891000  0.40002000  0.04435000  1.0
  O  O128  1  0.80932000  0.51199000  0.33324000  1.0
  O  O129  1  0.69068000  0.48801000  0.83325000  1.0
  O  O130  1  0.19068000  0.48801000  0.66675000  1.0
  O  O131  1  0.30932000  0.51199000  0.16676000  1.0
  O  O132  1  0.83071000  0.46116000  0.65804000  1.0
  O  O133  1  0.66929000  0.53884000  0.15804000  1.0
  O  O134  1  0.16929000  0.53884000  0.34196000  1.0
  O  O135  1  0.33071000  0.46116000  0.84196000  1.0
  O  O136  1  0.03137000  0.27684000  0.76234000  1.0
  O  O137  1  0.46863000  0.72316000  0.26234000  1.0
  O  O138  1  0.96863000  0.72316000  0.23766000  1.0
  O  O139  1  0.53138000  0.27684000  0.73766000  1.0
