# generated using pymatgen
data_ZnH22C32(N2O)2
_symmetry_space_group_name_H-M   'P 1'
_cell_length_a   9.76271000
_cell_length_b   11.76150000
_cell_length_c   14.66700000
_cell_angle_alpha   90.00000000
_cell_angle_beta   106.86000000
_cell_angle_gamma   90.00000000
_symmetry_Int_Tables_number   1
_chemical_formula_structural   ZnH22C32(N2O)2
_chemical_formula_sum   'Zn2 H44 C64 N8 O4'
_cell_volume   1611.73533834
_cell_formula_units_Z   2
loop_
 _symmetry_equiv_pos_site_id
 _symmetry_equiv_pos_as_xyz
  1  'x, y, z'
loop_
 _atom_site_type_symbol
 _atom_site_label
 _atom_site_symmetry_multiplicity
 _atom_site_fract_x
 _atom_site_fract_y
 _atom_site_fract_z
 _atom_site_occupancy
  Zn  Zn0  1  0.50000000  0.50000000  0.00000000  1.0
  Zn  Zn1  1  0.50000000  0.00000000  0.50000000  1.0
  H  H2  1  0.02495000  0.43130000  0.12199000  1.0
  H  H3  1  0.97505000  0.93130000  0.37801000  1.0
  H  H4  1  0.97506000  0.56870000  0.87801000  1.0
  H  H5  1  0.02494000  0.06870000  0.62199000  1.0
  H  H6  1  0.49210000  0.92925000  0.29263000  1.0
  H  H7  1  0.50790000  0.42924000  0.20737000  1.0
  H  H8  1  0.50790000  0.07076000  0.70737000  1.0
  H  H9  1  0.49210000  0.57075000  0.79263000  1.0
  H  H10  1  0.95117000  0.26308000  0.01770000  1.0
  H  H11  1  0.04883000  0.76307000  0.48230000  1.0
  H  H12  1  0.04883000  0.73693000  0.98230000  1.0
  H  H13  1  0.95117000  0.23693000  0.51770000  1.0
  H  H14  1  0.36416000  0.60002000  0.13028000  1.0
  H  H15  1  0.63584000  0.10002000  0.36972000  1.0
  H  H16  1  0.63585000  0.39998000  0.86972000  1.0
  H  H17  1  0.36416000  0.89998000  0.63028000  1.0
  H  H18  1  0.26171000  0.82216000  0.47262000  1.0
  H  H19  1  0.73829000  0.32215000  0.02739000  1.0
  H  H20  1  0.73829000  0.17784000  0.52739000  1.0
  H  H21  1  0.26171000  0.67783000  0.97261000  1.0
  H  H22  1  0.10065000  0.57507000  0.20540000  1.0
  H  H23  1  0.89934000  0.07506000  0.29460000  1.0
  H  H24  1  0.89935000  0.42493000  0.79460000  1.0
  H  H25  1  0.10065000  0.92493000  0.70540000  1.0
  H  H26  1  0.99261000  0.13426000  0.89146000  1.0
  H  H27  1  0.00738000  0.63425000  0.60855000  1.0
  H  H28  1  0.00739000  0.86575000  0.10854000  1.0
  H  H29  1  0.99262000  0.36575000  0.39146000  1.0
  H  H30  1  0.35859000  0.19632000  0.78906000  1.0
  H  H31  1  0.64140000  0.69632000  0.71094000  1.0
  H  H32  1  0.64141000  0.80368000  0.21094000  1.0
  H  H33  1  0.35859000  0.30368000  0.28906000  1.0
  H  H34  1  0.39258000  0.77464000  0.17592000  1.0
  H  H35  1  0.60742000  0.27464000  0.32408000  1.0
  H  H36  1  0.60742000  0.22537000  0.82408000  1.0
  H  H37  1  0.39258000  0.72537000  0.67592000  1.0
  H  H38  1  0.14236000  0.66729000  0.36034000  1.0
  H  H39  1  0.85764000  0.16728000  0.13966000  1.0
  H  H40  1  0.85764000  0.33271000  0.63966000  1.0
  H  H41  1  0.14236000  0.83271000  0.86034000  1.0
  H  H42  1  0.14378000  0.08497000  0.78608000  1.0
  H  H43  1  0.85621000  0.58497000  0.71392000  1.0
  H  H44  1  0.85622000  0.91504000  0.21391000  1.0
  H  H45  1  0.14378000  0.41503000  0.28608000  1.0
  C  C46  1  0.34199000  0.31116000  0.89946000  1.0
  C  C47  1  0.65801000  0.81116000  0.60055000  1.0
  C  C48  1  0.65802000  0.68885000  0.10054000  1.0
  C  C49  1  0.34199000  0.18884000  0.39946000  1.0
  C  C50  1  0.29589000  0.21872000  0.83694000  1.0
  C  C51  1  0.70410000  0.71872000  0.66306000  1.0
  C  C52  1  0.70411000  0.78128000  0.16306000  1.0
  C  C53  1  0.29589000  0.28128000  0.33694000  1.0
  C  C54  1  0.17294000  0.15654000  0.83512000  1.0
  C  C55  1  0.82705000  0.65653000  0.66488000  1.0
  C  C56  1  0.82706000  0.84347000  0.16488000  1.0
  C  C57  1  0.17294000  0.34346000  0.33512000  1.0
  C  C58  1  0.08858000  0.18299000  0.89388000  1.0
  C  C59  1  0.91141000  0.68298000  0.60612000  1.0
  C  C60  1  0.91142000  0.81702000  0.10612000  1.0
  C  C61  1  0.08859000  0.31701000  0.39388000  1.0
  C  C62  1  0.12738000  0.27581000  0.95666000  1.0
  C  C63  1  0.87261000  0.77580000  0.54334000  1.0
  C  C64  1  0.87262000  0.72420000  0.04334000  1.0
  C  C65  1  0.12738000  0.22420000  0.45666000  1.0
  C  C66  1  0.25283000  0.34129000  0.96006000  1.0
  C  C67  1  0.74717000  0.84129000  0.53994000  1.0
  C  C68  1  0.74718000  0.65871000  0.03994000  1.0
  C  C69  1  0.25282000  0.15871000  0.46006000  1.0
  C  C70  1  0.04706000  0.31079000  0.01822000  1.0
  C  C71  1  0.95293000  0.81078000  0.48178000  1.0
  C  C72  1  0.95294000  0.68921000  0.98178000  1.0
  C  C73  1  0.04706000  0.18921000  0.51822000  1.0
  C  C74  1  0.08825000  0.40358000  0.07602000  1.0
  C  C75  1  0.91175000  0.90358000  0.42398000  1.0
  C  C76  1  0.91176000  0.59642000  0.92397000  1.0
  C  C77  1  0.08825000  0.09642000  0.57602000  1.0
  C  C78  1  0.21383000  0.46492000  0.07538000  1.0
  C  C79  1  0.78617000  0.96492000  0.42462000  1.0
  C  C80  1  0.78618000  0.53508000  0.92462000  1.0
  C  C81  1  0.21382000  0.03508000  0.57538000  1.0
  C  C82  1  0.26348000  0.56352000  0.13519000  1.0
  C  C83  1  0.73652000  0.06351000  0.36481000  1.0
  C  C84  1  0.73652000  0.43649000  0.86481000  1.0
  C  C85  1  0.26348000  0.93649000  0.63519000  1.0
  C  C86  1  0.19965000  0.61042000  0.19683000  1.0
  C  C87  1  0.80035000  0.11041000  0.30317000  1.0
  C  C88  1  0.80036000  0.38959000  0.80317000  1.0
  C  C89  1  0.19965000  0.88958000  0.69683000  1.0
  C  C90  1  0.25922000  0.70578000  0.25873000  1.0
  C  C91  1  0.74078000  0.20577000  0.24127000  1.0
  C  C92  1  0.74078000  0.29422000  0.74127000  1.0
  C  C93  1  0.25922000  0.79422000  0.75873000  1.0
  C  C94  1  0.35899000  0.78247000  0.24033000  1.0
  C  C95  1  0.64101000  0.28247000  0.25967000  1.0
  C  C96  1  0.64101000  0.21753000  0.75967000  1.0
  C  C97  1  0.35899000  0.71753000  0.74033000  1.0
  C  C98  1  0.41569000  0.86803000  0.30546000  1.0
  C  C99  1  0.58431000  0.36802000  0.19455000  1.0
  C  C100  1  0.58431000  0.13198000  0.69454000  1.0
  C  C101  1  0.41569000  0.63198000  0.80545000  1.0
  C  C102  1  0.28538000  0.80935000  0.40509000  1.0
  C  C103  1  0.71462000  0.30935000  0.09491000  1.0
  C  C104  1  0.71462000  0.19065000  0.59491000  1.0
  C  C105  1  0.28538000  0.69064000  0.90508000  1.0
  C  C106  1  0.22026000  0.72326000  0.34285000  1.0
  C  C107  1  0.77974000  0.22326000  0.15715000  1.0
  C  C108  1  0.77975000  0.27674000  0.65715000  1.0
  C  C109  1  0.22026000  0.77674000  0.84285000  1.0
  N  N110  1  0.29294000  0.43242000  0.01847000  1.0
  N  N111  1  0.70706000  0.93242000  0.48153000  1.0
  N  N112  1  0.70707000  0.56759000  0.98153000  1.0
  N  N113  1  0.29294000  0.06758000  0.51847000  1.0
  N  N114  1  0.38193000  0.88098000  0.38757000  1.0
  N  N115  1  0.61807000  0.38098000  0.11244000  1.0
  N  N116  1  0.61807000  0.11902000  0.61243000  1.0
  N  N117  1  0.38193000  0.61901000  0.88757000  1.0
  O  O118  1  0.45805000  0.36821000  0.90382000  1.0
  O  O119  1  0.54195000  0.86821000  0.59619000  1.0
  O  O120  1  0.54196000  0.63180000  0.09618000  1.0
  O  O121  1  0.45805000  0.13179000  0.40382000  1.0
