# generated using pymatgen
data_CdH14C20N3O4
_symmetry_space_group_name_H-M   'P 1'
_cell_length_a   11.22690000
_cell_length_b   11.22690000
_cell_length_c   18.72430000
_cell_angle_alpha   94.06580000
_cell_angle_beta   94.06600000
_cell_angle_gamma   114.66100000
_symmetry_Int_Tables_number   1
_chemical_formula_structural   CdH14C20N3O4
_chemical_formula_sum   'Cd4 H56 C80 N12 O16'
_cell_volume   2126.23207224
_cell_formula_units_Z   4
loop_
 _symmetry_equiv_pos_site_id
 _symmetry_equiv_pos_as_xyz
  1  'x, y, z'
loop_
 _atom_site_type_symbol
 _atom_site_label
 _atom_site_symmetry_multiplicity
 _atom_site_fract_x
 _atom_site_fract_y
 _atom_site_fract_z
 _atom_site_occupancy
  Cd  Cd0  1  0.36506000  0.13094000  0.91035000  1.0
  Cd  Cd1  1  0.86906000  0.63494000  0.58965000  1.0
  Cd  Cd2  1  0.63494000  0.86906000  0.08965000  1.0
  Cd  Cd3  1  0.13094000  0.36506000  0.41035000  1.0
  H  H4  1  0.14556000  0.43124000  0.57819000  1.0
  H  H5  1  0.56877000  0.85444000  0.92181000  1.0
  H  H6  1  0.85444000  0.56876000  0.42181000  1.0
  H  H7  1  0.43123000  0.14556000  0.07819000  1.0
  H  H8  1  0.28657000  0.59434000  0.68054000  1.0
  H  H9  1  0.40566000  0.71343000  0.81946000  1.0
  H  H10  1  0.71343000  0.40565000  0.31946000  1.0
  H  H11  1  0.59434000  0.28657000  0.18054000  1.0
  H  H12  1  0.58106000  0.76176000  0.53513000  1.0
  H  H13  1  0.23824000  0.41894000  0.96487000  1.0
  H  H14  1  0.41894000  0.23824000  0.46487000  1.0
  H  H15  1  0.76176000  0.58106000  0.03513000  1.0
  H  H16  1  0.42984000  0.58645000  0.43918000  1.0
  H  H17  1  0.41355000  0.57016000  0.06082000  1.0
  H  H18  1  0.57016000  0.41355000  0.56082000  1.0
  H  H19  1  0.58646000  0.42984000  0.93918000  1.0
  H  H20  1  0.36661000  0.83770000  0.70714000  1.0
  H  H21  1  0.16231000  0.63339000  0.79286000  1.0
  H  H22  1  0.63339000  0.16230000  0.29286000  1.0
  H  H23  1  0.83770000  0.36661000  0.20714000  1.0
  H  H24  1  0.73399000  0.05253000  0.83910000  1.0
  H  H25  1  0.94746000  0.26601000  0.66090000  1.0
  H  H26  1  0.26601000  0.94746000  0.16090000  1.0
  H  H27  1  0.05253000  0.73399000  0.33910000  1.0
  H  H28  1  0.84129000  0.94162000  0.76317000  1.0
  H  H29  1  0.05838000  0.15872000  0.73683000  1.0
  H  H30  1  0.15872000  0.05838000  0.23683000  1.0
  H  H31  1  0.94161000  0.84128000  0.26317000  1.0
  H  H32  1  0.26535000  0.80431000  0.93566000  1.0
  H  H33  1  0.19569000  0.73466000  0.56433000  1.0
  H  H34  1  0.73465000  0.19569000  0.06434000  1.0
  H  H35  1  0.80432000  0.26535000  0.43566000  1.0
  H  H36  1  0.99537000  0.83131000  0.07750000  1.0
  H  H37  1  0.16868000  0.00463000  0.42250000  1.0
  H  H38  1  0.00463000  0.16869000  0.92251000  1.0
  H  H39  1  0.83131000  0.99537000  0.57749000  1.0
  H  H40  1  0.15220000  0.07921000  0.04132000  1.0
  H  H41  1  0.92078000  0.84779000  0.45867000  1.0
  H  H42  1  0.84780000  0.92079000  0.95868000  1.0
  H  H43  1  0.07921000  0.15220000  0.54133000  1.0
  H  H44  1  0.97115000  0.61556000  0.89702000  1.0
  H  H45  1  0.38444000  0.02885000  0.60298000  1.0
  H  H46  1  0.02885000  0.38444000  0.10299000  1.0
  H  H47  1  0.61556000  0.97115000  0.39701000  1.0
  H  H48  1  0.25489000  0.72959000  0.12306000  1.0
  H  H49  1  0.27041000  0.74510000  0.37694000  1.0
  H  H50  1  0.74510000  0.27041000  0.87694000  1.0
  H  H51  1  0.72959000  0.25489000  0.62306000  1.0
  H  H52  1  0.17979000  0.58740000  0.16939000  1.0
  H  H53  1  0.41260000  0.82021000  0.33061000  1.0
  H  H54  1  0.82021000  0.41260000  0.83061000  1.0
  H  H55  1  0.58741000  0.17979000  0.66939000  1.0
  H  H56  1  0.10957000  0.70179000  0.16417000  1.0
  H  H57  1  0.29821000  0.89043000  0.33583000  1.0
  H  H58  1  0.89043000  0.29821000  0.83583000  1.0
  H  H59  1  0.70179000  0.10957000  0.66417000  1.0
  C  C60  1  0.24350000  0.50532000  0.57111000  1.0
  C  C61  1  0.49468000  0.75650000  0.92889000  1.0
  C  C62  1  0.75650000  0.49468000  0.42888000  1.0
  C  C63  1  0.50532000  0.24350000  0.07111000  1.0
  C  C64  1  0.32180000  0.59793000  0.62772000  1.0
  C  C65  1  0.40207000  0.67820000  0.87228000  1.0
  C  C66  1  0.67820000  0.40207000  0.37228000  1.0
  C  C67  1  0.59793000  0.32180000  0.12772000  1.0
  C  C68  1  0.44628000  0.69335000  0.61667000  1.0
  C  C69  1  0.30666000  0.55372000  0.88333000  1.0
  C  C70  1  0.55371000  0.30665000  0.38333000  1.0
  C  C71  1  0.69334000  0.44628000  0.11667000  1.0
  C  C72  1  0.48614000  0.68946000  0.54745000  1.0
  C  C73  1  0.31055000  0.51387000  0.95255000  1.0
  C  C74  1  0.51387000  0.31054000  0.45255000  1.0
  C  C75  1  0.68945000  0.48614000  0.04745000  1.0
  C  C76  1  0.40236000  0.59301000  0.49363000  1.0
  C  C77  1  0.40699000  0.59764000  0.00637000  1.0
  C  C78  1  0.59764000  0.40699000  0.50637000  1.0
  C  C79  1  0.59301000  0.40237000  0.99363000  1.0
  C  C80  1  0.52827000  0.79351000  0.67663000  1.0
  C  C81  1  0.20649000  0.47173000  0.82337000  1.0
  C  C82  1  0.47173000  0.20649000  0.32337000  1.0
  C  C83  1  0.79351000  0.52827000  0.17663000  1.0
  C  C84  1  0.47047000  0.85849000  0.71888000  1.0
  C  C85  1  0.14151000  0.52953000  0.78112000  1.0
  C  C86  1  0.52953000  0.14150000  0.28112000  1.0
  C  C87  1  0.85849000  0.47047000  0.21888000  1.0
  C  C88  1  0.54398000  0.95100000  0.77740000  1.0
  C  C89  1  0.04900000  0.45602000  0.72260000  1.0
  C  C90  1  0.45602000  0.04900000  0.22260000  1.0
  C  C91  1  0.95099000  0.54398000  0.27740000  1.0
  C  C92  1  0.67795000  0.98118000  0.79317000  1.0
  C  C93  1  0.01882000  0.32206000  0.70684000  1.0
  C  C94  1  0.32206000  0.01882000  0.20684000  1.0
  C  C95  1  0.98118000  0.67794000  0.29316000  1.0
  C  C96  1  0.73717000  0.91918000  0.75099000  1.0
  C  C97  1  0.08082000  0.26283000  0.74901000  1.0
  C  C98  1  0.26283000  0.08082000  0.24901000  1.0
  C  C99  1  0.91917000  0.73717000  0.25099000  1.0
  C  C100  1  0.66310000  0.82423000  0.69332000  1.0
  C  C101  1  0.17577000  0.33691000  0.80669000  1.0
  C  C102  1  0.33690000  0.17576000  0.30669000  1.0
  C  C103  1  0.82422000  0.66309000  0.19332000  1.0
  C  C104  1  0.72984000  0.75318000  0.65350000  1.0
  C  C105  1  0.24682000  0.27016000  0.84650000  1.0
  C  C106  1  0.27016000  0.24681000  0.34650000  1.0
  C  C107  1  0.75318000  0.72984000  0.15350000  1.0
  C  C108  1  0.47875000  0.01355000  0.82450000  1.0
  C  C109  1  0.98645000  0.52125000  0.67551000  1.0
  C  C110  1  0.52125000  0.98645000  0.17550000  1.0
  C  C111  1  0.01355000  0.47875000  0.32449000  1.0
  C  C112  1  0.21587000  0.84774000  0.96935000  1.0
  C  C113  1  0.15226000  0.78414000  0.53064000  1.0
  C  C114  1  0.78414000  0.15226000  0.03065000  1.0
  C  C115  1  0.84774000  0.21586000  0.46935000  1.0
  C  C116  1  0.07659000  0.86308000  0.04428000  1.0
  C  C117  1  0.13691000  0.92341000  0.45572000  1.0
  C  C118  1  0.92342000  0.13692000  0.95572000  1.0
  C  C119  1  0.86308000  0.07658000  0.54428000  1.0
  C  C120  1  0.15453000  0.98549000  0.02555000  1.0
  C  C121  1  0.01451000  0.84547000  0.47445000  1.0
  C  C122  1  0.84547000  0.01451000  0.97445000  1.0
  C  C123  1  0.98549000  0.15453000  0.52555000  1.0
  C  C124  1  0.05798000  0.63552000  0.00566000  1.0
  C  C125  1  0.36448000  0.94203000  0.49434000  1.0
  C  C126  1  0.94202000  0.36448000  0.99434000  1.0
  C  C127  1  0.63552000  0.05798000  0.50566000  1.0
  C  C128  1  0.07732000  0.57518000  0.06591000  1.0
  C  C129  1  0.42482000  0.92268000  0.43408000  1.0
  C  C130  1  0.92268000  0.42482000  0.93409000  1.0
  C  C131  1  0.57518000  0.07732000  0.56591000  1.0
  C  C132  1  0.98330000  0.56283000  0.94173000  1.0
  C  C133  1  0.43717000  0.01670000  0.55827000  1.0
  C  C134  1  0.01670000  0.43717000  0.05827000  1.0
  C  C135  1  0.56283000  0.98330000  0.44173000  1.0
  C  C136  1  0.16018000  0.65253000  0.13407000  1.0
  C  C137  1  0.34747000  0.83982000  0.36593000  1.0
  C  C138  1  0.83982000  0.34747000  0.86593000  1.0
  C  C139  1  0.65253000  0.16018000  0.63407000  1.0
  N  N140  1  0.28280000  0.50237000  0.50504000  1.0
  N  N141  1  0.49764000  0.71720000  0.99496000  1.0
  N  N142  1  0.71720000  0.49763000  0.49496000  1.0
  N  N143  1  0.50237000  0.28280000  0.00504000  1.0
  N  N144  1  0.11668000  0.77642000  0.00790000  1.0
  N  N145  1  0.22358000  0.88333000  0.49210000  1.0
  N  N146  1  0.88333000  0.22358000  0.99210000  1.0
  N  N147  1  0.77642000  0.11667000  0.50790000  1.0
  N  N148  1  0.24104000  0.97464000  0.97933000  1.0
  N  N149  1  0.02536000  0.75897000  0.52067000  1.0
  N  N150  1  0.75897000  0.02536000  0.02067000  1.0
  N  N151  1  0.97464000  0.24103000  0.47933000  1.0
  O  O152  1  0.68881000  0.62972000  0.65492000  1.0
  O  O153  1  0.37028000  0.31119000  0.84508000  1.0
  O  O154  1  0.31119000  0.37028000  0.34508000  1.0
  O  O155  1  0.62971000  0.68882000  0.15492000  1.0
  O  O156  1  0.82802000  0.82300000  0.62122000  1.0
  O  O157  1  0.17700000  0.17198000  0.87878000  1.0
  O  O158  1  0.17198000  0.17699000  0.37878000  1.0
  O  O159  1  0.82299000  0.82802000  0.12122000  1.0
  O  O160  1  0.35647000  0.98358000  0.80941000  1.0
  O  O161  1  0.01642000  0.64354000  0.69059000  1.0
  O  O162  1  0.64354000  0.01642000  0.19059000  1.0
  O  O163  1  0.98358000  0.35647000  0.30941000  1.0
  O  O164  1  0.54850000  0.09327000  0.87939000  1.0
  O  O165  1  0.90673000  0.45151000  0.62061000  1.0
  O  O166  1  0.45150000  0.90673000  0.12061000  1.0
  O  O167  1  0.09327000  0.54849000  0.37939000  1.0
