# generated using pymatgen
data_SnH10C4SO2
_symmetry_space_group_name_H-M   'P 1'
_cell_length_a   7.94467000
_cell_length_b   9.94691000
_cell_length_c   10.07190000
_cell_angle_alpha   90.00020000
_cell_angle_beta   89.99980000
_cell_angle_gamma   89.99830000
_symmetry_Int_Tables_number   1
_chemical_formula_structural   SnH10C4SO2
_chemical_formula_sum   'Sn4 H40 C16 S4 O8'
_cell_volume   795.93106590
_cell_formula_units_Z   4
loop_
 _symmetry_equiv_pos_site_id
 _symmetry_equiv_pos_as_xyz
  1  'x, y, z'
loop_
 _atom_site_type_symbol
 _atom_site_label
 _atom_site_symmetry_multiplicity
 _atom_site_fract_x
 _atom_site_fract_y
 _atom_site_fract_z
 _atom_site_occupancy
  Sn  Sn0  1  0.74998000  0.08965000  0.68670000  1.0
  Sn  Sn1  1  0.25000000  0.41038000  0.18670000  1.0
  Sn  Sn2  1  0.25001000  0.91038000  0.31330000  1.0
  Sn  Sn3  1  0.75000000  0.58967000  0.81329000  1.0
  H  H4  1  0.51836000  0.94598000  0.81837000  1.0
  H  H5  1  0.48166000  0.55402000  0.31837000  1.0
  H  H6  1  0.01837000  0.05402000  0.18162000  1.0
  H  H7  1  0.98160000  0.44598000  0.68162000  1.0
  H  H8  1  0.48163000  0.05404000  0.18162000  1.0
  H  H9  1  0.51839000  0.44598000  0.68164000  1.0
  H  H10  1  0.98160000  0.94597000  0.81837000  1.0
  H  H11  1  0.01836000  0.55406000  0.31837000  1.0
  H  H12  1  0.42556000  0.01815000  0.67179000  1.0
  H  H13  1  0.57445000  0.48186000  0.17180000  1.0
  H  H14  1  0.92557000  0.98186000  0.32819000  1.0
  H  H15  1  0.07440000  0.51814000  0.82818000  1.0
  H  H16  1  0.57444000  0.98188000  0.32819000  1.0
  H  H17  1  0.42559000  0.51815000  0.82821000  1.0
  H  H18  1  0.07441000  0.01812000  0.67179000  1.0
  H  H19  1  0.92557000  0.48188000  0.17181000  1.0
  H  H20  1  0.45402000  0.11947000  0.81789000  1.0
  H  H21  1  0.54596000  0.38052000  0.31787000  1.0
  H  H22  1  0.95409000  0.88052000  0.18211000  1.0
  H  H23  1  0.04596000  0.61945000  0.68209000  1.0
  H  H24  1  0.54596000  0.88055000  0.18211000  1.0
  H  H25  1  0.45402000  0.61946000  0.68212000  1.0
  H  H26  1  0.04597000  0.11945000  0.81789000  1.0
  H  H27  1  0.95407000  0.38056000  0.31790000  1.0
  H  H28  1  0.75000000  0.73902000  0.36401000  1.0
  H  H29  1  0.24999000  0.76088000  0.86396000  1.0
  H  H30  1  0.24999000  0.26097000  0.63604000  1.0
  H  H31  1  0.75005000  0.23899000  0.13600000  1.0
  H  H32  1  0.86176000  0.63786000  0.48155000  1.0
  H  H33  1  0.13828000  0.86212000  0.98143000  1.0
  H  H34  1  0.36173000  0.36217000  0.51855000  1.0
  H  H35  1  0.63831000  0.13783000  0.01852000  1.0
  H  H36  1  0.13829000  0.36221000  0.51856000  1.0
  H  H37  1  0.86171000  0.13783000  0.01850000  1.0
  H  H38  1  0.63832000  0.63785000  0.48153000  1.0
  H  H39  1  0.36172000  0.86212000  0.98143000  1.0
  H  H40  1  0.75000000  0.16638000  0.41280000  1.0
  H  H41  1  0.25001000  0.33357000  0.91277000  1.0
  H  H42  1  0.25000000  0.83355000  0.58725000  1.0
  H  H43  1  0.75001000  0.66640000  0.08719000  1.0
  C  C44  1  0.50565000  0.03713000  0.75834000  1.0
  C  C45  1  0.49435000  0.46289000  0.25833000  1.0
  C  C46  1  0.00568000  0.96289000  0.24166000  1.0
  C  C47  1  0.99433000  0.53711000  0.74164000  1.0
  C  C48  1  0.49434000  0.96291000  0.24166000  1.0
  C  C49  1  0.50566000  0.53712000  0.74166000  1.0
  C  C50  1  0.99433000  0.03710000  0.75833000  1.0
  C  C51  1  0.00567000  0.46293000  0.25834000  1.0
  C  C52  1  0.74999000  0.81303000  0.56555000  1.0
  C  C53  1  0.25001000  0.68699000  0.06554000  1.0
  C  C54  1  0.24996000  0.18704000  0.43448000  1.0
  C  C55  1  0.75001000  0.31299000  0.93446000  1.0
  C  C56  1  0.74996000  0.70079000  0.46585000  1.0
  C  C57  1  0.24998000  0.79918000  0.96578000  1.0
  C  C58  1  0.24999000  0.29923000  0.53420000  1.0
  C  C59  1  0.75005000  0.20074000  0.03420000  1.0
  S  S60  1  0.74999000  0.25951000  0.51021000  1.0
  S  S61  1  0.25000000  0.24049000  0.01022000  1.0
  S  S62  1  0.24999000  0.74047000  0.48979000  1.0
  S  S63  1  0.75001000  0.75953000  0.98978000  1.0
  O  O64  1  0.74998000  0.78784000  0.68948000  1.0
  O  O65  1  0.25000000  0.71222000  0.18947000  1.0
  O  O66  1  0.24996000  0.21225000  0.31056000  1.0
  O  O67  1  0.74996000  0.28777000  0.81053000  1.0
  O  O68  1  0.74995000  0.93476000  0.52303000  1.0
  O  O69  1  0.25001000  0.56522000  0.02302000  1.0
  O  O70  1  0.24997000  0.06529000  0.47695000  1.0
  O  O71  1  0.75005000  0.43474000  0.97694000  1.0
