# generated using pymatgen
data_K3H5C6O7
_symmetry_space_group_name_H-M   'P 1'
_cell_length_a   7.60790000
_cell_length_b   10.45430000
_cell_length_c   12.45270000
_cell_angle_alpha   90.00000000
_cell_angle_beta   89.99990000
_cell_angle_gamma   89.99990000
_symmetry_Int_Tables_number   1
_chemical_formula_structural   K3H5C6O7
_chemical_formula_sum   'K12 H20 C24 O28'
_cell_volume   990.42884390
_cell_formula_units_Z   4
loop_
 _symmetry_equiv_pos_site_id
 _symmetry_equiv_pos_as_xyz
  1  'x, y, z'
loop_
 _atom_site_type_symbol
 _atom_site_label
 _atom_site_symmetry_multiplicity
 _atom_site_fract_x
 _atom_site_fract_y
 _atom_site_fract_z
 _atom_site_occupancy
  K  K0  1  0.35172000  0.24917000  0.87794000  1.0
  K  K1  1  0.14828000  0.74918000  0.37794000  1.0
  K  K2  1  0.85172000  0.24918000  0.62205000  1.0
  K  K3  1  0.64829000  0.74917000  0.12206000  1.0
  K  K4  1  0.64462000  0.97274000  0.79057000  1.0
  K  K5  1  0.85538000  0.47274000  0.29057000  1.0
  K  K6  1  0.14462000  0.97273000  0.70943000  1.0
  K  K7  1  0.35538000  0.47275000  0.20943000  1.0
  K  K8  1  0.85268000  0.69835000  0.62424000  1.0
  K  K9  1  0.64732000  0.19835000  0.12424000  1.0
  K  K10  1  0.35268000  0.69834000  0.87576000  1.0
  K  K11  1  0.14733000  0.19833000  0.37576000  1.0
  H  H12  1  0.05478000  0.57349000  0.87474000  1.0
  H  H13  1  0.44522000  0.07349000  0.37473000  1.0
  H  H14  1  0.55478000  0.57349000  0.62527000  1.0
  H  H15  1  0.94521000  0.07349000  0.12526000  1.0
  H  H16  1  0.95718000  0.59339000  0.00322000  1.0
  H  H17  1  0.54282000  0.09339000  0.50322000  1.0
  H  H18  1  0.45717000  0.59339000  0.49678000  1.0
  H  H19  1  0.04282000  0.09339000  0.99678000  1.0
  H  H20  1  0.96466000  0.34974000  0.99725000  1.0
  H  H21  1  0.53533000  0.84974000  0.49725000  1.0
  H  H22  1  0.46466000  0.34974000  0.50275000  1.0
  H  H23  1  0.03534000  0.84974000  0.00276000  1.0
  H  H24  1  0.04888000  0.36949000  0.86495000  1.0
  H  H25  1  0.45112000  0.86949000  0.36495000  1.0
  H  H26  1  0.54888000  0.36949000  0.63506000  1.0
  H  H27  1  0.95113000  0.86949000  0.13506000  1.0
  H  H28  1  0.61799000  0.47630000  0.80177000  1.0
  H  H29  1  0.88201000  0.97631000  0.30177000  1.0
  H  H30  1  0.11798000  0.47630000  0.69823000  1.0
  H  H31  1  0.38201000  0.97631000  0.19823000  1.0
  C  C32  1  0.85333000  0.71725000  0.87902000  1.0
  C  C33  1  0.64667000  0.21725000  0.37902000  1.0
  C  C34  1  0.35333000  0.71725000  0.62098000  1.0
  C  C35  1  0.14667000  0.21725000  0.12098000  1.0
  C  C36  1  0.92989000  0.58983000  0.91646000  1.0
  C  C37  1  0.57011000  0.08983000  0.41646000  1.0
  C  C38  1  0.42989000  0.58983000  0.58354000  1.0
  C  C39  1  0.07011000  0.08984000  0.08354000  1.0
  C  C40  1  0.81255000  0.47282000  0.89584000  1.0
  C  C41  1  0.68745000  0.97282000  0.39584000  1.0
  C  C42  1  0.31254000  0.47282000  0.60416000  1.0
  C  C43  1  0.18745000  0.97282000  0.10416000  1.0
  C  C44  1  0.92850000  0.35428000  0.91173000  1.0
  C  C45  1  0.57150000  0.85427000  0.41173000  1.0
  C  C46  1  0.42850000  0.35427000  0.58827000  1.0
  C  C47  1  0.07150000  0.85427000  0.08827000  1.0
  C  C48  1  0.84703000  0.22730000  0.87721000  1.0
  C  C49  1  0.65297000  0.72730000  0.37721000  1.0
  C  C50  1  0.34703000  0.22730000  0.62279000  1.0
  C  C51  1  0.15298000  0.72730000  0.12279000  1.0
  C  C52  1  0.65044000  0.47227000  0.97277000  1.0
  C  C53  1  0.84956000  0.97227000  0.47277000  1.0
  C  C54  1  0.15045000  0.47227000  0.52723000  1.0
  C  C55  1  0.34955000  0.97227000  0.02723000  1.0
  O  O56  1  0.69944000  0.74691000  0.90987000  1.0
  O  O57  1  0.80056000  0.24690000  0.40987000  1.0
  O  O58  1  0.19944000  0.74691000  0.59014000  1.0
  O  O59  1  0.30056000  0.24691000  0.09013000  1.0
  O  O60  1  0.95017000  0.78693000  0.81916000  1.0
  O  O61  1  0.54983000  0.28693000  0.31916000  1.0
  O  O62  1  0.45018000  0.78693000  0.68084000  1.0
  O  O63  1  0.04983000  0.28694000  0.18084000  1.0
  O  O64  1  0.93951000  0.15541000  0.81658000  1.0
  O  O65  1  0.56049000  0.65541000  0.31658000  1.0
  O  O66  1  0.43951000  0.15541000  0.68342000  1.0
  O  O67  1  0.06050000  0.65541000  0.18343000  1.0
  O  O68  1  0.69431000  0.19978000  0.91116000  1.0
  O  O69  1  0.80569000  0.69978000  0.41116000  1.0
  O  O70  1  0.19432000  0.19978000  0.58884000  1.0
  O  O71  1  0.30569000  0.69978000  0.08884000  1.0
  O  O72  1  0.67657000  0.47131000  0.07324000  1.0
  O  O73  1  0.82343000  0.97131000  0.57324000  1.0
  O  O74  1  0.17658000  0.47131000  0.42676000  1.0
  O  O75  1  0.32342000  0.97131000  0.92676000  1.0
  O  O76  1  0.50203000  0.47343000  0.92549000  1.0
  O  O77  1  0.99796000  0.97343000  0.42549000  1.0
  O  O78  1  0.00203000  0.47343000  0.57451000  1.0
  O  O79  1  0.49796000  0.97344000  0.07451000  1.0
  O  O80  1  0.74689000  0.47534000  0.78698000  1.0
  O  O81  1  0.75311000  0.97533000  0.28698000  1.0
  O  O82  1  0.24688000  0.47533000  0.71302000  1.0
  O  O83  1  0.25311000  0.97534000  0.21302000  1.0
