# generated using pymatgen
data_LiH10C11N4
_symmetry_space_group_name_H-M   'P 1'
_cell_length_a   7.73286000
_cell_length_b   8.68809000
_cell_length_c   16.12260000
_cell_angle_alpha   90.00000000
_cell_angle_beta   98.33480000
_cell_angle_gamma   90.00000000
_symmetry_Int_Tables_number   1
_chemical_formula_structural   LiH10C11N4
_chemical_formula_sum   'Li4 H40 C44 N16'
_cell_volume   1071.73667405
_cell_formula_units_Z   4
loop_
 _symmetry_equiv_pos_site_id
 _symmetry_equiv_pos_as_xyz
  1  'x, y, z'
loop_
 _atom_site_type_symbol
 _atom_site_label
 _atom_site_symmetry_multiplicity
 _atom_site_fract_x
 _atom_site_fract_y
 _atom_site_fract_z
 _atom_site_occupancy
  Li  Li0  1  0.71629000  0.15638000  0.62551000  1.0
  Li  Li1  1  0.78371000  0.65638000  0.87449000  1.0
  Li  Li2  1  0.28370000  0.84362000  0.37449000  1.0
  Li  Li3  1  0.21629000  0.34362000  0.12551000  1.0
  H  H4  1  0.16534000  0.29939000  0.41844000  1.0
  H  H5  1  0.33467000  0.79939000  0.08157000  1.0
  H  H6  1  0.83466000  0.70061000  0.58156000  1.0
  H  H7  1  0.66533000  0.20061000  0.91844000  1.0
  H  H8  1  0.28327000  0.47650000  0.43000000  1.0
  H  H9  1  0.21674000  0.97651000  0.07000000  1.0
  H  H10  1  0.71673000  0.52350000  0.57000000  1.0
  H  H11  1  0.78326000  0.02349000  0.93000000  1.0
  H  H12  1  0.33706000  0.33506000  0.35812000  1.0
  H  H13  1  0.16295000  0.83507000  0.14189000  1.0
  H  H14  1  0.66294000  0.66494000  0.64189000  1.0
  H  H15  1  0.83705000  0.16494000  0.85811000  1.0
  H  H16  1  0.18031000  0.04864000  0.91989000  1.0
  H  H17  1  0.31968000  0.54864000  0.58011000  1.0
  H  H18  1  0.81969000  0.95137000  0.08012000  1.0
  H  H19  1  0.68032000  0.45136000  0.41988000  1.0
  H  H20  1  0.15241000  0.24024000  0.80455000  1.0
  H  H21  1  0.34759000  0.74024000  0.69545000  1.0
  H  H22  1  0.84760000  0.75976000  0.19545000  1.0
  H  H23  1  0.65241000  0.25976000  0.30455000  1.0
  H  H24  1  0.83805000  0.84738000  0.72683000  1.0
  H  H25  1  0.66195000  0.34738000  0.77317000  1.0
  H  H26  1  0.16195000  0.15262000  0.27317000  1.0
  H  H27  1  0.33805000  0.65262000  0.22683000  1.0
  H  H28  1  0.70242000  0.06472000  0.43906000  1.0
  H  H29  1  0.79758000  0.56472000  0.06095000  1.0
  H  H30  1  0.29758000  0.93529000  0.56095000  1.0
  H  H31  1  0.20242000  0.43528000  0.93906000  1.0
  H  H32  1  0.35740000  0.23965000  0.69952000  1.0
  H  H33  1  0.14259000  0.73965000  0.80048000  1.0
  H  H34  1  0.64260000  0.76035000  0.30048000  1.0
  H  H35  1  0.85740000  0.26035000  0.19952000  1.0
  H  H36  1  0.07916000  0.03196000  0.65073000  1.0
  H  H37  1  0.42084000  0.53196000  0.84927000  1.0
  H  H38  1  0.92084000  0.96805000  0.34927000  1.0
  H  H39  1  0.57916000  0.46804000  0.15073000  1.0
  H  H40  1  0.41255000  0.84696000  0.93256000  1.0
  H  H41  1  0.08745000  0.34696000  0.56744000  1.0
  H  H42  1  0.58745000  0.15304000  0.06744000  1.0
  H  H43  1  0.91255000  0.65304000  0.43256000  1.0
  C  C44  1  0.29457000  0.35227000  0.41958000  1.0
  C  C45  1  0.20543000  0.85226000  0.08042000  1.0
  C  C46  1  0.70543000  0.64774000  0.58042000  1.0
  C  C47  1  0.79457000  0.14773000  0.91958000  1.0
  C  C48  1  0.27054000  0.04339000  0.87394000  1.0
  C  C49  1  0.22946000  0.54339000  0.62606000  1.0
  C  C50  1  0.72946000  0.95661000  0.12606000  1.0
  C  C51  1  0.77054000  0.45661000  0.37394000  1.0
  C  C52  1  0.25503000  0.15318000  0.80870000  1.0
  C  C53  1  0.24497000  0.65318000  0.69130000  1.0
  C  C54  1  0.74497000  0.84682000  0.19130000  1.0
  C  C55  1  0.75503000  0.34682000  0.30870000  1.0
  C  C56  1  0.72057000  0.89393000  0.74750000  1.0
  C  C57  1  0.77943000  0.39393000  0.75250000  1.0
  C  C58  1  0.27943000  0.10607000  0.25250000  1.0
  C  C59  1  0.22057000  0.60607000  0.24749000  1.0
  C  C60  1  0.83585000  0.03606000  0.46641000  1.0
  C  C61  1  0.66415000  0.53605000  0.03359000  1.0
  C  C62  1  0.16415000  0.96395000  0.53359000  1.0
  C  C63  1  0.33585000  0.46394000  0.96641000  1.0
  C  C64  1  0.36901000  0.15298000  0.74903000  1.0
  C  C65  1  0.13099000  0.65297000  0.75097000  1.0
  C  C66  1  0.63099000  0.84703000  0.25097000  1.0
  C  C67  1  0.86902000  0.34703000  0.24903000  1.0
  C  C68  1  0.41885000  0.28447000  0.48447000  1.0
  C  C69  1  0.08115000  0.78447000  0.01554000  1.0
  C  C70  1  0.58114000  0.71553000  0.51554000  1.0
  C  C71  1  0.91885000  0.21552000  0.98446000  1.0
  C  C72  1  0.04304000  0.01682000  0.58321000  1.0
  C  C73  1  0.45697000  0.51682000  0.91679000  1.0
  C  C74  1  0.95697000  0.98318000  0.41679000  1.0
  C  C75  1  0.54303000  0.48318000  0.08321000  1.0
  C  C76  1  0.51403000  0.92708000  0.82136000  1.0
  C  C77  1  0.98597000  0.42708000  0.67864000  1.0
  C  C78  1  0.48597000  0.07292000  0.17864000  1.0
  C  C79  1  0.01403000  0.57292000  0.32136000  1.0
  C  C80  1  0.39929000  0.92980000  0.88122000  1.0
  C  C81  1  0.10071000  0.42980000  0.61878000  1.0
  C  C82  1  0.60071000  0.07020000  0.11878000  1.0
  C  C83  1  0.89929000  0.57020000  0.38122000  1.0
  C  C84  1  0.49925000  0.03919000  0.75557000  1.0
  C  C85  1  0.00074000  0.53919000  0.74443000  1.0
  C  C86  1  0.50075000  0.96081000  0.24443000  1.0
  C  C87  1  0.99925000  0.46081000  0.25557000  1.0
  N  N88  1  0.63341000  0.01476000  0.70874000  1.0
  N  N89  1  0.86659000  0.51476000  0.79126000  1.0
  N  N90  1  0.36659000  0.98524000  0.29126000  1.0
  N  N91  1  0.13341000  0.48524000  0.20874000  1.0
  N  N92  1  0.52043000  0.23231000  0.53724000  1.0
  N  N93  1  0.97958000  0.73231000  0.96277000  1.0
  N  N94  1  0.47957000  0.76770000  0.46276000  1.0
  N  N95  1  0.02042000  0.26769000  0.03724000  1.0
  N  N96  1  0.87867000  0.05291000  0.54967000  1.0
  N  N97  1  0.62133000  0.55291000  0.95033000  1.0
  N  N98  1  0.12133000  0.94709000  0.45033000  1.0
  N  N99  1  0.37867000  0.44709000  0.04967000  1.0
  N  N100  1  0.65726000  0.83487000  0.81471000  1.0
  N  N101  1  0.84274000  0.33488000  0.68529000  1.0
  N  N102  1  0.34274000  0.16512000  0.18529000  1.0
  N  N103  1  0.15726000  0.66512000  0.31470000  1.0
