# generated using pymatgen
data_Al3H10C45I15O14
_symmetry_space_group_name_H-M   'P 1'
_cell_length_a   16.37159679
_cell_length_b   16.51010000
_cell_length_c   26.54940000
_cell_angle_alpha   90.34280000
_cell_angle_beta   90.15124734
_cell_angle_gamma   60.73625853
_symmetry_Int_Tables_number   1
_chemical_formula_structural   Al3H10C45I15O14
_chemical_formula_sum   'Al6 H20 C90 I30 O28'
_cell_volume   6260.26558830
_cell_formula_units_Z   2
loop_
 _symmetry_equiv_pos_site_id
 _symmetry_equiv_pos_as_xyz
  1  'x, y, z'
loop_
 _atom_site_type_symbol
 _atom_site_label
 _atom_site_symmetry_multiplicity
 _atom_site_fract_x
 _atom_site_fract_y
 _atom_site_fract_z
 _atom_site_occupancy
  Al  Al0  1  0.73389000  0.75004000  0.49138000  1.0
  Al  Al1  1  0.73753000  0.55244000  0.49826000  1.0
  Al  Al2  1  0.55316000  0.72896000  0.49775000  1.0
  Al  Al3  1  0.48289000  0.26304000  0.00020000  1.0
  Al  Al4  1  0.28619000  0.45028000  0.99781000  1.0
  Al  Al5  1  0.28392000  0.27034000  0.99783000  1.0
  H  H6  1  0.29553000  0.69602000  0.28100000  1.0
  H  H7  1  0.32134000  0.71309000  0.21810000  1.0
  H  H8  1  0.26583000  0.64500000  0.22977000  1.0
  H  H9  1  0.69343000  0.01098000  0.27370000  1.0
  H  H10  1  0.70999000  0.96480000  0.21146000  1.0
  H  H11  1  0.64270000  0.08714000  0.22152000  1.0
  H  H12  1  0.00828000  0.29221000  0.26978000  1.0
  H  H13  1  0.96387000  0.32173000  0.20734000  1.0
  H  H14  1  0.08722000  0.26488000  0.21828000  1.0
  H  H15  1  0.99035000  0.30171000  0.78132000  1.0
  H  H16  1  0.91051000  0.35186000  0.73015000  1.0
  H  H17  1  0.03325000  0.28413000  0.71834000  1.0
  H  H18  1  0.70416000  0.99169000  0.77366000  1.0
  H  H19  1  0.72917000  0.91444000  0.72159000  1.0
  H  H20  1  0.67523000  0.03670000  0.71142000  1.0
  H  H21  1  0.30158000  0.70725000  0.77059000  1.0
  H  H22  1  0.35362000  0.73449000  0.71923000  1.0
  H  H23  1  0.28727000  0.67661000  0.70808000  1.0
  H  H24  1  0.80629000  0.83028000  0.52460000  1.0
  H  H25  1  0.63763000  0.20378000  0.97256000  1.0
  C  C26  1  0.55359000  0.85112000  0.43069000  1.0
  C  C27  1  0.84299000  0.59252000  0.42610000  1.0
  C  C28  1  0.60400000  0.55979000  0.43304000  1.0
  C  C29  1  0.40693000  0.14993000  0.93221000  1.0
  C  C30  1  0.43509000  0.41182000  0.92804000  1.0
  C  C31  1  0.16310000  0.44030000  0.93263000  1.0
  C  C32  1  0.58783000  0.84542000  0.56548000  1.0
  C  C33  1  0.85938000  0.54527000  0.56567000  1.0
  C  C34  1  0.56288000  0.59991000  0.56344000  1.0
  C  C35  1  0.43050000  0.15958000  0.06758000  1.0
  C  C36  1  0.40907000  0.44693000  0.06551000  1.0
  C  C37  1  0.16233000  0.40242000  0.06282000  1.0
  C  C38  1  0.44247000  0.49228000  0.28365000  1.0
  C  C39  1  0.48835000  0.06609000  0.27879000  1.0
  C  C40  1  0.07069000  0.43674000  0.27683000  1.0
  C  C41  1  0.93512000  0.50609000  0.78398000  1.0
  C  C42  1  0.55535000  0.93434000  0.77897000  1.0
  C  C43  1  0.50705000  0.56358000  0.77742000  1.0
  C  C44  1  0.41255000  0.57848000  0.24774000  1.0
  C  C45  1  0.57403000  0.00948000  0.24213000  1.0
  C  C46  1  0.01261000  0.40937000  0.23931000  1.0
  C  C47  1  0.99088000  0.41914000  0.74820000  1.0
  C  C48  1  0.58387000  0.99166000  0.74238000  1.0
  C  C49  1  0.42232000  0.59018000  0.73995000  1.0
  C  C50  1  0.42890000  0.48198000  0.11096000  1.0
  C  C51  1  0.46425000  0.09600000  0.10921000  1.0
  C  C52  1  0.10136000  0.42726000  0.10576000  1.0
  C  C53  1  0.91255000  0.50877000  0.61138000  1.0
  C  C54  1  0.55983000  0.90603000  0.60862000  1.0
  C  C55  1  0.52746000  0.57440000  0.60648000  1.0
  C  C56  1  0.57925000  0.52352000  0.38982000  1.0
  C  C57  1  0.51617000  0.90851000  0.38711000  1.0
  C  C58  1  0.90546000  0.56406000  0.38356000  1.0
  C  C59  1  0.10235000  0.47575000  0.88968000  1.0
  C  C60  1  0.42775000  0.09237000  0.88798000  1.0
  C  C61  1  0.46796000  0.43829000  0.88423000  1.0
  C  C62  1  0.49695000  0.42382000  0.23920000  1.0
  C  C63  1  0.41779000  0.07836000  0.23556000  1.0
  C  C64  1  0.08648000  0.49317000  0.23420000  1.0
  C  C65  1  0.92207000  0.57348000  0.73935000  1.0
  C  C66  1  0.49752000  0.92061000  0.73585000  1.0
  C  C67  1  0.57890000  0.50711000  0.73465000  1.0
  C  C68  1  0.46734000  0.50959000  0.20287000  1.0
  C  C69  1  0.50304000  0.02143000  0.19825000  1.0
  C  C70  1  0.02845000  0.46630000  0.19606000  1.0
  C  C71  1  0.97758000  0.48693000  0.70318000  1.0
  C  C72  1  0.52523000  0.97832000  0.69868000  1.0
  C  C73  1  0.49473000  0.53335000  0.69652000  1.0
  C  C74  1  0.58881000  0.42565000  0.25450000  1.0
  C  C75  1  0.41888000  0.98654000  0.25185000  1.0
  C  C76  1  0.99496000  0.58349000  0.25064000  1.0
  C  C77  1  0.01532000  0.57260000  0.75451000  1.0
  C  C78  1  0.40727000  0.01177000  0.75267000  1.0
  C  C79  1  0.57687000  0.41666000  0.75070000  1.0
  C  C80  1  0.53501000  0.49379000  0.29965000  1.0
  C  C81  1  0.48878000  0.97434000  0.29590000  1.0
  C  C82  1  0.97944000  0.52731000  0.29397000  1.0
  C  C83  1  0.02879000  0.50545000  0.79980000  1.0
  C  C84  1  0.46474000  0.02543000  0.79660000  1.0
  C  C85  1  0.50549000  0.47274000  0.79419000  1.0
  C  C86  1  0.55973000  0.51138000  0.21833000  1.0
  C  C87  1  0.50432000  0.92932000  0.21510000  1.0
  C  C88  1  0.93648000  0.55707000  0.21298000  1.0
  C  C89  1  0.07136000  0.48613000  0.71840000  1.0
  C  C90  1  0.43486000  0.06972000  0.71598000  1.0
  C  C91  1  0.49277000  0.44235000  0.71299000  1.0
  C  C92  1  0.50501000  0.57934000  0.26288000  1.0
  C  C93  1  0.57421000  0.91814000  0.25866000  1.0
  C  C94  1  0.92182000  0.50034000  0.25577000  1.0
  C  C95  1  0.08382000  0.41911000  0.76309000  1.0
  C  C96  1  0.49315000  0.08236000  0.75934000  1.0
  C  C97  1  0.42172000  0.49904000  0.75599000  1.0
  C  C98  1  0.44049000  0.50505000  0.15287000  1.0
  C  C99  1  0.49469000  0.05415000  0.14854000  1.0
  C  C100  1  0.06150000  0.44103000  0.14623000  1.0
  C  C101  1  0.94667000  0.48881000  0.65335000  1.0
  C  C102  1  0.54910000  0.94634000  0.64871000  1.0
  C  C103  1  0.50240000  0.55914000  0.64686000  1.0
  C  C104  1  0.56379000  0.49905000  0.34913000  1.0
  C  C105  1  0.49327000  0.94405000  0.34572000  1.0
  C  C106  1  0.94637000  0.55236000  0.34363000  1.0
  C  C107  1  0.06248000  0.50095000  0.84924000  1.0
  C  C108  1  0.43957000  0.05599000  0.84663000  1.0
  C  C109  1  0.49715000  0.44841000  0.84390000  1.0
  C  C110  1  0.31838000  0.66266000  0.24387000  1.0
  C  C111  1  0.65959000  0.01902000  0.23684000  1.0
  C  C112  1  0.01872000  0.31672000  0.23321000  1.0
  C  C113  1  0.98030000  0.33463000  0.74426000  1.0
  C  C114  1  0.67851000  0.98284000  0.73685000  1.0
  C  C115  1  0.33667000  0.68246000  0.73401000  1.0
  I  I116  1  0.35696000  0.47558000  0.33692000  1.0
  I  I117  1  0.47405000  0.16729000  0.33192000  1.0
  I  I118  1  0.16939000  0.35121000  0.33063000  1.0
  I  I119  1  0.83280000  0.52391000  0.83741000  1.0
  I  I120  1  0.64239000  0.83405000  0.83145000  1.0
  I  I121  1  0.52048000  0.65011000  0.83145000  1.0
  I  I122  1  0.51415000  0.69574000  0.28723000  1.0
  I  I123  1  0.69319000  0.79690000  0.28257000  1.0
  I  I124  1  0.79586000  0.50890000  0.27921000  1.0
  I  I125  1  0.20761000  0.30338000  0.78747000  1.0
  I  I126  1  0.48902000  0.20558000  0.78334000  1.0
  I  I127  1  0.30436000  0.49004000  0.77924000  1.0
  I  I128  1  0.64161000  0.52828000  0.16313000  1.0
  I  I129  1  0.51948000  0.82723000  0.16273000  1.0
  I  I130  1  0.83529000  0.64467000  0.16112000  1.0
  I  I131  1  0.16990000  0.46884000  0.66303000  1.0
  I  I132  1  0.34822000  0.17067000  0.66397000  1.0
  I  I133  1  0.47900000  0.35402000  0.66068000  1.0
  I  I134  1  0.72068000  0.30656000  0.26030000  1.0
  I  I135  1  0.29891000  0.97251000  0.25992000  1.0
  I  I136  1  0.98318000  0.71499000  0.25990000  1.0
  I  I137  1  0.02891000  0.69236000  0.76010000  1.0
  I  I138  1  0.27425000  0.02398000  0.76093000  1.0
  I  I139  1  0.69582000  0.28582000  0.75937000  1.0
  I  I140  1  0.48842000  0.30766000  0.21445000  1.0
  I  I141  1  0.30247000  0.20215000  0.21200000  1.0
  I  I142  1  0.21401000  0.48240000  0.21201000  1.0
  I  I143  1  0.79881000  0.68896000  0.71480000  1.0
  I  I144  1  0.50711000  0.79549000  0.71163000  1.0
  I  I145  1  0.69589000  0.51764000  0.71250000  1.0
  O  O146  1  0.80200000  0.67890000  0.43524000  1.0
  O  O147  1  0.68614000  0.50746000  0.45150000  1.0
  O  O148  1  0.50512000  0.81418000  0.44727000  1.0
  O  O149  1  0.48473000  0.32761000  0.94083000  1.0
  O  O150  1  0.19153000  0.49476000  0.95120000  1.0
  O  O151  1  0.32051000  0.18519000  0.94758000  1.0
  O  O152  1  0.63108000  0.83801000  0.44817000  1.0
  O  O153  1  0.83151000  0.53132000  0.44963000  1.0
  O  O154  1  0.54616000  0.64091000  0.44863000  1.0
  O  O155  1  0.46873000  0.16503000  0.95103000  1.0
  O  O156  1  0.35936000  0.47241000  0.94941000  1.0
  O  O157  1  0.18763000  0.35894000  0.94801000  1.0
  O  O158  1  0.84782000  0.62005000  0.54816000  1.0
  O  O159  1  0.64503000  0.54543000  0.54794000  1.0
  O  O160  1  0.52816000  0.82637000  0.54499000  1.0
  O  O161  1  0.47011000  0.37034000  0.04761000  1.0
  O  O162  1  0.18873000  0.45861000  0.04745000  1.0
  O  O163  1  0.35429000  0.17519000  0.04564000  1.0
  O  O164  1  0.67245000  0.81372000  0.55209000  1.0
  O  O165  1  0.82273000  0.49602000  0.54743000  1.0
  O  O166  1  0.50729000  0.68097000  0.54489000  1.0
  O  O167  1  0.47988000  0.19708000  0.05744000  1.0
  O  O168  1  0.32494000  0.49861000  0.04792000  1.0
  O  O169  1  0.18899000  0.32067000  0.04435000  1.0
  O  O170  1  0.67661000  0.67529000  0.49776000  1.0
  O  O171  1  0.35006000  0.32821000  0.99829000  1.0
  O  O172  1  0.80811000  0.79744000  0.49397000  1.0
  O  O173  1  0.60487000  0.19988000  0.00189000  1.0
