# generated using pymatgen
data_CuH4(C3N)3
_symmetry_space_group_name_H-M   'P 1'
_cell_length_a   33.70830000
_cell_length_b   34.08920000
_cell_length_c   34.13940000
_cell_angle_alpha   89.98890000
_cell_angle_beta   89.95120000
_cell_angle_gamma   89.99770000
_symmetry_Int_Tables_number   1
_chemical_formula_structural   CuH4(C3N)3
_chemical_formula_sum   'Cu12 H48 C108 N36'
_cell_volume   39229.19333960
_cell_formula_units_Z   12
loop_
 _symmetry_equiv_pos_site_id
 _symmetry_equiv_pos_as_xyz
  1  'x, y, z'
loop_
 _atom_site_type_symbol
 _atom_site_label
 _atom_site_symmetry_multiplicity
 _atom_site_fract_x
 _atom_site_fract_y
 _atom_site_fract_z
 _atom_site_occupancy
  Cu  Cu0  1  0.62496000  0.33876000  0.41108000  1.0
  Cu  Cu1  1  0.66344000  0.41477000  0.37357000  1.0
  Cu  Cu2  1  0.58632000  0.37613000  0.33488000  1.0
  Cu  Cu3  1  0.37528000  0.83897000  0.08827000  1.0
  Cu  Cu4  1  0.33686000  0.91510000  0.12583000  1.0
  Cu  Cu5  1  0.41403000  0.87655000  0.16407000  1.0
  Cu  Cu6  1  0.12446000  0.16084000  0.58822000  1.0
  Cu  Cu7  1  0.16390000  0.08552000  0.62651000  1.0
  Cu  Cu8  1  0.08656000  0.12403000  0.66510000  1.0
  Cu  Cu9  1  0.87583000  0.66053000  0.91246000  1.0
  Cu  Cu10  1  0.83638000  0.58514000  0.87410000  1.0
  Cu  Cu11  1  0.91379000  0.62367000  0.83594000  1.0
  H  H12  1  0.68269000  0.32468000  0.48324000  1.0
  H  H13  1  0.73602000  0.42858000  0.43238000  1.0
  H  H14  1  0.51397000  0.31742000  0.32126000  1.0
  H  H15  1  0.56713000  0.26666000  0.42512000  1.0
  H  H16  1  0.67699000  0.48646000  0.31545000  1.0
  H  H17  1  0.57267000  0.43383000  0.26322000  1.0
  H  H18  1  0.31737000  0.82485000  0.01652000  1.0
  H  H19  1  0.26423000  0.92879000  0.06750000  1.0
  H  H20  1  0.48660000  0.81771000  0.17747000  1.0
  H  H21  1  0.43290000  0.76682000  0.07396000  1.0
  H  H22  1  0.32318000  0.98680000  0.18361000  1.0
  H  H23  1  0.42781000  0.93453000  0.23568000  1.0
  H  H24  1  0.18216000  0.17464000  0.51582000  1.0
  H  H25  1  0.23693000  0.07226000  0.56814000  1.0
  H  H26  1  0.01430000  0.18301000  0.67910000  1.0
  H  H27  1  0.06605000  0.23257000  0.57391000  1.0
  H  H28  1  0.17777000  0.01406000  0.68474000  1.0
  H  H29  1  0.07319000  0.06637000  0.73699000  1.0
  H  H30  1  0.81801000  0.67433000  0.98452000  1.0
  H  H31  1  0.76332000  0.57200000  0.93204000  1.0
  H  H32  1  0.98623000  0.68281000  0.82217000  1.0
  H  H33  1  0.93401000  0.73233000  0.92715000  1.0
  H  H34  1  0.82238000  0.51379000  0.81605000  1.0
  H  H35  1  0.92719000  0.56585000  0.76397000  1.0
  H  H36  1  0.21367000  0.92655000  0.91382000  1.0
  H  H37  1  0.16276000  0.82463000  0.96441000  1.0
  H  H38  1  0.08800000  0.78638000  0.92646000  1.0
  H  H39  1  0.03666000  0.83666000  0.82474000  1.0
  H  H40  1  0.07435000  0.91197000  0.78740000  1.0
  H  H41  1  0.17611000  0.96363000  0.83914000  1.0
  H  H42  1  0.78625000  0.42634000  0.58666000  1.0
  H  H43  1  0.83737000  0.32444000  0.53620000  1.0
  H  H44  1  0.91224000  0.28614000  0.57450000  1.0
  H  H45  1  0.96298000  0.33662000  0.67638000  1.0
  H  H46  1  0.92530000  0.41154000  0.71347000  1.0
  H  H47  1  0.82370000  0.46345000  0.66167000  1.0
  H  H48  1  0.71313000  0.57345000  0.08632000  1.0
  H  H49  1  0.66232000  0.67541000  0.03574000  1.0
  H  H50  1  0.58756000  0.71368000  0.07368000  1.0
  H  H51  1  0.53607000  0.66343000  0.17541000  1.0
  H  H52  1  0.57361000  0.58821000  0.21275000  1.0
  H  H53  1  0.67543000  0.53643000  0.16105000  1.0
  H  H54  1  0.28671000  0.07375000  0.41328000  1.0
  H  H55  1  0.33791000  0.17558000  0.46372000  1.0
  H  H56  1  0.41269000  0.21386000  0.42544000  1.0
  H  H57  1  0.46347000  0.16354000  0.32342000  1.0
  H  H58  1  0.42596000  0.08884000  0.28631000  1.0
  H  H59  1  0.32433000  0.03669000  0.33796000  1.0
  C  C60  1  0.69067000  0.35008000  0.46579000  1.0
  C  C61  1  0.72235000  0.37655000  0.47093000  1.0
  C  C62  1  0.71799000  0.40325000  0.43969000  1.0
  C  C63  1  0.53197000  0.31016000  0.34657000  1.0
  C  C64  1  0.52760000  0.27896000  0.37330000  1.0
  C  C65  1  0.55923000  0.28411000  0.39973000  1.0
  C  C66  1  0.65154000  0.46857000  0.30780000  1.0
  C  C67  1  0.62484000  0.47305000  0.27639000  1.0
  C  C68  1  0.59814000  0.44161000  0.28101000  1.0
  C  C69  1  0.30948000  0.85026000  0.03398000  1.0
  C  C70  1  0.27781000  0.87674000  0.02900000  1.0
  C  C71  1  0.28225000  0.90348000  0.06015000  1.0
  C  C72  1  0.46845000  0.81043000  0.15227000  1.0
  C  C73  1  0.47267000  0.77918000  0.12558000  1.0
  C  C74  1  0.44094000  0.78430000  0.09929000  1.0
  C  C75  1  0.34873000  0.96903000  0.19125000  1.0
  C  C76  1  0.37551000  0.97362000  0.22256000  1.0
  C  C77  1  0.40229000  0.94223000  0.21794000  1.0
  C  C78  1  0.19045000  0.14959000  0.53362000  1.0
  C  C79  1  0.22259000  0.12357000  0.52891000  1.0
  C  C80  1  0.21850000  0.09719000  0.56047000  1.0
  C  C81  1  0.03196000  0.18999000  0.65345000  1.0
  C  C82  1  0.02719000  0.22091000  0.62644000  1.0
  C  C83  1  0.05849000  0.21541000  0.59961000  1.0
  C  C84  1  0.15224000  0.03185000  0.69241000  1.0
  C  C85  1  0.12552000  0.02729000  0.72384000  1.0
  C  C86  1  0.09872000  0.05866000  0.71919000  1.0
  C  C87  1  0.80978000  0.64930000  0.96668000  1.0
  C  C88  1  0.77763000  0.62331000  0.97123000  1.0
  C  C89  1  0.78174000  0.59691000  0.93975000  1.0
  C  C90  1  0.96847000  0.68975000  0.84775000  1.0
  C  C91  1  0.97310000  0.72068000  0.87476000  1.0
  C  C92  1  0.94171000  0.71517000  0.90149000  1.0
  C  C93  1  0.84799000  0.53150000  0.80840000  1.0
  C  C94  1  0.87475000  0.52690000  0.77702000  1.0
  C  C95  1  0.90163000  0.55820000  0.78172000  1.0
  C  C96  1  0.15994000  0.89265000  0.89343000  1.0
  C  C97  1  0.14259000  0.90977000  0.85882000  1.0
  C  C98  1  0.10773000  0.89209000  0.84120000  1.0
  C  C99  1  0.09043000  0.85734000  0.85835000  1.0
  C  C100  1  0.10793000  0.84012000  0.89319000  1.0
  C  C101  1  0.14255000  0.85775000  0.91069000  1.0
  C  C102  1  0.19232000  0.90290000  0.91592000  1.0
  C  C103  1  0.16495000  0.84808000  0.94311000  1.0
  C  C104  1  0.08564000  0.80761000  0.90298000  1.0
  C  C105  1  0.05807000  0.83466000  0.84830000  1.0
  C  C106  1  0.09783000  0.91439000  0.80889000  1.0
  C  C107  1  0.15255000  0.94217000  0.83666000  1.0
  C  C108  1  0.83992000  0.39247000  0.60717000  1.0
  C  C109  1  0.85718000  0.40958000  0.64188000  1.0
  C  C110  1  0.89198000  0.39185000  0.65958000  1.0
  C  C111  1  0.90935000  0.35715000  0.64248000  1.0
  C  C112  1  0.89201000  0.33993000  0.60758000  1.0
  C  C113  1  0.85740000  0.35757000  0.58994000  1.0
  C  C114  1  0.80761000  0.40270000  0.58456000  1.0
  C  C115  1  0.83506000  0.34791000  0.55746000  1.0
  C  C116  1  0.91442000  0.30743000  0.59794000  1.0
  C  C117  1  0.94170000  0.33455000  0.65273000  1.0
  C  C118  1  0.90185000  0.41404000  0.69195000  1.0
  C  C119  1  0.84720000  0.44193000  0.66412000  1.0
  C  C120  1  0.65940000  0.60737000  0.10669000  1.0
  C  C121  1  0.64198000  0.59029000  0.14130000  1.0
  C  C122  1  0.60711000  0.60799000  0.15892000  1.0
  C  C123  1  0.58987000  0.64271000  0.14176000  1.0
  C  C124  1  0.60743000  0.65990000  0.10693000  1.0
  C  C125  1  0.64206000  0.64228000  0.08944000  1.0
  C  C126  1  0.69180000  0.59711000  0.08420000  1.0
  C  C127  1  0.66450000  0.65195000  0.05702000  1.0
  C  C128  1  0.58519000  0.69243000  0.09715000  1.0
  C  C129  1  0.55752000  0.66539000  0.15185000  1.0
  C  C130  1  0.59713000  0.58575000  0.19126000  1.0
  C  C131  1  0.65190000  0.55793000  0.16350000  1.0
  C  C132  1  0.34040000  0.10760000  0.39269000  1.0
  C  C133  1  0.35769000  0.09057000  0.35792000  1.0
  C  C134  1  0.39250000  0.10833000  0.34024000  1.0
  C  C135  1  0.40983000  0.14297000  0.35737000  1.0
  C  C136  1  0.39247000  0.16013000  0.39231000  1.0
  C  C137  1  0.35787000  0.14248000  0.40994000  1.0
  C  C138  1  0.30807000  0.09738000  0.41535000  1.0
  C  C139  1  0.33557000  0.15212000  0.44247000  1.0
  C  C140  1  0.41486000  0.19261000  0.40197000  1.0
  C  C141  1  0.44217000  0.16557000  0.34710000  1.0
  C  C142  1  0.40246000  0.08626000  0.30782000  1.0
  C  C143  1  0.34779000  0.05826000  0.33558000  1.0
  C  C144  1  0.24852000  0.87644000  0.99968000  1.0
  C  C145  1  0.22323000  0.87603000  0.97429000  1.0
  C  C146  1  0.75158000  0.37626000  0.50045000  1.0
  C  C147  1  0.77677000  0.37585000  0.52599000  1.0
  C  C148  1  0.74823000  0.62365000  0.00050000  1.0
  C  C149  1  0.72285000  0.62401000  0.02586000  1.0
  C  C150  1  0.25195000  0.12387000  0.49947000  1.0
  C  C151  1  0.27722000  0.12423000  0.47397000  1.0
  C  C152  1  0.00226000  0.75031000  0.87502000  1.0
  C  C153  1  0.02737000  0.77598000  0.87531000  1.0
  C  C154  1  0.49836000  0.24950000  0.37360000  1.0
  C  C155  1  0.47310000  0.22401000  0.37399000  1.0
  C  C156  1  0.99794000  0.25043000  0.62622000  1.0
  C  C157  1  0.97270000  0.27598000  0.62588000  1.0
  C  C158  1  0.50181000  0.74963000  0.12523000  1.0
  C  C159  1  0.52693000  0.72401000  0.12486000  1.0
  C  C160  1  0.12547000  0.99810000  0.75306000  1.0
  C  C161  1  0.12530000  0.97286000  0.77829000  1.0
  C  C162  1  0.62477000  0.50219000  0.24718000  1.0
  C  C163  1  0.62458000  0.52737000  0.22191000  1.0
  C  C164  1  0.37542000  0.00277000  0.25177000  1.0
  C  C165  1  0.37523000  0.02791000  0.27707000  1.0
  C  C166  1  0.87464000  0.49774000  0.74779000  1.0
  C  C167  1  0.87452000  0.47252000  0.72256000  1.0
  N  N168  1  0.68625000  0.39338000  0.41793000  1.0
  N  N169  1  0.66940000  0.36031000  0.43407000  1.0
  N  N170  1  0.58054000  0.31586000  0.38946000  1.0
  N  N171  1  0.56372000  0.33192000  0.35643000  1.0
  N  N172  1  0.60825000  0.42033000  0.31265000  1.0
  N  N173  1  0.64146000  0.43697000  0.32922000  1.0
  N  N174  1  0.31406000  0.89358000  0.08176000  1.0
  N  N175  1  0.33085000  0.86053000  0.06560000  1.0
  N  N176  1  0.41972000  0.81607000  0.10961000  1.0
  N  N177  1  0.43668000  0.83223000  0.14252000  1.0
  N  N178  1  0.39215000  0.92085000  0.18638000  1.0
  N  N179  1  0.35885000  0.93741000  0.16991000  1.0
  N  N180  1  0.18650000  0.10684000  0.58201000  1.0
  N  N181  1  0.16917000  0.13943000  0.56541000  1.0
  N  N182  1  0.07995000  0.18378000  0.60991000  1.0
  N  N183  1  0.06357000  0.16808000  0.64339000  1.0
  N  N184  1  0.10876000  0.07995000  0.68752000  1.0
  N  N185  1  0.14205000  0.06339000  0.67096000  1.0
  N  N186  1  0.81383000  0.60653000  0.91837000  1.0
  N  N187  1  0.83113000  0.63908000  0.93499000  1.0
  N  N188  1  0.92035000  0.68352000  0.89110000  1.0
  N  N189  1  0.93684000  0.66779000  0.85770000  1.0
  N  N190  1  0.89159000  0.57953000  0.81338000  1.0
  N  N191  1  0.85823000  0.56301000  0.82984000  1.0
  N  N192  1  0.19533000  0.87567000  0.94626000  1.0
  N  N193  1  0.05516000  0.80427000  0.87555000  1.0
  N  N194  1  0.12521000  0.94499000  0.80614000  1.0
  N  N195  1  0.80463000  0.37549000  0.55416000  1.0
  N  N196  1  0.94478000  0.30415000  0.62553000  1.0
  N  N197  1  0.87449000  0.44465000  0.69472000  1.0
  N  N198  1  0.69487000  0.62434000  0.05387000  1.0
  N  N199  1  0.55470000  0.69575000  0.12460000  1.0
  N  N200  1  0.62450000  0.55518000  0.19403000  1.0
  N  N201  1  0.30512000  0.12457000  0.44579000  1.0
  N  N202  1  0.44520000  0.19589000  0.37434000  1.0
  N  N203  1  0.37513000  0.05567000  0.30499000  1.0
