# generated using pymatgen
data_Dy2H20C24N2O17
_symmetry_space_group_name_H-M   'P 1'
_cell_length_a   8.53383000
_cell_length_b   15.54020000
_cell_length_c   28.06630000
_cell_angle_alpha   90.00020000
_cell_angle_beta   90.00000000
_cell_angle_gamma   89.99960000
_symmetry_Int_Tables_number   1
_chemical_formula_structural   Dy2H20C24N2O17
_chemical_formula_sum   'Dy8 H80 C96 N8 O68'
_cell_volume   3722.08043421
_cell_formula_units_Z   4
loop_
 _symmetry_equiv_pos_site_id
 _symmetry_equiv_pos_as_xyz
  1  'x, y, z'
loop_
 _atom_site_type_symbol
 _atom_site_label
 _atom_site_symmetry_multiplicity
 _atom_site_fract_x
 _atom_site_fract_y
 _atom_site_fract_z
 _atom_site_occupancy
  Dy  Dy0  1  0.05161000  0.79583000  0.41334000  1.0
  Dy  Dy1  1  0.44839000  0.29583000  0.58666000  1.0
  Dy  Dy2  1  0.55159000  0.70417000  0.08666000  1.0
  Dy  Dy3  1  0.94839000  0.20418000  0.91334000  1.0
  Dy  Dy4  1  0.94840000  0.20417000  0.58666000  1.0
  Dy  Dy5  1  0.55161000  0.70417000  0.41334000  1.0
  Dy  Dy6  1  0.44839000  0.29584000  0.91334000  1.0
  Dy  Dy7  1  0.05161000  0.79583000  0.08666000  1.0
  H  H8  1  0.13639000  0.62865000  0.54780000  1.0
  H  H9  1  0.36362000  0.12866000  0.45220000  1.0
  H  H10  1  0.63639000  0.87134000  0.95221000  1.0
  H  H11  1  0.86362000  0.37135000  0.04780000  1.0
  H  H12  1  0.86362000  0.37134000  0.45220000  1.0
  H  H13  1  0.63639000  0.87134000  0.54779000  1.0
  H  H14  1  0.36360000  0.12865000  0.04779000  1.0
  H  H15  1  0.13638000  0.62867000  0.95220000  1.0
  H  H16  1  0.64312000  0.59264000  0.29923000  1.0
  H  H17  1  0.85690000  0.09264000  0.70077000  1.0
  H  H18  1  0.14310000  0.90734000  0.20077000  1.0
  H  H19  1  0.35689000  0.40735000  0.79924000  1.0
  H  H20  1  0.35689000  0.40735000  0.70077000  1.0
  H  H21  1  0.14311000  0.90735000  0.29924000  1.0
  H  H22  1  0.85689000  0.09265000  0.79924000  1.0
  H  H23  1  0.64311000  0.59264000  0.20076000  1.0
  H  H24  1  0.10203000  0.47658000  0.59873000  1.0
  H  H25  1  0.39798000  0.97658000  0.40128000  1.0
  H  H26  1  0.60203000  0.02341000  0.90127000  1.0
  H  H27  1  0.89797000  0.52342000  0.09872000  1.0
  H  H28  1  0.89797000  0.52342000  0.40127000  1.0
  H  H29  1  0.60206000  0.02342000  0.59872000  1.0
  H  H30  1  0.39795000  0.97658000  0.09872000  1.0
  H  H31  1  0.10205000  0.47659000  0.90128000  1.0
  H  H32  1  0.02849000  0.00683000  0.45272000  1.0
  H  H33  1  0.47150000  0.50683000  0.54728000  1.0
  H  H34  1  0.52848000  0.49316000  0.04727000  1.0
  H  H35  1  0.97150000  0.99317000  0.95272000  1.0
  H  H36  1  0.97152000  0.99317000  0.54728000  1.0
  H  H37  1  0.52849000  0.49316000  0.45272000  1.0
  H  H38  1  0.47151000  0.50683000  0.95274000  1.0
  H  H39  1  0.02849000  0.00683000  0.04728000  1.0
  H  H40  1  0.93268000  0.19519000  0.41291000  1.0
  H  H41  1  0.56733000  0.69519000  0.58709000  1.0
  H  H42  1  0.43266000  0.30482000  0.08709000  1.0
  H  H43  1  0.06732000  0.80481000  0.91290000  1.0
  H  H44  1  0.06732000  0.80481000  0.58709000  1.0
  H  H45  1  0.43268000  0.30481000  0.41291000  1.0
  H  H46  1  0.56732000  0.69518000  0.91292000  1.0
  H  H47  1  0.93267000  0.19519000  0.08709000  1.0
  H  H48  1  0.13254000  0.21320000  0.42831000  1.0
  H  H49  1  0.36747000  0.71320000  0.57169000  1.0
  H  H50  1  0.63252000  0.28680000  0.07168000  1.0
  H  H51  1  0.86747000  0.78680000  0.92830000  1.0
  H  H52  1  0.86746000  0.78680000  0.57169000  1.0
  H  H53  1  0.63254000  0.28680000  0.42831000  1.0
  H  H54  1  0.36746000  0.71320000  0.92832000  1.0
  H  H55  1  0.13254000  0.21320000  0.07169000  1.0
  H  H56  1  0.01349000  0.14488000  0.46439000  1.0
  H  H57  1  0.48651000  0.64488000  0.53562000  1.0
  H  H58  1  0.51347000  0.35512000  0.03560000  1.0
  H  H59  1  0.98651000  0.85512000  0.96438000  1.0
  H  H60  1  0.98650000  0.85513000  0.53561000  1.0
  H  H61  1  0.51349000  0.35512000  0.46439000  1.0
  H  H62  1  0.48650000  0.64488000  0.96440000  1.0
  H  H63  1  0.01349000  0.14487000  0.03561000  1.0
  H  H64  1  0.18300000  0.04739000  0.33553000  1.0
  H  H65  1  0.31700000  0.54740000  0.66447000  1.0
  H  H66  1  0.68302000  0.45262000  0.16445000  1.0
  H  H67  1  0.81700000  0.95261000  0.83553000  1.0
  H  H68  1  0.81700000  0.95261000  0.66446000  1.0
  H  H69  1  0.68299000  0.45260000  0.33553000  1.0
  H  H70  1  0.31697000  0.54739000  0.83555000  1.0
  H  H71  1  0.18299000  0.04740000  0.16447000  1.0
  H  H72  1  0.23661000  0.15495000  0.35206000  1.0
  H  H73  1  0.26340000  0.65496000  0.64794000  1.0
  H  H74  1  0.73663000  0.34506000  0.14792000  1.0
  H  H75  1  0.76338000  0.84506000  0.85206000  1.0
  H  H76  1  0.76338000  0.84505000  0.64793000  1.0
  H  H77  1  0.73660000  0.34504000  0.35206000  1.0
  H  H78  1  0.26336000  0.65495000  0.85208000  1.0
  H  H79  1  0.23660000  0.15495000  0.14794000  1.0
  H  H80  1  0.04556000  0.13369000  0.32873000  1.0
  H  H81  1  0.45445000  0.63370000  0.67128000  1.0
  H  H82  1  0.54558000  0.36631000  0.17126000  1.0
  H  H83  1  0.95444000  0.86631000  0.82872000  1.0
  H  H84  1  0.95444000  0.86631000  0.67127000  1.0
  H  H85  1  0.54553000  0.36630000  0.32873000  1.0
  H  H86  1  0.45442000  0.63369000  0.82874000  1.0
  H  H87  1  0.04554000  0.13369000  0.17127000  1.0
  C  C88  1  0.85057000  0.66424000  0.48989000  1.0
  C  C89  1  0.64945000  0.16424000  0.51011000  1.0
  C  C90  1  0.35055000  0.83576000  0.01011000  1.0
  C  C91  1  0.14945000  0.33576000  0.98989000  1.0
  C  C92  1  0.14944000  0.33576000  0.51011000  1.0
  C  C93  1  0.35056000  0.83577000  0.48989000  1.0
  C  C94  1  0.64944000  0.16423000  0.98989000  1.0
  C  C95  1  0.85056000  0.66424000  0.01011000  1.0
  C  C96  1  0.80502000  0.70048000  0.28914000  1.0
  C  C97  1  0.69499000  0.20049000  0.71086000  1.0
  C  C98  1  0.30500000  0.79949000  0.21086000  1.0
  C  C99  1  0.19498000  0.29952000  0.78914000  1.0
  C  C100  1  0.19499000  0.29951000  0.71086000  1.0
  C  C101  1  0.30501000  0.79949000  0.28915000  1.0
  C  C102  1  0.69498000  0.20049000  0.78914000  1.0
  C  C103  1  0.80502000  0.70048000  0.21086000  1.0
  C  C104  1  0.85149000  0.73401000  0.33583000  1.0
  C  C105  1  0.64851000  0.23401000  0.66417000  1.0
  C  C106  1  0.35148000  0.76596000  0.16417000  1.0
  C  C107  1  0.14851000  0.26599000  0.83583000  1.0
  C  C108  1  0.14851000  0.26598000  0.66417000  1.0
  C  C109  1  0.35149000  0.76597000  0.33584000  1.0
  C  C110  1  0.64852000  0.23404000  0.83583000  1.0
  C  C111  1  0.85150000  0.73401000  0.16417000  1.0
  C  C112  1  0.86924000  0.47912000  0.56625000  1.0
  C  C113  1  0.63077000  0.97911000  0.43375000  1.0
  C  C114  1  0.36924000  0.02088000  0.93374000  1.0
  C  C115  1  0.13077000  0.52089000  0.06625000  1.0
  C  C116  1  0.13076000  0.52089000  0.43375000  1.0
  C  C117  1  0.36926000  0.02089000  0.56625000  1.0
  C  C118  1  0.63075000  0.97911000  0.06625000  1.0
  C  C119  1  0.86924000  0.47912000  0.93375000  1.0
  C  C120  1  0.03434000  0.58744000  0.55056000  1.0
  C  C121  1  0.46568000  0.08744000  0.44944000  1.0
  C  C122  1  0.53434000  0.91256000  0.94944000  1.0
  C  C123  1  0.96567000  0.41256000  0.05056000  1.0
  C  C124  1  0.96567000  0.41256000  0.44944000  1.0
  C  C125  1  0.53434000  0.91256000  0.55056000  1.0
  C  C126  1  0.46565000  0.08744000  0.05056000  1.0
  C  C127  1  0.03433000  0.58745000  0.94944000  1.0
  C  C128  1  0.89598000  0.60004000  0.52610000  1.0
  C  C129  1  0.60403000  0.10005000  0.47390000  1.0
  C  C130  1  0.39597000  0.89996000  0.97390000  1.0
  C  C131  1  0.10403000  0.39996000  0.02610000  1.0
  C  C132  1  0.10403000  0.39996000  0.47390000  1.0
  C  C133  1  0.39598000  0.89996000  0.52610000  1.0
  C  C134  1  0.60402000  0.10004000  0.02610000  1.0
  C  C135  1  0.89597000  0.60005000  0.97390000  1.0
  C  C136  1  0.70902000  0.63347000  0.27519000  1.0
  C  C137  1  0.79099000  0.13347000  0.72481000  1.0
  C  C138  1  0.20899000  0.86651000  0.22481000  1.0
  C  C139  1  0.29100000  0.36653000  0.77520000  1.0
  C  C140  1  0.29099000  0.36652000  0.72481000  1.0
  C  C141  1  0.20901000  0.86651000  0.27520000  1.0
  C  C142  1  0.79100000  0.13348000  0.77520000  1.0
  C  C143  1  0.70901000  0.63346000  0.22481000  1.0
  C  C144  1  0.79537000  0.39600000  0.57789000  1.0
  C  C145  1  0.70464000  0.89599000  0.42211000  1.0
  C  C146  1  0.29538000  0.10400000  0.92210000  1.0
  C  C147  1  0.20462000  0.60401000  0.07789000  1.0
  C  C148  1  0.20462000  0.60401000  0.42211000  1.0
  C  C149  1  0.29540000  0.10401000  0.57789000  1.0
  C  C150  1  0.70462000  0.89599000  0.07789000  1.0
  C  C151  1  0.79539000  0.39600000  0.92211000  1.0
  C  C152  1  0.01712000  0.50972000  0.57653000  1.0
  C  C153  1  0.48289000  0.00972000  0.42347000  1.0
  C  C154  1  0.51712000  0.99027000  0.92346000  1.0
  C  C155  1  0.98289000  0.49029000  0.07653000  1.0
  C  C156  1  0.98288000  0.49028000  0.42347000  1.0
  C  C157  1  0.51714000  0.99028000  0.57653000  1.0
  C  C158  1  0.48286000  0.00971000  0.07653000  1.0
  C  C159  1  0.01713000  0.50972000  0.92347000  1.0
  C  C160  1  0.07141000  0.01069000  0.41578000  1.0
  C  C161  1  0.42858000  0.51069000  0.58422000  1.0
  C  C162  1  0.57141000  0.48931000  0.08421000  1.0
  C  C163  1  0.92857000  0.98931000  0.91578000  1.0
  C  C164  1  0.92859000  0.98931000  0.58422000  1.0
  C  C165  1  0.57142000  0.48931000  0.41578000  1.0
  C  C166  1  0.42857000  0.51068000  0.91580000  1.0
  C  C167  1  0.07141000  0.01069000  0.08422000  1.0
  C  C168  1  0.03860000  0.16481000  0.42777000  1.0
  C  C169  1  0.46140000  0.66481000  0.57224000  1.0
  C  C170  1  0.53859000  0.33519000  0.07223000  1.0
  C  C171  1  0.96140000  0.83520000  0.92776000  1.0
  C  C172  1  0.96140000  0.83520000  0.57223000  1.0
  C  C173  1  0.53859000  0.33519000  0.42777000  1.0
  C  C174  1  0.46140000  0.66481000  0.92778000  1.0
  C  C175  1  0.03859000  0.16480000  0.07223000  1.0
  C  C176  1  0.14068000  0.10772000  0.35100000  1.0
  C  C177  1  0.35933000  0.60773000  0.64900000  1.0
  C  C178  1  0.64070000  0.39228000  0.14899000  1.0
  C  C179  1  0.85932000  0.89228000  0.85099000  1.0
  C  C180  1  0.85932000  0.89228000  0.64900000  1.0
  C  C181  1  0.64067000  0.39227000  0.35100000  1.0
  C  C182  1  0.35930000  0.60772000  0.85102000  1.0
  C  C183  1  0.14067000  0.10772000  0.14900000  1.0
  N  N184  1  0.08553000  0.09130000  0.39912000  1.0
  N  N185  1  0.41448000  0.59130000  0.60088000  1.0
  N  N186  1  0.58554000  0.40871000  0.10087000  1.0
  N  N187  1  0.91446000  0.90871000  0.89912000  1.0
  N  N188  1  0.91447000  0.90871000  0.60087000  1.0
  N  N189  1  0.58552000  0.40870000  0.39912000  1.0
  N  N190  1  0.41445000  0.59129000  0.89914000  1.0
  N  N191  1  0.08552000  0.09129000  0.10088000  1.0
  O  O192  1  0.79350000  0.70038000  0.37361000  1.0
  O  O193  1  0.70651000  0.20039000  0.62640000  1.0
  O  O194  1  0.29351000  0.79960000  0.12639000  1.0
  O  O195  1  0.20650000  0.29961000  0.87361000  1.0
  O  O196  1  0.20650000  0.29961000  0.62639000  1.0
  O  O197  1  0.29351000  0.79960000  0.37361000  1.0
  O  O198  1  0.70648000  0.20041000  0.87361000  1.0
  O  O199  1  0.79350000  0.70039000  0.12639000  1.0
  O  O200  1  0.95231000  0.79459000  0.33743000  1.0
  O  O201  1  0.54768000  0.29459000  0.66257000  1.0
  O  O202  1  0.45232000  0.70538000  0.16258000  1.0
  O  O203  1  0.04766000  0.20541000  0.83743000  1.0
  O  O204  1  0.04769000  0.20540000  0.66257000  1.0
  O  O205  1  0.45233000  0.70540000  0.33743000  1.0
  O  O206  1  0.54769000  0.29461000  0.83743000  1.0
  O  O207  1  0.95234000  0.79459000  0.16257000  1.0
  O  O208  1  0.95633000  0.71737000  0.47789000  1.0
  O  O209  1  0.54368000  0.21738000  0.52211000  1.0
  O  O210  1  0.45632000  0.78263000  0.02211000  1.0
  O  O211  1  0.04368000  0.28262000  0.97789000  1.0
  O  O212  1  0.04367000  0.28263000  0.52211000  1.0
  O  O213  1  0.45631000  0.78262000  0.47789000  1.0
  O  O214  1  0.54368000  0.21737000  0.97788000  1.0
  O  O215  1  0.95632000  0.71739000  0.02211000  1.0
  O  O216  1  0.79340000  0.53446000  0.53595000  1.0
  O  O217  1  0.70661000  0.03445000  0.46405000  1.0
  O  O218  1  0.29339000  0.96555000  0.96404000  1.0
  O  O219  1  0.20660000  0.46555000  0.03595000  1.0
  O  O220  1  0.20660000  0.46555000  0.46405000  1.0
  O  O221  1  0.29341000  0.96556000  0.53595000  1.0
  O  O222  1  0.70659000  0.03445000  0.03594000  1.0
  O  O223  1  0.79340000  0.53446000  0.96405000  1.0
  O  O224  1  0.87966000  0.34510000  0.60228000  1.0
  O  O225  1  0.62035000  0.84509000  0.39773000  1.0
  O  O226  1  0.37967000  0.15490000  0.89772000  1.0
  O  O227  1  0.12032000  0.65491000  0.10228000  1.0
  O  O228  1  0.12034000  0.65490000  0.39772000  1.0
  O  O229  1  0.37971000  0.15491000  0.60228000  1.0
  O  O230  1  0.62034000  0.84510000  0.10228000  1.0
  O  O231  1  0.87970000  0.34510000  0.89772000  1.0
  O  O232  1  0.86492000  0.74130000  0.25000000  1.0
  O  O233  1  0.63507000  0.24131000  0.75000000  1.0
  O  O234  1  0.36491000  0.75867000  0.25000000  1.0
  O  O235  1  0.13507000  0.25869000  0.75000000  1.0
  O  O236  1  0.65849000  0.38031000  0.56211000  1.0
  O  O237  1  0.84151000  0.88031000  0.43790000  1.0
  O  O238  1  0.15849000  0.11970000  0.93789000  1.0
  O  O239  1  0.34150000  0.61970000  0.06210000  1.0
  O  O240  1  0.34151000  0.61969000  0.43790000  1.0
  O  O241  1  0.15851000  0.11970000  0.56211000  1.0
  O  O242  1  0.84151000  0.88031000  0.06211000  1.0
  O  O243  1  0.65850000  0.38031000  0.93789000  1.0
  O  O244  1  0.10371000  0.94506000  0.39192000  1.0
  O  O245  1  0.39628000  0.44506000  0.60809000  1.0
  O  O246  1  0.60371000  0.55494000  0.10808000  1.0
  O  O247  1  0.89627000  0.05495000  0.89191000  1.0
  O  O248  1  0.89629000  0.05495000  0.60808000  1.0
  O  O249  1  0.60372000  0.55494000  0.39191000  1.0
  O  O250  1  0.39626000  0.44506000  0.89192000  1.0
  O  O251  1  0.10372000  0.94506000  0.10809000  1.0
  O  O252  1  0.71158000  0.66076000  0.47371000  1.0
  O  O253  1  0.78844000  0.16076000  0.52629000  1.0
  O  O254  1  0.21157000  0.83925000  0.02629000  1.0
  O  O255  1  0.28844000  0.33924000  0.97371000  1.0
  O  O256  1  0.28842000  0.33924000  0.52629000  1.0
  O  O257  1  0.21158000  0.83925000  0.47371000  1.0
  O  O258  1  0.78843000  0.16076000  0.97371000  1.0
  O  O259  1  0.71157000  0.66076000  0.02629000  1.0
