# generated using pymatgen
data_Al3H13C54Br6(Cl3O7)2
_symmetry_space_group_name_H-M   'P 1'
_cell_length_a   12.06560000
_cell_length_b   13.31810000
_cell_length_c   26.46690000
_cell_angle_alpha   89.89870000
_cell_angle_beta   89.74350000
_cell_angle_gamma   64.92000000
_symmetry_Int_Tables_number   1
_chemical_formula_structural   Al3H13C54Br6(Cl3O7)2
_chemical_formula_sum   'Al6 H26 C108 Br12 Cl12 O28'
_cell_volume   3851.96512838
_cell_formula_units_Z   2
loop_
 _symmetry_equiv_pos_site_id
 _symmetry_equiv_pos_as_xyz
  1  'x, y, z'
loop_
 _atom_site_type_symbol
 _atom_site_label
 _atom_site_symmetry_multiplicity
 _atom_site_fract_x
 _atom_site_fract_y
 _atom_site_fract_z
 _atom_site_occupancy
  Al  Al0  1  0.55094000  0.27804000  0.24880000  1.0
  Al  Al1  1  0.27333000  0.46086000  0.25001000  1.0
  Al  Al2  1  0.31425000  0.22368000  0.25004000  1.0
  Al  Al3  1  0.68638000  0.52685000  0.75042000  1.0
  Al  Al4  1  0.53691000  0.79363000  0.74998000  1.0
  Al  Al5  1  0.80897000  0.70160000  0.75038000  1.0
  H  H6  1  0.88708000  0.67968000  0.89194000  1.0
  H  H7  1  0.34111000  0.17375000  0.10062000  1.0
  H  H8  1  0.07564000  0.56980000  0.36702000  1.0
  H  H9  1  0.56626000  0.35031000  0.10699000  1.0
  H  H10  1  0.89666000  0.35426000  0.87868000  1.0
  H  H11  1  0.84337000  0.86351000  0.61217000  1.0
  H  H12  1  0.35918000  0.82282000  0.89387000  1.0
  H  H13  1  0.90137000  0.35041000  0.62313000  1.0
  H  H14  1  0.84265000  0.86474000  0.88644000  1.0
  H  H15  1  0.36127000  0.82459000  0.60450000  1.0
  H  H16  1  0.72333000  0.00643000  0.36405000  1.0
  H  H17  1  0.45791000  0.02929000  0.64396000  1.0
  H  H18  1  0.04382000  0.26008000  0.12819000  1.0
  H  H19  1  0.33178000  0.68900000  0.35710000  1.0
  H  H20  1  0.72461000  0.00852000  0.13480000  1.0
  H  H21  1  0.04589000  0.25918000  0.37306000  1.0
  H  H22  1  0.32790000  0.68881000  0.14136000  1.0
  H  H23  1  0.54396000  0.47557000  0.85978000  1.0
  H  H24  1  0.88678000  0.67760000  0.60968000  1.0
  H  H25  1  0.45675000  0.02836000  0.85649000  1.0
  H  H26  1  0.53758000  0.47736000  0.63898000  1.0
  H  H27  1  0.34046000  0.17500000  0.40024000  1.0
  H  H28  1  0.07760000  0.56897000  0.13388000  1.0
  H  H29  1  0.56495000  0.34988000  0.39254000  1.0
  H  H30  1  0.74436000  0.24987000  0.27865000  1.0
  H  H31  1  0.74290000  0.33937000  0.72914000  1.0
  C  C32  1  0.43095000  0.47597000  0.17889000  1.0
  C  C33  1  0.48387000  0.66871000  0.81986000  1.0
  C  C34  1  0.93909000  0.29604000  0.52165000  1.0
  C  C35  1  0.82741000  0.92979000  0.98589000  1.0
  C  C36  1  0.33301000  0.79924000  0.50249000  1.0
  C  C37  1  0.80318000  0.94850000  0.46195000  1.0
  C  C38  1  0.95751000  0.28325000  0.03118000  1.0
  C  C39  1  0.33286000  0.77252000  0.45231000  1.0
  C  C40  1  0.80348000  0.94885000  0.03676000  1.0
  C  C41  1  0.95805000  0.28190000  0.47022000  1.0
  C  C42  1  0.33149000  0.77174000  0.04618000  1.0
  C  C43  1  0.66482000  0.87559000  0.68114000  1.0
  C  C44  1  0.86544000  0.53824000  0.82512000  1.0
  C  C45  1  0.96271000  0.46551000  0.03843000  1.0
  C  C46  1  0.58291000  0.04102000  0.48006000  1.0
  C  C47  1  0.44927000  0.57365000  0.02675000  1.0
  C  C48  1  0.96189000  0.46470000  0.46286000  1.0
  C  C49  1  0.58293000  0.04065000  0.01969000  1.0
  C  C50  1  0.44842000  0.57450000  0.47207000  1.0
  C  C51  1  0.60798000  0.01498000  0.53207000  1.0
  C  C52  1  0.13966000  0.38222000  0.31741000  1.0
  C  C53  1  0.93245000  0.48423000  0.98507000  1.0
  C  C54  1  0.44337000  0.60162000  0.52402000  1.0
  C  C55  1  0.60753000  0.01462000  0.96760000  1.0
  C  C56  1  0.93186000  0.48290000  0.51635000  1.0
  C  C57  1  0.44558000  0.60029000  0.97475000  1.0
  C  C58  1  0.99566000  0.62961000  0.03386000  1.0
  C  C59  1  0.36886000  0.15877000  0.50245000  1.0
  C  C60  1  0.57215000  0.37572000  0.00556000  1.0
  C  C61  1  0.99394000  0.62921000  0.46730000  1.0
  C  C62  1  0.36837000  0.15729000  0.99826000  1.0
  C  C63  1  0.49946000  0.13040000  0.17660000  1.0
  C  C64  1  0.56958000  0.37652000  0.49366000  1.0
  C  C65  1  0.39142000  0.12976000  0.55243000  1.0
  C  C66  1  0.89748000  0.66917000  0.00155000  1.0
  C  C67  1  0.55302000  0.40105000  0.54414000  1.0
  C  C68  1  0.39053000  0.12836000  0.94823000  1.0
  C  C69  1  0.89586000  0.66828000  0.49998000  1.0
  C  C70  1  0.55773000  0.39979000  0.95498000  1.0
  C  C71  1  0.04642000  0.51390000  0.11438000  1.0
  C  C72  1  0.43433000  0.12685000  0.41245000  1.0
  C  C73  1  0.51614000  0.43503000  0.09382000  1.0
  C  C74  1  0.43344000  0.47542000  0.32007000  1.0
  C  C75  1  0.04485000  0.51430000  0.38660000  1.0
  C  C76  1  0.43491000  0.12616000  0.08792000  1.0
  C  C77  1  0.51597000  0.43508000  0.40533000  1.0
  C  C78  1  0.53332000  0.00829000  0.61735000  1.0
  C  C79  1  0.89931000  0.60187000  0.90958000  1.0
  C  C80  1  0.49515000  0.54207000  0.61100000  1.0
  C  C81  1  0.53232000  0.00774000  0.88271000  1.0
  C  C82  1  0.89931000  0.59985000  0.59197000  1.0
  C  C83  1  0.49996000  0.54028000  0.88773000  1.0
  C  C84  1  0.89711000  0.51503000  0.87978000  1.0
  C  C85  1  0.13953000  0.38129000  0.18343000  1.0
  C  C86  1  0.65165000  0.93579000  0.63220000  1.0
  C  C87  1  0.45282000  0.65098000  0.87246000  1.0
  C  C88  1  0.89954000  0.51211000  0.62203000  1.0
  C  C89  1  0.65080000  0.93613000  0.86733000  1.0
  C  C90  1  0.45194000  0.65269000  0.62608000  1.0
  C  C91  1  0.52859000  0.08912000  0.37669000  1.0
  C  C92  1  0.06520000  0.41125000  0.13638000  1.0
  C  C93  1  0.44720000  0.51630000  0.37073000  1.0
  C  C94  1  0.52969000  0.08935000  0.12314000  1.0
  C  C95  1  0.06473000  0.41151000  0.36459000  1.0
  C  C96  1  0.49797000  0.13003000  0.32322000  1.0
  C  C97  1  0.44540000  0.51639000  0.12813000  1.0
  C  C98  1  0.99529000  0.54121000  0.06728000  1.0
  C  C99  1  0.46067000  0.10798000  0.46410000  1.0
  C  C100  1  0.51465000  0.46109000  0.04271000  1.0
  C  C101  1  0.99368000  0.54105000  0.43386000  1.0
  C  C102  1  0.46073000  0.10712000  0.03617000  1.0
  C  C103  1  0.51346000  0.46167000  0.45636000  1.0
  C  C104  1  0.51050000  0.05094000  0.56832000  1.0
  C  C105  1  0.91127000  0.58842000  0.96104000  1.0
  C  C106  1  0.49432000  0.51476000  0.56048000  1.0
  C  C107  1  0.49028000  0.66806000  0.67780000  1.0
  C  C108  1  0.50974000  0.05012000  0.93182000  1.0
  C  C109  1  0.91020000  0.58708000  0.54044000  1.0
  C  C110  1  0.49891000  0.51331000  0.93843000  1.0
  C  C111  1  0.02777000  0.33952000  0.11114000  1.0
  C  C112  1  0.65029000  0.03008000  0.39206000  1.0
  C  C113  1  0.38206000  0.62701000  0.11366000  1.0
  C  C114  1  0.02837000  0.33897000  0.39002000  1.0
  C  C115  1  0.65131000  0.03096000  0.10722000  1.0
  C  C116  1  0.38450000  0.62722000  0.38497000  1.0
  C  C117  1  0.75059000  0.91412000  0.59940000  1.0
  C  C118  1  0.66466000  0.87651000  0.81832000  1.0
  C  C119  1  0.90606000  0.41727000  0.90218000  1.0
  C  C120  1  0.39537000  0.73894000  0.59182000  1.0
  C  C121  1  0.74987000  0.91473000  0.89967000  1.0
  C  C122  1  0.90851000  0.41450000  0.59956000  1.0
  C  C123  1  0.39544000  0.73724000  0.90678000  1.0
  C  C124  1  0.97744000  0.36413000  0.06174000  1.0
  C  C125  1  0.67939000  0.00349000  0.44324000  1.0
  C  C126  1  0.38785000  0.65834000  0.06343000  1.0
  C  C127  1  0.97770000  0.36311000  0.43955000  1.0
  C  C128  1  0.67981000  0.00378000  0.05600000  1.0
  C  C129  1  0.87206000  0.53419000  0.67719000  1.0
  C  C130  1  0.38888000  0.65896000  0.43519000  1.0
  C  C131  1  0.73048000  0.95287000  0.54925000  1.0
  C  C132  1  0.92583000  0.39875000  0.95486000  1.0
  C  C133  1  0.38837000  0.71482000  0.54047000  1.0
  C  C134  1  0.72999000  0.95303000  0.94988000  1.0
  C  C135  1  0.92627000  0.39691000  0.54669000  1.0
  C  C136  1  0.38918000  0.71340000  0.95819000  1.0
  C  C137  1  0.93895000  0.29761000  0.97980000  1.0
  C  C138  1  0.82761000  0.92965000  0.51273000  1.0
  C  C139  1  0.33223000  0.79817000  0.99598000  1.0
  Br  Br140  1  0.94000000  0.18018000  0.93927000  1.0
  Br  Br141  1  0.93419000  0.90344000  0.08358000  1.0
  Br  Br142  1  0.97454000  0.14858000  0.43887000  1.0
  Br  Br143  1  0.25953000  0.88495000  0.09528000  1.0
  Br  Br144  1  0.98941000  0.87587000  0.53756000  1.0
  Br  Br145  1  0.25602000  0.94756000  0.97422000  1.0
  Br  Br146  1  0.93847000  0.17865000  0.56195000  1.0
  Br  Br147  1  0.98907000  0.87542000  0.96027000  1.0
  Br  Br148  1  0.25778000  0.94893000  0.52398000  1.0
  Br  Br149  1  0.93376000  0.90283000  0.41454000  1.0
  Br  Br150  1  0.97376000  0.14987000  0.06246000  1.0
  Br  Br151  1  0.26207000  0.88547000  0.40310000  1.0
  Cl  Cl152  1  0.75271000  0.71964000  0.03081000  1.0
  Cl  Cl153  1  0.22985000  0.25701000  0.01702000  1.0
  Cl  Cl154  1  0.13813000  0.60015000  0.49193000  1.0
  Cl  Cl155  1  0.65604000  0.24292000  0.02586000  1.0
  Cl  Cl156  1  0.27795000  0.18810000  0.59703000  1.0
  Cl  Cl157  1  0.61162000  0.29621000  0.91057000  1.0
  Cl  Cl158  1  0.75108000  0.71895000  0.47130000  1.0
  Cl  Cl159  1  0.27651000  0.18621000  0.90418000  1.0
  Cl  Cl160  1  0.60534000  0.29761000  0.58869000  1.0
  Cl  Cl161  1  0.23051000  0.25927000  0.48428000  1.0
  Cl  Cl162  1  0.13976000  0.60095000  0.00869000  1.0
  Cl  Cl163  1  0.65479000  0.24361000  0.47363000  1.0
  O  O164  1  0.56713000  0.17049000  0.19597000  1.0
  O  O165  1  0.80134000  0.49401000  0.80613000  1.0
  O  O166  1  0.44717000  0.76463000  0.69884000  1.0
  O  O167  1  0.77164000  0.81544000  0.80083000  1.0
  O  O168  1  0.51718000  0.38953000  0.19550000  1.0
  O  O169  1  0.16084000  0.46117000  0.29884000  1.0
  O  O170  1  0.40352000  0.12835000  0.19770000  1.0
  O  O171  1  0.52002000  0.38884000  0.30335000  1.0
  O  O172  1  0.15916000  0.46029000  0.20273000  1.0
  O  O173  1  0.40129000  0.12875000  0.30282000  1.0
  O  O174  1  0.57174000  0.58095000  0.69623000  1.0
  O  O175  1  0.32870000  0.52829000  0.29866000  1.0
  O  O176  1  0.56502000  0.88558000  0.79784000  1.0
  O  O177  1  0.89981000  0.60836000  0.69782000  1.0
  O  O178  1  0.55268000  0.58206000  0.79655000  1.0
  O  O179  1  0.56444000  0.88341000  0.70088000  1.0
  O  O180  1  0.89914000  0.60681000  0.80232000  1.0
  O  O181  1  0.37826000  0.32016000  0.25005000  1.0
  O  O182  1  0.67833000  0.67596000  0.75054000  1.0
  O  O183  1  0.18581000  0.28163000  0.20016000  1.0
  O  O184  1  0.56596000  0.16941000  0.30324000  1.0
  O  O185  1  0.32599000  0.52919000  0.20063000  1.0
  O  O186  1  0.18453000  0.28322000  0.30004000  1.0
  O  O187  1  0.81703000  0.48408000  0.69908000  1.0
  O  O188  1  0.44701000  0.76809000  0.80219000  1.0
  O  O189  1  0.77105000  0.81574000  0.69912000  1.0
  O  O190  1  0.70879000  0.24093000  0.24729000  1.0
  O  O191  1  0.68680000  0.39439000  0.75184000  1.0
