# generated using pymatgen
data_LaH7C8NO8
_symmetry_space_group_name_H-M   'P 1'
_cell_length_a   7.73303000
_cell_length_b   9.97956000
_cell_length_c   15.10930000
_cell_angle_alpha   90.00000000
_cell_angle_beta   98.35420000
_cell_angle_gamma   89.99980000
_symmetry_Int_Tables_number   1
_chemical_formula_structural   LaH7C8NO8
_chemical_formula_sum   'La4 H28 C32 N4 O32'
_cell_volume   1153.64561147
_cell_formula_units_Z   4
loop_
 _symmetry_equiv_pos_site_id
 _symmetry_equiv_pos_as_xyz
  1  'x, y, z'
loop_
 _atom_site_type_symbol
 _atom_site_label
 _atom_site_symmetry_multiplicity
 _atom_site_fract_x
 _atom_site_fract_y
 _atom_site_fract_z
 _atom_site_occupancy
  La  La0  1  0.13917000  0.45840000  0.35608000  1.0
  La  La1  1  0.36082000  0.95840000  0.14392000  1.0
  La  La2  1  0.86083000  0.54160000  0.64392000  1.0
  La  La3  1  0.63917000  0.04160000  0.85608000  1.0
  H  H4  1  0.73905000  0.45316000  0.29094000  1.0
  H  H5  1  0.76094000  0.95316000  0.20906000  1.0
  H  H6  1  0.26095000  0.54684000  0.70906000  1.0
  H  H7  1  0.23905000  0.04684000  0.79094000  1.0
  H  H8  1  0.77483000  0.55663000  0.36899000  1.0
  H  H9  1  0.72516000  0.05663000  0.13101000  1.0
  H  H10  1  0.22516000  0.44337000  0.63101000  1.0
  H  H11  1  0.27483000  0.94337000  0.86899000  1.0
  H  H12  1  0.91699000  0.36020000  0.17731000  1.0
  H  H13  1  0.58301000  0.86020000  0.32269000  1.0
  H  H14  1  0.08301000  0.63980000  0.82269000  1.0
  H  H15  1  0.41699000  0.13979000  0.67731000  1.0
  H  H16  1  0.02504000  0.22446000  0.20159000  1.0
  H  H17  1  0.47496000  0.72446000  0.29841000  1.0
  H  H18  1  0.97496000  0.77554000  0.79841000  1.0
  H  H19  1  0.52503000  0.27554000  0.70160000  1.0
  H  H20  1  0.20953000  0.88528000  0.64645000  1.0
  H  H21  1  0.29047000  0.38528000  0.85355000  1.0
  H  H22  1  0.79047000  0.11472000  0.35355000  1.0
  H  H23  1  0.70953000  0.61472000  0.14645000  1.0
  H  H24  1  0.39246000  0.21520000  0.52141000  1.0
  H  H25  1  0.10754000  0.71519000  0.97859000  1.0
  H  H26  1  0.60754000  0.78481000  0.47859000  1.0
  H  H27  1  0.89246000  0.28480000  0.02141000  1.0
  H  H28  1  0.17086000  0.88597000  0.35869000  1.0
  H  H29  1  0.32914000  0.38597000  0.14131000  1.0
  H  H30  1  0.82914000  0.11403000  0.64131000  1.0
  H  H31  1  0.67086000  0.61403000  0.85869000  1.0
  C  C32  1  0.31025000  0.14069000  0.34777000  1.0
  C  C33  1  0.18975000  0.64069000  0.15223000  1.0
  C  C34  1  0.68975000  0.85931000  0.65223000  1.0
  C  C35  1  0.81025000  0.35931000  0.84777000  1.0
  C  C36  1  0.09015000  0.73544000  0.49819000  1.0
  C  C37  1  0.40985000  0.23544000  0.00181000  1.0
  C  C38  1  0.90986000  0.26456000  0.50181000  1.0
  C  C39  1  0.59014000  0.76456000  0.99819000  1.0
  C  C40  1  0.17711000  0.87032000  0.50167000  1.0
  C  C41  1  0.32289000  0.37032000  0.99833000  1.0
  C  C42  1  0.82290000  0.12968000  0.49833000  1.0
  C  C43  1  0.67710000  0.62968000  0.00167000  1.0
  C  C44  1  0.22946000  0.93378000  0.58395000  1.0
  C  C45  1  0.27054000  0.43378000  0.91605000  1.0
  C  C46  1  0.77054000  0.06622000  0.41605000  1.0
  C  C47  1  0.72946000  0.56622000  0.08395000  1.0
  C  C48  1  0.33114000  0.11696000  0.51434000  1.0
  C  C49  1  0.16887000  0.61696000  0.98566000  1.0
  C  C50  1  0.66886000  0.88304000  0.48566000  1.0
  C  C51  1  0.83114000  0.38304000  0.01433000  1.0
  C  C52  1  0.28232000  0.06224000  0.42929000  1.0
  C  C53  1  0.21768000  0.56224000  0.07071000  1.0
  C  C54  1  0.71768000  0.93776000  0.57071000  1.0
  C  C55  1  0.78232000  0.43776000  0.92929000  1.0
  C  C56  1  0.20741000  0.93468000  0.42328000  1.0
  C  C57  1  0.29259000  0.43467000  0.07672000  1.0
  C  C58  1  0.79259000  0.06533000  0.57672000  1.0
  C  C59  1  0.70741000  0.56533000  0.92328000  1.0
  C  C60  1  0.54278000  0.53295000  0.46172000  1.0
  C  C61  1  0.95722000  0.03295000  0.03828000  1.0
  C  C62  1  0.45722000  0.46705000  0.53829000  1.0
  C  C63  1  0.04279000  0.96705000  0.96172000  1.0
  N  N64  1  0.30772000  0.05423000  0.59018000  1.0
  N  N65  1  0.19228000  0.55423000  0.90982000  1.0
  N  N66  1  0.69228000  0.94577000  0.40982000  1.0
  N  N67  1  0.80772000  0.44577000  0.09018000  1.0
  O  O68  1  0.07798000  0.67059000  0.42535000  1.0
  O  O69  1  0.42202000  0.17060000  0.07465000  1.0
  O  O70  1  0.92203000  0.32941000  0.57464000  1.0
  O  O71  1  0.57797000  0.82940000  0.92536000  1.0
  O  O72  1  0.03421000  0.69600000  0.56864000  1.0
  O  O73  1  0.46579000  0.19600000  0.93136000  1.0
  O  O74  1  0.96579000  0.30399000  0.43136000  1.0
  O  O75  1  0.53421000  0.80399000  0.06864000  1.0
  O  O76  1  0.30328000  0.07774000  0.27459000  1.0
  O  O77  1  0.19672000  0.57775000  0.22541000  1.0
  O  O78  1  0.69671000  0.92226000  0.72541000  1.0
  O  O79  1  0.80329000  0.42226000  0.77458000  1.0
  O  O80  1  0.33711000  0.26614000  0.35641000  1.0
  O  O81  1  0.16289000  0.76614000  0.14359000  1.0
  O  O82  1  0.66289000  0.73387000  0.64359000  1.0
  O  O83  1  0.83710000  0.23386000  0.85641000  1.0
  O  O84  1  0.44442000  0.56049000  0.38958000  1.0
  O  O85  1  0.05558000  0.06049000  0.11042000  1.0
  O  O86  1  0.55558000  0.43951000  0.61042000  1.0
  O  O87  1  0.94442000  0.93952000  0.88958000  1.0
  O  O88  1  0.70596000  0.55520000  0.47724000  1.0
  O  O89  1  0.79404000  0.05520000  0.02276000  1.0
  O  O90  1  0.29405000  0.44480000  0.52276000  1.0
  O  O91  1  0.20595000  0.94480000  0.97724000  1.0
  O  O92  1  0.81391000  0.52871000  0.31164000  1.0
  O  O93  1  0.68609000  0.02871000  0.18836000  1.0
  O  O94  1  0.18609000  0.47129000  0.68836000  1.0
  O  O95  1  0.31390000  0.97129000  0.81164000  1.0
  O  O96  1  0.99270000  0.30966000  0.22697000  1.0
  O  O97  1  0.50729000  0.80966000  0.27303000  1.0
  O  O98  1  0.00729000  0.69034000  0.77303000  1.0
  O  O99  1  0.49269000  0.19035000  0.72697000  1.0
