# generated using pymatgen
data_Zn2H17C31N3O8
_symmetry_space_group_name_H-M   'P 1'
_cell_length_a   8.51957000
_cell_length_b   9.71726000
_cell_length_c   16.57200000
_cell_angle_alpha   105.94000000
_cell_angle_beta   101.33700000
_cell_angle_gamma   90.40290000
_symmetry_Int_Tables_number   1
_chemical_formula_structural   Zn2H17C31N3O8
_chemical_formula_sum   'Zn4 H34 C62 N6 O16'
_cell_volume   1290.74053262
_cell_formula_units_Z   2
loop_
 _symmetry_equiv_pos_site_id
 _symmetry_equiv_pos_as_xyz
  1  'x, y, z'
loop_
 _atom_site_type_symbol
 _atom_site_label
 _atom_site_symmetry_multiplicity
 _atom_site_fract_x
 _atom_site_fract_y
 _atom_site_fract_z
 _atom_site_occupancy
  Zn  Zn0  1  0.12785000  0.45474000  0.15758000  1.0
  Zn  Zn1  1  0.87215000  0.54526000  0.84242000  1.0
  Zn  Zn2  1  0.37502000  0.48138000  0.87033000  1.0
  Zn  Zn3  1  0.62498000  0.51862000  0.12967000  1.0
  H  H4  1  0.13383000  0.70634000  0.29602000  1.0
  H  H5  1  0.86618000  0.29366000  0.70398000  1.0
  H  H6  1  0.52556000  0.69999000  0.50345000  1.0
  H  H7  1  0.47444000  0.30001000  0.49655000  1.0
  H  H8  1  0.58025000  0.45565000  0.41353000  1.0
  H  H9  1  0.41975000  0.54435000  0.58647000  1.0
  H  H10  1  0.40347000  0.35277000  0.26780000  1.0
  H  H11  1  0.59653000  0.64723000  0.73220000  1.0
  H  H12  1  0.14921000  0.91700000  0.34253000  1.0
  H  H13  1  0.85079000  0.08300000  0.65747000  1.0
  H  H14  1  0.19533000  0.23933000  0.58284000  1.0
  H  H15  1  0.80467000  0.76067000  0.41716000  1.0
  H  H16  1  0.27962000  0.29520000  0.70386000  1.0
  H  H17  1  0.72037000  0.70480000  0.29614000  1.0
  H  H18  1  0.54669000  0.91468000  0.67612000  1.0
  H  H19  1  0.45331000  0.08532000  0.32388000  1.0
  H  H20  1  0.67947000  0.01199000  0.82964000  1.0
  H  H21  1  0.32053000  0.98801000  0.17036000  1.0
  H  H22  1  0.61006000  0.25709000  0.91299000  1.0
  H  H23  1  0.38993000  0.74291000  0.08701000  1.0
  H  H24  1  0.90291000  0.00669000  0.32181000  1.0
  H  H25  1  0.09709000  0.99331000  0.67819000  1.0
  H  H26  1  0.75099000  0.16189000  0.24149000  1.0
  H  H27  1  0.24901000  0.83811000  0.75851000  1.0
  H  H28  1  0.04449000  0.53020000  0.40806000  1.0
  H  H29  1  0.95551000  0.46980000  0.59194000  1.0
  H  H30  1  0.19052000  0.37859000  0.49259000  1.0
  H  H31  1  0.80948000  0.62140000  0.50741000  1.0
  H  H32  1  0.92084000  0.09245000  0.83723000  1.0
  H  H33  1  0.07916000  0.90755000  0.16277000  1.0
  H  H34  1  0.24593000  0.85527000  0.97153000  1.0
  H  H35  1  0.75407000  0.14473000  0.02847000  1.0
  H  H36  1  0.41772000  0.08119000  0.04907000  1.0
  H  H37  1  0.58228000  0.91881000  0.95093000  1.0
  C  C38  1  0.23637000  0.65823000  0.32522000  1.0
  C  C39  1  0.76363000  0.34177000  0.67478000  1.0
  C  C40  1  0.32774000  0.72537000  0.40680000  1.0
  C  C41  1  0.67226000  0.27463000  0.59320000  1.0
  C  C42  1  0.45295000  0.65040000  0.43981000  1.0
  C  C43  1  0.54705000  0.34960000  0.56019000  1.0
  C  C44  1  0.48260000  0.51595000  0.39036000  1.0
  C  C45  1  0.51740000  0.48405000  0.60964000  1.0
  C  C46  1  0.38638000  0.45742000  0.30924000  1.0
  C  C47  1  0.61362000  0.54258000  0.69076000  1.0
  C  C48  1  0.29129000  0.86997000  0.45459000  1.0
  C  C49  1  0.70871000  0.13003000  0.54541000  1.0
  C  C50  1  0.19292000  0.95364000  0.41162000  1.0
  C  C51  1  0.80708000  0.04635000  0.58838000  1.0
  C  C52  1  0.15675000  0.08928000  0.45712000  1.0
  C  C53  1  0.84325000  0.91072000  0.54288000  1.0
  C  C54  1  0.22363000  0.13551000  0.54499000  1.0
  C  C55  1  0.77637000  0.86449000  0.45501000  1.0
  C  C56  1  0.32603000  0.04802000  0.58311000  1.0
  C  C57  1  0.67396000  0.95198000  0.41689000  1.0
  C  C58  1  0.37116000  0.22957000  0.72693000  1.0
  C  C59  1  0.62884000  0.77043000  0.27307000  1.0
  C  C60  1  0.40562000  0.09824000  0.67509000  1.0
  C  C61  1  0.59437000  0.90176000  0.32491000  1.0
  C  C62  1  0.51786000  0.01854000  0.71380000  1.0
  C  C63  1  0.48213000  0.98146000  0.28620000  1.0
  C  C64  1  0.59177000  0.07396000  0.79980000  1.0
  C  C65  1  0.40823000  0.92604000  0.20020000  1.0
  C  C66  1  0.55427000  0.20807000  0.84604000  1.0
  C  C67  1  0.44573000  0.79193000  0.15396000  1.0
  C  C68  1  0.05887000  0.18114000  0.41238000  1.0
  C  C69  1  0.94113000  0.81886000  0.58762000  1.0
  C  C70  1  0.93372000  0.12175000  0.34155000  1.0
  C  C71  1  0.06628000  0.87825000  0.65845000  1.0
  C  C72  1  0.84782000  0.20808000  0.29650000  1.0
  C  C73  1  0.15218000  0.79192000  0.70350000  1.0
  C  C74  1  0.88990000  0.35539000  0.31931000  1.0
  C  C75  1  0.11011000  0.64461000  0.68069000  1.0
  C  C76  1  0.01262000  0.41563000  0.39082000  1.0
  C  C77  1  0.98738000  0.58437000  0.60918000  1.0
  C  C78  1  0.09431000  0.33015000  0.43766000  1.0
  C  C79  1  0.90569000  0.66985000  0.56234000  1.0
  C  C80  1  0.81590000  0.44854000  0.26547000  1.0
  C  C81  1  0.18410000  0.55147000  0.73453000  1.0
  C  C82  1  0.36723000  0.34459000  0.04045000  1.0
  C  C83  1  0.63277000  0.65541000  0.95955000  1.0
  C  C84  1  0.26522000  0.21303000  0.98627000  1.0
  C  C85  1  0.73478000  0.78697000  0.01373000  1.0
  C  C86  1  0.12548000  0.21630000  0.92529000  1.0
  C  C87  1  0.87452000  0.78370000  0.07471000  1.0
  C  C88  1  0.08241000  0.35270000  0.90388000  1.0
  C  C89  1  0.91760000  0.64730000  0.09612000  1.0
  C  C90  1  0.02952000  0.08967000  0.88375000  1.0
  C  C91  1  0.97048000  0.91033000  0.11625000  1.0
  C  C92  1  0.07069000  0.96039000  0.90117000  1.0
  C  C93  1  0.92931000  0.03961000  0.09884000  1.0
  C  C94  1  0.21322000  0.95716000  0.95956000  1.0
  C  C95  1  0.78678000  0.04284000  0.04044000  1.0
  C  C96  1  0.30915000  0.08266000  0.00191000  1.0
  C  C97  1  0.69085000  0.91734000  0.99809000  1.0
  C  C98  1  0.96038000  0.82735000  0.86033000  1.0
  C  C99  1  0.03962000  0.17265000  0.13967000  1.0
  N  N100  1  0.26479000  0.52842000  0.27811000  1.0
  N  N101  1  0.73521000  0.47158000  0.72189000  1.0
  N  N102  1  0.35861000  0.91691000  0.53861000  1.0
  N  N103  1  0.64139000  0.08309000  0.46139000  1.0
  N  N104  1  0.44299000  0.28367000  0.80997000  1.0
  N  N105  1  0.55701000  0.71633000  0.19003000  1.0
  O  O106  1  0.68208000  0.40115000  0.21203000  1.0
  O  O107  1  0.31792000  0.59886000  0.78797000  1.0
  O  O108  1  0.88819000  0.56709000  0.27418000  1.0
  O  O109  1  0.11181000  0.43291000  0.72582000  1.0
  O  O110  1  0.32041000  0.43203000  0.10211000  1.0
  O  O111  1  0.67959000  0.56797000  0.89789000  1.0
  O  O112  1  0.50882000  0.36016000  0.02816000  1.0
  O  O113  1  0.49118000  0.63985000  0.97184000  1.0
  O  O114  1  0.19056000  0.45440000  0.92400000  1.0
  O  O115  1  0.80944000  0.54561000  0.07600000  1.0
  O  O116  1  0.93760000  0.36139000  0.86721000  1.0
  O  O117  1  0.06240000  0.63861000  0.13279000  1.0
  O  O118  1  0.82925000  0.83017000  0.81155000  1.0
  O  O119  1  0.17075000  0.16983000  0.18845000  1.0
  O  O120  1  0.01412000  0.71499000  0.88242000  1.0
  O  O121  1  0.98588000  0.28501000  0.11758000  1.0
