# generated using pymatgen
data_CdH22C20N2O5
_symmetry_space_group_name_H-M   'P 1'
_cell_length_a   8.67121000
_cell_length_b   10.20260000
_cell_length_c   10.92760000
_cell_angle_alpha   81.35950000
_cell_angle_beta   81.98620000
_cell_angle_gamma   83.79420000
_symmetry_Int_Tables_number   1
_chemical_formula_structural   CdH22C20N2O5
_chemical_formula_sum   'Cd2 H44 C40 N4 O10'
_cell_volume   942.68872133
_cell_formula_units_Z   2
loop_
 _symmetry_equiv_pos_site_id
 _symmetry_equiv_pos_as_xyz
  1  'x, y, z'
loop_
 _atom_site_type_symbol
 _atom_site_label
 _atom_site_symmetry_multiplicity
 _atom_site_fract_x
 _atom_site_fract_y
 _atom_site_fract_z
 _atom_site_occupancy
  Cd  Cd0  1  0.74960000  0.13047000  0.37967000  1.0
  Cd  Cd1  1  0.25041000  0.86953000  0.62032000  1.0
  H  H2  1  0.64893000  0.92214000  0.59997000  1.0
  H  H3  1  0.35107000  0.07786000  0.40003000  1.0
  H  H4  1  0.83507000  0.88705000  0.56064000  1.0
  H  H5  1  0.16493000  0.11295000  0.43936000  1.0
  H  H6  1  0.69568000  0.85096000  0.34207000  1.0
  H  H7  1  0.30431000  0.14904000  0.65792000  1.0
  H  H8  1  0.77309000  0.67569000  0.20506000  1.0
  H  H9  1  0.22691000  0.32430000  0.79494000  1.0
  H  H10  1  0.16234000  0.89766000  0.03288000  1.0
  H  H11  1  0.83766000  0.10234000  0.96712000  1.0
  H  H12  1  0.06288000  0.06855000  0.17534000  1.0
  H  H13  1  0.93712000  0.93145000  0.82466000  1.0
  H  H14  1  0.11689000  0.69847000  0.94529000  1.0
  H  H15  1  0.88312000  0.30152000  0.05471000  1.0
  H  H16  1  0.88932000  0.51837000  0.12150000  1.0
  H  H17  1  0.11068000  0.48162000  0.87850000  1.0
  H  H18  1  0.82053000  0.16695000  0.64293000  1.0
  H  H19  1  0.17948000  0.83305000  0.35707000  1.0
  H  H20  1  0.74233000  0.30242000  0.81573000  1.0
  H  H21  1  0.25767000  0.69758000  0.18427000  1.0
  H  H22  1  0.34470000  0.47468000  0.62991000  1.0
  H  H23  1  0.65530000  0.52532000  0.37010000  1.0
  H  H24  1  0.43926000  0.32805000  0.46429000  1.0
  H  H25  1  0.56073000  0.67195000  0.53571000  1.0
  H  H26  1  0.38902000  0.56246000  0.81674000  1.0
  H  H27  1  0.61098000  0.43754000  0.18326000  1.0
  H  H28  1  0.61356000  0.37551000  0.97651000  1.0
  H  H29  1  0.38644000  0.62449000  0.02349000  1.0
  H  H30  1  0.32491000  0.20877000  0.11152000  1.0
  H  H31  1  0.67509000  0.79124000  0.88848000  1.0
  H  H32  1  0.33268000  0.04215000  0.18521000  1.0
  H  H33  1  0.66732000  0.95785000  0.81479000  1.0
  H  H34  1  0.34941000  0.06460000  0.94929000  1.0
  H  H35  1  0.65059000  0.93540000  0.05071000  1.0
  H  H36  1  0.52410000  0.14229000  0.93609000  1.0
  H  H37  1  0.47590000  0.85771000  0.06392000  1.0
  H  H38  1  0.07907000  0.50059000  0.28107000  1.0
  H  H39  1  0.92092000  0.49941000  0.71892000  1.0
  H  H40  1  0.21069000  0.36368000  0.33252000  1.0
  H  H41  1  0.78932000  0.63632000  0.66747000  1.0
  H  H42  1  0.09595000  0.37420000  0.55364000  1.0
  H  H43  1  0.90405000  0.62581000  0.44636000  1.0
  H  H44  1  0.17393000  0.52393000  0.48216000  1.0
  H  H45  1  0.82608000  0.47608000  0.51783000  1.0
  C  C46  1  0.79835000  0.85721000  0.27220000  1.0
  C  C47  1  0.20164000  0.14279000  0.72780000  1.0
  C  C48  1  0.84345000  0.75930000  0.19640000  1.0
  C  C49  1  0.15655000  0.24070000  0.80360000  1.0
  C  C50  1  0.97644000  0.77073000  0.10676000  1.0
  C  C51  1  0.02356000  0.22927000  0.89323000  1.0
  C  C52  1  0.05800000  0.88436000  0.10034000  1.0
  C  C53  1  0.94200000  0.11564000  0.89965000  1.0
  C  C54  1  0.00386000  0.97851000  0.17967000  1.0
  C  C55  1  0.99614000  0.02149000  0.82032000  1.0
  C  C56  1  0.02787000  0.67144000  0.02375000  1.0
  C  C57  1  0.97213000  0.32856000  0.97624000  1.0
  C  C58  1  0.97374000  0.54868000  0.04080000  1.0
  C  C59  1  0.02626000  0.45131000  0.95920000  1.0
  C  C60  1  0.71496000  0.23556000  0.64449000  1.0
  C  C61  1  0.28504000  0.76444000  0.35551000  1.0
  C  C62  1  0.67034000  0.31112000  0.74056000  1.0
  C  C63  1  0.32965000  0.68888000  0.25945000  1.0
  C  C64  1  0.53437000  0.40045000  0.73874000  1.0
  C  C65  1  0.46563000  0.59955000  0.26126000  1.0
  C  C66  1  0.45083000  0.40735000  0.63587000  1.0
  C  C67  1  0.54917000  0.59265000  0.36414000  1.0
  C  C68  1  0.50280000  0.32615000  0.54412000  1.0
  C  C69  1  0.49720000  0.67385000  0.45589000  1.0
  C  C70  1  0.47914000  0.48140000  0.83712000  1.0
  C  C71  1  0.52086000  0.51860000  0.16288000  1.0
  C  C72  1  0.52898000  0.45976000  0.95205000  1.0
  C  C73  1  0.47102000  0.54024000  0.04795000  1.0
  C  C74  1  0.53611000  0.14284000  0.18846000  1.0
  C  C75  1  0.46389000  0.85717000  0.81154000  1.0
  C  C76  1  0.40154000  0.11514000  0.12251000  1.0
  C  C77  1  0.59846000  0.88486000  0.87750000  1.0
  C  C78  1  0.45337000  0.06819000  0.99553000  1.0
  C  C79  1  0.54662000  0.93181000  0.00447000  1.0
  C  C80  1  0.97194000  0.31933000  0.34974000  1.0
  C  C81  1  0.02806000  0.68067000  0.65026000  1.0
  C  C82  1  0.09353000  0.41457000  0.35331000  1.0
  C  C83  1  0.90647000  0.58543000  0.64668000  1.0
  C  C84  1  0.07846000  0.46116000  0.48235000  1.0
  C  C85  1  0.92155000  0.53885000  0.51764000  1.0
  N  N86  1  0.87614000  0.96624000  0.26415000  1.0
  N  N87  1  0.12386000  0.03375000  0.73585000  1.0
  N  N88  1  0.63291000  0.24213000  0.54704000  1.0
  N  N89  1  0.36710000  0.75786000  0.45296000  1.0
  O  O90  1  0.51426000  0.12337000  0.30983000  1.0
  O  O91  1  0.48574000  0.87663000  0.69017000  1.0
  O  O92  1  0.65937000  0.18284000  0.12737000  1.0
  O  O93  1  0.34063000  0.81717000  0.87264000  1.0
  O  O94  1  0.84756000  0.36011000  0.30191000  1.0
  O  O95  1  0.15244000  0.63989000  0.69809000  1.0
  O  O96  1  0.99656000  0.19811000  0.40166000  1.0
  O  O97  1  0.00345000  0.80189000  0.59835000  1.0
  O  O98  1  0.74075000  0.94528000  0.53744000  1.0
  O  O99  1  0.25925000  0.05472000  0.46256000  1.0
