# generated using pymatgen
data_Nd2Co3H20C40(N4O13)2
_symmetry_space_group_name_H-M   'P 1'
_cell_length_a   7.62392000
_cell_length_b   10.56900000
_cell_length_c   30.05010000
_cell_angle_alpha   80.84580000
_cell_angle_beta   89.35480000
_cell_angle_gamma   89.90640000
_symmetry_Int_Tables_number   1
_chemical_formula_structural   Nd2Co3H20C40(N4O13)2
_chemical_formula_sum   'Nd4 Co6 H40 C80 N16 O52'
_cell_volume   2390.36268242
_cell_formula_units_Z   2
loop_
 _symmetry_equiv_pos_site_id
 _symmetry_equiv_pos_as_xyz
  1  'x, y, z'
loop_
 _atom_site_type_symbol
 _atom_site_label
 _atom_site_symmetry_multiplicity
 _atom_site_fract_x
 _atom_site_fract_y
 _atom_site_fract_z
 _atom_site_occupancy
  Nd  Nd0  1  0.12726000  0.44755000  0.76825000  1.0
  Nd  Nd1  1  0.62861000  0.55313000  0.73125000  1.0
  Nd  Nd2  1  0.87277000  0.55246000  0.23175000  1.0
  Nd  Nd3  1  0.37140000  0.44687000  0.26875000  1.0
  Co  Co4  1  0.00000000  0.00001000  0.00000000  1.0
  Co  Co5  1  0.49999000  0.99999000  0.49999000  1.0
  Co  Co6  1  0.06309000  0.28837000  0.13065000  1.0
  Co  Co7  1  0.55766000  0.71403000  0.36896000  1.0
  Co  Co8  1  0.93692000  0.71163000  0.86935000  1.0
  Co  Co9  1  0.44235000  0.28596000  0.63103000  1.0
  H  H10  1  0.95952000  0.24853000  0.92237000  1.0
  H  H11  1  0.47611000  0.74911000  0.57701000  1.0
  H  H12  1  0.04049000  0.75148000  0.07763000  1.0
  H  H13  1  0.52390000  0.25085000  0.42298000  1.0
  H  H14  1  0.32876000  0.20047000  0.87752000  1.0
  H  H15  1  0.84139000  0.80245000  0.62105000  1.0
  H  H16  1  0.67121000  0.79954000  0.12249000  1.0
  H  H17  1  0.15861000  0.19753000  0.37895000  1.0
  H  H18  1  0.62150000  0.85614000  0.98811000  1.0
  H  H19  1  0.14290000  0.14067000  0.50882000  1.0
  H  H20  1  0.37852000  0.14387000  0.01188000  1.0
  H  H21  1  0.85712000  0.85928000  0.49117000  1.0
  H  H22  1  0.70116000  0.92250000  0.21767000  1.0
  H  H23  1  0.20141000  0.07927000  0.28255000  1.0
  H  H24  1  0.29886000  0.07752000  0.78234000  1.0
  H  H25  1  0.79856000  0.92074000  0.71746000  1.0
  H  H26  1  0.05567000  0.97715000  0.18457000  1.0
  H  H27  1  0.55342000  0.02123000  0.31553000  1.0
  H  H28  1  0.94436000  0.02287000  0.81543000  1.0
  H  H29  1  0.44655000  0.97875000  0.68444000  1.0
  H  H30  1  0.47975000  0.32451000  0.12090000  1.0
  H  H31  1  0.97662000  0.67642000  0.37950000  1.0
  H  H32  1  0.52031000  0.67552000  0.87913000  1.0
  H  H33  1  0.02338000  0.32358000  0.62050000  1.0
  H  H34  1  0.36492000  0.97033000  0.94077000  1.0
  H  H35  1  0.88346000  0.02944000  0.55806000  1.0
  H  H36  1  0.63508000  0.02968000  0.05923000  1.0
  H  H37  1  0.11654000  0.97053000  0.44193000  1.0
  H  H38  1  0.70961000  0.16678000  0.15660000  1.0
  H  H39  1  0.20766000  0.83720000  0.34485000  1.0
  H  H40  1  0.29042000  0.83326000  0.84343000  1.0
  H  H41  1  0.79234000  0.16282000  0.65515000  1.0
  H  H42  1  0.84211000  0.44273000  0.08238000  1.0
  H  H43  1  0.33644000  0.55773000  0.41842000  1.0
  H  H44  1  0.15786000  0.55725000  0.91763000  1.0
  H  H45  1  0.66354000  0.44223000  0.58158000  1.0
  H  H46  1  0.78394000  0.46979000  0.13026000  1.0
  H  H47  1  0.28083000  0.53079000  0.37078000  1.0
  H  H48  1  0.21607000  0.53022000  0.86974000  1.0
  H  H49  1  0.71915000  0.46921000  0.62922000  1.0
  C  C50  1  0.02528000  0.21318000  0.04375000  1.0
  C  C51  1  0.51400000  0.79876000  0.45466000  1.0
  C  C52  1  0.97471000  0.78684000  0.95625000  1.0
  C  C53  1  0.48601000  0.20121000  0.54533000  1.0
  C  C54  1  0.93061000  0.10848000  0.07734000  1.0
  C  C55  1  0.41790000  0.89893000  0.42047000  1.0
  C  C56  1  0.06936000  0.89154000  0.92267000  1.0
  C  C57  1  0.58211000  0.10104000  0.57952000  1.0
  C  C58  1  0.84443000  0.44658000  0.86254000  1.0
  C  C59  1  0.35343000  0.55203000  0.63672000  1.0
  C  C60  1  0.15557000  0.55343000  0.13746000  1.0
  C  C61  1  0.64657000  0.44794000  0.36327000  1.0
  C  C62  1  0.74156000  0.32953000  0.88152000  1.0
  C  C63  1  0.25347000  0.67001000  0.61778000  1.0
  C  C64  1  0.25845000  0.67048000  0.11849000  1.0
  C  C65  1  0.74652000  0.32996000  0.38222000  1.0
  C  C66  1  0.82417000  0.23757000  0.91248000  1.0
  C  C67  1  0.33975000  0.76078000  0.58663000  1.0
  C  C68  1  0.17584000  0.76245000  0.08752000  1.0
  C  C69  1  0.66025000  0.23919000  0.41336000  1.0
  C  C70  1  0.72472000  0.13093000  0.93108000  1.0
  C  C71  1  0.24243000  0.86714000  0.56740000  1.0
  C  C72  1  0.27527000  0.86909000  0.06893000  1.0
  C  C73  1  0.75757000  0.13283000  0.43259000  1.0
  C  C74  1  0.54927000  0.11707000  0.91748000  1.0
  C  C75  1  0.06609000  0.88258000  0.58095000  1.0
  C  C76  1  0.45071000  0.88296000  0.08253000  1.0
  C  C77  1  0.93391000  0.11740000  0.41904000  1.0
  C  C78  1  0.46423000  0.21028000  0.88752000  1.0
  C  C79  1  0.97767000  0.79084000  0.61124000  1.0
  C  C80  1  0.53574000  0.78975000  0.11249000  1.0
  C  C81  1  0.02233000  0.20914000  0.38875000  1.0
  C  C82  1  0.56335000  0.31790000  0.86966000  1.0
  C  C83  1  0.07415000  0.68286000  0.62946000  1.0
  C  C84  1  0.43664000  0.68212000  0.13035000  1.0
  C  C85  1  0.92584000  0.31712000  0.37053000  1.0
  C  C86  1  0.48335000  0.41781000  0.83560000  1.0
  C  C87  1  0.99011000  0.58392000  0.66374000  1.0
  C  C88  1  0.51667000  0.58220000  0.16440000  1.0
  C  C89  1  0.00989000  0.41607000  0.33626000  1.0
  C  C90  1  0.62863000  0.94836000  0.96631000  1.0
  C  C91  1  0.14791000  0.04953000  0.53116000  1.0
  C  C92  1  0.37138000  0.05165000  0.03369000  1.0
  C  C93  1  0.85210000  0.95044000  0.46883000  1.0
  C  C94  1  0.50234000  0.73884000  0.26601000  1.0
  C  C95  1  0.00346000  0.26100000  0.23380000  1.0
  C  C96  1  0.49765000  0.26116000  0.73399000  1.0
  C  C97  1  0.99654000  0.73902000  0.76620000  1.0
  C  C98  1  0.43987000  0.84310000  0.22949000  1.0
  C  C99  1  0.93997000  0.15696000  0.27057000  1.0
  C  C100  1  0.56014000  0.15691000  0.77051000  1.0
  C  C101  1  0.06001000  0.84306000  0.72942000  1.0
  C  C102  1  0.56187000  0.93442000  0.21032000  1.0
  C  C103  1  0.06159000  0.06657000  0.28988000  1.0
  C  C104  1  0.43815000  0.06559000  0.78969000  1.0
  C  C105  1  0.93839000  0.93345000  0.71012000  1.0
  C  C106  1  0.49647000  0.04325000  0.18292000  1.0
  C  C107  1  0.99509000  0.95753000  0.31734000  1.0
  C  C108  1  0.50356000  0.95678000  0.81709000  1.0
  C  C109  1  0.00489000  0.04248000  0.68265000  1.0
  C  C110  1  0.31455000  0.06255000  0.17470000  1.0
  C  C111  1  0.81260000  0.93708000  0.32526000  1.0
  C  C112  1  0.68548000  0.93748000  0.82532000  1.0
  C  C113  1  0.18738000  0.06291000  0.67473000  1.0
  C  C114  1  0.19465000  0.96773000  0.19222000  1.0
  C  C115  1  0.69292000  0.03132000  0.30781000  1.0
  C  C116  1  0.80537000  0.03230000  0.80779000  1.0
  C  C117  1  0.30706000  0.96866000  0.69217000  1.0
  C  C118  1  0.25775000  0.85749000  0.21949000  1.0
  C  C119  1  0.75715000  0.14194000  0.28066000  1.0
  C  C120  1  0.74225000  0.14254000  0.78051000  1.0
  C  C121  1  0.24283000  0.85805000  0.71933000  1.0
  C  C122  1  0.13045000  0.75278000  0.23460000  1.0
  C  C123  1  0.63021000  0.24661000  0.26599000  1.0
  C  C124  1  0.86955000  0.24723000  0.76539000  1.0
  C  C125  1  0.36976000  0.75338000  0.73401000  1.0
  C  C126  1  0.45061000  0.23128000  0.14033000  1.0
  C  C127  1  0.94773000  0.76932000  0.35993000  1.0
  C  C128  1  0.54941000  0.76876000  0.85971000  1.0
  C  C129  1  0.05228000  0.23068000  0.64006000  1.0
  N  N130  1  0.76900000  0.02470000  0.96233000  1.0
  N  N131  1  0.28810000  0.97221000  0.53536000  1.0
  N  N132  1  0.23100000  0.97532000  0.03767000  1.0
  N  N133  1  0.71190000  0.02776000  0.46463000  1.0
  N  N134  1  0.49464000  0.99916000  0.94000000  1.0
  N  N135  1  0.01290000  0.99988000  0.55797000  1.0
  N  N136  1  0.50536000  0.00085000  0.06000000  1.0
  N  N137  1  0.98711000  0.00009000  0.44202000  1.0
  N  N138  1  0.29059000  0.18217000  0.14801000  1.0
  N  N139  1  0.78765000  0.81734000  0.35190000  1.0
  N  N140  1  0.70943000  0.81786000  0.85202000  1.0
  N  N141  1  0.21234000  0.18264000  0.64809000  1.0
  N  N142  1  0.57744000  0.15175000  0.16038000  1.0
  N  N143  1  0.07544000  0.84968000  0.34007000  1.0
  N  N144  1  0.42259000  0.84829000  0.83965000  1.0
  N  N145  1  0.92456000  0.15033000  0.65993000  1.0
  O  O146  1  0.86202000  0.01548000  0.06113000  1.0
  O  O147  1  0.34472000  0.99214000  0.43521000  1.0
  O  O148  1  0.13796000  0.98453000  0.93887000  1.0
  O  O149  1  0.65529000  0.00782000  0.56479000  1.0
  O  O150  1  0.04042000  0.19557000  0.00314000  1.0
  O  O151  1  0.52563000  0.82023000  0.49530000  1.0
  O  O152  1  0.95957000  0.80446000  0.99686000  1.0
  O  O153  1  0.47436000  0.17974000  0.50470000  1.0
  O  O154  1  0.92365000  0.12359000  0.11815000  1.0
  O  O155  1  0.41455000  0.87675000  0.38020000  1.0
  O  O156  1  0.07635000  0.87641000  0.88185000  1.0
  O  O157  1  0.58542000  0.12322000  0.61979000  1.0
  O  O158  1  0.07882000  0.30911000  0.06015000  1.0
  O  O159  1  0.57046000  0.70001000  0.44054000  1.0
  O  O160  1  0.92120000  0.69090000  0.93986000  1.0
  O  O161  1  0.42955000  0.29996000  0.55946000  1.0
  O  O162  1  0.80790000  0.54767000  0.87834000  1.0
  O  O163  1  0.31773000  0.45194000  0.62030000  1.0
  O  O164  1  0.19211000  0.45234000  0.12167000  1.0
  O  O165  1  0.68225000  0.54805000  0.37968000  1.0
  O  O166  1  0.96789000  0.43467000  0.83484000  1.0
  O  O167  1  0.47418000  0.56210000  0.66464000  1.0
  O  O168  1  0.03214000  0.56534000  0.16517000  1.0
  O  O169  1  0.52583000  0.43785000  0.33535000  1.0
  O  O170  1  0.58431000  0.49275000  0.80987000  1.0
  O  O171  1  0.08856000  0.50882000  0.68960000  1.0
  O  O172  1  0.41574000  0.50723000  0.19013000  1.0
  O  O173  1  0.91145000  0.49117000  0.31039000  1.0
  O  O174  1  0.31557000  0.42268000  0.83338000  1.0
  O  O175  1  0.82218000  0.58042000  0.66597000  1.0
  O  O176  1  0.68446000  0.57734000  0.16662000  1.0
  O  O177  1  0.17783000  0.41956000  0.33403000  1.0
  O  O178  1  0.46353000  0.75537000  0.30553000  1.0
  O  O179  1  0.96437000  0.24504000  0.19440000  1.0
  O  O180  1  0.53644000  0.24462000  0.69447000  1.0
  O  O181  1  0.03561000  0.75501000  0.80559000  1.0
  O  O182  1  0.59038000  0.64215000  0.25612000  1.0
  O  O183  1  0.09220000  0.35714000  0.24336000  1.0
  O  O184  1  0.40961000  0.35786000  0.74387000  1.0
  O  O185  1  0.90781000  0.64286000  0.75664000  1.0
  O  O186  1  0.18589000  0.63822000  0.24954000  1.0
  O  O187  1  0.68590000  0.36145000  0.25127000  1.0
  O  O188  1  0.81410000  0.36179000  0.75045000  1.0
  O  O189  1  0.31408000  0.63854000  0.74872000  1.0
  O  O190  1  0.96596000  0.77362000  0.23058000  1.0
  O  O191  1  0.46555000  0.22553000  0.27026000  1.0
  O  O192  1  0.03405000  0.22640000  0.76942000  1.0
  O  O193  1  0.53441000  0.77447000  0.72974000  1.0
  O  O194  1  0.80785000  0.40041000  0.11242000  1.0
  O  O195  1  0.30069000  0.60009000  0.38871000  1.0
  O  O196  1  0.19216000  0.59959000  0.88759000  1.0
  O  O197  1  0.69932000  0.39989000  0.61129000  1.0
