# generated using pymatgen
data_CdH7C12S(NO)2
_symmetry_space_group_name_H-M   'P 1'
_cell_length_a   8.84746000
_cell_length_b   11.70730000
_cell_length_c   12.39460000
_cell_angle_alpha   93.79360000
_cell_angle_beta   94.61820000
_cell_angle_gamma   104.32500000
_symmetry_Int_Tables_number   1
_chemical_formula_structural   CdH7C12S(NO)2
_chemical_formula_sum   'Cd4 H28 C48 S4 N8 O8'
_cell_volume   1234.94012177
_cell_formula_units_Z   4
loop_
 _symmetry_equiv_pos_site_id
 _symmetry_equiv_pos_as_xyz
  1  'x, y, z'
loop_
 _atom_site_type_symbol
 _atom_site_label
 _atom_site_symmetry_multiplicity
 _atom_site_fract_x
 _atom_site_fract_y
 _atom_site_fract_z
 _atom_site_occupancy
  Cd  Cd0  1  0.37347000  0.92723000  0.35744000  1.0
  Cd  Cd1  1  0.62653000  0.07278000  0.64256000  1.0
  Cd  Cd2  1  0.32008000  0.76897000  0.64929000  1.0
  Cd  Cd3  1  0.67992000  0.23103000  0.35071000  1.0
  H  H4  1  0.29397000  0.23001000  0.51420000  1.0
  H  H5  1  0.70602000  0.76999000  0.48580000  1.0
  H  H6  1  0.96257000  0.98067000  0.67409000  1.0
  H  H7  1  0.03743000  0.01933000  0.32591000  1.0
  H  H8  1  0.09552000  0.35094000  0.49589000  1.0
  H  H9  1  0.90448000  0.64907000  0.50411000  1.0
  H  H10  1  0.81939000  0.91955000  0.91035000  1.0
  H  H11  1  0.18061000  0.08044000  0.08964000  1.0
  H  H12  1  0.25088000  0.79165000  0.93537000  1.0
  H  H13  1  0.74912000  0.20835000  0.06463000  1.0
  H  H14  1  0.71815000  0.91619000  0.09485000  1.0
  H  H15  1  0.28185000  0.08381000  0.90515000  1.0
  H  H16  1  0.56275000  0.59682000  0.61659000  1.0
  H  H17  1  0.43725000  0.40319000  0.38340000  1.0
  H  H18  1  0.92075000  0.31496000  0.89780000  1.0
  H  H19  1  0.07927000  0.68504000  0.10221000  1.0
  H  H20  1  0.15517000  0.24672000  0.85945000  1.0
  H  H21  1  0.84484000  0.75328000  0.14055000  1.0
  H  H22  1  0.60711000  0.40376000  0.67232000  1.0
  H  H23  1  0.39289000  0.59624000  0.32768000  1.0
  H  H24  1  0.77757000  0.47464000  0.89519000  1.0
  H  H25  1  0.22244000  0.52535000  0.10481000  1.0
  H  H26  1  0.96746000  0.78197000  0.72679000  1.0
  H  H27  1  0.03254000  0.21802000  0.27321000  1.0
  H  H28  1  0.75685000  0.67084000  0.83192000  1.0
  H  H29  1  0.24315000  0.32915000  0.16808000  1.0
  H  H30  1  0.40932000  0.27714000  0.77574000  1.0
  H  H31  1  0.59069000  0.72287000  0.22426000  1.0
  C  C32  1  0.25194000  0.01555000  0.60342000  1.0
  C  C33  1  0.74806000  0.98445000  0.39658000  1.0
  C  C34  1  0.14497000  0.09628000  0.59627000  1.0
  C  C35  1  0.85502000  0.90373000  0.40373000  1.0
  C  C36  1  0.18007000  0.20191000  0.54531000  1.0
  C  C37  1  0.81993000  0.79809000  0.45469000  1.0
  C  C38  1  0.99789000  0.06222000  0.63463000  1.0
  C  C39  1  0.00211000  0.93778000  0.36537000  1.0
  C  C40  1  0.07020000  0.26823000  0.53435000  1.0
  C  C41  1  0.92980000  0.73177000  0.46565000  1.0
  C  C42  1  0.92183000  0.22543000  0.57118000  1.0
  C  C43  1  0.07816000  0.77458000  0.42882000  1.0
  C  C44  1  0.40871000  0.85795000  0.13528000  1.0
  C  C45  1  0.59129000  0.14206000  0.86471000  1.0
  C  C46  1  0.58662000  0.85514000  0.82570000  1.0
  C  C47  1  0.41337000  0.14487000  0.17429000  1.0
  C  C48  1  0.69475000  0.88883000  0.91900000  1.0
  C  C49  1  0.30524000  0.11117000  0.08100000  1.0
  C  C50  1  0.37773000  0.81822000  0.93281000  1.0
  C  C51  1  0.62226000  0.18178000  0.06720000  1.0
  C  C52  1  0.63888000  0.88682000  0.02067000  1.0
  C  C53  1  0.36111000  0.11318000  0.97933000  1.0
  C  C54  1  0.47693000  0.85163000  0.02907000  1.0
  C  C55  1  0.52306000  0.14837000  0.97093000  1.0
  C  C56  1  0.11012000  0.55224000  0.76592000  1.0
  C  C57  1  0.88989000  0.44776000  0.23408000  1.0
  C  C58  1  0.24552000  0.51028000  0.74147000  1.0
  C  C59  1  0.75448000  0.48972000  0.25853000  1.0
  C  C60  1  0.47838000  0.53851000  0.66130000  1.0
  C  C61  1  0.52162000  0.46150000  0.33870000  1.0
  C  C62  1  0.99607000  0.48200000  0.82543000  1.0
  C  C63  1  0.00394000  0.51799000  0.17457000  1.0
  C  C64  1  0.01418000  0.37083000  0.85835000  1.0
  C  C65  1  0.98583000  0.62917000  0.14166000  1.0
  C  C66  1  0.26162000  0.40076000  0.77799000  1.0
  C  C67  1  0.73839000  0.59924000  0.22200000  1.0
  C  C68  1  0.14253000  0.33214000  0.83567000  1.0
  C  C69  1  0.85748000  0.66786000  0.16433000  1.0
  C  C70  1  0.50353000  0.43139000  0.69364000  1.0
  C  C71  1  0.49648000  0.56861000  0.30636000  1.0
  C  C72  1  0.86670000  0.52637000  0.84946000  1.0
  C  C73  1  0.13330000  0.47363000  0.15054000  1.0
  C  C74  1  0.97266000  0.69682000  0.75570000  1.0
  C  C75  1  0.02734000  0.30317000  0.24430000  1.0
  C  C76  1  0.85491000  0.63397000  0.81484000  1.0
  C  C77  1  0.14509000  0.36602000  0.18516000  1.0
  C  C78  1  0.39471000  0.36233000  0.75213000  1.0
  C  C79  1  0.60530000  0.63767000  0.24787000  1.0
  S  S80  1  0.63860000  0.85601000  0.69249000  1.0
  S  S81  1  0.36140000  0.14399000  0.30751000  1.0
  S  S82  1  0.76543000  0.29114000  0.55654000  1.0
  S  S83  1  0.23457000  0.70886000  0.44346000  1.0
  N  N84  1  0.89038000  0.12352000  0.62084000  1.0
  N  N85  1  0.10962000  0.87648000  0.37916000  1.0
  N  N86  1  0.43067000  0.81916000  0.83496000  1.0
  N  N87  1  0.56933000  0.18084000  0.16504000  1.0
  N  N88  1  0.35384000  0.57638000  0.68421000  1.0
  N  N89  1  0.64617000  0.42363000  0.31579000  1.0
  N  N90  1  0.09590000  0.65726000  0.73199000  1.0
  N  N91  1  0.90411000  0.34274000  0.26801000  1.0
  O  O92  1  0.37419000  0.03914000  0.55151000  1.0
  O  O93  1  0.62581000  0.96085000  0.44849000  1.0
  O  O94  1  0.50797000  0.88037000  0.22097000  1.0
  O  O95  1  0.49203000  0.11965000  0.77902000  1.0
  O  O96  1  0.20942000  0.92648000  0.65715000  1.0
  O  O97  1  0.79057000  0.07352000  0.34285000  1.0
  O  O98  1  0.26357000  0.84506000  0.13648000  1.0
  O  O99  1  0.73642000  0.15494000  0.86352000  1.0
