# generated using pymatgen
data_CuH8C14NO5F4
_symmetry_space_group_name_H-M   'P 1'
_cell_length_a   7.48967000
_cell_length_b   8.52316000
_cell_length_c   11.76030000
_cell_angle_alpha   99.56130000
_cell_angle_beta   101.05800000
_cell_angle_gamma   106.39200000
_symmetry_Int_Tables_number   1
_chemical_formula_structural   CuH8C14NO5F4
_chemical_formula_sum   'Cu2 H16 C28 N2 O10 F8'
_cell_volume   687.23212453
_cell_formula_units_Z   2
loop_
 _symmetry_equiv_pos_site_id
 _symmetry_equiv_pos_as_xyz
  1  'x, y, z'
loop_
 _atom_site_type_symbol
 _atom_site_label
 _atom_site_symmetry_multiplicity
 _atom_site_fract_x
 _atom_site_fract_y
 _atom_site_fract_z
 _atom_site_occupancy
  Cu  Cu0  1  0.67203000  0.64509000  0.95129000  1.0
  Cu  Cu1  1  0.32797000  0.35491000  0.04871000  1.0
  H  H2  1  0.82857000  0.98862000  0.91378000  1.0
  H  H3  1  0.17144000  0.01138000  0.08622000  1.0
  H  H4  1  0.44746000  0.53275000  0.70403000  1.0
  H  H5  1  0.55254000  0.46726000  0.29597000  1.0
  H  H6  1  0.80999000  0.12531000  0.74358000  1.0
  H  H7  1  0.19001000  0.87469000  0.25642000  1.0
  H  H8  1  0.40953000  0.65164000  0.52469000  1.0
  H  H9  1  0.59047000  0.34837000  0.47531000  1.0
  H  H10  1  0.58913000  0.88504000  0.43176000  1.0
  H  H11  1  0.41087000  0.11496000  0.56824000  1.0
  H  H12  1  0.71833000  0.08617000  0.52612000  1.0
  H  H13  1  0.28167000  0.91383000  0.47387000  1.0
  H  H14  1  0.55976000  0.34102000  0.82673000  1.0
  H  H15  1  0.44024000  0.65898000  0.17327000  1.0
  H  H16  1  0.79309000  0.41439000  0.85881000  1.0
  H  H17  1  0.20691000  0.58561000  0.14118000  1.0
  C  C18  1  0.85985000  0.52334000  0.12271000  1.0
  C  C19  1  0.14015000  0.47666000  0.87729000  1.0
  C  C20  1  0.88313000  0.39725000  0.19549000  1.0
  C  C21  1  0.11687000  0.60275000  0.80451000  1.0
  C  C22  1  0.00693000  0.44692000  0.30958000  1.0
  C  C23  1  0.99308000  0.55308000  0.69042000  1.0
  C  C24  1  0.03201000  0.33086000  0.37637000  1.0
  C  C25  1  0.96800000  0.66915000  0.62364000  1.0
  C  C26  1  0.93267000  0.16040000  0.32805000  1.0
  C  C27  1  0.06733000  0.83959000  0.67196000  1.0
  C  C28  1  0.81248000  0.10250000  0.21301000  1.0
  C  C29  1  0.18752000  0.89750000  0.78700000  1.0
  C  C30  1  0.79087000  0.22417000  0.15019000  1.0
  C  C31  1  0.20912000  0.77583000  0.84982000  1.0
  C  C32  1  0.71320000  0.91578000  0.15971000  1.0
  C  C33  1  0.28679000  0.08422000  0.84029000  1.0
  C  C34  1  0.73761000  0.91870000  0.82599000  1.0
  C  C35  1  0.26239000  0.08130000  0.17401000  1.0
  C  C36  1  0.52306000  0.66386000  0.70869000  1.0
  C  C37  1  0.47694000  0.33614000  0.29131000  1.0
  C  C38  1  0.72509000  0.99376000  0.72986000  1.0
  C  C39  1  0.27491000  0.00625000  0.27014000  1.0
  C  C40  1  0.50403000  0.73123000  0.60926000  1.0
  C  C41  1  0.49597000  0.26877000  0.39074000  1.0
  C  C42  1  0.60820000  0.89944000  0.61796000  1.0
  C  C43  1  0.39180000  0.10056000  0.38204000  1.0
  C  C44  1  0.59196000  0.97471000  0.51152000  1.0
  C  C45  1  0.40804000  0.02529000  0.48848000  1.0
  N  N46  1  0.63884000  0.75606000  0.81573000  1.0
  N  N47  1  0.36116000  0.24394000  0.18427000  1.0
  O  O48  1  0.68612000  0.51455000  0.07655000  1.0
  O  O49  1  0.31388000  0.48545000  0.92344000  1.0
  O  O50  1  0.00660000  0.62621000  0.10900000  1.0
  O  O51  1  0.99340000  0.37378000  0.89100000  1.0
  O  O52  1  0.75311000  0.86514000  0.06189000  1.0
  O  O53  1  0.24689000  0.13486000  0.93811000  1.0
  O  O54  1  0.60808000  0.83414000  0.21473000  1.0
  O  O55  1  0.39191000  0.16586000  0.78528000  1.0
  O  O56  1  0.67264000  0.44517000  0.83582000  1.0
  O  O57  1  0.32736000  0.55483000  0.16417000  1.0
  F  F58  1  0.10415000  0.61158000  0.35944000  1.0
  F  F59  1  0.89585000  0.38842000  0.64056000  1.0
  F  F60  1  0.15245000  0.38269000  0.48682000  1.0
  F  F61  1  0.84756000  0.61731000  0.51318000  1.0
  F  F62  1  0.96020000  0.05099000  0.39471000  1.0
  F  F63  1  0.03980000  0.94902000  0.60530000  1.0
  F  F64  1  0.67463000  0.17161000  0.03837000  1.0
  F  F65  1  0.32536000  0.82838000  0.96163000  1.0
