# generated using pymatgen
data_ZnH13C12NO5
_symmetry_space_group_name_H-M   'P 1'
_cell_length_a   7.16083000
_cell_length_b   7.52098000
_cell_length_c   24.16180000
_cell_angle_alpha   90.00000000
_cell_angle_beta   90.00000000
_cell_angle_gamma   91.14060000
_symmetry_Int_Tables_number   1
_chemical_formula_structural   ZnH13C12NO5
_chemical_formula_sum   'Zn4 H52 C48 N4 O20'
_cell_volume   1301.01115983
_cell_formula_units_Z   4
loop_
 _symmetry_equiv_pos_site_id
 _symmetry_equiv_pos_as_xyz
  1  'x, y, z'
loop_
 _atom_site_type_symbol
 _atom_site_label
 _atom_site_symmetry_multiplicity
 _atom_site_fract_x
 _atom_site_fract_y
 _atom_site_fract_z
 _atom_site_occupancy
  Zn  Zn0  1  0.13119000  0.55314000  0.22088000  1.0
  Zn  Zn1  1  0.36881000  0.94686000  0.72088000  1.0
  Zn  Zn2  1  0.86881000  0.44686000  0.77912000  1.0
  Zn  Zn3  1  0.63119000  0.05314000  0.27912000  1.0
  H  H4  1  0.02140000  0.81673000  0.27447000  1.0
  H  H5  1  0.47860000  0.68328000  0.77447000  1.0
  H  H6  1  0.97860000  0.18328000  0.72553000  1.0
  H  H7  1  0.52140000  0.31672000  0.22553000  1.0
  H  H8  1  0.24389000  0.82162000  0.27245000  1.0
  H  H9  1  0.25611000  0.67839000  0.77245000  1.0
  H  H10  1  0.75610000  0.17839000  0.72755000  1.0
  H  H11  1  0.74390000  0.32161000  0.22755000  1.0
  H  H12  1  0.13927000  0.49010000  0.34762000  1.0
  H  H13  1  0.36073000  0.00990000  0.84762000  1.0
  H  H14  1  0.86073000  0.50990000  0.65237000  1.0
  H  H15  1  0.63927000  0.99009000  0.15237000  1.0
  H  H16  1  0.10792000  0.10334000  0.39019000  1.0
  H  H17  1  0.39208000  0.39666000  0.89019000  1.0
  H  H18  1  0.89208000  0.89666000  0.60981000  1.0
  H  H19  1  0.60792000  0.60334000  0.10981000  1.0
  H  H20  1  0.28492000  0.25389000  0.41168000  1.0
  H  H21  1  0.21507000  0.24612000  0.91168000  1.0
  H  H22  1  0.71508000  0.74612000  0.58832000  1.0
  H  H23  1  0.78492000  0.75388000  0.08832000  1.0
  H  H24  1  0.02096000  0.46296000  0.44659000  1.0
  H  H25  1  0.47904000  0.03705000  0.94659000  1.0
  H  H26  1  0.97905000  0.53705000  0.55341000  1.0
  H  H27  1  0.52096000  0.96295000  0.05341000  1.0
  H  H28  1  0.90418000  0.07425000  0.47138000  1.0
  H  H29  1  0.59582000  0.42575000  0.97138000  1.0
  H  H30  1  0.09583000  0.92576000  0.52862000  1.0
  H  H31  1  0.40417000  0.57425000  0.02862000  1.0
  H  H32  1  0.83445000  0.27725000  0.50959000  1.0
  H  H33  1  0.66554000  0.22274000  0.00959000  1.0
  H  H34  1  0.16555000  0.72275000  0.49041000  1.0
  H  H35  1  0.33445000  0.77725000  0.99041000  1.0
  H  H36  1  0.15836000  0.14665000  0.20653000  1.0
  H  H37  1  0.34164000  0.35334000  0.70653000  1.0
  H  H38  1  0.84164000  0.85334000  0.79347000  1.0
  H  H39  1  0.65836000  0.64666000  0.29347000  1.0
  H  H40  1  0.11621000  0.92122000  0.13227000  1.0
  H  H41  1  0.38379000  0.57878000  0.63227000  1.0
  H  H42  1  0.88379000  0.07878000  0.86773000  1.0
  H  H43  1  0.61621000  0.42122000  0.36773000  1.0
  H  H44  1  0.03271000  0.35530000  0.01790000  1.0
  H  H45  1  0.46729000  0.14470000  0.51790000  1.0
  H  H46  1  0.96728000  0.64469000  0.98210000  1.0
  H  H47  1  0.53272000  0.85531000  0.48210000  1.0
  H  H48  1  0.08221000  0.56186000  0.09724000  1.0
  H  H49  1  0.41779000  0.93813000  0.59724000  1.0
  H  H50  1  0.91779000  0.43813000  0.90276000  1.0
  H  H51  1  0.58221000  0.06187000  0.40276000  1.0
  H  H52  1  0.04967000  0.84744000  0.03966000  1.0
  H  H53  1  0.45033000  0.65256000  0.53967000  1.0
  H  H54  1  0.95033000  0.15256000  0.96034000  1.0
  H  H55  1  0.54967000  0.34744000  0.46034000  1.0
  C  C56  1  0.30483000  0.30343000  0.30533000  1.0
  C  C57  1  0.19517000  0.19657000  0.80533000  1.0
  C  C58  1  0.69517000  0.69657000  0.69467000  1.0
  C  C59  1  0.80483000  0.80343000  0.19467000  1.0
  C  C60  1  0.13394000  0.34455000  0.34163000  1.0
  C  C61  1  0.36606000  0.15545000  0.84163000  1.0
  C  C62  1  0.86606000  0.65545000  0.65837000  1.0
  C  C63  1  0.63394000  0.84455000  0.15837000  1.0
  C  C64  1  0.95499000  0.30622000  0.30816000  1.0
  C  C65  1  0.54502000  0.19378000  0.80816000  1.0
  C  C66  1  0.04501000  0.69378000  0.69184000  1.0
  C  C67  1  0.45498000  0.80622000  0.19184000  1.0
  C  C68  1  0.13944000  0.24519000  0.39690000  1.0
  C  C69  1  0.36056000  0.25481000  0.89690000  1.0
  C  C70  1  0.86057000  0.75481000  0.60310000  1.0
  C  C71  1  0.63944000  0.74518000  0.10310000  1.0
  C  C72  1  0.01671000  0.31819000  0.44123000  1.0
  C  C73  1  0.48329000  0.18181000  0.94123000  1.0
  C  C74  1  0.98330000  0.68181000  0.55877000  1.0
  C  C75  1  0.51671000  0.81818000  0.05877000  1.0
  C  C76  1  0.91250000  0.21869000  0.47566000  1.0
  C  C77  1  0.58750000  0.28131000  0.97566000  1.0
  C  C78  1  0.08750000  0.78132000  0.52434000  1.0
  C  C79  1  0.41250000  0.71868000  0.02434000  1.0
  C  C80  1  0.12925000  0.18763000  0.16427000  1.0
  C  C81  1  0.37075000  0.31236000  0.66427000  1.0
  C  C82  1  0.87075000  0.81236000  0.83573000  1.0
  C  C83  1  0.62925000  0.68764000  0.33573000  1.0
  C  C84  1  0.10507000  0.06208000  0.12262000  1.0
  C  C85  1  0.39493000  0.43792000  0.62262000  1.0
  C  C86  1  0.89492000  0.93792000  0.87738000  1.0
  C  C87  1  0.60507000  0.56208000  0.37738000  1.0
  C  C88  1  0.06412000  0.11762000  0.06851000  1.0
  C  C89  1  0.43588000  0.38238000  0.56851000  1.0
  C  C90  1  0.93587000  0.88237000  0.93149000  1.0
  C  C91  1  0.56413000  0.61763000  0.43149000  1.0
  C  C92  1  0.05834000  0.30215000  0.05906000  1.0
  C  C93  1  0.44166000  0.19785000  0.55906000  1.0
  C  C94  1  0.94166000  0.69784000  0.94094000  1.0
  C  C95  1  0.55834000  0.80216000  0.44094000  1.0
  C  C96  1  0.08613000  0.41840000  0.10290000  1.0
  C  C97  1  0.41387000  0.08160000  0.60290000  1.0
  C  C98  1  0.91386000  0.58160000  0.89710000  1.0
  C  C99  1  0.58613000  0.91840000  0.39710000  1.0
  C  C100  1  0.02838000  0.98404000  0.02615000  1.0
  C  C101  1  0.47162000  0.51596000  0.52615000  1.0
  C  C102  1  0.97162000  0.01596000  0.97385000  1.0
  C  C103  1  0.52838000  0.48405000  0.47385000  1.0
  N  N104  1  0.11826000  0.36320000  0.15500000  1.0
  N  N105  1  0.38174000  0.13680000  0.65500000  1.0
  N  N106  1  0.88174000  0.63680000  0.84500000  1.0
  N  N107  1  0.61826000  0.86320000  0.34500000  1.0
  O  O108  1  0.33159000  0.39419000  0.26106000  1.0
  O  O109  1  0.16841000  0.10581000  0.76106000  1.0
  O  O110  1  0.66841000  0.60581000  0.73894000  1.0
  O  O111  1  0.83159000  0.89419000  0.23894000  1.0
  O  O112  1  0.41127000  0.18224000  0.32162000  1.0
  O  O113  1  0.08873000  0.31776000  0.82162000  1.0
  O  O114  1  0.58873000  0.81776000  0.67838000  1.0
  O  O115  1  0.91127000  0.68224000  0.17838000  1.0
  O  O116  1  0.92657000  0.39976000  0.26470000  1.0
  O  O117  1  0.57343000  0.10024000  0.76470000  1.0
  O  O118  1  0.07343000  0.60024000  0.73530000  1.0
  O  O119  1  0.42657000  0.89976000  0.23530000  1.0
  O  O120  1  0.84547000  0.18428000  0.32508000  1.0
  O  O121  1  0.65453000  0.31571000  0.82508000  1.0
  O  O122  1  0.15454000  0.81571000  0.67492000  1.0
  O  O123  1  0.34546000  0.68429000  0.17492000  1.0
  O  O124  1  0.13389000  0.74845000  0.28536000  1.0
  O  O125  1  0.36611000  0.75156000  0.78537000  1.0
  O  O126  1  0.86611000  0.25156000  0.71463000  1.0
  O  O127  1  0.63389000  0.24844000  0.21463000  1.0
