# generated using pymatgen
data_Zn2H33C41N2O11
_symmetry_space_group_name_H-M   'P 1'
_cell_length_a   10.94810000
_cell_length_b   13.99820000
_cell_length_c   26.50480000
_cell_angle_alpha   89.19780000
_cell_angle_beta   87.98320000
_cell_angle_gamma   89.08630000
_symmetry_Int_Tables_number   1
_chemical_formula_structural   Zn2H33C41N2O11
_chemical_formula_sum   'Zn4 H66 C82 N4 O22'
_cell_volume   4058.55903159
_cell_formula_units_Z   2
loop_
 _symmetry_equiv_pos_site_id
 _symmetry_equiv_pos_as_xyz
  1  'x, y, z'
loop_
 _atom_site_type_symbol
 _atom_site_label
 _atom_site_symmetry_multiplicity
 _atom_site_fract_x
 _atom_site_fract_y
 _atom_site_fract_z
 _atom_site_occupancy
  Zn  Zn0  1  0.47025000  0.39402000  0.49964000  1.0
  Zn  Zn1  1  0.46431000  0.59773000  0.50126000  1.0
  Zn  Zn2  1  0.52533000  0.61239000  0.91771000  1.0
  Zn  Zn3  1  0.53421000  0.40916000  0.91248000  1.0
  H  H4  1  0.27705000  0.06068000  0.53001000  1.0
  H  H5  1  0.54150000  0.93394000  0.42347000  1.0
  H  H6  1  0.39450000  0.74415000  0.57005000  1.0
  H  H7  1  0.38833000  0.92259000  0.57637000  1.0
  H  H8  1  0.63651000  0.24387000  0.47293000  1.0
  H  H9  1  0.65118000  0.06534000  0.47122000  1.0
  H  H10  1  0.36256000  0.39321000  0.81068000  1.0
  H  H11  1  0.35382000  0.35481000  0.62532000  1.0
  H  H12  1  0.42425000  0.35615000  0.24270000  1.0
  H  H13  1  0.50223000  0.65272000  0.17627000  1.0
  H  H14  1  0.53523000  0.35299000  0.07877000  1.0
  H  H15  1  0.53572000  0.34445000  0.17142000  1.0
  H  H16  1  0.56578000  0.63370000  0.33795000  1.0
  H  H17  1  0.59484000  0.63285000  0.24563000  1.0
  H  H18  1  0.20287000  0.57489000  0.41610000  1.0
  H  H19  1  0.75033000  0.58510000  0.41390000  1.0
  H  H20  1  0.42889000  0.94672000  0.84052000  1.0
  H  H21  1  0.48749000  0.07282000  0.99449000  1.0
  H  H22  1  0.54644000  0.26341000  0.83879000  1.0
  H  H23  1  0.54390000  0.08597000  0.83180000  1.0
  H  H24  1  0.61641000  0.76234000  0.97719000  1.0
  H  H25  1  0.61352000  0.93946000  0.98258000  1.0
  H  H26  1  0.26099000  0.40788000  0.99099000  1.0
  H  H27  1  0.80797000  0.41171000  0.00220000  1.0
  H  H28  1  0.25642000  0.31497000  0.52343000  1.0
  H  H29  1  0.52338000  0.68091000  0.41426000  1.0
  H  H30  1  0.39787000  0.35015000  0.37557000  1.0
  H  H31  1  0.51501000  0.66742000  0.04393000  1.0
  H  H32  1  0.45814000  0.69482000  0.83071000  1.0
  H  H33  1  0.49619000  0.32644000  0.00174000  1.0
  H  H34  1  0.75200000  0.62689000  0.65114000  1.0
  H  H35  1  0.65589000  0.61013000  0.59966000  1.0
  H  H36  1  0.62701000  0.70534000  0.64197000  1.0
  H  H37  1  0.64463000  0.71985000  0.73142000  1.0
  H  H38  1  0.66462000  0.65232000  0.78753000  1.0
  H  H39  1  0.76496000  0.63490000  0.73435000  1.0
  H  H40  1  0.22761000  0.18160000  0.78234000  1.0
  H  H41  1  0.21650000  0.27896000  0.82494000  1.0
  H  H42  1  0.10921000  0.26756000  0.77662000  1.0
  H  H43  1  0.11098000  0.24082000  0.68364000  1.0
  H  H44  1  0.22237000  0.22716000  0.63363000  1.0
  H  H45  1  0.23233000  0.15768000  0.69015000  1.0
  H  H46  1  0.82191000  0.44074000  0.61403000  1.0
  H  H47  1  0.72456000  0.39138000  0.56976000  1.0
  H  H48  1  0.85876000  0.32865000  0.58744000  1.0
  H  H49  1  0.08171000  0.33908000  0.59053000  1.0
  H  H50  1  0.17252000  0.44237000  0.59275000  1.0
  H  H51  1  0.02431000  0.44161000  0.62167000  1.0
  H  H52  1  0.10965000  0.74028000  0.33001000  1.0
  H  H53  1  0.22095000  0.64780000  0.33781000  1.0
  H  H54  1  0.09865000  0.63309000  0.29631000  1.0
  H  H55  1  0.86563000  0.63934000  0.29743000  1.0
  H  H56  1  0.75558000  0.68522000  0.34212000  1.0
  H  H57  1  0.89107000  0.74918000  0.32704000  1.0
  H  H58  1  0.93323000  0.56360000  0.79775000  1.0
  H  H59  1  0.79933000  0.58087000  0.83648000  1.0
  H  H60  1  0.91050000  0.67097000  0.83124000  1.0
  H  H61  1  0.13479000  0.67369000  0.82786000  1.0
  H  H62  1  0.25900000  0.59214000  0.83358000  1.0
  H  H63  1  0.13528000  0.56414000  0.79544000  1.0
  H  H64  1  0.14938000  0.23099000  0.07300000  1.0
  H  H65  1  0.27334000  0.30978000  0.06183000  1.0
  H  H66  1  0.15918000  0.33502000  0.10943000  1.0
  H  H67  1  0.93420000  0.33766000  0.11598000  1.0
  H  H68  1  0.80582000  0.32526000  0.07741000  1.0
  H  H69  1  0.92274000  0.23548000  0.07830000  1.0
  C  C70  1  0.46773000  0.49691000  0.39885000  1.0
  C  C71  1  0.70148000  0.49097000  0.49385000  1.0
  C  C72  1  0.48403000  0.49708000  0.59740000  1.0
  C  C73  1  0.22813000  0.49870000  0.50373000  1.0
  C  C74  1  0.51773000  0.51187000  0.01863000  1.0
  C  C75  1  0.76425000  0.50522000  0.91955000  1.0
  C  C76  1  0.53280000  0.51284000  0.81428000  1.0
  C  C77  1  0.29481000  0.51035000  0.91338000  1.0
  C  C78  1  0.35710000  0.19819000  0.51574000  1.0
  C  C79  1  0.35973000  0.09764000  0.51753000  1.0
  C  C80  1  0.50485000  0.79512000  0.45589000  1.0
  C  C81  1  0.50904000  0.89543000  0.45716000  1.0
  C  C82  1  0.42433000  0.79005000  0.53852000  1.0
  C  C83  1  0.42162000  0.88842000  0.54179000  1.0
  C  C84  1  0.55923000  0.19950000  0.48463000  1.0
  C  C85  1  0.56672000  0.10100000  0.48384000  1.0
  C  C86  1  0.46428000  0.04835000  0.50094000  1.0
  C  C87  1  0.46598000  0.94281000  0.50008000  1.0
  C  C88  1  0.51911000  0.51261000  0.75826000  1.0
  C  C89  1  0.43936000  0.44334000  0.73856000  1.0
  C  C90  1  0.58611000  0.57407000  0.72656000  1.0
  C  C91  1  0.36293000  0.38464000  0.76987000  1.0
  C  C92  1  0.28685000  0.31737000  0.75054000  1.0
  C  C93  1  0.50117000  0.49910000  0.65327000  1.0
  C  C94  1  0.57784000  0.56641000  0.67301000  1.0
  C  C95  1  0.43226000  0.43506000  0.68508000  1.0
  C  C96  1  0.35562000  0.36409000  0.66599000  1.0
  C  C97  1  0.28565000  0.30499000  0.69710000  1.0
  C  C98  1  0.48263000  0.49544000  0.34355000  1.0
  C  C99  1  0.52074000  0.50681000  0.07416000  1.0
  C  C100  1  0.44589000  0.41528000  0.31576000  1.0
  C  C101  1  0.45835000  0.41698000  0.26289000  1.0
  C  C102  1  0.51538000  0.59196000  0.10289000  1.0
  C  C103  1  0.51202000  0.58605000  0.15569000  1.0
  C  C104  1  0.52779000  0.41870000  0.10027000  1.0
  C  C105  1  0.52705000  0.41369000  0.15250000  1.0
  C  C106  1  0.53511000  0.57296000  0.31686000  1.0
  C  C107  1  0.55002000  0.57305000  0.26489000  1.0
  C  C108  1  0.50930000  0.49515000  0.23691000  1.0
  C  C109  1  0.51711000  0.49808000  0.18112000  1.0
  C  C110  1  0.09258000  0.49513000  0.50122000  1.0
  C  C111  1  0.03664000  0.53622000  0.45777000  1.0
  C  C112  1  0.02342000  0.45362000  0.54059000  1.0
  C  C113  1  0.10350000  0.57654000  0.41607000  1.0
  C  C114  1  0.04728000  0.62006000  0.37574000  1.0
  C  C115  1  0.83826000  0.49000000  0.49566000  1.0
  C  C116  1  0.89382000  0.44815000  0.53693000  1.0
  C  C117  1  0.90637000  0.53634000  0.45591000  1.0
  C  C118  1  0.84992000  0.58248000  0.41455000  1.0
  C  C119  1  0.91676000  0.62548000  0.37555000  1.0
  C  C120  1  0.47835000  0.80913000  0.87109000  1.0
  C  C121  1  0.47179000  0.90965000  0.87181000  1.0
  C  C122  1  0.50493000  0.21147000  0.95961000  1.0
  C  C123  1  0.50212000  0.11111000  0.95882000  1.0
  C  C124  1  0.53349000  0.21745000  0.87207000  1.0
  C  C125  1  0.53081000  0.11923000  0.86849000  1.0
  C  C126  1  0.57466000  0.80653000  0.94810000  1.0
  C  C127  1  0.57216000  0.90482000  0.95106000  1.0
  C  C128  1  0.51873000  0.95850000  0.91191000  1.0
  C  C129  1  0.51621000  0.06394000  0.91314000  1.0
  C  C130  1  0.15778000  0.50682000  0.91401000  1.0
  C  C131  1  0.09683000  0.45815000  0.95497000  1.0
  C  C132  1  0.09405000  0.55058000  0.87551000  1.0
  C  C133  1  0.16133000  0.40919000  0.99326000  1.0
  C  C134  1  0.10248000  0.36125000  0.03275000  1.0
  C  C135  1  0.90146000  0.50586000  0.91811000  1.0
  C  C136  1  0.96343000  0.54948000  0.87741000  1.0
  C  C137  1  0.96606000  0.45840000  0.95750000  1.0
  C  C138  1  0.90747000  0.41160000  0.99940000  1.0
  C  C139  1  0.97180000  0.36359000  0.03618000  1.0
  C  C140  1  0.65657000  0.62991000  0.63942000  1.0
  C  C141  1  0.66911000  0.64859000  0.74639000  1.0
  C  C142  1  0.20623000  0.25849000  0.78553000  1.0
  C  C143  1  0.20909000  0.22898000  0.67484000  1.0
  C  C144  1  0.82044000  0.39991000  0.57883000  1.0
  C  C145  1  0.07922000  0.41772000  0.58857000  1.0
  C  C146  1  0.12324000  0.66228000  0.33287000  1.0
  C  C147  1  0.85381000  0.67728000  0.33347000  1.0
  C  C148  1  0.89748000  0.59315000  0.83367000  1.0
  C  C149  1  0.15958000  0.59738000  0.83105000  1.0
  C  C150  1  0.17504000  0.30677000  0.07114000  1.0
  C  C151  1  0.90489000  0.31316000  0.07908000  1.0
  N  N152  1  0.45673000  0.24807000  0.50005000  1.0
  N  N153  1  0.46489000  0.74360000  0.49651000  1.0
  N  N154  1  0.52756000  0.75850000  0.90944000  1.0
  N  N155  1  0.52178000  0.26343000  0.91667000  1.0
  O  O156  1  0.43079000  0.42097000  0.42217000  1.0
  O  O157  1  0.49178000  0.57325000  0.42270000  1.0
  O  O158  1  0.64767000  0.56888000  0.50591000  1.0
  O  O159  1  0.64936000  0.41456000  0.48094000  1.0
  O  O160  1  0.44498000  0.57443000  0.57720000  1.0
  O  O161  1  0.50747000  0.41950000  0.57413000  1.0
  O  O162  1  0.28671000  0.42053000  0.51444000  1.0
  O  O163  1  0.28111000  0.57687000  0.49456000  1.0
  O  O164  1  0.52635000  0.59473000  0.99725000  1.0
  O  O165  1  0.50570000  0.43569000  0.99305000  1.0
  O  O166  1  0.71319000  0.42416000  0.92327000  1.0
  O  O167  1  0.70758000  0.58551000  0.91640000  1.0
  O  O168  1  0.56638000  0.43563000  0.83538000  1.0
  O  O169  1  0.50916000  0.59022000  0.83869000  1.0
  O  O170  1  0.34259000  0.58954000  0.92377000  1.0
  O  O171  1  0.35352000  0.43323000  0.90288000  1.0
  O  O172  1  0.25355000  0.24267000  0.52970000  1.0
  O  O173  1  0.54047000  0.75209000  0.41332000  1.0
  O  O174  1  0.39688000  0.33730000  0.33840000  1.0
  O  O175  1  0.51089000  0.67967000  0.08127000  1.0
  O  O176  1  0.43516000  0.76544000  0.83139000  1.0
  O  O177  1  0.49090000  0.25383000  0.00408000  1.0
