# generated using pymatgen
data_AlH15(C3O)6
_symmetry_space_group_name_H-M   'P 1'
_cell_length_a   4.00333000
_cell_length_b   17.18380000
_cell_length_c   17.18380000
_cell_angle_alpha   60.00000000
_cell_angle_beta   90.00010000
_cell_angle_gamma   89.99980000
_symmetry_Int_Tables_number   1
_chemical_formula_structural   AlH15(C3O)6
_chemical_formula_sum   'Al2 H30 C36 O12'
_cell_volume   1023.74181252
_cell_formula_units_Z   2
loop_
 _symmetry_equiv_pos_site_id
 _symmetry_equiv_pos_as_xyz
  1  'x, y, z'
loop_
 _atom_site_type_symbol
 _atom_site_label
 _atom_site_symmetry_multiplicity
 _atom_site_fract_x
 _atom_site_fract_y
 _atom_site_fract_z
 _atom_site_occupancy
  Al  Al0  1  0.02975000  0.50000000  1.00000000  1.0
  Al  Al1  1  0.97028000  0.16667000  0.66666000  1.0
  H  H2  1  0.72929000  0.47227000  0.41584000  1.0
  H  H3  1  0.28425000  0.47193000  0.41847000  1.0
  H  H4  1  0.27000000  0.55497000  0.24965000  1.0
  H  H5  1  0.71504000  0.55735000  0.24711000  1.0
  H  H6  1  0.72926000  0.11189000  0.97227000  1.0
  H  H7  1  0.28421000  0.10960000  0.97193000  1.0
  H  H8  1  0.26998000  0.19539000  0.05497000  1.0
  H  H9  1  0.71502000  0.19554000  0.05736000  1.0
  H  H10  1  0.72927000  0.91584000  0.61189000  1.0
  H  H11  1  0.28422000  0.91847000  0.60960000  1.0
  H  H12  1  0.26998000  0.74965000  0.69538000  1.0
  H  H13  1  0.71502000  0.74710000  0.69554000  1.0
  H  H14  1  0.72739000  0.19173000  0.24903000  1.0
  H  H15  1  0.47048000  0.27484000  0.16437000  1.0
  H  H16  1  0.28889000  0.18320000  0.26104000  1.0
  H  H17  1  0.27305000  0.10749000  0.41823000  1.0
  H  H18  1  0.53001000  0.10620000  0.50274000  1.0
  H  H19  1  0.71148000  0.11096000  0.40619000  1.0
  H  H20  1  0.72743000  0.55923000  0.69173000  1.0
  H  H21  1  0.47052000  0.56079000  0.77483000  1.0
  H  H22  1  0.28892000  0.55576000  0.68320000  1.0
  H  H23  1  0.27306000  0.47428000  0.60749000  1.0
  H  H24  1  0.53001000  0.39106000  0.60619000  1.0
  H  H25  1  0.71149000  0.48285000  0.61095000  1.0
  H  H26  1  0.72742000  0.74903000  0.05924000  1.0
  H  H27  1  0.47051000  0.66437000  0.06079000  1.0
  H  H28  1  0.28891000  0.76104000  0.05576000  1.0
  H  H29  1  0.27305000  0.91823000  0.97428000  1.0
  H  H30  1  0.53000000  0.00275000  0.89105000  1.0
  H  H31  1  0.71148000  0.90619000  0.98285000  1.0
  C  C32  1  0.52415000  0.63762000  0.93031000  1.0
  C  C33  1  0.52416000  0.43207000  0.13762000  1.0
  C  C34  1  0.52415000  0.43031000  0.93207000  1.0
  C  C35  1  0.47615000  0.23691000  0.52890000  1.0
  C  C36  1  0.47613000  0.23419000  0.73691000  1.0
  C  C37  1  0.47613000  0.02890000  0.73419000  1.0
  C  C38  1  0.49506000  0.28332000  0.42930000  1.0
  C  C39  1  0.50494000  0.37898000  0.23720000  1.0
  C  C40  1  0.50227000  0.37669000  0.37972000  1.0
  C  C41  1  0.50442000  0.28389000  0.28577000  1.0
  C  C42  1  0.49748000  0.42315000  0.28641000  1.0
  C  C43  1  0.49582000  0.23648000  0.38103000  1.0
  C  C44  1  0.50326000  0.46180000  0.38601000  1.0
  C  C45  1  0.49607000  0.51475000  0.27964000  1.0
  C  C46  1  0.49506000  0.28739000  0.78332000  1.0
  C  C47  1  0.50494000  0.38382000  0.87898000  1.0
  C  C48  1  0.50224000  0.24360000  0.87669000  1.0
  C  C49  1  0.50444000  0.43034000  0.78389000  1.0
  C  C50  1  0.49747000  0.29045000  0.92315000  1.0
  C  C51  1  0.49583000  0.38250000  0.73648000  1.0
  C  C52  1  0.50323000  0.15219000  0.96180000  1.0
  C  C53  1  0.49605000  0.20562000  0.01475000  1.0
  C  C54  1  0.49504000  0.92929000  0.78738000  1.0
  C  C55  1  0.50493000  0.73720000  0.88382000  1.0
  C  C56  1  0.50224000  0.87971000  0.74360000  1.0
  C  C57  1  0.50443000  0.78576000  0.93034000  1.0
  C  C58  1  0.49747000  0.78640000  0.79044000  1.0
  C  C59  1  0.49582000  0.88102000  0.88250000  1.0
  C  C60  1  0.50324000  0.88602000  0.65218000  1.0
  C  C61  1  0.49605000  0.77963000  0.70561000  1.0
  C  C62  1  0.49746000  0.23136000  0.23705000  1.0
  C  C63  1  0.50295000  0.13523000  0.43010000  1.0
  C  C64  1  0.49749000  0.53160000  0.73135000  1.0
  C  C65  1  0.50297000  0.43467000  0.63523000  1.0
  C  C66  1  0.49747000  0.73705000  0.03159000  1.0
  C  C67  1  0.50295000  0.93010000  0.93467000  1.0
  O  O68  1  0.29864000  0.41199000  0.99149000  1.0
  O  O69  1  0.29863000  0.59652000  0.91199000  1.0
  O  O70  1  0.29864000  0.49149000  0.09652000  1.0
  O  O71  1  0.76811000  0.48388000  0.91626000  1.0
  O  O72  1  0.76811000  0.41626000  0.09986000  1.0
  O  O73  1  0.76811000  0.59986000  0.98388000  1.0
  O  O74  1  0.23212000  0.06664000  0.75001000  1.0
  O  O75  1  0.23212000  0.18335000  0.56664000  1.0
  O  O76  1  0.23211000  0.25002000  0.68334000  1.0
  O  O77  1  0.70173000  0.07011000  0.67479000  1.0
  O  O78  1  0.70172000  0.17479000  0.75510000  1.0
  O  O79  1  0.70173000  0.25510000  0.57011000  1.0
