# generated using pymatgen
data_CdH18C30N2(Cl2O)2
_symmetry_space_group_name_H-M   'P 1'
_cell_length_a   10.10050000
_cell_length_b   18.92450000
_cell_length_c   21.01390000
_cell_angle_alpha   66.89710000
_cell_angle_beta   86.14470000
_cell_angle_gamma   84.76710000
_symmetry_Int_Tables_number   1
_chemical_formula_structural   CdH18C30N2(Cl2O)2
_chemical_formula_sum   'Cd3 H54 C90 N6 Cl12 O6'
_cell_volume   3677.03821696
_cell_formula_units_Z   3
loop_
 _symmetry_equiv_pos_site_id
 _symmetry_equiv_pos_as_xyz
  1  'x, y, z'
loop_
 _atom_site_type_symbol
 _atom_site_label
 _atom_site_symmetry_multiplicity
 _atom_site_fract_x
 _atom_site_fract_y
 _atom_site_fract_z
 _atom_site_occupancy
  Cd  Cd0  1  0.99691000  0.16375000  0.09284000  1.0
  Cd  Cd1  1  0.71898000  0.09937000  0.00889000  1.0
  Cd  Cd2  1  0.35844000  0.12801000  0.05167000  1.0
  H  H3  1  0.45073000  0.24074000  0.11506000  1.0
  H  H4  1  0.52620000  0.24505000  0.22458000  1.0
  H  H5  1  0.53416000  0.99638000  0.31363000  1.0
  H  H6  1  0.46663000  0.00310000  0.19875000  1.0
  H  H7  1  0.75903000  0.03034000  0.31596000  1.0
  H  H8  1  0.96537000  0.96151000  0.50561000  1.0
  H  H9  1  0.80126000  0.04086000  0.54668000  1.0
  H  H10  1  0.39819000  0.20672000  0.33720000  1.0
  H  H11  1  0.65654000  0.26687000  0.44226000  1.0
  H  H12  1  0.69226000  0.39017000  0.45055000  1.0
  H  H13  1  0.66616000  0.28269000  0.67280000  1.0
  H  H14  1  0.57895000  0.01953000  0.71970000  1.0
  H  H15  1  0.51915000  0.05939000  0.91709000  1.0
  H  H16  1  0.46974000  0.07457000  0.79683000  1.0
  H  H17  1  0.83457000  0.18903000  0.72755000  1.0
  H  H18  1  0.86514000  0.17091000  0.85055000  1.0
  H  H19  1  0.23668000  0.24718000  0.90611000  1.0
  H  H20  1  0.18066000  0.25097000  0.79019000  1.0
  H  H21  1  0.23290000  0.00232000  0.87623000  1.0
  H  H22  1  0.28963000  0.01010000  0.98743000  1.0
  H  H23  1  0.01486000  0.02778000  0.84499000  1.0
  H  H24  1  0.84376000  0.96303000  0.69564000  1.0
  H  H25  1  0.98134000  0.05270000  0.60175000  1.0
  H  H26  1  0.33333333  0.21008000  0.70994000  1.0
  H  H27  1  0.05762000  0.27752000  0.56329000  1.0
  H  H28  1  0.95855000  0.39852000  0.47737000  1.0
  H  H29  1  0.99093000  0.30045000  0.32341000  1.0
  H  H30  1  0.19518000  0.04448000  0.44095000  1.0
  H  H31  1  0.21443000  0.11185000  0.20792000  1.0
  H  H32  1  0.26616000  0.11189000  0.32261000  1.0
  H  H33  1  0.85960000  0.19850000  0.33763000  1.0
  H  H34  1  0.82577000  0.19384000  0.22263000  1.0
  H  H35  1  0.71003000  0.24245000  0.04627000  1.0
  H  H36  1  0.55933000  0.35875000  0.02840000  1.0
  H  H37  1  0.86843000  0.44839000  0.10228000  1.0
  H  H38  1  0.01022000  0.32788000  0.11427000  1.0
  H  H39  1  0.63347000  0.46719000  0.16294000  1.0
  H  H40  1  0.65246000  0.46967000  0.93205000  1.0
  H  H41  1  0.36514000  0.65195000  0.82263000  1.0
  H  H42  1  0.31128000  0.67853000  0.92824000  1.0
  H  H43  1  0.00825000  0.03116000  0.04883000  1.0
  H  H44  1  0.16394000  0.91633000  0.07265000  1.0
  H  H45  1  0.86305000  0.81401000  0.00585000  1.0
  H  H46  1  0.71263000  0.93106000  0.99340000  1.0
  H  H47  1  0.27906000  0.86374000  0.99469000  1.0
  H  H48  1  0.22812000  0.52671000  0.11422000  1.0
  H  H49  1  0.00830000  0.49472000  0.17392000  1.0
  H  H50  1  0.89576000  0.73513000  0.12056000  1.0
  H  H51  1  0.39710000  0.21800000  0.49737000  1.0
  H  H52  1  0.52394000  0.00892000  0.56151000  1.0
  H  H53  1  0.40065000  0.24743000  0.59837000  1.0
  H  H54  1  0.27277000  0.02613000  0.60658000  1.0
  H  H55  1  0.52217000  0.54770000  0.20621000  1.0
  H  H56  1  0.48486000  0.81634000  0.98288000  1.0
  C  C57  1  0.47266000  0.18811000  0.16025000  1.0
  C  C58  1  0.51318000  0.18997000  0.22143000  1.0
  C  C59  1  0.53505000  0.12073000  0.27910000  1.0
  C  C60  1  0.51945000  0.05196000  0.27072000  1.0
  C  C61  1  0.48034000  0.05517000  0.20730000  1.0
  C  C62  1  0.56198000  0.12250000  0.34686000  1.0
  C  C63  1  0.66725000  0.07601000  0.39007000  1.0
  C  C64  1  0.76376000  0.03089000  0.36740000  1.0
  C  C65  1  0.86840000  0.99074000  0.40868000  1.0
  C  C66  1  0.88137000  0.99320000  0.47420000  1.0
  C  C67  1  0.78934000  0.03734000  0.49687000  1.0
  C  C68  1  0.68034000  0.08024000  0.45627000  1.0
  C  C69  1  0.58914000  0.12902000  0.47912000  1.0
  C  C70  1  0.49027000  0.17451000  0.43447000  1.0
  C  C71  1  0.47907000  0.17113000  0.36905000  1.0
  C  C72  1  0.60217000  0.13324000  0.54752000  1.0
  C  C73  1  0.63635000  0.20240000  0.55292000  1.0
  C  C74  1  0.65768000  0.26988000  0.49292000  1.0
  C  C75  1  0.67775000  0.33884000  0.49719000  1.0
  C  C76  1  0.67938000  0.34266000  0.56284000  1.0
  C  C77  1  0.66403000  0.27812000  0.62286000  1.0
  C  C78  1  0.64432000  0.20621000  0.61969000  1.0
  C  C79  1  0.62726000  0.13774000  0.68083000  1.0
  C  C80  1  0.59217000  0.07217000  0.67400000  1.0
  C  C81  1  0.57682000  0.07015000  0.60850000  1.0
  C  C82  1  0.58559000  0.08808000  0.87301000  1.0
  C  C83  1  0.55930000  0.09648000  0.80625000  1.0
  C  C84  1  0.64808000  0.13358000  0.75129000  1.0
  C  C85  1  0.75995000  0.16148000  0.76747000  1.0
  C  C86  1  0.77885000  0.15051000  0.83588000  1.0
  C  C87  1  0.23541000  0.19454000  0.89664000  1.0
  C  C88  1  0.20455000  0.19603000  0.83253000  1.0
  C  C89  1  0.20394000  0.12671000  0.82301000  1.0
  C  C90  1  0.23065000  0.05799000  0.88049000  1.0
  C  C91  1  0.26208000  0.06176000  0.94242000  1.0
  C  C92  1  0.18599000  0.12795000  0.75326000  1.0
  C  C93  1  0.09560000  0.08179000  0.73958000  1.0
  C  C94  1  0.01253000  0.03180000  0.79200000  1.0
  C  C95  1  0.92559000  0.98977000  0.77567000  1.0
  C  C96  1  0.91433000  0.99635000  0.70700000  1.0
  C  C97  1  0.99141000  0.04594000  0.65515000  1.0
  C  C98  1  0.08476000  0.08925000  0.66926000  1.0
  C  C99  1  0.16471000  0.13994000  0.61427000  1.0
  C  C100  1  0.25363000  0.18154000  0.63075000  1.0
  C  C101  1  0.26247000  0.17625000  0.69913000  1.0
  C  C102  1  0.14745000  0.14895000  0.54186000  1.0
  C  C103  1  0.08323000  0.21756000  0.49347000  1.0
  C  C104  1  0.04320000  0.28174000  0.51098000  1.0
  C  C105  1  0.98800000  0.34955000  0.46331000  1.0
  C  C106  1  0.96982000  0.35524000  0.39546000  1.0
  C  C107  1  0.00437000  0.29395000  0.37641000  1.0
  C  C108  1  0.05973000  0.22332000  0.42489000  1.0
  C  C109  1  0.09750000  0.15841000  0.40694000  1.0
  C  C110  1  0.16460000  0.09412000  0.45392000  1.0
  C  C111  1  0.19067000  0.08956000  0.52051000  1.0
  C  C112  1  0.13971000  0.13152000  0.23827000  1.0
  C  C113  1  0.16730000  0.13152000  0.30212000  1.0
  C  C114  1  0.06840000  0.15796000  0.33915000  1.0
  C  C115  1  0.94255000  0.18082000  0.30999000  1.0
  C  C116  1  0.92285000  0.17787000  0.24621000  1.0
  C  C117  1  0.74226000  0.28924000  0.05803000  1.0
  C  C118  1  0.65794000  0.35464000  0.04826000  1.0
  C  C119  1  0.70068000  0.41374000  0.06470000  1.0
  C  C120  1  0.82939000  0.40363000  0.08988000  1.0
  C  C121  1  0.90827000  0.33690000  0.09688000  1.0
  C  C122  1  0.61108000  0.48261000  0.05751000  1.0
  C  C123  1  0.58447000  0.50162000  0.11451000  1.0
  C  C124  1  0.49103000  0.56272000  0.11242000  1.0
  C  C125  1  0.42242000  0.60588000  0.05272000  1.0
  C  C126  1  0.45118000  0.58930000  0.99241000  1.0
  C  C127  1  0.54706000  0.52773000  0.99394000  1.0
  C  C128  1  0.57752000  0.51467000  0.93234000  1.0
  C  C129  1  0.51304000  0.55915000  0.87237000  1.0
  C  C130  1  0.41547000  0.61826000  0.87061000  1.0
  C  C131  1  0.38599000  0.63266000  0.92954000  1.0
  C  C132  1  0.97871000  0.98168000  0.04055000  1.0
  C  C133  1  0.06688000  0.91744000  0.05243000  1.0
  C  C134  1  0.02849000  0.85486000  0.03995000  1.0
  C  C135  1  0.89838000  0.86005000  0.01765000  1.0
  C  C136  1  0.81516000  0.92564000  0.00902000  1.0
  C  C137  1  0.32050000  0.66785000  0.05235000  1.0
  C  C138  1  0.35067000  0.74452000  0.02351000  1.0
  C  C139  1  0.25318000  0.80399000  0.02036000  1.0
  C  C140  1  0.12525000  0.78886000  0.04753000  1.0
  C  C141  1  0.09241000  0.71044000  0.08168000  1.0
  C  C142  1  0.19050000  0.65012000  0.08236000  1.0
  C  C143  1  0.15522000  0.57260000  0.11489000  1.0
  C  C144  1  0.03301000  0.55443000  0.14793000  1.0
  C  C145  1  0.94070000  0.61437000  0.14968000  1.0
  C  C146  1  0.96846000  0.69047000  0.11736000  1.0
  N  N147  1  0.45497000  0.12203000  0.15358000  1.0
  N  N148  1  0.69385000  0.11403000  0.88797000  1.0
  N  N149  1  0.26661000  0.12853000  0.95009000  1.0
  N  N150  1  0.01994000  0.15491000  0.21025000  1.0
  N  N151  1  0.86529000  0.28033000  0.08178000  1.0
  N  N152  1  0.85480000  0.98598000  0.01942000  1.0
  Cl  Cl153  1  0.54042000  0.21672000  0.97453000  1.0
  Cl  Cl154  1  0.92900000  0.18293000  0.96640000  1.0
  Cl  Cl155  1  0.82357000  0.92917000  0.83950000  1.0
  Cl  Cl156  1  0.78644000  0.08341000  0.13388000  1.0
  Cl  Cl157  1  0.98966000  0.93936000  0.37885000  1.0
  Cl  Cl158  1  0.17393000  0.04110000  0.12807000  1.0
  Cl  Cl159  1  0.70392000  0.42991000  0.56746000  1.0
  Cl  Cl160  1  0.51817000  0.00528000  0.05320000  1.0
  Cl  Cl161  1  0.90090000  0.44081000  0.33530000  1.0
  Cl  Cl162  1  0.20255000  0.24957000  0.04928000  1.0
  Cl  Cl163  1  0.55149000  0.54295000  0.79727000  1.0
  Cl  Cl164  1  0.78907000  0.59236000  0.19464000  1.0
  O  O165  1  0.39980000  0.22426000  0.44845000  1.0
  O  O166  1  0.53735000  0.00279000  0.60921000  1.0
  O  O167  1  0.33207000  0.22968000  0.57860000  1.0
  O  O168  1  0.25808000  0.02304000  0.56222000  1.0
  O  O169  1  0.46247000  0.57963000  0.16976000  1.0
  O  O170  1  0.47698000  0.76132000  0.99683000  1.0
