# generated using pymatgen
data_ZnH6C8N3Cl
_symmetry_space_group_name_H-M   'P 1'
_cell_length_a   6.90345700
_cell_length_b   8.53910000
_cell_length_c   16.91720000
_cell_angle_alpha   90.00090000
_cell_angle_beta   90.00022390
_cell_angle_gamma   68.27063517
_symmetry_Int_Tables_number   1
_chemical_formula_structural   ZnH6C8N3Cl
_chemical_formula_sum   'Zn4 H24 C32 N12 Cl4'
_cell_volume   926.39510235
_cell_formula_units_Z   4
loop_
 _symmetry_equiv_pos_site_id
 _symmetry_equiv_pos_as_xyz
  1  'x, y, z'
loop_
 _atom_site_type_symbol
 _atom_site_label
 _atom_site_symmetry_multiplicity
 _atom_site_fract_x
 _atom_site_fract_y
 _atom_site_fract_z
 _atom_site_occupancy
  Zn  Zn0  1  0.80202000  0.66049000  0.55611000  1.0
  Zn  Zn1  1  0.69797000  0.33952000  0.05611000  1.0
  Zn  Zn2  1  0.19797000  0.33952000  0.44389000  1.0
  Zn  Zn3  1  0.30204000  0.66047000  0.94389000  1.0
  H  H4  1  0.74148000  0.95803000  0.43766000  1.0
  H  H5  1  0.75850000  0.04197000  0.93767000  1.0
  H  H6  1  0.25852000  0.04197000  0.56234000  1.0
  H  H7  1  0.24151000  0.95802000  0.06233000  1.0
  H  H8  1  0.12376000  0.56141000  0.28181000  1.0
  H  H9  1  0.37628000  0.43858000  0.78181000  1.0
  H  H10  1  0.87624000  0.43859000  0.71819000  1.0
  H  H11  1  0.62372000  0.56142000  0.21819000  1.0
  H  H12  1  0.97952000  0.75050000  0.16998000  1.0
  H  H13  1  0.52051000  0.24950000  0.66999000  1.0
  H  H14  1  0.02048000  0.24950000  0.83002000  1.0
  H  H15  1  0.47949000  0.75050000  0.33002000  1.0
  H  H16  1  0.86654000  0.96174000  0.06578000  1.0
  H  H17  1  0.63348000  0.03827000  0.56579000  1.0
  H  H18  1  0.13346000  0.03825000  0.93422000  1.0
  H  H19  1  0.36652000  0.96175000  0.43421000  1.0
  H  H20  1  0.54810000  0.34023000  0.22542000  1.0
  H  H21  1  0.95189000  0.65975000  0.72544000  1.0
  H  H22  1  0.45189000  0.65977000  0.77457000  1.0
  H  H23  1  0.04810000  0.34026000  0.27456000  1.0
  H  H24  1  0.66359000  0.14727000  0.33852000  1.0
  H  H25  1  0.83639000  0.85271000  0.83853000  1.0
  H  H26  1  0.33640000  0.85272000  0.66148000  1.0
  H  H27  1  0.16359000  0.14730000  0.16146000  1.0
  C  C28  1  0.84133000  0.84069000  0.41024000  1.0
  C  C29  1  0.65865000  0.15931000  0.91025000  1.0
  C  C30  1  0.15866000  0.15932000  0.58975000  1.0
  C  C31  1  0.34135000  0.84068000  0.08975000  1.0
  C  C32  1  0.90621000  0.81045000  0.33091000  1.0
  C  C33  1  0.59379000  0.18953000  0.83091000  1.0
  C  C34  1  0.09378000  0.18955000  0.66909000  1.0
  C  C35  1  0.40620000  0.81048000  0.16909000  1.0
  C  C36  1  0.03436000  0.63818000  0.33012000  1.0
  C  C37  1  0.46567000  0.36180000  0.83012000  1.0
  C  C38  1  0.96566000  0.36182000  0.66989000  1.0
  C  C39  1  0.53432000  0.63820000  0.16989000  1.0
  C  C40  1  0.83943000  0.92879000  0.26575000  1.0
  C  C41  1  0.66057000  0.07120000  0.76576000  1.0
  C  C42  1  0.16057000  0.07119000  0.73425000  1.0
  C  C43  1  0.33942000  0.92882000  0.23424000  1.0
  C  C44  1  0.88817000  0.88037000  0.18651000  1.0
  C  C45  1  0.61184000  0.11965000  0.68652000  1.0
  C  C46  1  0.11183000  0.11963000  0.81349000  1.0
  C  C47  1  0.38816000  0.88037000  0.31348000  1.0
  C  C48  1  0.82310000  0.99968000  0.12682000  1.0
  C  C49  1  0.67692000  0.00032000  0.62683000  1.0
  C  C50  1  0.17691000  0.00032000  0.87318000  1.0
  C  C51  1  0.32309000  0.99967000  0.37318000  1.0
  C  C52  1  0.64940000  0.20916000  0.21602000  1.0
  C  C53  1  0.85059000  0.79083000  0.71602000  1.0
  C  C54  1  0.35061000  0.79083000  0.78397000  1.0
  C  C55  1  0.14938000  0.20919000  0.28397000  1.0
  C  C56  1  0.71288000  0.09904000  0.27908000  1.0
  C  C57  1  0.78712000  0.90094000  0.77909000  1.0
  C  C58  1  0.28711000  0.90095000  0.72092000  1.0
  C  C59  1  0.21286000  0.09907000  0.22091000  1.0
  N  N60  1  0.92029000  0.69773000  0.45211000  1.0
  N  N61  1  0.57969000  0.30229000  0.95211000  1.0
  N  N62  1  0.07970000  0.30228000  0.54789000  1.0
  N  N63  1  0.42032000  0.69771000  0.04789000  1.0
  N  N64  1  0.04025000  0.57185000  0.40266000  1.0
  N  N65  1  0.45976000  0.42817000  0.90265000  1.0
  N  N66  1  0.95975000  0.42816000  0.59735000  1.0
  N  N67  1  0.54025000  0.57183000  0.09735000  1.0
  N  N68  1  0.70691000  0.16367000  0.14043000  1.0
  N  N69  1  0.79309000  0.83633000  0.64044000  1.0
  N  N70  1  0.29310000  0.83632000  0.85956000  1.0
  N  N71  1  0.20692000  0.16367000  0.35956000  1.0
  Cl  Cl72  1  0.46100000  0.71678000  0.53420000  1.0
  Cl  Cl73  1  0.03901000  0.28323000  0.03420000  1.0
  Cl  Cl74  1  0.53901000  0.28322000  0.46580000  1.0
  Cl  Cl75  1  0.96100000  0.71676000  0.96580000  1.0
