# generated using pymatgen
data_Co2H18C24N4O9
_symmetry_space_group_name_H-M   'P 1'
_cell_length_a   10.66280000
_cell_length_b   14.00010000
_cell_length_c   19.13460000
_cell_angle_alpha   89.99990000
_cell_angle_beta   89.99970000
_cell_angle_gamma   103.90300000
_symmetry_Int_Tables_number   1
_chemical_formula_structural   Co2H18C24N4O9
_chemical_formula_sum   'Co8 H72 C96 N16 O36'
_cell_volume   2772.73627591
_cell_formula_units_Z   4
loop_
 _symmetry_equiv_pos_site_id
 _symmetry_equiv_pos_as_xyz
  1  'x, y, z'
loop_
 _atom_site_type_symbol
 _atom_site_label
 _atom_site_symmetry_multiplicity
 _atom_site_fract_x
 _atom_site_fract_y
 _atom_site_fract_z
 _atom_site_occupancy
  Co  Co0  1  0.91162000  0.64283000  0.88347000  1.0
  Co  Co1  1  0.08837000  0.85716000  0.38347000  1.0
  Co  Co2  1  0.08836000  0.35716000  0.11653000  1.0
  Co  Co3  1  0.91163000  0.14284000  0.61653000  1.0
  Co  Co4  1  0.73996000  0.79503000  0.97779000  1.0
  Co  Co5  1  0.26004000  0.70498000  0.47778000  1.0
  Co  Co6  1  0.26004000  0.20497000  0.02222000  1.0
  Co  Co7  1  0.73997000  0.29503000  0.52222000  1.0
  H  H8  1  0.43581000  0.38687000  0.96282000  1.0
  H  H9  1  0.56420000  0.11312000  0.46282000  1.0
  H  H10  1  0.56419000  0.61312000  0.03717000  1.0
  H  H11  1  0.43582000  0.88688000  0.53717000  1.0
  H  H12  1  0.97680000  0.47174000  0.94272000  1.0
  H  H13  1  0.02321000  0.02826000  0.44272000  1.0
  H  H14  1  0.02318000  0.52826000  0.05728000  1.0
  H  H15  1  0.97681000  0.97175000  0.55728000  1.0
  H  H16  1  0.50255000  0.13624000  0.05450000  1.0
  H  H17  1  0.49746000  0.36375000  0.55451000  1.0
  H  H18  1  0.49746000  0.86375000  0.94550000  1.0
  H  H19  1  0.50255000  0.63625000  0.44549000  1.0
  H  H20  1  0.35967000  0.45654000  0.87945000  1.0
  H  H21  1  0.64034000  0.04347000  0.37945000  1.0
  H  H22  1  0.64032000  0.54347000  0.12056000  1.0
  H  H23  1  0.35968000  0.95654000  0.62055000  1.0
  H  H24  1  0.08999000  0.01494000  0.99037000  1.0
  H  H25  1  0.91000000  0.48506000  0.49037000  1.0
  H  H26  1  0.91000000  0.98507000  0.00964000  1.0
  H  H27  1  0.08999000  0.51494000  0.50964000  1.0
  H  H28  1  0.81261000  0.47312000  0.78557000  1.0
  H  H29  1  0.18738000  0.02687000  0.28557000  1.0
  H  H30  1  0.18738000  0.52687000  0.21442000  1.0
  H  H31  1  0.81261000  0.97313000  0.71444000  1.0
  H  H32  1  0.82470000  0.34884000  0.96476000  1.0
  H  H33  1  0.17530000  0.15115000  0.46476000  1.0
  H  H34  1  0.17530000  0.65116000  0.03524000  1.0
  H  H35  1  0.82471000  0.84885000  0.53523000  1.0
  H  H36  1  0.74072000  0.19080000  0.02940000  1.0
  H  H37  1  0.25929000  0.30919000  0.52940000  1.0
  H  H38  1  0.25929000  0.80920000  0.97060000  1.0
  H  H39  1  0.74073000  0.69080000  0.47059000  1.0
  H  H40  1  0.37304000  0.61198000  0.81249000  1.0
  H  H41  1  0.62696000  0.88803000  0.31249000  1.0
  H  H42  1  0.62694000  0.38802000  0.18751000  1.0
  H  H43  1  0.37305000  0.11198000  0.68751000  1.0
  H  H44  1  0.21983000  0.88846000  0.80714000  1.0
  H  H45  1  0.78016000  0.61153000  0.30714000  1.0
  H  H46  1  0.78015000  0.11152000  0.19287000  1.0
  H  H47  1  0.21985000  0.38847000  0.69286000  1.0
  H  H48  1  0.18147000  0.68731000  0.81142000  1.0
  H  H49  1  0.81853000  0.81270000  0.31143000  1.0
  H  H50  1  0.81851000  0.31270000  0.18857000  1.0
  H  H51  1  0.18148000  0.18730000  0.68858000  1.0
  H  H52  1  0.40002000  0.04276000  0.79829000  1.0
  H  H53  1  0.59997000  0.45723000  0.29828000  1.0
  H  H54  1  0.59997000  0.95722000  0.20172000  1.0
  H  H55  1  0.40003000  0.54278000  0.70172000  1.0
  H  H56  1  0.40754000  0.17784000  0.88489000  1.0
  H  H57  1  0.59246000  0.32215000  0.38489000  1.0
  H  H58  1  0.59246000  0.82215000  0.11511000  1.0
  H  H59  1  0.40754000  0.67785000  0.61511000  1.0
  H  H60  1  0.94590000  0.77321000  0.75402000  1.0
  H  H61  1  0.05408000  0.72678000  0.25401000  1.0
  H  H62  1  0.05408000  0.22678000  0.24599000  1.0
  H  H63  1  0.94591000  0.27321000  0.74598000  1.0
  H  H64  1  0.81095000  0.58504000  0.57642000  1.0
  H  H65  1  0.18904000  0.91497000  0.07642000  1.0
  H  H66  1  0.18906000  0.41497000  0.42358000  1.0
  H  H67  1  0.81095000  0.08505000  0.92358000  1.0
  H  H68  1  0.90874000  0.75489000  0.62475000  1.0
  H  H69  1  0.09125000  0.74512000  0.12474000  1.0
  H  H70  1  0.09126000  0.24512000  0.37526000  1.0
  H  H71  1  0.90874000  0.25489000  0.87525000  1.0
  H  H72  1  0.73052000  0.74699000  0.85091000  1.0
  H  H73  1  0.26947000  0.75302000  0.35090000  1.0
  H  H74  1  0.26947000  0.25302000  0.14909000  1.0
  H  H75  1  0.73053000  0.24698000  0.64909000  1.0
  H  H76  1  0.66788000  0.63574000  0.89052000  1.0
  H  H77  1  0.33212000  0.86427000  0.39052000  1.0
  H  H78  1  0.33212000  0.36427000  0.10948000  1.0
  H  H79  1  0.66789000  0.13573000  0.60948000  1.0
  C  C80  1  0.13908000  0.94055000  0.89891000  1.0
  C  C81  1  0.86091000  0.55945000  0.39891000  1.0
  C  C82  1  0.86091000  0.05945000  0.10109000  1.0
  C  C83  1  0.13909000  0.44055000  0.60109000  1.0
  C  C84  1  0.63514000  0.37947000  0.95722000  1.0
  C  C85  1  0.36487000  0.12052000  0.45722000  1.0
  C  C86  1  0.36485000  0.62053000  0.04278000  1.0
  C  C87  1  0.63516000  0.87947000  0.54278000  1.0
  C  C88  1  0.50575000  0.34467000  0.97562000  1.0
  C  C89  1  0.49426000  0.15532000  0.47562000  1.0
  C  C90  1  0.49425000  0.65532000  0.02438000  1.0
  C  C91  1  0.50576000  0.84468000  0.52437000  1.0
  C  C92  1  0.06507000  0.49917000  0.91331000  1.0
  C  C93  1  0.93494000  0.00083000  0.41331000  1.0
  C  C94  1  0.93491000  0.50082000  0.08669000  1.0
  C  C95  1  0.06508000  0.99918000  0.58668000  1.0
  C  C96  1  0.80365000  0.51688000  0.67769000  1.0
  C  C97  1  0.19634000  0.98313000  0.17770000  1.0
  C  C98  1  0.19635000  0.48313000  0.32230000  1.0
  C  C99  1  0.80365000  0.01688000  0.82231000  1.0
  C  C100  1  0.54432000  0.20499000  0.02729000  1.0
  C  C101  1  0.45569000  0.29500000  0.52729000  1.0
  C  C102  1  0.45569000  0.79500000  0.97271000  1.0
  C  C103  1  0.54432000  0.70500000  0.47270000  1.0
  C  C104  1  0.16452000  0.45033000  0.91564000  1.0
  C  C105  1  0.83549000  0.04967000  0.41564000  1.0
  C  C106  1  0.83547000  0.54967000  0.08436000  1.0
  C  C107  1  0.16453000  0.95034000  0.58435000  1.0
  C  C108  1  0.27747000  0.48999000  0.87780000  1.0
  C  C109  1  0.72255000  0.01002000  0.37780000  1.0
  C  C110  1  0.72253000  0.51002000  0.12220000  1.0
  C  C111  1  0.27748000  0.98999000  0.62219000  1.0
  C  C112  1  0.15462000  0.01831000  0.94619000  1.0
  C  C113  1  0.84538000  0.48169000  0.44619000  1.0
  C  C114  1  0.84537000  0.98169000  0.05382000  1.0
  C  C115  1  0.15462000  0.51831000  0.55382000  1.0
  C  C116  1  0.83139000  0.53393000  0.74850000  1.0
  C  C117  1  0.16860000  0.96607000  0.24850000  1.0
  C  C118  1  0.16859000  0.46607000  0.25150000  1.0
  C  C119  1  0.83140000  0.03393000  0.75150000  1.0
  C  C120  1  0.72218000  0.32356000  0.97653000  1.0
  C  C121  1  0.27783000  0.17643000  0.47654000  1.0
  C  C122  1  0.27782000  0.67644000  0.02346000  1.0
  C  C123  1  0.72219000  0.82356000  0.52346000  1.0
  C  C124  1  0.67569000  0.23557000  0.01253000  1.0
  C  C125  1  0.32432000  0.26442000  0.51253000  1.0
  C  C126  1  0.32432000  0.76443000  0.98747000  1.0
  C  C127  1  0.67569000  0.73558000  0.48747000  1.0
  C  C128  1  0.28504000  0.57670000  0.84039000  1.0
  C  C129  1  0.71497000  0.92330000  0.34039000  1.0
  C  C130  1  0.71494000  0.42330000  0.15961000  1.0
  C  C131  1  0.28505000  0.07670000  0.65961000  1.0
  C  C132  1  0.22874000  0.94848000  0.84449000  1.0
  C  C133  1  0.77125000  0.55151000  0.34449000  1.0
  C  C134  1  0.77124000  0.05150000  0.15552000  1.0
  C  C135  1  0.22876000  0.44850000  0.65552000  1.0
  C  C136  1  0.17995000  0.61966000  0.83994000  1.0
  C  C137  1  0.82005000  0.88035000  0.33994000  1.0
  C  C138  1  0.82003000  0.38034000  0.16006000  1.0
  C  C139  1  0.17996000  0.11966000  0.66006000  1.0
  C  C140  1  0.32750000  0.03393000  0.83938000  1.0
  C  C141  1  0.67249000  0.46606000  0.33938000  1.0
  C  C142  1  0.67249000  0.96605000  0.16062000  1.0
  C  C143  1  0.32751000  0.53394000  0.66062000  1.0
  C  C144  1  0.33305000  0.10925000  0.88777000  1.0
  C  C145  1  0.66695000  0.39074000  0.38777000  1.0
  C  C146  1  0.66694000  0.89074000  0.11223000  1.0
  C  C147  1  0.33305000  0.60926000  0.61222000  1.0
  C  C148  1  0.90690000  0.70154000  0.73028000  1.0
  C  C149  1  0.09308000  0.79846000  0.23027000  1.0
  C  C150  1  0.09308000  0.29846000  0.26973000  1.0
  C  C151  1  0.90692000  0.20153000  0.76972000  1.0
  C  C152  1  0.83110000  0.59725000  0.63192000  1.0
  C  C153  1  0.16890000  0.90276000  0.13192000  1.0
  C  C154  1  0.16890000  0.40276000  0.36808000  1.0
  C  C155  1  0.83109000  0.09725000  0.86808000  1.0
  C  C156  1  0.88455000  0.69062000  0.65868000  1.0
  C  C157  1  0.11543000  0.80938000  0.15868000  1.0
  C  C158  1  0.11544000  0.30938000  0.34132000  1.0
  C  C159  1  0.88456000  0.19062000  0.84132000  1.0
  C  C160  1  0.14847000  0.36287000  0.96306000  1.0
  C  C161  1  0.85154000  0.13714000  0.46306000  1.0
  C  C162  1  0.85151000  0.63713000  0.03694000  1.0
  C  C163  1  0.14848000  0.86287000  0.53694000  1.0
  C  C164  1  0.02687000  0.85247000  0.90817000  1.0
  C  C165  1  0.97313000  0.64752000  0.40817000  1.0
  C  C166  1  0.97312000  0.14752000  0.09183000  1.0
  C  C167  1  0.02688000  0.35248000  0.59183000  1.0
  C  C168  1  0.75021000  0.41377000  0.65178000  1.0
  C  C169  1  0.24980000  0.08624000  0.15178000  1.0
  C  C170  1  0.24979000  0.58624000  0.34821000  1.0
  C  C171  1  0.75021000  0.91377000  0.84822000  1.0
  C  C172  1  0.67572000  0.47616000  0.91903000  1.0
  C  C173  1  0.32429000  0.02384000  0.41903000  1.0
  C  C174  1  0.32428000  0.52384000  0.08097000  1.0
  C  C175  1  0.67572000  0.97617000  0.58096000  1.0
  N  N176  1  0.45997000  0.25871000  0.00883000  1.0
  N  N177  1  0.54004000  0.24128000  0.50883000  1.0
  N  N178  1  0.54003000  0.74129000  0.99117000  1.0
  N  N179  1  0.45998000  0.75872000  0.49116000  1.0
  N  N180  1  0.07083000  0.58114000  0.87586000  1.0
  N  N181  1  0.92918000  0.91886000  0.37586000  1.0
  N  N182  1  0.92915000  0.41885000  0.12414000  1.0
  N  N183  1  0.07084000  0.08115000  0.62414000  1.0
  N  N184  1  0.24814000  0.10135000  0.94083000  1.0
  N  N185  1  0.75186000  0.39864000  0.44083000  1.0
  N  N186  1  0.75185000  0.89864000  0.05917000  1.0
  N  N187  1  0.24814000  0.60136000  0.55917000  1.0
  N  N188  1  0.88063000  0.62436000  0.77468000  1.0
  N  N189  1  0.11936000  0.87563000  0.27468000  1.0
  N  N190  1  0.11936000  0.37563000  0.22532000  1.0
  N  N191  1  0.88064000  0.12436000  0.72532000  1.0
  O  O192  1  0.73845000  0.69944000  0.89080000  1.0
  O  O193  1  0.26154000  0.80057000  0.39079000  1.0
  O  O194  1  0.26154000  0.30057000  0.10920000  1.0
  O  O195  1  0.73847000  0.19943000  0.60921000  1.0
  O  O196  1  0.22880000  0.30932000  0.95604000  1.0
  O  O197  1  0.77121000  0.19067000  0.45605000  1.0
  O  O198  1  0.77119000  0.69068000  0.04396000  1.0
  O  O199  1  0.22881000  0.80933000  0.54395000  1.0
  O  O200  1  0.05797000  0.35034000  0.00809000  1.0
  O  O201  1  0.94204000  0.14967000  0.50809000  1.0
  O  O202  1  0.94201000  0.64966000  0.99191000  1.0
  O  O203  1  0.05798000  0.85034000  0.49191000  1.0
  O  O204  1  0.94490000  0.85832000  0.95459000  1.0
  O  O205  1  0.05509000  0.64168000  0.45458000  1.0
  O  O206  1  0.05509000  0.14167000  0.04542000  1.0
  O  O207  1  0.94492000  0.35832000  0.54542000  1.0
  O  O208  1  0.02635000  0.77975000  0.86751000  1.0
  O  O209  1  0.97364000  0.72025000  0.36751000  1.0
  O  O210  1  0.97364000  0.22025000  0.13249000  1.0
  O  O211  1  0.02636000  0.27975000  0.63250000  1.0
  O  O212  1  0.71545000  0.40626000  0.58749000  1.0
  O  O213  1  0.28455000  0.09374000  0.08750000  1.0
  O  O214  1  0.28455000  0.59374000  0.41250000  1.0
  O  O215  1  0.71545000  0.90627000  0.91252000  1.0
  O  O216  1  0.74602000  0.34270000  0.69347000  1.0
  O  O217  1  0.25399000  0.15730000  0.19348000  1.0
  O  O218  1  0.25398000  0.65730000  0.30652000  1.0
  O  O219  1  0.74602000  0.84271000  0.80653000  1.0
  O  O220  1  0.79545000  0.50352000  0.90306000  1.0
  O  O221  1  0.20455000  0.99648000  0.40306000  1.0
  O  O222  1  0.20454000  0.49647000  0.09694000  1.0
  O  O223  1  0.79546000  0.00352000  0.59694000  1.0
  O  O224  1  0.59116000  0.52369000  0.90591000  1.0
  O  O225  1  0.40885000  0.97631000  0.40591000  1.0
  O  O226  1  0.40883000  0.47631000  0.09409000  1.0
  O  O227  1  0.59117000  0.02369000  0.59408000  1.0
