# generated using pymatgen
data_AgH7C8S(NO)3
_symmetry_space_group_name_H-M   'P 1'
_cell_length_a   5.55760000
_cell_length_b   10.45920000
_cell_length_c   12.48270000
_cell_angle_alpha   105.52200000
_cell_angle_beta   98.76950000
_cell_angle_gamma   96.18740000
_symmetry_Int_Tables_number   1
_chemical_formula_structural   AgH7C8S(NO)3
_chemical_formula_sum   'Ag2 H14 C16 S2 N6 O6'
_cell_volume   682.49541363
_cell_formula_units_Z   2
loop_
 _symmetry_equiv_pos_site_id
 _symmetry_equiv_pos_as_xyz
  1  'x, y, z'
loop_
 _atom_site_type_symbol
 _atom_site_label
 _atom_site_symmetry_multiplicity
 _atom_site_fract_x
 _atom_site_fract_y
 _atom_site_fract_z
 _atom_site_occupancy
  Ag  Ag0  1  0.91621000  0.93524000  0.08035000  1.0
  Ag  Ag1  1  0.08379000  0.06476000  0.91965000  1.0
  H  H2  1  0.32119000  0.91935000  0.71526000  1.0
  H  H3  1  0.67882000  0.08065000  0.28474000  1.0
  H  H4  1  0.30719000  0.68665000  0.58348000  1.0
  H  H5  1  0.69280000  0.31336000  0.41651000  1.0
  H  H6  1  0.99042000  0.50062000  0.59910000  1.0
  H  H7  1  0.00957000  0.49939000  0.40090000  1.0
  H  H8  1  0.49809000  0.55692000  0.82521000  1.0
  H  H9  1  0.50190000  0.44308000  0.17479000  1.0
  H  H10  1  0.46153000  0.64077000  0.96548000  1.0
  H  H11  1  0.53847000  0.35923000  0.03452000  1.0
  H  H12  1  0.80003000  0.40949000  0.79751000  1.0
  H  H13  1  0.19997000  0.59050000  0.20249000  1.0
  H  H14  1  0.85068000  0.68902000  0.12653000  1.0
  H  H15  1  0.14932000  0.31098000  0.87347000  1.0
  C  C16  1  0.19594000  0.83304000  0.71796000  1.0
  C  C17  1  0.80405000  0.16697000  0.28204000  1.0
  C  C18  1  0.18426000  0.70522000  0.64413000  1.0
  C  C19  1  0.81573000  0.29478000  0.35586000  1.0
  C  C20  1  0.01081000  0.60405000  0.65292000  1.0
  C  C21  1  0.98917000  0.39596000  0.34708000  1.0
  C  C22  1  0.88924000  0.75115000  0.79732000  1.0
  C  C23  1  0.11076000  0.24886000  0.20269000  1.0
  C  C24  1  0.59505000  0.61899000  0.90926000  1.0
  C  C25  1  0.40495000  0.38101000  0.09074000  1.0
  C  C26  1  0.80245000  0.55711000  0.95625000  1.0
  C  C27  1  0.19755000  0.44289000  0.04375000  1.0
  C  C28  1  0.88786000  0.44954000  0.88635000  1.0
  C  C29  1  0.11214000  0.55046000  0.11365000  1.0
  C  C30  1  0.91643000  0.60642000  0.07061000  1.0
  C  C31  1  0.08356000  0.39358000  0.92939000  1.0
  S  S32  1  0.69179000  0.78696000  0.89580000  1.0
  S  S33  1  0.30821000  0.21304000  0.10420000  1.0
  N  N34  1  0.85845000  0.62680000  0.72716000  1.0
  N  N35  1  0.14155000  0.37320000  0.27284000  1.0
  N  N36  1  0.05281000  0.85612000  0.79650000  1.0
  N  N37  1  0.94719000  0.14388000  0.20350000  1.0
  N  N38  1  0.40514000  0.86756000  0.15836000  1.0
  N  N39  1  0.59487000  0.13244000  0.84164000  1.0
  O  O40  1  0.26143000  0.90365000  0.22656000  1.0
  O  O41  1  0.73857000  0.09636000  0.77343000  1.0
  O  O42  1  0.33333333  0.85062000  0.05280000  1.0
  O  O43  1  0.66666667  0.14937000  0.94720000  1.0
  O  O44  1  0.62185000  0.85049000  0.19529000  1.0
  O  O45  1  0.37815000  0.14951000  0.80471000  1.0
