# generated using pymatgen
data_H18RuC22NO6
_symmetry_space_group_name_H-M   'P 1'
_cell_length_a   9.43706000
_cell_length_b   10.56160000
_cell_length_c   10.93430000
_cell_angle_alpha   84.57120000
_cell_angle_beta   87.18670000
_cell_angle_gamma   82.14110000
_symmetry_Int_Tables_number   1
_chemical_formula_structural   H18RuC22NO6
_chemical_formula_sum   'H36 Ru2 C44 N2 O12'
_cell_volume   1074.02614421
_cell_formula_units_Z   2
loop_
 _symmetry_equiv_pos_site_id
 _symmetry_equiv_pos_as_xyz
  1  'x, y, z'
loop_
 _atom_site_type_symbol
 _atom_site_label
 _atom_site_symmetry_multiplicity
 _atom_site_fract_x
 _atom_site_fract_y
 _atom_site_fract_z
 _atom_site_occupancy
  H  H0  1  0.76262000  0.73840000  0.04482000  1.0
  H  H1  1  0.23736000  0.26160000  0.95518000  1.0
  H  H2  1  0.69588000  0.16511000  0.17413000  1.0
  H  H3  1  0.30411000  0.83486000  0.82588000  1.0
  H  H4  1  0.65863000  0.27501000  0.79406000  1.0
  H  H5  1  0.34139000  0.72499000  0.20591000  1.0
  H  H6  1  0.27303000  0.06552000  0.32323000  1.0
  H  H7  1  0.72698000  0.93448000  0.67675000  1.0
  H  H8  1  0.67251000  0.56952000  0.93828000  1.0
  H  H9  1  0.32749000  0.43047000  0.06172000  1.0
  H  H10  1  0.55116000  0.38017000  0.17725000  1.0
  H  H11  1  0.44884000  0.61981000  0.82275000  1.0
  H  H12  1  0.93366000  0.64098000  0.68935000  1.0
  H  H13  1  0.06632000  0.35904000  0.31070000  1.0
  H  H14  1  0.55933000  0.45992000  0.64921000  1.0
  H  H15  1  0.44068000  0.54008000  0.35078000  1.0
  H  H16  1  0.87508000  0.23864000  0.59905000  1.0
  H  H17  1  0.12496000  0.76136000  0.40092000  1.0
  H  H18  1  0.32354000  0.11360000  0.53565000  1.0
  H  H19  1  0.67648000  0.88642000  0.46432000  1.0
  H  H20  1  0.20493000  0.55367000  0.90987000  1.0
  H  H21  1  0.79502000  0.44636000  0.09019000  1.0
  H  H22  1  0.15895000  0.59621000  0.75292000  1.0
  H  H23  1  0.84103000  0.40383000  0.24714000  1.0
  H  H24  1  0.03865000  0.65195000  0.87484000  1.0
  H  H25  1  0.96129000  0.34806000  0.12522000  1.0
  H  H26  1  0.70553000  0.64029000  0.59414000  1.0
  H  H27  1  0.29446000  0.35973000  0.40589000  1.0
  H  H28  1  0.58544000  0.23683000  0.40165000  1.0
  H  H29  1  0.41458000  0.76317000  0.59835000  1.0
  H  H30  1  0.67264000  0.16768000  0.53977000  1.0
  H  H31  1  0.32738000  0.83232000  0.46022000  1.0
  H  H32  1  0.69231000  0.32918000  0.48167000  1.0
  H  H33  1  0.30771000  0.67082000  0.51832000  1.0
  H  H34  1  0.12050000  0.20187000  0.67208000  1.0
  H  H35  1  0.87953000  0.79814000  0.32790000  1.0
  Ru  Ru36  1  0.88221000  0.98267000  0.02779000  1.0
  Ru  Ru37  1  0.11779000  0.01733000  0.97220000  1.0
  C  C38  1  0.90955000  0.23099000  0.89286000  1.0
  C  C39  1  0.09044000  0.76900000  0.10713000  1.0
  C  C40  1  0.02598000  0.08020000  0.21942000  1.0
  C  C41  1  0.97402000  0.91979000  0.78056000  1.0
  C  C42  1  0.58454000  0.88386000  0.99693000  1.0
  C  C43  1  0.41546000  0.11613000  0.00308000  1.0
  C  C44  1  0.55186000  0.09089000  0.06004000  1.0
  C  C45  1  0.44813000  0.90909000  0.93997000  1.0
  C  C46  1  0.85295000  0.35079000  0.82010000  1.0
  C  C47  1  0.14705000  0.64921000  0.17989000  1.0
  C  C48  1  0.04647000  0.11706000  0.34375000  1.0
  C  C49  1  0.95355000  0.88294000  0.65623000  1.0
  C  C50  1  0.66247000  0.75870000  0.99710000  1.0
  C  C51  1  0.33752000  0.24129000  0.00291000  1.0
  C  C52  1  0.59625000  0.18743000  0.12590000  1.0
  C  C53  1  0.40373000  0.81255000  0.87411000  1.0
  C  C54  1  0.93055000  0.45677000  0.79423000  1.0
  C  C55  1  0.06944000  0.54323000  0.20579000  1.0
  C  C56  1  0.71827000  0.35561000  0.76922000  1.0
  C  C57  1  0.28174000  0.64438000  0.23077000  1.0
  C  C58  1  0.93208000  0.16648000  0.42210000  1.0
  C  C59  1  0.06793000  0.83353000  0.57787000  1.0
  C  C60  1  0.18665000  0.10141000  0.38596000  1.0
  C  C61  1  0.81336000  0.89860000  0.61402000  1.0
  C  C62  1  0.61223000  0.66528000  0.93784000  1.0
  C  C63  1  0.38776000  0.33472000  0.06215000  1.0
  C  C64  1  0.51585000  0.30638000  0.12709000  1.0
  C  C65  1  0.48413000  0.69360000  0.87291000  1.0
  C  C66  1  0.87561000  0.55929000  0.71148000  1.0
  C  C67  1  0.12437000  0.44073000  0.28856000  1.0
  C  C68  1  0.66378000  0.45832000  0.68820000  1.0
  C  C69  1  0.33623000  0.54168000  0.31180000  1.0
  C  C70  1  0.96156000  0.19858000  0.53891000  1.0
  C  C71  1  0.03847000  0.80144000  0.46106000  1.0
  C  C72  1  0.21457000  0.13012000  0.50321000  1.0
  C  C73  1  0.78545000  0.86990000  0.49676000  1.0
  C  C74  1  0.11675000  0.57189000  0.84648000  1.0
  C  C75  1  0.88321000  0.42813000  0.15357000  1.0
  C  C76  1  0.74460000  0.55893000  0.65809000  1.0
  C  C77  1  0.25540000  0.44108000  0.34193000  1.0
  C  C78  1  0.68104000  0.23286000  0.45571000  1.0
  C  C79  1  0.31898000  0.76714000  0.54429000  1.0
  C  C80  1  0.10124000  0.17933000  0.57955000  1.0
  C  C81  1  0.89879000  0.82069000  0.42042000  1.0
  N  N82  1  0.63903000  0.97732000  0.05114000  1.0
  N  N83  1  0.36095000  0.02267000  0.94887000  1.0
  O  O84  1  0.81832000  0.16315000  0.94646000  1.0
  O  O85  1  0.18168000  0.83685000  0.05352000  1.0
  O  O86  1  0.90564000  0.04674000  0.19421000  1.0
  O  O87  1  0.09436000  0.95326000  0.80578000  1.0
  O  O88  1  0.95448000  0.80361000  0.10598000  1.0
  O  O89  1  0.04552000  0.19639000  0.89401000  1.0
  O  O90  1  0.86736000  0.91859000  0.85825000  1.0
  O  O91  1  0.13264000  0.08140000  0.14174000  1.0
  O  O92  1  0.05334000  0.45524000  0.85455000  1.0
  O  O93  1  0.94665000  0.54477000  0.14548000  1.0
  O  O94  1  0.79796000  0.18506000  0.37732000  1.0
  O  O95  1  0.20205000  0.81493000  0.62267000  1.0
