# generated using pymatgen
data_CuH11C17(NO2)2
_symmetry_space_group_name_H-M   'P 1'
_cell_length_a   10.93750000
_cell_length_b   10.95460000
_cell_length_c   13.67450000
_cell_angle_alpha   89.99970000
_cell_angle_beta   71.14900000
_cell_angle_gamma   89.99990000
_symmetry_Int_Tables_number   1
_chemical_formula_structural   CuH11C17(NO2)2
_chemical_formula_sum   'Cu4 H44 C68 N8 O16'
_cell_volume   1550.54135269
_cell_formula_units_Z   4
loop_
 _symmetry_equiv_pos_site_id
 _symmetry_equiv_pos_as_xyz
  1  'x, y, z'
loop_
 _atom_site_type_symbol
 _atom_site_label
 _atom_site_symmetry_multiplicity
 _atom_site_fract_x
 _atom_site_fract_y
 _atom_site_fract_z
 _atom_site_occupancy
  Cu  Cu0  1  0.20919000  0.19297000  0.85093000  1.0
  Cu  Cu1  1  0.29081000  0.19297000  0.64907000  1.0
  Cu  Cu2  1  0.79081000  0.80703000  0.14907000  1.0
  Cu  Cu3  1  0.70919000  0.80703000  0.35093000  1.0
  H  H4  1  0.17387000  0.80784000  0.91586000  1.0
  H  H5  1  0.32613000  0.80784000  0.58413000  1.0
  H  H6  1  0.82612000  0.19216000  0.08413000  1.0
  H  H7  1  0.67386000  0.19216000  0.41587000  1.0
  H  H8  1  0.17579000  0.57936000  0.91594000  1.0
  H  H9  1  0.32421000  0.57936000  0.58404000  1.0
  H  H10  1  0.82420000  0.42064000  0.08405000  1.0
  H  H11  1  0.67579000  0.42063000  0.41596000  1.0
  H  H12  1  0.10741000  0.00168000  0.04485000  1.0
  H  H13  1  0.39259000  0.00167000  0.45515000  1.0
  H  H14  1  0.89259000  0.99833000  0.95515000  1.0
  H  H15  1  0.60742000  0.99833000  0.54485000  1.0
  H  H16  1  0.04879000  0.07175000  0.25032000  1.0
  H  H17  1  0.45120000  0.07175000  0.24968000  1.0
  H  H18  1  0.95121000  0.92824000  0.74968000  1.0
  H  H19  1  0.54880000  0.92825000  0.75032000  1.0
  H  H20  1  0.15385000  0.38223000  0.05592000  1.0
  H  H21  1  0.34615000  0.38222000  0.44409000  1.0
  H  H22  1  0.84615000  0.61777000  0.94409000  1.0
  H  H23  1  0.65386000  0.61777000  0.55592000  1.0
  H  H24  1  0.12209000  0.17902000  0.35938000  1.0
  H  H25  1  0.37793000  0.17902000  0.14062000  1.0
  H  H26  1  0.87793000  0.82098000  0.64062000  1.0
  H  H27  1  0.62209000  0.82097000  0.85938000  1.0
  H  H28  1  0.07580000  0.30101000  0.51607000  1.0
  H  H29  1  0.42421000  0.30101000  0.98393000  1.0
  H  H30  1  0.92421000  0.69898000  0.48393000  1.0
  H  H31  1  0.57581000  0.69898000  0.01607000  1.0
  H  H32  1  0.97790000  0.60739000  0.35697000  1.0
  H  H33  1  0.52209000  0.60739000  0.14304000  1.0
  H  H34  1  0.02208000  0.39260000  0.64304000  1.0
  H  H35  1  0.47790000  0.39261000  0.85697000  1.0
  H  H36  1  0.02792000  0.48618000  0.19957000  1.0
  H  H37  1  0.47206000  0.48618000  0.30044000  1.0
  H  H38  1  0.97207000  0.51382000  0.80044000  1.0
  H  H39  1  0.52792000  0.51383000  0.69957000  1.0
  H  H40  1  0.93115000  0.17721000  0.58434000  1.0
  H  H41  1  0.56885000  0.17721000  0.91567000  1.0
  H  H42  1  0.06886000  0.82279000  0.41566000  1.0
  H  H43  1  0.43115000  0.82279000  0.08433000  1.0
  H  H44  1  0.70384000  0.18346000  0.58345000  1.0
  H  H45  1  0.79616000  0.18346000  0.91655000  1.0
  H  H46  1  0.29616000  0.81654000  0.41654000  1.0
  H  H47  1  0.20384000  0.81656000  0.08345000  1.0
  C  C48  1  0.25000000  0.95835000  0.75000000  1.0
  C  C49  1  0.74999000  0.04165000  0.25000000  1.0
  C  C50  1  0.25000000  0.82144000  0.74999000  1.0
  C  C51  1  0.74999000  0.17856000  0.25000000  1.0
  C  C52  1  0.20796000  0.75705000  0.84364000  1.0
  C  C53  1  0.29203000  0.75705000  0.65635000  1.0
  C  C54  1  0.79203000  0.24295000  0.15635000  1.0
  C  C55  1  0.70795000  0.24295000  0.34365000  1.0
  C  C56  1  0.20791000  0.63007000  0.84359000  1.0
  C  C57  1  0.29208000  0.63008000  0.65639000  1.0
  C  C58  1  0.79208000  0.36993000  0.15640000  1.0
  C  C59  1  0.70791000  0.36992000  0.34361000  1.0
  C  C60  1  0.25000000  0.56561000  0.74999000  1.0
  C  C61  1  0.74999000  0.43439000  0.25001000  1.0
  C  C62  1  0.25000000  0.42868000  0.74999000  1.0
  C  C63  1  0.75000000  0.57132000  0.25001000  1.0
  C  C64  1  0.11018000  0.09120000  0.07763000  1.0
  C  C65  1  0.38982000  0.09119000  0.42237000  1.0
  C  C66  1  0.88982000  0.90881000  0.92236000  1.0
  C  C67  1  0.61017000  0.90880000  0.57764000  1.0
  C  C68  1  0.08159000  0.12394000  0.17943000  1.0
  C  C69  1  0.41842000  0.12393000  0.32057000  1.0
  C  C70  1  0.91842000  0.87606000  0.82057000  1.0
  C  C71  1  0.58159000  0.87606000  0.67942000  1.0
  C  C72  1  0.13230000  0.28814000  0.07946000  1.0
  C  C73  1  0.36770000  0.28813000  0.42054000  1.0
  C  C74  1  0.86771000  0.71187000  0.92054000  1.0
  C  C75  1  0.63230000  0.71187000  0.57946000  1.0
  C  C76  1  0.07478000  0.32311000  0.26933000  1.0
  C  C77  1  0.42522000  0.32310000  0.23068000  1.0
  C  C78  1  0.92522000  0.67689000  0.73068000  1.0
  C  C79  1  0.57478000  0.67689000  0.76932000  1.0
  C  C80  1  0.08812000  0.27254000  0.35923000  1.0
  C  C81  1  0.41189000  0.27253000  0.14077000  1.0
  C  C82  1  0.91189000  0.72746000  0.64077000  1.0
  C  C83  1  0.58812000  0.72746000  0.85923000  1.0
  C  C84  1  0.06107000  0.34256000  0.44845000  1.0
  C  C85  1  0.43894000  0.34256000  0.05155000  1.0
  C  C86  1  0.93894000  0.65744000  0.55155000  1.0
  C  C87  1  0.56107000  0.65744000  0.94845000  1.0
  C  C88  1  0.01780000  0.46395000  0.45168000  1.0
  C  C89  1  0.48221000  0.46395000  0.04833000  1.0
  C  C90  1  0.98221000  0.53605000  0.54833000  1.0
  C  C91  1  0.51779000  0.53605000  0.95168000  1.0
  C  C92  1  0.01019000  0.51393000  0.35899000  1.0
  C  C93  1  0.48980000  0.51393000  0.14102000  1.0
  C  C94  1  0.98980000  0.48606000  0.64102000  1.0
  C  C95  1  0.51018000  0.48607000  0.85899000  1.0
  C  C96  1  0.03867000  0.44541000  0.26896000  1.0
  C  C97  1  0.46133000  0.44540000  0.23104000  1.0
  C  C98  1  0.96133000  0.55459000  0.73104000  1.0
  C  C99  1  0.53867000  0.55460000  0.76896000  1.0
  C  C100  1  0.85149000  0.17985000  0.65666000  1.0
  C  C101  1  0.64851000  0.17984000  0.84335000  1.0
  C  C102  1  0.14852000  0.82016000  0.34334000  1.0
  C  C103  1  0.35149000  0.82016000  0.15665000  1.0
  C  C104  1  0.72473000  0.18195000  0.65607000  1.0
  C  C105  1  0.77526000  0.18195000  0.84394000  1.0
  C  C106  1  0.27527000  0.81805000  0.34393000  1.0
  C  C107  1  0.22474000  0.81806000  0.15606000  1.0
  C  C108  1  0.87770000  0.18260000  0.75049000  1.0
  C  C109  1  0.62229000  0.18260000  0.74951000  1.0
  C  C110  1  0.12230000  0.81741000  0.24951000  1.0
  C  C111  1  0.37771000  0.81740000  0.25049000  1.0
  C  C112  1  0.01429000  0.18760000  0.75095000  1.0
  C  C113  1  0.48571000  0.18759000  0.74905000  1.0
  C  C114  1  0.98571000  0.81241000  0.24905000  1.0
  C  C115  1  0.51429000  0.81241000  0.25094000  1.0
  N  N116  1  0.14228000  0.19410000  0.01635000  1.0
  N  N117  1  0.35772000  0.19409000  0.48366000  1.0
  N  N118  1  0.85773000  0.80591000  0.98365000  1.0
  N  N119  1  0.64227000  0.80591000  0.51635000  1.0
  N  N120  1  0.09581000  0.24981000  0.18009000  1.0
  N  N121  1  0.40419000  0.24981000  0.31991000  1.0
  N  N122  1  0.90420000  0.75019000  0.81991000  1.0
  N  N123  1  0.59581000  0.75019000  0.68009000  1.0
  O  O124  1  0.22535000  0.01091000  0.83749000  1.0
  O  O125  1  0.27465000  0.01091000  0.66251000  1.0
  O  O126  1  0.77464000  0.98910000  0.16251000  1.0
  O  O127  1  0.72534000  0.98910000  0.33749000  1.0
  O  O128  1  0.20563000  0.37581000  0.83759000  1.0
  O  O129  1  0.29438000  0.37581000  0.66240000  1.0
  O  O130  1  0.79438000  0.62419000  0.16241000  1.0
  O  O131  1  0.70562000  0.62419000  0.33760000  1.0
  O  O132  1  0.03164000  0.18137000  0.83846000  1.0
  O  O133  1  0.46836000  0.18137000  0.66154000  1.0
  O  O134  1  0.96837000  0.81863000  0.16154000  1.0
  O  O135  1  0.53164000  0.81863000  0.33846000  1.0
  O  O136  1  0.10207000  0.19899000  0.66323000  1.0
  O  O137  1  0.39793000  0.19898000  0.83677000  1.0
  O  O138  1  0.89794000  0.80102000  0.33677000  1.0
  O  O139  1  0.60207000  0.80101000  0.16322000  1.0
