# generated using pymatgen
data_Cd3H18C22N12(Cl2O)2
_symmetry_space_group_name_H-M   'P 1'
_cell_length_a   7.36742000
_cell_length_b   7.93227000
_cell_length_c   12.57610000
_cell_angle_alpha   90.83280000
_cell_angle_beta   90.13410000
_cell_angle_gamma   110.69700000
_symmetry_Int_Tables_number   1
_chemical_formula_structural   Cd3H18C22N12(Cl2O)2
_chemical_formula_sum   'Cd3 H18 C22 N12 Cl4 O2'
_cell_volume   687.42535021
_cell_formula_units_Z   1
loop_
 _symmetry_equiv_pos_site_id
 _symmetry_equiv_pos_as_xyz
  1  'x, y, z'
loop_
 _atom_site_type_symbol
 _atom_site_label
 _atom_site_symmetry_multiplicity
 _atom_site_fract_x
 _atom_site_fract_y
 _atom_site_fract_z
 _atom_site_occupancy
  Cd  Cd0  1  0.36391000  0.20909000  0.24360000  1.0
  Cd  Cd1  1  0.63609000  0.79092000  0.75640000  1.0
  Cd  Cd2  1  0.50000000  0.50000000  0.50000000  1.0
  H  H3  1  0.26320000  0.92043000  0.44830000  1.0
  H  H4  1  0.73680000  0.07958000  0.55170000  1.0
  H  H5  1  0.96859000  0.67814000  0.52628000  1.0
  H  H6  1  0.03141000  0.32186000  0.47372000  1.0
  H  H7  1  0.61078000  0.79441000  0.30543000  1.0
  H  H8  1  0.38922000  0.20558000  0.69457000  1.0
  H  H9  1  0.96226000  0.27255000  0.84547000  1.0
  H  H10  1  0.03774000  0.72744000  0.15454000  1.0
  H  H11  1  0.20163000  0.51235000  0.73773000  1.0
  H  H12  1  0.79836000  0.48765000  0.26227000  1.0
  H  H13  1  0.52594000  0.74674000  0.00495000  1.0
  H  H14  1  0.47406000  0.25326000  0.99505000  1.0
  H  H15  1  0.30188000  0.52076000  0.12386000  1.0
  H  H16  1  0.69813000  0.47924000  0.87614000  1.0
  H  H17  1  0.30910000  0.92724000  0.07970000  1.0
  H  H18  1  0.69090000  0.07276000  0.92030000  1.0
  H  H19  1  0.50870000  0.95462000  0.14258000  1.0
  H  H20  1  0.49130000  0.04539000  0.85742000  1.0
  C  C21  1  0.11750000  0.89087000  0.41584000  1.0
  C  C22  1  0.88250000  0.10913000  0.58416000  1.0
  C  C23  1  0.95625000  0.75893000  0.45909000  1.0
  C  C24  1  0.04375000  0.24107000  0.54091000  1.0
  C  C25  1  0.75768000  0.82326000  0.33595000  1.0
  C  C26  1  0.24232000  0.17674000  0.66404000  1.0
  C  C27  1  0.92096000  0.95053000  0.28906000  1.0
  C  C28  1  0.07904000  0.04947000  0.71094000  1.0
  C  C29  1  0.91371000  0.04408000  0.19105000  1.0
  C  C30  1  0.08629000  0.95592000  0.80895000  1.0
  C  C31  1  0.00737000  0.21903000  0.05982000  1.0
  C  C32  1  0.99262000  0.78097000  0.94018000  1.0
  C  C33  1  0.12443000  0.36586000  0.99295000  1.0
  C  C34  1  0.87556000  0.63414000  0.00705000  1.0
  C  C35  1  0.08909000  0.37127000  0.88346000  1.0
  C  C36  1  0.91091000  0.62873000  0.11654000  1.0
  C  C37  1  0.22045000  0.50418000  0.82327000  1.0
  C  C38  1  0.77955000  0.49582000  0.17673000  1.0
  C  C39  1  0.40166000  0.63739000  0.97200000  1.0
  C  C40  1  0.59834000  0.36261000  0.02801000  1.0
  C  C41  1  0.27776000  0.50956000  0.03811000  1.0
  C  C42  1  0.72224000  0.49044000  0.96189000  1.0
  N  N43  1  0.09877000  0.98558000  0.33228000  1.0
  N  N44  1  0.90123000  0.01442000  0.66772000  1.0
  N  N45  1  0.77748000  0.72903000  0.41982000  1.0
  N  N46  1  0.22252000  0.27097000  0.58018000  1.0
  N  N47  1  0.07084000  0.17780000  0.15379000  1.0
  N  N48  1  0.92916000  0.82220000  0.84621000  1.0
  N  N49  1  0.76109000  0.00171000  0.12322000  1.0
  N  N50  1  0.23891000  0.99829000  0.87678000  1.0
  N  N51  1  0.82195000  0.11171000  0.03906000  1.0
  N  N52  1  0.17804000  0.88829000  0.96094000  1.0
  N  N53  1  0.38010000  0.63012000  0.86570000  1.0
  N  N54  1  0.61990000  0.36988000  0.13430000  1.0
  Cl  Cl55  1  0.59439000  0.23489000  0.40412000  1.0
  Cl  Cl56  1  0.40561000  0.76512000  0.59588000  1.0
  Cl  Cl57  1  0.29689000  0.50073000  0.33214000  1.0
  Cl  Cl58  1  0.70311000  0.49927000  0.66786000  1.0
  O  O59  1  0.37173000  0.94818000  0.15243000  1.0
  O  O60  1  0.62827000  0.05182000  0.84757000  1.0
