# generated using pymatgen
data_AgH7C6BrN
_symmetry_space_group_name_H-M   'P 1'
_cell_length_a   8.68322000
_cell_length_b   9.69362000
_cell_length_c   17.88490000
_cell_angle_alpha   90.00000000
_cell_angle_beta   90.00000000
_cell_angle_gamma   99.62580000
_symmetry_Int_Tables_number   1
_chemical_formula_structural   AgH7C6BrN
_chemical_formula_sum   'Ag8 H56 C48 Br8 N8'
_cell_volume   1484.21002000
_cell_formula_units_Z   8
loop_
 _symmetry_equiv_pos_site_id
 _symmetry_equiv_pos_as_xyz
  1  'x, y, z'
loop_
 _atom_site_type_symbol
 _atom_site_label
 _atom_site_symmetry_multiplicity
 _atom_site_fract_x
 _atom_site_fract_y
 _atom_site_fract_z
 _atom_site_occupancy
  Ag  Ag0  1  0.14086000  0.60055000  0.51720000  1.0
  Ag  Ag1  1  0.64085000  0.10055000  0.98280000  1.0
  Ag  Ag2  1  0.85915000  0.39946000  0.48280000  1.0
  Ag  Ag3  1  0.35915000  0.89945000  0.01720000  1.0
  Ag  Ag4  1  0.35683000  0.39347000  0.48921000  1.0
  Ag  Ag5  1  0.85683000  0.89347000  0.01079000  1.0
  Ag  Ag6  1  0.64317000  0.60653000  0.51079000  1.0
  Ag  Ag7  1  0.14317000  0.10653000  0.98921000  1.0
  H  H8  1  0.42267000  0.84423000  0.49383000  1.0
  H  H9  1  0.92268000  0.34423000  0.00617000  1.0
  H  H10  1  0.57732000  0.15577000  0.50617000  1.0
  H  H11  1  0.07733000  0.65577000  0.99383000  1.0
  H  H12  1  0.53456000  0.02637000  0.40098000  1.0
  H  H13  1  0.03456000  0.52637000  0.09902000  1.0
  H  H14  1  0.46544000  0.97363000  0.59901000  1.0
  H  H15  1  0.96544000  0.47363000  0.90098000  1.0
  H  H16  1  0.12288000  0.90079000  0.26660000  1.0
  H  H17  1  0.62288000  0.40079000  0.23340000  1.0
  H  H18  1  0.87711000  0.09921000  0.73340000  1.0
  H  H19  1  0.37712000  0.59922000  0.76660000  1.0
  H  H20  1  0.02503000  0.72767000  0.36640000  1.0
  H  H21  1  0.52504000  0.22767000  0.13360000  1.0
  H  H22  1  0.97496000  0.27233000  0.63360000  1.0
  H  H23  1  0.47497000  0.77233000  0.86639000  1.0
  H  H24  1  0.51917000  0.05771000  0.24776000  1.0
  H  H25  1  0.01917000  0.55771000  0.25224000  1.0
  H  H26  1  0.48083000  0.94229000  0.75224000  1.0
  H  H27  1  0.98083000  0.44229000  0.74776000  1.0
  H  H28  1  0.42607000  0.18801000  0.28880000  1.0
  H  H29  1  0.92607000  0.68801000  0.21120000  1.0
  H  H30  1  0.57393000  0.81199000  0.71120000  1.0
  H  H31  1  0.07393000  0.31199000  0.78880000  1.0
  H  H32  1  0.32902000  0.07534000  0.21751000  1.0
  H  H33  1  0.82902000  0.57534000  0.28249000  1.0
  H  H34  1  0.67098000  0.92466000  0.78248000  1.0
  H  H35  1  0.17098000  0.42466000  0.71751000  1.0
  H  H36  1  0.36797000  0.32812000  0.65948000  1.0
  H  H37  1  0.86798000  0.82812000  0.84052000  1.0
  H  H38  1  0.63203000  0.67188000  0.34052000  1.0
  H  H39  1  0.13203000  0.17188000  0.15948000  1.0
  H  H40  1  0.28286000  0.13969000  0.75392000  1.0
  H  H41  1  0.78286000  0.63969000  0.74608000  1.0
  H  H42  1  0.71714000  0.86031000  0.24608000  1.0
  H  H43  1  0.21714000  0.36031000  0.25392000  1.0
  H  H44  1  0.08070000  0.87790000  0.57218000  1.0
  H  H45  1  0.58070000  0.37789000  0.92782000  1.0
  H  H46  1  0.91930000  0.12211000  0.42782000  1.0
  H  H47  1  0.41930000  0.62210000  0.07218000  1.0
  H  H48  1  0.16914000  0.07825000  0.48598000  1.0
  H  H49  1  0.66914000  0.57825000  0.01402000  1.0
  H  H50  1  0.83086000  0.92175000  0.51402000  1.0
  H  H51  1  0.33086000  0.42175000  0.98598000  1.0
  H  H52  1  0.15578000  0.90610000  0.78253000  1.0
  H  H53  1  0.65578000  0.40610000  0.71747000  1.0
  H  H54  1  0.84422000  0.09391000  0.21747000  1.0
  H  H55  1  0.34422000  0.59391000  0.28253000  1.0
  H  H56  1  0.17002000  0.78214000  0.70985000  1.0
  H  H57  1  0.67002000  0.28214000  0.79015000  1.0
  H  H58  1  0.82998000  0.21786000  0.29015000  1.0
  H  H59  1  0.32998000  0.71786000  0.20985000  1.0
  H  H60  1  0.99360000  0.84514000  0.72256000  1.0
  H  H61  1  0.49360000  0.34515000  0.77744000  1.0
  H  H62  1  0.00640000  0.15486000  0.27744000  1.0
  H  H63  1  0.50640000  0.65485000  0.22256000  1.0
  C  C64  1  0.35871000  0.86228000  0.44325000  1.0
  C  C65  1  0.85872000  0.36228000  0.05675000  1.0
  C  C66  1  0.64128000  0.13772000  0.55675000  1.0
  C  C67  1  0.14129000  0.63771000  0.94325000  1.0
  C  C68  1  0.42066000  0.96257000  0.39122000  1.0
  C  C69  1  0.92066000  0.46257000  0.10879000  1.0
  C  C70  1  0.57933000  0.03743000  0.60879000  1.0
  C  C71  1  0.07934000  0.53743000  0.89121000  1.0
  C  C72  1  0.33800000  0.97880000  0.32537000  1.0
  C  C73  1  0.83800000  0.47880000  0.17463000  1.0
  C  C74  1  0.66200000  0.02120000  0.67463000  1.0
  C  C75  1  0.16201000  0.52120000  0.82537000  1.0
  C  C76  1  0.19222000  0.89338000  0.31688000  1.0
  C  C77  1  0.69222000  0.39338000  0.18313000  1.0
  C  C78  1  0.80778000  0.10662000  0.68312000  1.0
  C  C79  1  0.30778000  0.60662000  0.81687000  1.0
  C  C80  1  0.13745000  0.79631000  0.37205000  1.0
  C  C81  1  0.63745000  0.29631000  0.12795000  1.0
  C  C82  1  0.86255000  0.20369000  0.62795000  1.0
  C  C83  1  0.36256000  0.70369000  0.87205000  1.0
  C  C84  1  0.40555000  0.08074000  0.26648000  1.0
  C  C85  1  0.90555000  0.58074000  0.23352000  1.0
  C  C86  1  0.59445000  0.91926000  0.73352000  1.0
  C  C87  1  0.09445000  0.41927000  0.76648000  1.0
  C  C88  1  0.30268000  0.22676000  0.64276000  1.0
  C  C89  1  0.80268000  0.72676000  0.85724000  1.0
  C  C90  1  0.69733000  0.77324000  0.35724000  1.0
  C  C91  1  0.19732000  0.27323000  0.14277000  1.0
  C  C92  1  0.25503000  0.12169000  0.69483000  1.0
  C  C93  1  0.75503000  0.62169000  0.80517000  1.0
  C  C94  1  0.74497000  0.87831000  0.30517000  1.0
  C  C95  1  0.24497000  0.37830000  0.19483000  1.0
  C  C96  1  0.17340000  0.99236000  0.67103000  1.0
  C  C97  1  0.67340000  0.49235000  0.82897000  1.0
  C  C98  1  0.82660000  0.00765000  0.32897000  1.0
  C  C99  1  0.32660000  0.50764000  0.17103000  1.0
  C  C100  1  0.14284000  0.97679000  0.59413000  1.0
  C  C101  1  0.64284000  0.47679000  0.90587000  1.0
  C  C102  1  0.85716000  0.02321000  0.40587000  1.0
  C  C103  1  0.35715000  0.52321000  0.09413000  1.0
  C  C104  1  0.19253000  0.08769000  0.54584000  1.0
  C  C105  1  0.69253000  0.58768000  0.95416000  1.0
  C  C106  1  0.80747000  0.91232000  0.45416000  1.0
  C  C107  1  0.30747000  0.41231000  0.04585000  1.0
  C  C108  1  0.12117000  0.87588000  0.72505000  1.0
  C  C109  1  0.62117000  0.37588000  0.77495000  1.0
  C  C110  1  0.87883000  0.12412000  0.27495000  1.0
  C  C111  1  0.37883000  0.62412000  0.22505000  1.0
  Br  Br112  1  0.40284000  0.60737000  0.60402000  1.0
  Br  Br113  1  0.90284000  0.10737000  0.89598000  1.0
  Br  Br114  1  0.59716000  0.39263000  0.39598000  1.0
  Br  Br115  1  0.09716000  0.89263000  0.10402000  1.0
  Br  Br116  1  0.10766000  0.40081000  0.39639000  1.0
  Br  Br117  1  0.60766000  0.90081000  0.10361000  1.0
  Br  Br118  1  0.89234000  0.59920000  0.60362000  1.0
  Br  Br119  1  0.39234000  0.09919000  0.89639000  1.0
  N  N120  1  0.21914000  0.77958000  0.43429000  1.0
  N  N121  1  0.71914000  0.27958000  0.06571000  1.0
  N  N122  1  0.78086000  0.22042000  0.56571000  1.0
  N  N123  1  0.28086000  0.72042000  0.93429000  1.0
  N  N124  1  0.27183000  0.21161000  0.56929000  1.0
  N  N125  1  0.77183000  0.71161000  0.93071000  1.0
  N  N126  1  0.72818000  0.78839000  0.43071000  1.0
  N  N127  1  0.22817000  0.28838000  0.06929000  1.0
