# generated using pymatgen
data_ZnH16C24(NO)4
_symmetry_space_group_name_H-M   'P 1'
_cell_length_a   9.22906000
_cell_length_b   10.59030000
_cell_length_c   12.91670000
_cell_angle_alpha   70.55530000
_cell_angle_beta   74.72710000
_cell_angle_gamma   66.61360000
_symmetry_Int_Tables_number   1
_chemical_formula_structural   ZnH16C24(NO)4
_chemical_formula_sum   'Zn2 H32 C48 N8 O8'
_cell_volume   1080.01280136
_cell_formula_units_Z   2
loop_
 _symmetry_equiv_pos_site_id
 _symmetry_equiv_pos_as_xyz
  1  'x, y, z'
loop_
 _atom_site_type_symbol
 _atom_site_label
 _atom_site_symmetry_multiplicity
 _atom_site_fract_x
 _atom_site_fract_y
 _atom_site_fract_z
 _atom_site_occupancy
  Zn  Zn0  1  0.72938000  0.46875000  0.23331000  1.0
  Zn  Zn1  1  0.27062000  0.53125000  0.76670000  1.0
  H  H2  1  0.86827000  0.84248000  0.85054000  1.0
  H  H3  1  0.13174000  0.15752000  0.14945000  1.0
  H  H4  1  0.96871000  0.04720000  0.78040000  1.0
  H  H5  1  0.03130000  0.95279000  0.21960000  1.0
  H  H6  1  0.92285000  0.79374000  0.18232000  1.0
  H  H7  1  0.07716000  0.20626000  0.81767000  1.0
  H  H8  1  0.61904000  0.22337000  0.30006000  1.0
  H  H9  1  0.38097000  0.77662000  0.69994000  1.0
  H  H10  1  0.54929000  0.08212000  0.21129000  1.0
  H  H11  1  0.45072000  0.91788000  0.78871000  1.0
  H  H12  1  0.66383000  0.35598000  0.89346000  1.0
  H  H13  1  0.33618000  0.64401000  0.10654000  1.0
  H  H14  1  0.74049000  0.48150000  0.99616000  1.0
  H  H15  1  0.25952000  0.51850000  0.00385000  1.0
  H  H16  1  0.56469000  0.17956000  0.89374000  1.0
  H  H17  1  0.43532000  0.82044000  0.10626000  1.0
  H  H18  1  0.76698000  0.26348000  0.45786000  1.0
  H  H19  1  0.23301000  0.73653000  0.54215000  1.0
  H  H20  1  0.98593000  0.10495000  0.57162000  1.0
  H  H21  1  0.01406000  0.89505000  0.42839000  1.0
  H  H22  1  0.31871000  0.24172000  0.29337000  1.0
  H  H23  1  0.68129000  0.75827000  0.70664000  1.0
  H  H24  1  0.08779000  0.39006000  0.19018000  1.0
  H  H25  1  0.91220000  0.60993000  0.80983000  1.0
  H  H26  1  0.12581000  0.64789000  0.29660000  1.0
  H  H27  1  0.87418000  0.35212000  0.70339000  1.0
  H  H28  1  0.41022000  0.34890000  0.54655000  1.0
  H  H29  1  0.58977000  0.65111000  0.45344000  1.0
  H  H30  1  0.26775000  0.01693000  0.59384000  1.0
  H  H31  1  0.73225000  0.98307000  0.40617000  1.0
  H  H32  1  0.16987000  0.30772000  0.67116000  1.0
  H  H33  1  0.83013000  0.69228000  0.32883000  1.0
  C  C34  1  0.89205000  0.80479000  0.02080000  1.0
  C  C35  1  0.10796000  0.19521000  0.97919000  1.0
  C  C36  1  0.90577000  0.87723000  0.90632000  1.0
  C  C37  1  0.09423000  0.12276000  0.09368000  1.0
  C  C38  1  0.96092000  0.99012000  0.86825000  1.0
  C  C39  1  0.03909000  0.00988000  0.13174000  1.0
  C  C40  1  0.00705000  0.03629000  0.94207000  1.0
  C  C41  1  0.99296000  0.96371000  0.05793000  1.0
  C  C42  1  0.93444000  0.84889000  0.09445000  1.0
  C  C43  1  0.06557000  0.15111000  0.90555000  1.0
  C  C44  1  0.83023000  0.68244000  0.05854000  1.0
  C  C45  1  0.16977000  0.31756000  0.94145000  1.0
  C  C46  1  0.63114000  0.24686000  0.20997000  1.0
  C  C47  1  0.36887000  0.75313000  0.79003000  1.0
  C  C48  1  0.59003000  0.17045000  0.16074000  1.0
  C  C49  1  0.40998000  0.82954000  0.83927000  1.0
  C  C50  1  0.60047000  0.20929000  0.04432000  1.0
  C  C51  1  0.39954000  0.79071000  0.95568000  1.0
  C  C52  1  0.65561000  0.32260000  0.98369000  1.0
  C  C53  1  0.34440000  0.67740000  0.01631000  1.0
  C  C54  1  0.69738000  0.39236000  0.03895000  1.0
  C  C55  1  0.30263000  0.60764000  0.96106000  1.0
  C  C56  1  0.55840000  0.13736000  0.98416000  1.0
  C  C57  1  0.44160000  0.86263000  0.01585000  1.0
  C  C58  1  0.89164000  0.25258000  0.42476000  1.0
  C  C59  1  0.10835000  0.74742000  0.57525000  1.0
  C  C60  1  0.01370000  0.16615000  0.48723000  1.0
  C  C61  1  0.98629000  0.83384000  0.51278000  1.0
  C  C62  1  0.17167000  0.15920000  0.44092000  1.0
  C  C63  1  0.82833000  0.84080000  0.55908000  1.0
  C  C64  1  0.19879000  0.24237000  0.33233000  1.0
  C  C65  1  0.80120000  0.75762000  0.66767000  1.0
  C  C66  1  0.07059000  0.32608000  0.27522000  1.0
  C  C67  1  0.92941000  0.67392000  0.72479000  1.0
  C  C68  1  0.42574000  0.52874000  0.33907000  1.0
  C  C69  1  0.57426000  0.47127000  0.66092000  1.0
  C  C70  1  0.28071000  0.50165000  0.41406000  1.0
  C  C71  1  0.71929000  0.49837000  0.58593000  1.0
  C  C72  1  0.13302000  0.57265000  0.37840000  1.0
  C  C73  1  0.86698000  0.42736000  0.62159000  1.0
  C  C74  1  0.29335000  0.40320000  0.51989000  1.0
  C  C75  1  0.70664000  0.59680000  0.48010000  1.0
  C  C76  1  0.30009000  0.06772000  0.50595000  1.0
  C  C77  1  0.69990000  0.93227000  0.49405000  1.0
  C  C78  1  0.15942000  0.37927000  0.58823000  1.0
  C  C79  1  0.84057000  0.62073000  0.41176000  1.0
  C  C80  1  0.99336000  0.54929000  0.44609000  1.0
  C  C81  1  0.00663000  0.45071000  0.55390000  1.0
  N  N82  1  0.68429000  0.35641000  0.15054000  1.0
  N  N83  1  0.31572000  0.64359000  0.84947000  1.0
  N  N84  1  0.91950000  0.33085000  0.32024000  1.0
  N  N85  1  0.08050000  0.66915000  0.67977000  1.0
  N  N86  1  0.51600000  0.02695000  0.03633000  1.0
  N  N87  1  0.48401000  0.97306000  0.96367000  1.0
  N  N88  1  0.44862000  0.04516000  0.46215000  1.0
  N  N89  1  0.55138000  0.95484000  0.53786000  1.0
  O  O90  1  0.80566000  0.64022000  0.98741000  1.0
  O  O91  1  0.19433000  0.35979000  0.01258000  1.0
  O  O92  1  0.80666000  0.62901000  0.16559000  1.0
  O  O93  1  0.19335000  0.37098000  0.83440000  1.0
  O  O94  1  0.56316000  0.44201000  0.36779000  1.0
  O  O95  1  0.43683000  0.55799000  0.63221000  1.0
  O  O96  1  0.41134000  0.62853000  0.25210000  1.0
  O  O97  1  0.58866000  0.37149000  0.74790000  1.0
