# generated using pymatgen
data_Cd3H36C42N8(Cl3O)2
_symmetry_space_group_name_H-M   'P 1'
_cell_length_a   10.42500000
_cell_length_b   10.79600000
_cell_length_c   11.75640000
_cell_angle_alpha   83.30190000
_cell_angle_beta   63.97960000
_cell_angle_gamma   74.35070000
_symmetry_Int_Tables_number   1
_chemical_formula_structural   Cd3H36C42N8(Cl3O)2
_chemical_formula_sum   'Cd3 H36 C42 N8 Cl6 O2'
_cell_volume   1144.96517858
_cell_formula_units_Z   1
loop_
 _symmetry_equiv_pos_site_id
 _symmetry_equiv_pos_as_xyz
  1  'x, y, z'
loop_
 _atom_site_type_symbol
 _atom_site_label
 _atom_site_symmetry_multiplicity
 _atom_site_fract_x
 _atom_site_fract_y
 _atom_site_fract_z
 _atom_site_occupancy
  Cd  Cd0  1  0.00000000  0.99999000  0.00000000  1.0
  Cd  Cd1  1  0.06324000  0.65314000  0.98921000  1.0
  Cd  Cd2  1  0.93677000  0.34685000  0.01079000  1.0
  H  H3  1  0.42597000  0.51712000  0.24120000  1.0
  H  H4  1  0.57405000  0.48287000  0.75881000  1.0
  H  H5  1  0.53534000  0.28651000  0.17472000  1.0
  H  H6  1  0.46469000  0.71348000  0.82528000  1.0
  H  H7  1  0.45761000  0.19840000  0.03247000  1.0
  H  H8  1  0.54242000  0.80159000  0.96753000  1.0
  H  H9  1  0.28033000  0.34774000  0.95671000  1.0
  H  H10  1  0.71969000  0.65224000  0.04330000  1.0
  H  H11  1  0.13735000  0.67848000  0.44635000  1.0
  H  H12  1  0.86266000  0.32152000  0.55366000  1.0
  H  H13  1  0.24592000  0.63001000  0.60266000  1.0
  H  H14  1  0.75410000  0.36998000  0.39733000  1.0
  H  H15  1  0.62098000  0.76811000  0.33760000  1.0
  H  H16  1  0.37902000  0.23190000  0.66239000  1.0
  H  H17  1  0.51157000  0.82022000  0.18495000  1.0
  H  H18  1  0.48842000  0.17978000  0.81505000  1.0
  H  H19  1  0.53164000  0.74775000  0.59620000  1.0
  H  H20  1  0.46837000  0.25227000  0.40379000  1.0
  H  H21  1  0.61342000  0.58992000  0.53466000  1.0
  H  H22  1  0.38658000  0.41008000  0.46534000  1.0
  H  H23  1  0.43358000  0.62561000  0.66174000  1.0
  H  H24  1  0.56642000  0.37441000  0.33825000  1.0
  H  H25  1  0.26316000  0.05714000  0.17933000  1.0
  H  H26  1  0.73682000  0.94285000  0.82068000  1.0
  H  H27  1  0.06819000  0.09198000  0.23421000  1.0
  H  H28  1  0.93179000  0.90802000  0.76579000  1.0
  H  H29  1  0.12236000  0.25980000  0.27871000  1.0
  H  H30  1  0.87762000  0.74021000  0.72129000  1.0
  H  H31  1  0.10815000  0.44383000  0.39245000  1.0
  H  H32  1  0.89187000  0.55618000  0.60752000  1.0
  H  H33  1  0.11851000  0.41369000  0.60281000  1.0
  H  H34  1  0.88150000  0.58633000  0.39717000  1.0
  H  H35  1  0.15074000  0.19385000  0.69429000  1.0
  H  H36  1  0.84924000  0.80617000  0.30571000  1.0
  H  H37  1  0.16813000  0.00618000  0.57891000  1.0
  H  H38  1  0.83183000  0.99384000  0.42110000  1.0
  C  C39  1  0.17261000  0.89577000  0.20022000  1.0
  C  C40  1  0.82737000  0.10422000  0.79979000  1.0
  C  C41  1  0.22974000  0.69003000  0.15776000  1.0
  C  C42  1  0.77026000  0.30997000  0.84224000  1.0
  C  C43  1  0.29676000  0.55205000  0.13317000  1.0
  C  C44  1  0.70325000  0.44794000  0.86684000  1.0
  C  C45  1  0.39599000  0.47639000  0.17874000  1.0
  C  C46  1  0.60402000  0.52360000  0.82127000  1.0
  C  C47  1  0.45605000  0.34741000  0.14193000  1.0
  C  C48  1  0.54397000  0.65259000  0.85808000  1.0
  C  C49  1  0.41420000  0.29875000  0.06239000  1.0
  C  C50  1  0.58582000  0.70124000  0.93762000  1.0
  C  C51  1  0.31523000  0.38114000  0.02016000  1.0
  C  C52  1  0.68478000  0.61885000  0.97986000  1.0
  C  C53  1  0.31938000  0.74917000  0.30678000  1.0
  C  C54  1  0.68061000  0.25083000  0.69323000  1.0
  C  C55  1  0.24396000  0.69630000  0.42351000  1.0
  C  C56  1  0.75604000  0.30370000  0.57650000  1.0
  C  C57  1  0.30526000  0.66967000  0.51023000  1.0
  C  C58  1  0.69476000  0.33032000  0.48977000  1.0
  C  C59  1  0.44180000  0.69420000  0.48082000  1.0
  C  C60  1  0.55821000  0.30581000  0.51917000  1.0
  C  C61  1  0.51468000  0.74830000  0.36274000  1.0
  C  C62  1  0.48533000  0.25171000  0.63724000  1.0
  C  C63  1  0.45386000  0.77693000  0.27548000  1.0
  C  C64  1  0.54613000  0.22308000  0.72452000  1.0
  C  C65  1  0.50839000  0.66255000  0.57378000  1.0
  C  C66  1  0.49161000  0.33746000  0.42621000  1.0
  C  C67  1  0.16359000  0.02375000  0.24281000  1.0
  C  C68  1  0.83639000  0.97625000  0.75720000  1.0
  C  C69  1  0.14491000  0.12116000  0.42302000  1.0
  C  C70  1  0.85506000  0.87886000  0.57698000  1.0
  C  C71  1  0.13026000  0.24366000  0.36883000  1.0
  C  C72  1  0.86972000  0.75635000  0.63116000  1.0
  C  C73  1  0.12104000  0.34837000  0.43427000  1.0
  C  C74  1  0.87897000  0.65165000  0.56571000  1.0
  C  C75  1  0.12611000  0.33200000  0.55174000  1.0
  C  C76  1  0.87389000  0.66802000  0.44824000  1.0
  C  C77  1  0.14378000  0.20839000  0.60356000  1.0
  C  C78  1  0.85620000  0.79163000  0.39643000  1.0
  C  C79  1  0.15347000  0.10295000  0.53987000  1.0
  C  C80  1  0.84650000  0.89707000  0.46013000  1.0
  N  N81  1  0.10778000  0.88009000  0.13001000  1.0
  N  N82  1  0.89221000  0.11990000  0.86999000  1.0
  N  N83  1  0.14258000  0.75342000  0.10468000  1.0
  N  N84  1  0.85742000  0.24657000  0.89531000  1.0
  N  N85  1  0.25104000  0.77740000  0.22049000  1.0
  N  N86  1  0.74894000  0.22260000  0.77952000  1.0
  N  N87  1  0.25824000  0.50460000  0.05415000  1.0
  N  N88  1  0.74177000  0.49538000  0.94587000  1.0
  Cl  Cl89  1  0.89831000  0.50605000  0.17113000  1.0
  Cl  Cl90  1  0.10171000  0.49393000  0.82886000  1.0
  Cl  Cl91  1  0.82052000  0.84327000  0.06348000  1.0
  Cl  Cl92  1  0.17948000  0.15671000  0.93653000  1.0
  Cl  Cl93  1  0.82053000  0.17214000  0.18038000  1.0
  Cl  Cl94  1  0.17946000  0.82784000  0.81961000  1.0
  O  O95  1  0.14986000  0.01261000  0.36922000  1.0
  O  O96  1  0.85009000  0.98740000  0.63080000  1.0
