# generated using pymatgen
data_LiH4C7O2
_symmetry_space_group_name_H-M   'P 1'
_cell_length_a   4.98838000
_cell_length_b   8.45025000
_cell_length_c   12.82490000
_cell_angle_alpha   97.47670000
_cell_angle_beta   89.99780000
_cell_angle_gamma   89.99940000
_symmetry_Int_Tables_number   1
_chemical_formula_structural   LiH4C7O2
_chemical_formula_sum   'Li4 H16 C28 O8'
_cell_volume   536.01242266
_cell_formula_units_Z   4
loop_
 _symmetry_equiv_pos_site_id
 _symmetry_equiv_pos_as_xyz
  1  'x, y, z'
loop_
 _atom_site_type_symbol
 _atom_site_label
 _atom_site_symmetry_multiplicity
 _atom_site_fract_x
 _atom_site_fract_y
 _atom_site_fract_z
 _atom_site_occupancy
  Li  Li0  1  0.59718000  0.64742000  0.50479000  1.0
  Li  Li1  1  0.09717000  0.85258000  0.49521000  1.0
  Li  Li2  1  0.40281000  0.35259000  0.49521000  1.0
  Li  Li3  1  0.90282000  0.14742000  0.50479000  1.0
  H  H4  1  0.39765000  0.42159000  0.72548000  1.0
  H  H5  1  0.89763000  0.07842000  0.27451000  1.0
  H  H6  1  0.60236000  0.57842000  0.27452000  1.0
  H  H7  1  0.10237000  0.92158000  0.72548000  1.0
  H  H8  1  0.36048000  0.36656000  0.90725000  1.0
  H  H9  1  0.86046000  0.13343000  0.09274000  1.0
  H  H10  1  0.63952000  0.63344000  0.09275000  1.0
  H  H11  1  0.13954000  0.86657000  0.90725000  1.0
  H  H12  1  0.65647000  0.66711000  0.94705000  1.0
  H  H13  1  0.15646000  0.83288000  0.05295000  1.0
  H  H14  1  0.34352000  0.33287000  0.05295000  1.0
  H  H15  1  0.84355000  0.16712000  0.94704000  1.0
  H  H16  1  0.69396000  0.71645000  0.76360000  1.0
  H  H17  1  0.19395000  0.78356000  0.23640000  1.0
  H  H18  1  0.30604000  0.28356000  0.23640000  1.0
  H  H19  1  0.80606000  0.21643000  0.76359000  1.0
  C  C20  1  0.09233000  0.61293000  0.62300000  1.0
  C  C21  1  0.59228000  0.88706000  0.37701000  1.0
  C  C22  1  0.90766000  0.38707000  0.37701000  1.0
  C  C23  1  0.40771000  0.11294000  0.62299000  1.0
  C  C24  1  0.04824000  0.57173000  0.73155000  1.0
  C  C25  1  0.54824000  0.92830000  0.26845000  1.0
  C  C26  1  0.95176000  0.42828000  0.26845000  1.0
  C  C27  1  0.45178000  0.07170000  0.73154000  1.0
  C  C28  1  0.23240000  0.47252000  0.77414000  1.0
  C  C29  1  0.73235000  0.02748000  0.22586000  1.0
  C  C30  1  0.76761000  0.52748000  0.22587000  1.0
  C  C31  1  0.26766000  0.97253000  0.77413000  1.0
  C  C32  1  0.21125000  0.44347000  0.87782000  1.0
  C  C33  1  0.71125000  0.05654000  0.12218000  1.0
  C  C34  1  0.78875000  0.55653000  0.12218000  1.0
  C  C35  1  0.28875000  0.94346000  0.87782000  1.0
  C  C36  1  0.00729000  0.51360000  0.94414000  1.0
  C  C37  1  0.50726000  0.98639000  0.05586000  1.0
  C  C38  1  0.99271000  0.48639000  0.05587000  1.0
  C  C39  1  0.49275000  0.01361000  0.94413000  1.0
  C  C40  1  0.82005000  0.61098000  0.89978000  1.0
  C  C41  1  0.32006000  0.88904000  0.10023000  1.0
  C  C42  1  0.17994000  0.38902000  0.10023000  1.0
  C  C43  1  0.67995000  0.11096000  0.89977000  1.0
  C  C44  1  0.83905000  0.63909000  0.79553000  1.0
  C  C45  1  0.33901000  0.86091000  0.20448000  1.0
  C  C46  1  0.16095000  0.36091000  0.20448000  1.0
  C  C47  1  0.66101000  0.13909000  0.79552000  1.0
  O  O48  1  0.30282000  0.55832000  0.57458000  1.0
  O  O49  1  0.80284000  0.94168000  0.42542000  1.0
  O  O50  1  0.69716000  0.44169000  0.42542000  1.0
  O  O51  1  0.19715000  0.05831000  0.57458000  1.0
  O  O52  1  0.92724000  0.70604000  0.58493000  1.0
  O  O53  1  0.42726000  0.79398000  0.41507000  1.0
  O  O54  1  0.07274000  0.29396000  0.41508000  1.0
  O  O55  1  0.57273000  0.20603000  0.58492000  1.0
