# generated using pymatgen
data_HgTeH15C11S2N
_symmetry_space_group_name_H-M   'P 1'
_cell_length_a   10.29230000
_cell_length_b   11.09898553
_cell_length_c   11.09900000
_cell_angle_alpha   120.00412942
_cell_angle_beta   90.02450000
_cell_angle_gamma   89.97669989
_symmetry_Int_Tables_number   1
_chemical_formula_structural   HgTeH15C11S2N
_chemical_formula_sum   'Hg3 Te3 H45 C33 S6 N3'
_cell_volume   1097.97406385
_cell_formula_units_Z   3
loop_
 _symmetry_equiv_pos_site_id
 _symmetry_equiv_pos_as_xyz
  1  'x, y, z'
loop_
 _atom_site_type_symbol
 _atom_site_label
 _atom_site_symmetry_multiplicity
 _atom_site_fract_x
 _atom_site_fract_y
 _atom_site_fract_z
 _atom_site_occupancy
  Hg  Hg0  1  0.32991000  0.99413000  0.93319000  1.0
  Hg  Hg1  1  0.99688000  0.06677000  0.06131000  1.0
  Hg  Hg2  1  0.66347000  0.93898000  0.00585000  1.0
  Te  Te3  1  0.48929000  0.15611000  0.16696000  1.0
  Te  Te4  1  0.15620000  0.83276000  0.98934000  1.0
  Te  Te5  1  0.82291000  0.01080000  0.84396000  1.0
  H  H6  1  0.27443000  0.34238000  0.81452000  1.0
  H  H7  1  0.94110000  0.18539000  0.52808000  1.0
  H  H8  1  0.60786000  0.47202000  0.65738000  1.0
  H  H9  1  0.24234000  0.52490000  0.90800000  1.0
  H  H10  1  0.90895000  0.09195000  0.61711000  1.0
  H  H11  1  0.57555000  0.38303000  0.47493000  1.0
  H  H12  1  0.10519000  0.40536000  0.69203000  1.0
  H  H13  1  0.77160000  0.30787000  0.71317000  1.0
  H  H14  1  0.43851000  0.28682000  0.59464000  1.0
  H  H15  1  0.00397000  0.47233000  0.84120000  1.0
  H  H16  1  0.67054000  0.15857000  0.63083000  1.0
  H  H17  1  0.33728000  0.36910000  0.52773000  1.0
  H  H18  1  0.04262000  0.29175000  0.74832000  1.0
  H  H19  1  0.70925000  0.25135000  0.54308000  1.0
  H  H20  1  0.37602000  0.45682000  0.70829000  1.0
  H  H21  1  0.06279000  0.52431000  0.18137000  1.0
  H  H22  1  0.72958000  0.81848000  0.34292000  1.0
  H  H23  1  0.39591000  0.65719000  0.47577000  1.0
  H  H24  1  0.08693000  0.61072000  0.08403000  1.0
  H  H25  1  0.75378000  0.91582000  0.52671000  1.0
  H  H26  1  0.42011000  0.47339000  0.38926000  1.0
  H  H27  1  0.22202000  0.71873000  0.30310000  1.0
  H  H28  1  0.88904000  0.69680000  0.41552000  1.0
  H  H29  1  0.55508000  0.58448000  0.28126000  1.0
  H  H30  1  0.32281000  0.64703000  0.15383000  1.0
  H  H31  1  0.98975000  0.84619000  0.49321000  1.0
  H  H32  1  0.65599000  0.50687000  0.35290000  1.0
  H  H33  1  0.29913000  0.55504000  0.24573000  1.0
  H  H34  1  0.96591000  0.75435000  0.30930000  1.0
  H  H35  1  0.63218000  0.69077000  0.44496000  1.0
  H  H36  1  0.49395000  0.91575000  0.47276000  1.0
  H  H37  1  0.16063000  0.52737000  0.44310000  1.0
  H  H38  1  0.82733000  0.55690000  0.08412000  1.0
  H  H39  1  0.26052000  0.95649000  0.53660000  1.0
  H  H40  1  0.92718000  0.46346000  0.41988000  1.0
  H  H41  1  0.59389000  0.58012000  0.04321000  1.0
  H  H42  1  0.11924000  0.06738000  0.43549000  1.0
  H  H43  1  0.78596000  0.56466000  0.63178000  1.0
  H  H44  1  0.45258000  0.36823000  0.93255000  1.0
  H  H45  1  0.21326000  0.14555000  0.28142000  1.0
  H  H46  1  0.87991000  0.71866000  0.86408000  1.0
  H  H47  1  0.54649000  0.13596000  0.85468000  1.0
  H  H48  1  0.58802000  0.98902000  0.31301000  1.0
  H  H49  1  0.25474000  0.68704000  0.67625000  1.0
  H  H50  1  0.92132000  0.32378000  0.01100000  1.0
  C  C51  1  0.17181000  0.29307000  0.99925000  1.0
  C  C52  1  0.83857000  0.00077000  0.29397000  1.0
  C  C53  1  0.50524000  0.70620000  0.70691000  1.0
  C  C54  1  0.20044000  0.42145000  0.87331000  1.0
  C  C55  1  0.86711000  0.12658000  0.54826000  1.0
  C  C56  1  0.53378000  0.45187000  0.57843000  1.0
  C  C57  1  0.08060000  0.39642000  0.78344000  1.0
  C  C58  1  0.74717000  0.21639000  0.61280000  1.0
  C  C59  1  0.41395000  0.38722000  0.60362000  1.0
  C  C60  1  0.13400000  0.54657000  0.12154000  1.0
  C  C61  1  0.80079000  0.87835000  0.42507000  1.0
  C  C62  1  0.46715000  0.57504000  0.45341000  1.0
  C  C63  1  0.25172000  0.62110000  0.21115000  1.0
  C  C64  1  0.91861000  0.78883000  0.40996000  1.0
  C  C65  1  0.58482000  0.59012000  0.37887000  1.0
  C  C66  1  0.43250000  0.96567000  0.43015000  1.0
  C  C67  1  0.09923000  0.56997000  0.53559000  1.0
  C  C68  1  0.76589000  0.46442000  0.03421000  1.0
  C  C69  1  0.30094000  0.98770000  0.46551000  1.0
  C  C70  1  0.96763000  0.53460000  0.52218000  1.0
  C  C71  1  0.63433000  0.47783000  0.01213000  1.0
  C  C72  1  0.22223000  0.05046000  0.40993000  1.0
  C  C73  1  0.88896000  0.59025000  0.64050000  1.0
  C  C74  1  0.55561000  0.35953000  0.94948000  1.0
  C  C75  1  0.27494000  0.09377000  0.32179000  1.0
  C  C76  1  0.94165000  0.67831000  0.77202000  1.0
  C  C77  1  0.60825000  0.22801000  0.90626000  1.0
  C  C78  1  0.48572000  0.00762000  0.34113000  1.0
  C  C79  1  0.15243000  0.65889000  0.66665000  1.0
  C  C80  1  0.81904000  0.33339000  0.99231000  1.0
  C  C81  1  0.40723000  0.07285000  0.28767000  1.0
  C  C82  1  0.07399000  0.71227000  0.78531000  1.0
  C  C83  1  0.74057000  0.21474000  0.92710000  1.0
  S  S84  1  0.20766000  0.14305000  0.84600000  1.0
  S  S85  1  0.87447000  0.15406000  0.29733000  1.0
  S  S86  1  0.54136000  0.70280000  0.85680000  1.0
  S  S87  1  0.13521000  0.29605000  0.15260000  1.0
  S  S88  1  0.80202000  0.84745000  0.14352000  1.0
  S  S89  1  0.46854000  0.85664000  0.70408000  1.0
  N  N90  1  0.16985000  0.41427000  0.99865000  1.0
  N  N91  1  0.83657000  0.00126000  0.41570000  1.0
  N  N92  1  0.50314000  0.58442000  0.58567000  1.0
