# generated using pymatgen
data_Hg3H24C14S2(N5Cl2)2
_symmetry_space_group_name_H-M   'P 1'
_cell_length_a   7.62000000
_cell_length_b   8.87738000
_cell_length_c   18.41570000
_cell_angle_alpha   90.00020000
_cell_angle_beta   90.00020000
_cell_angle_gamma   102.03300000
_symmetry_Int_Tables_number   1
_chemical_formula_structural   Hg3H24C14S2(N5Cl2)2
_chemical_formula_sum   'Hg6 H48 C28 S4 N20 Cl8'
_cell_volume   1218.36990795
_cell_formula_units_Z   2
loop_
 _symmetry_equiv_pos_site_id
 _symmetry_equiv_pos_as_xyz
  1  'x, y, z'
loop_
 _atom_site_type_symbol
 _atom_site_label
 _atom_site_symmetry_multiplicity
 _atom_site_fract_x
 _atom_site_fract_y
 _atom_site_fract_z
 _atom_site_occupancy
  Hg  Hg0  1  0.50000000  0.49999000  0.50000000  1.0
  Hg  Hg1  1  0.00001000  0.00000000  0.00000000  1.0
  Hg  Hg2  1  0.62954000  0.04034000  0.24441000  1.0
  Hg  Hg3  1  0.87046000  0.45966000  0.74441000  1.0
  Hg  Hg4  1  0.37045000  0.95966000  0.75559000  1.0
  Hg  Hg5  1  0.12955000  0.54034000  0.25559000  1.0
  H  H6  1  0.55219000  0.71398000  0.33906000  1.0
  H  H7  1  0.94781000  0.78601000  0.83906000  1.0
  H  H8  1  0.44781000  0.28602000  0.66094000  1.0
  H  H9  1  0.05219000  0.21398000  0.16094000  1.0
  H  H10  1  0.58034000  0.85813000  0.40816000  1.0
  H  H11  1  0.91967000  0.64187000  0.90816000  1.0
  H  H12  1  0.41966000  0.14187000  0.59184000  1.0
  H  H13  1  0.08033000  0.35813000  0.09184000  1.0
  H  H14  1  0.90390000  0.52944000  0.40903000  1.0
  H  H15  1  0.59610000  0.97056000  0.90903000  1.0
  H  H16  1  0.09610000  0.47056000  0.59097000  1.0
  H  H17  1  0.40390000  0.02944000  0.09097000  1.0
  H  H18  1  0.73840000  0.52358000  0.34011000  1.0
  H  H19  1  0.76160000  0.97641000  0.84011000  1.0
  H  H20  1  0.26160000  0.47642000  0.65989000  1.0
  H  H21  1  0.23840000  0.02359000  0.15989000  1.0
  H  H22  1  0.93855000  0.72405000  0.50262000  1.0
  H  H23  1  0.56146000  0.77595000  0.00262000  1.0
  H  H24  1  0.06146000  0.27595000  0.49738000  1.0
  H  H25  1  0.43854000  0.22405000  0.99738000  1.0
  H  H26  1  0.80310000  0.86590000  0.50148000  1.0
  H  H27  1  0.69690000  0.63411000  0.00148000  1.0
  H  H28  1  0.19690000  0.13410000  0.49852000  1.0
  H  H29  1  0.30310000  0.36589000  0.99852000  1.0
  H  H30  1  0.78193000  0.72308000  0.24674000  1.0
  H  H31  1  0.71807000  0.77692000  0.74674000  1.0
  H  H32  1  0.21807000  0.27692000  0.75327000  1.0
  H  H33  1  0.28193000  0.22309000  0.25326000  1.0
  H  H34  1  0.97834000  0.87238000  0.24857000  1.0
  H  H35  1  0.52166000  0.62761000  0.74857000  1.0
  H  H36  1  0.02165000  0.12761000  0.75144000  1.0
  H  H37  1  0.47834000  0.37239000  0.25143000  1.0
  H  H38  1  0.84637000  0.06127000  0.41046000  1.0
  H  H39  1  0.65363000  0.43873000  0.91047000  1.0
  H  H40  1  0.15363000  0.93873000  0.58954000  1.0
  H  H41  1  0.34637000  0.56127000  0.08953000  1.0
  H  H42  1  0.01597000  0.06846000  0.34303000  1.0
  H  H43  1  0.48403000  0.43154000  0.84303000  1.0
  H  H44  1  0.98403000  0.93154000  0.65697000  1.0
  H  H45  1  0.51597000  0.56846000  0.15697000  1.0
  H  H46  1  0.19964000  0.87998000  0.34300000  1.0
  H  H47  1  0.30036000  0.62003000  0.84300000  1.0
  H  H48  1  0.80036000  0.12002000  0.65700000  1.0
  H  H49  1  0.69964000  0.37997000  0.15700000  1.0
  H  H50  1  0.16698000  0.73169000  0.41018000  1.0
  H  H51  1  0.33302000  0.76832000  0.91018000  1.0
  H  H52  1  0.83302000  0.26831000  0.58981000  1.0
  H  H53  1  0.66698000  0.23169000  0.08981000  1.0
  C  C54  1  0.65033000  0.78817000  0.37408000  1.0
  C  C55  1  0.84968000  0.71184000  0.87408000  1.0
  C  C56  1  0.34967000  0.21183000  0.62592000  1.0
  C  C57  1  0.15033000  0.28816000  0.12592000  1.0
  C  C58  1  0.83471000  0.60007000  0.37492000  1.0
  C  C59  1  0.66530000  0.89993000  0.87492000  1.0
  C  C60  1  0.16529000  0.39993000  0.62508000  1.0
  C  C61  1  0.33470000  0.10007000  0.12508000  1.0
  C  C62  1  0.87281000  0.79549000  0.46744000  1.0
  C  C63  1  0.62719000  0.70452000  0.96744000  1.0
  C  C64  1  0.12719000  0.20451000  0.53256000  1.0
  C  C65  1  0.37281000  0.29548000  0.03256000  1.0
  C  C66  1  0.87852000  0.79694000  0.28238000  1.0
  C  C67  1  0.62148000  0.70306000  0.78239000  1.0
  C  C68  1  0.12148000  0.20306000  0.71762000  1.0
  C  C69  1  0.37852000  0.29695000  0.21762000  1.0
  C  C70  1  0.91745000  0.99144000  0.37671000  1.0
  C  C71  1  0.58256000  0.50856000  0.87671000  1.0
  C  C72  1  0.08256000  0.00856000  0.62329000  1.0
  C  C73  1  0.41745000  0.49144000  0.12329000  1.0
  C  C74  1  0.09969000  0.80460000  0.37680000  1.0
  C  C75  1  0.40031000  0.69541000  0.87680000  1.0
  C  C76  1  0.90031000  0.19541000  0.62320000  1.0
  C  C77  1  0.59969000  0.30459000  0.12320000  1.0
  C  C78  1  0.52771000  0.17498000  0.40298000  1.0
  C  C79  1  0.97229000  0.32501000  0.90298000  1.0
  C  C80  1  0.47227000  0.82500000  0.59702000  1.0
  C  C81  1  0.02771000  0.67500000  0.09702000  1.0
  S  S82  1  0.63812000  0.26125000  0.47297000  1.0
  S  S83  1  0.86189000  0.23874000  0.97297000  1.0
  S  S84  1  0.36188000  0.73874000  0.52702000  1.0
  S  S85  1  0.13810000  0.76125000  0.02702000  1.0
  N  N86  1  0.78353000  0.89221000  0.32795000  1.0
  N  N87  1  0.71647000  0.60779000  0.82795000  1.0
  N  N88  1  0.21647000  0.10779000  0.67205000  1.0
  N  N89  1  0.28353000  0.39221000  0.17205000  1.0
  N  N90  1  0.74002000  0.69264000  0.42086000  1.0
  N  N91  1  0.75998000  0.80736000  0.92086000  1.0
  N  N92  1  0.25997000  0.30736000  0.57914000  1.0
  N  N93  1  0.24002000  0.19264000  0.07914000  1.0
  N  N94  1  0.96973000  0.70098000  0.32862000  1.0
  N  N95  1  0.53027000  0.79903000  0.82862000  1.0
  N  N96  1  0.03027000  0.29902000  0.67138000  1.0
  N  N97  1  0.46973000  0.20098000  0.17138000  1.0
  N  N98  1  0.00698000  0.89694000  0.42278000  1.0
  N  N99  1  0.49302000  0.60306000  0.92278000  1.0
  N  N100  1  0.99302000  0.10305000  0.57722000  1.0
  N  N101  1  0.50698000  0.39694000  0.07722000  1.0
  N  N102  1  0.45317000  0.10573000  0.35297000  1.0
  N  N103  1  0.04683000  0.39427000  0.85297000  1.0
  N  N104  1  0.54683000  0.89427000  0.64703000  1.0
  N  N105  1  0.95318000  0.60573000  0.14703000  1.0
  Cl  Cl106  1  0.27382000  0.46150000  0.38128000  1.0
  Cl  Cl107  1  0.22618000  0.03850000  0.88128000  1.0
  Cl  Cl108  1  0.72618000  0.53850000  0.61872000  1.0
  Cl  Cl109  1  0.77382000  0.96150000  0.11872000  1.0
  Cl  Cl110  1  0.87260000  0.29139000  0.27553000  1.0
  Cl  Cl111  1  0.62739000  0.20861000  0.77554000  1.0
  Cl  Cl112  1  0.12740000  0.70861000  0.72447000  1.0
  Cl  Cl113  1  0.37261000  0.79139000  0.22446000  1.0
