# generated using pymatgen
data_CuH14C16(N3Cl)2
_symmetry_space_group_name_H-M   'P 1'
_cell_length_a   7.99890000
_cell_length_b   9.03154000
_cell_length_c   12.50000000
_cell_angle_alpha   69.62260000
_cell_angle_beta   79.46300000
_cell_angle_gamma   89.34380000
_symmetry_Int_Tables_number   1
_chemical_formula_structural   CuH14C16(N3Cl)2
_chemical_formula_sum   'Cu2 H28 C32 N12 Cl4'
_cell_volume   830.90564868
_cell_formula_units_Z   2
loop_
 _symmetry_equiv_pos_site_id
 _symmetry_equiv_pos_as_xyz
  1  'x, y, z'
loop_
 _atom_site_type_symbol
 _atom_site_label
 _atom_site_symmetry_multiplicity
 _atom_site_fract_x
 _atom_site_fract_y
 _atom_site_fract_z
 _atom_site_occupancy
  Cu  Cu0  1  0.00000000  0.00000000  0.50000000  1.0
  Cu  Cu1  1  0.50000000  0.50000000  0.50000000  1.0
  H  H2  1  0.67532000  0.75640000  0.54405000  1.0
  H  H3  1  0.32471000  0.24360000  0.45594000  1.0
  H  H4  1  0.81261000  0.20709000  0.29065000  1.0
  H  H5  1  0.18738000  0.79292000  0.70935000  1.0
  H  H6  1  0.45083000  0.21285000  0.24752000  1.0
  H  H7  1  0.54917000  0.78715000  0.75248000  1.0
  H  H8  1  0.41350000  0.02677000  0.23683000  1.0
  H  H9  1  0.58650000  0.97322000  0.76317000  1.0
  H  H10  1  0.63480000  0.40958000  0.10347000  1.0
  H  H11  1  0.36519000  0.59041000  0.89653000  1.0
  H  H12  1  0.83599000  0.50865000  0.91231000  1.0
  H  H13  1  0.16401000  0.49135000  0.08770000  1.0
  H  H14  1  0.56312000  0.84781000  0.19338000  1.0
  H  H15  1  0.43688000  0.15218000  0.80662000  1.0
  H  H16  1  0.66666667  0.66666667  0.09343000  1.0
  H  H17  1  0.33338000  0.33327000  0.90657000  1.0
  H  H18  1  0.85677000  0.76914000  0.89545000  1.0
  H  H19  1  0.14323000  0.23086000  0.10454000  1.0
  H  H20  1  0.94326000  0.04920000  0.80371000  1.0
  H  H21  1  0.05674000  0.95080000  0.19629000  1.0
  H  H22  1  0.03086000  0.46354000  0.76562000  1.0
  H  H23  1  0.96913000  0.53646000  0.23438000  1.0
  H  H24  1  0.08173000  0.27088000  0.77029000  1.0
  H  H25  1  0.91827000  0.72913000  0.22971000  1.0
  H  H26  1  0.66518000  0.48420000  0.72257000  1.0
  H  H27  1  0.33481000  0.51580000  0.27744000  1.0
  H  H28  1  0.84717000  0.32177000  0.44808000  1.0
  H  H29  1  0.15283000  0.67823000  0.55192000  1.0
  C  C30  1  0.67485000  0.86328000  0.46992000  1.0
  C  C31  1  0.32517000  0.13672000  0.53007000  1.0
  C  C32  1  0.74836000  0.09313000  0.34201000  1.0
  C  C33  1  0.25165000  0.90688000  0.65799000  1.0
  C  C34  1  0.51383000  0.11317000  0.22957000  1.0
  C  C35  1  0.48617000  0.88682000  0.77043000  1.0
  C  C36  1  0.63054000  0.16888000  0.11237000  1.0
  C  C37  1  0.36946000  0.83111000  0.88763000  1.0
  C  C38  1  0.68179000  0.32730000  0.05985000  1.0
  C  C39  1  0.31820000  0.67270000  0.94015000  1.0
  C  C40  1  0.79560000  0.38325000  0.95186000  1.0
  C  C41  1  0.20440000  0.61675000  0.04814000  1.0
  C  C42  1  0.85661000  0.28149000  0.89488000  1.0
  C  C43  1  0.14340000  0.71851000  0.10512000  1.0
  C  C44  1  0.80426000  0.11703000  0.94524000  1.0
  C  C45  1  0.19574000  0.88297000  0.05476000  1.0
  C  C46  1  0.69178000  0.05934000  0.05673000  1.0
  C  C47  1  0.30822000  0.94066000  0.94327000  1.0
  C  C48  1  0.64529000  0.89502000  0.10788000  1.0
  C  C49  1  0.35471000  0.10498000  0.89212000  1.0
  C  C50  1  0.70390000  0.79233000  0.05135000  1.0
  C  C51  1  0.29610000  0.20767000  0.94865000  1.0
  C  C52  1  0.81158000  0.84930000  0.94117000  1.0
  C  C53  1  0.18842000  0.15070000  0.05883000  1.0
  C  C54  1  0.86057000  0.00809000  0.88921000  1.0
  C  C55  1  0.13943000  0.99191000  0.11079000  1.0
  C  C56  1  0.97573000  0.34627000  0.77906000  1.0
  C  C57  1  0.02427000  0.65374000  0.22094000  1.0
  C  C58  1  0.74123000  0.43171000  0.66578000  1.0
  C  C59  1  0.25876000  0.56829000  0.33422000  1.0
  C  C60  1  0.83624000  0.34649000  0.52767000  1.0
  C  C61  1  0.16376000  0.65351000  0.47233000  1.0
  N  N62  1  0.79472000  0.98612000  0.43538000  1.0
  N  N63  1  0.20529000  0.01389000  0.56462000  1.0
  N  N64  1  0.55885000  0.88899000  0.40311000  1.0
  N  N65  1  0.44116000  0.11100000  0.59689000  1.0
  N  N66  1  0.60818000  0.03572000  0.32251000  1.0
  N  N67  1  0.39182000  0.96428000  0.67749000  1.0
  N  N68  1  0.88678000  0.36142000  0.68344000  1.0
  N  N69  1  0.11321000  0.63858000  0.31656000  1.0
  N  N70  1  0.94975000  0.30585000  0.59649000  1.0
  N  N71  1  0.05024000  0.69415000  0.40351000  1.0
  N  N72  1  0.70490000  0.42422000  0.56714000  1.0
  N  N73  1  0.29509000  0.57578000  0.43286000  1.0
  Cl  Cl74  1  0.89090000  0.78744000  0.66701000  1.0
  Cl  Cl75  1  0.10910000  0.21257000  0.33299000  1.0
  Cl  Cl76  1  0.62071000  0.45817000  0.33043000  1.0
  Cl  Cl77  1  0.37928000  0.54183000  0.66958000  1.0
