# generated using pymatgen
data_H18PbC24(NO)4
_symmetry_space_group_name_H-M   'P 1'
_cell_length_a   8.60527000
_cell_length_b   9.88552000
_cell_length_c   13.13770000
_cell_angle_alpha   90.17800000
_cell_angle_beta   98.55840000
_cell_angle_gamma   112.43700000
_symmetry_Int_Tables_number   1
_chemical_formula_structural   H18PbC24(NO)4
_chemical_formula_sum   'H36 Pb2 C48 N8 O8'
_cell_volume   1019.29117309
_cell_formula_units_Z   2
loop_
 _symmetry_equiv_pos_site_id
 _symmetry_equiv_pos_as_xyz
  1  'x, y, z'
loop_
 _atom_site_type_symbol
 _atom_site_label
 _atom_site_symmetry_multiplicity
 _atom_site_fract_x
 _atom_site_fract_y
 _atom_site_fract_z
 _atom_site_occupancy
  H  H0  1  0.35073000  0.10553000  0.55682000  1.0
  H  H1  1  0.64913000  0.89443000  0.44318000  1.0
  H  H2  1  0.14758000  0.21727000  0.58445000  1.0
  H  H3  1  0.85232000  0.78265000  0.41555000  1.0
  H  H4  1  0.14550000  0.30121000  0.76797000  1.0
  H  H5  1  0.85447000  0.69872000  0.23205000  1.0
  H  H6  1  0.89125000  0.02447000  0.90881000  1.0
  H  H7  1  0.10872000  0.97552000  0.09117000  1.0
  H  H8  1  0.92447000  0.10140000  0.09740000  1.0
  H  H9  1  0.07556000  0.89850000  0.90255000  1.0
  H  H10  1  0.72432000  0.20734000  0.14980000  1.0
  H  H11  1  0.27564000  0.79266000  0.85015000  1.0
  H  H12  1  0.45055000  0.43524000  0.28842000  1.0
  H  H13  1  0.54948000  0.56479000  0.71156000  1.0
  H  H14  1  0.35230000  0.57016000  0.40492000  1.0
  H  H15  1  0.64770000  0.42985000  0.59506000  1.0
  H  H16  1  0.11096000  0.64360000  0.34190000  1.0
  H  H17  1  0.88900000  0.35640000  0.65809000  1.0
  H  H18  1  0.97489000  0.58979000  0.15454000  1.0
  H  H19  1  0.02519000  0.41027000  0.84546000  1.0
  H  H20  1  0.07885000  0.45708000  0.03805000  1.0
  H  H21  1  0.92121000  0.54302000  0.96194000  1.0
  H  H22  1  0.01977000  0.71629000  0.74589000  1.0
  H  H23  1  0.98027000  0.28371000  0.25413000  1.0
  H  H24  1  0.16393000  0.88504000  0.71312000  1.0
  H  H25  1  0.83610000  0.11496000  0.28690000  1.0
  H  H26  1  0.08172000  0.79734000  0.52550000  1.0
  H  H27  1  0.91839000  0.20268000  0.47453000  1.0
  H  H28  1  0.92872000  0.63163000  0.55743000  1.0
  H  H29  1  0.07127000  0.36843000  0.44257000  1.0
  H  H30  1  0.17582000  0.58543000  0.66906000  1.0
  H  H31  1  0.82416000  0.41453000  0.33094000  1.0
  H  H32  1  0.17824000  0.58354000  0.53394000  1.0
  H  H33  1  0.82166000  0.41636000  0.46607000  1.0
  H  H34  1  0.50066000  0.29174000  0.17843000  1.0
  H  H35  1  0.49936000  0.70825000  0.82154000  1.0
  Pb  Pb36  1  0.68906000  0.02745000  0.66839000  1.0
  Pb  Pb37  1  0.31091000  0.97266000  0.33182000  1.0
  C  C38  1  0.34666000  0.14072000  0.63453000  1.0
  C  C39  1  0.65334000  0.85933000  0.36548000  1.0
  C  C40  1  0.23229000  0.20567000  0.65104000  1.0
  C  C41  1  0.76766000  0.79432000  0.34896000  1.0
  C  C42  1  0.23228000  0.25121000  0.75053000  1.0
  C  C43  1  0.76773000  0.74878000  0.24948000  1.0
  C  C44  1  0.34737000  0.23317000  0.83222000  1.0
  C  C45  1  0.65270000  0.76691000  0.16777000  1.0
  C  C46  1  0.45892000  0.16584000  0.80877000  1.0
  C  C47  1  0.54107000  0.83417000  0.19124000  1.0
  C  C48  1  0.58318000  0.14703000  0.88963000  1.0
  C  C49  1  0.41679000  0.85295000  0.11037000  1.0
  C  C50  1  0.80904000  0.07297000  0.93579000  1.0
  C  C51  1  0.19097000  0.92703000  0.06419000  1.0
  C  C52  1  0.82653000  0.11545000  0.04039000  1.0
  C  C53  1  0.17352000  0.88456000  0.95959000  1.0
  C  C54  1  0.71670000  0.17464000  0.06942000  1.0
  C  C55  1  0.28341000  0.82545000  0.93055000  1.0
  C  C56  1  0.59222000  0.19250000  0.99433000  1.0
  C  C57  1  0.40783000  0.80756000  0.00565000  1.0
  C  C58  1  0.47550000  0.25533000  0.01483000  1.0
  C  C59  1  0.52448000  0.74465000  0.98516000  1.0
  C  C60  1  0.35916000  0.27853000  0.93738000  1.0
  C  C61  1  0.64082000  0.72144000  0.06263000  1.0
  C  C62  1  0.32728000  0.36450000  0.08015000  1.0
  C  C63  1  0.67278000  0.63557000  0.91984000  1.0
  C  C64  1  0.27091000  0.43834000  0.15423000  1.0
  C  C65  1  0.72910000  0.56167000  0.84576000  1.0
  C  C66  1  0.34733000  0.46967000  0.25848000  1.0
  C  C67  1  0.65264000  0.53030000  0.74152000  1.0
  C  C68  1  0.29061000  0.54452000  0.32466000  1.0
  C  C69  1  0.70939000  0.45547000  0.67535000  1.0
  C  C70  1  0.15655000  0.58792000  0.28855000  1.0
  C  C71  1  0.84341000  0.41204000  0.71147000  1.0
  C  C72  1  0.07946000  0.55692000  0.18502000  1.0
  C  C73  1  0.92054000  0.44306000  0.81499000  1.0
  C  C74  1  0.13679000  0.48299000  0.11871000  1.0
  C  C75  1  0.86326000  0.51706000  0.88128000  1.0
  C  C76  1  0.90400000  0.85485000  0.67586000  1.0
  C  C77  1  0.09596000  0.14514000  0.32413000  1.0
  C  C78  1  0.04248000  0.79365000  0.68453000  1.0
  C  C79  1  0.95753000  0.20636000  0.31549000  1.0
  C  C80  1  0.05333000  0.71869000  0.58590000  1.0
  C  C81  1  0.94670000  0.28131000  0.41412000  1.0
  C  C82  1  0.36680000  0.77450000  0.61743000  1.0
  C  C83  1  0.63320000  0.22542000  0.38255000  1.0
  C  C84  1  0.19063000  0.65340000  0.60242000  1.0
  C  C85  1  0.80936000  0.34654000  0.39758000  1.0
  N  N86  1  0.69127000  0.08758000  0.86324000  1.0
  N  N87  1  0.30872000  0.91244000  0.13675000  1.0
  N  N88  1  0.45456000  0.12027000  0.71068000  1.0
  N  N89  1  0.54542000  0.87975000  0.28932000  1.0
  N  N90  1  0.45270000  0.31007000  0.10515000  1.0
  N  N91  1  0.54734000  0.68998000  0.89484000  1.0
  N  N92  1  0.26868000  0.34691000  0.97859000  1.0
  N  N93  1  0.73136000  0.65313000  0.02140000  1.0
  O  O94  1  0.88853000  0.91495000  0.75859000  1.0
  O  O95  1  0.11145000  0.08510000  0.24138000  1.0
  O  O96  1  0.81158000  0.84640000  0.58950000  1.0
  O  O97  1  0.18836000  0.15352000  0.41050000  1.0
  O  O98  1  0.46418000  0.79680000  0.70588000  1.0
  O  O99  1  0.53578000  0.20312000  0.29412000  1.0
  O  O100  1  0.41226000  0.85516000  0.54402000  1.0
  O  O101  1  0.58775000  0.14478000  0.45597000  1.0
