# generated using pymatgen
data_ZnH7C16N3O4F3
_symmetry_space_group_name_H-M   'P 1'
_cell_length_a   9.75121000
_cell_length_b   11.04050000
_cell_length_c   19.17240000
_cell_angle_alpha   89.65080000
_cell_angle_beta   89.45320000
_cell_angle_gamma   89.89530000
_symmetry_Int_Tables_number   1
_chemical_formula_structural   ZnH7C16N3O4F3
_chemical_formula_sum   'Zn2 H14 C32 N6 O8 F6'
_cell_volume   2063.93116740
_cell_formula_units_Z   2
loop_
 _symmetry_equiv_pos_site_id
 _symmetry_equiv_pos_as_xyz
  1  'x, y, z'
loop_
 _atom_site_type_symbol
 _atom_site_label
 _atom_site_symmetry_multiplicity
 _atom_site_fract_x
 _atom_site_fract_y
 _atom_site_fract_z
 _atom_site_occupancy
  Zn  Zn0  1  0.63451000  0.49156000  0.49133000  1.0
  Zn  Zn1  1  0.35346000  0.48972000  0.50284000  1.0
  H  H2  1  0.29176000  0.88246000  0.53810000  1.0
  H  H3  1  0.84567000  0.09184000  0.49862000  1.0
  H  H4  1  0.78644000  0.10630000  0.41045000  1.0
  H  H5  1  0.13844000  0.59718000  0.41076000  1.0
  H  H6  1  0.83949000  0.40425000  0.64943000  1.0
  H  H7  1  0.84646000  0.27054000  0.59654000  1.0
  H  H8  1  0.10050000  0.39558000  0.65816000  1.0
  H  H9  1  0.29847000  0.53315000  0.85655000  1.0
  H  H10  1  0.29424000  0.48895000  0.72898000  1.0
  H  H11  1  0.70740000  0.55820000  0.14985000  1.0
  H  H12  1  0.69860000  0.50856000  0.27763000  1.0
  H  H13  1  0.25920000  0.52942000  0.27512000  1.0
  H  H14  1  0.26640000  0.57808000  0.14734000  1.0
  H  H15  1  0.29993000  0.10772000  0.54087000  1.0
  C  C16  1  0.51184000  0.25613000  0.50450000  1.0
  C  C17  1  0.50606000  0.52895000  0.71146000  1.0
  C  C18  1  0.49365000  0.60153000  0.06660000  1.0
  C  C19  1  0.50810000  0.60593000  0.93237000  1.0
  C  C20  1  0.60972000  0.55102000  0.17758000  1.0
  C  C21  1  0.60498000  0.52362000  0.24830000  1.0
  C  C22  1  0.47880000  0.51681000  0.28388000  1.0
  C  C23  1  0.35673000  0.53544000  0.24715000  1.0
  C  C24  1  0.36051000  0.56232000  0.17622000  1.0
  C  C25  1  0.48742000  0.57163000  0.14102000  1.0
  C  C26  1  0.62316000  0.05159000  0.48677000  1.0
  C  C27  1  0.49573000  0.50603000  0.63439000  1.0
  C  C28  1  0.50970000  0.12112000  0.50613000  1.0
  C  C29  1  0.39041000  0.05636000  0.52485000  1.0
  C  C30  1  0.38547000  0.92989000  0.52300000  1.0
  C  C31  1  0.49886000  0.86036000  0.50110000  1.0
  C  C32  1  0.61673000  0.92563000  0.48366000  1.0
  C  C33  1  0.76247000  0.91841000  0.45541000  1.0
  C  C34  1  0.77060000  0.05985000  0.46065000  1.0
  C  C35  1  0.05841000  0.43147000  0.54567000  1.0
  C  C36  1  0.07598000  0.55033000  0.44979000  1.0
  C  C37  1  0.93196000  0.55271000  0.44721000  1.0
  C  C38  1  0.49320000  0.72557000  0.49689000  1.0
  C  C39  1  0.91664000  0.43600000  0.54231000  1.0
  C  C40  1  0.89362000  0.35882000  0.60654000  1.0
  C  C41  1  0.05561000  0.35416000  0.61178000  1.0
  C  C42  1  0.47787000  0.49471000  0.36112000  1.0
  C  C43  1  0.62679000  0.56547000  0.74408000  1.0
  C  C44  1  0.63028000  0.59062000  0.81552000  1.0
  C  C45  1  0.51208000  0.58015000  0.85745000  1.0
  C  C46  1  0.39090000  0.54177000  0.82463000  1.0
  C  C47  1  0.38848000  0.51731000  0.75398000  1.0
  N  N48  1  0.38267000  0.62155000  0.96248000  1.0
  N  N49  1  0.37572000  0.61719000  0.03095000  1.0
  N  N50  1  0.61739000  0.62534000  0.03666000  1.0
  N  N51  1  0.62483000  0.62499000  0.96806000  1.0
  N  N52  1  0.14102000  0.48822000  0.50046000  1.0
  N  N53  1  0.84877000  0.49719000  0.49311000  1.0
  O  O54  1  0.62924000  0.30673000  0.50582000  1.0
  O  O55  1  0.39638000  0.30984000  0.50077000  1.0
  O  O56  1  0.60601000  0.50957000  0.59851000  1.0
  O  O57  1  0.37606000  0.48625000  0.61111000  1.0
  O  O58  1  0.60571000  0.67299000  0.48166000  1.0
  O  O59  1  0.37842000  0.67413000  0.50882000  1.0
  O  O60  1  0.59265000  0.46807000  0.38858000  1.0
  O  O61  1  0.36444000  0.50621000  0.39417000  1.0
  F  F62  1  0.74676000  0.58025000  0.70888000  1.0
  F  F63  1  0.85691000  0.85592000  0.49546000  1.0
  F  F64  1  0.77668000  0.87412000  0.38857000  1.0
  F  F65  1  0.87263000  0.61232000  0.39506000  1.0
  F  F66  1  0.75143000  0.62736000  0.84113000  1.0
  F  F67  1  0.11043000  0.23808000  0.60451000  1.0
