# generated using pymatgen
data_FeH10C14(SN2)2
_symmetry_space_group_name_H-M   'P 1'
_cell_length_a   9.10037000
_cell_length_b   9.43472000
_cell_length_c   10.10640000
_cell_angle_alpha   115.11800000
_cell_angle_beta   109.49900000
_cell_angle_gamma   93.44670000
_symmetry_Int_Tables_number   1
_chemical_formula_structural   FeH10C14(SN2)2
_chemical_formula_sum   'Fe2 H20 C28 S4 N8'
_cell_volume   719.61248776
_cell_formula_units_Z   2
loop_
 _symmetry_equiv_pos_site_id
 _symmetry_equiv_pos_as_xyz
  1  'x, y, z'
loop_
 _atom_site_type_symbol
 _atom_site_label
 _atom_site_symmetry_multiplicity
 _atom_site_fract_x
 _atom_site_fract_y
 _atom_site_fract_z
 _atom_site_occupancy
  Fe  Fe0  1  0.99065000  0.49213000  0.00324000  1.0
  Fe  Fe1  1  0.49200000  0.99237000  0.50214000  1.0
  H  H2  1  0.34197000  0.51172000  0.15460000  1.0
  H  H3  1  0.64637000  0.48674000  0.84594000  1.0
  H  H4  1  0.52273000  0.32693000  0.14519000  1.0
  H  H5  1  0.47533000  0.67943000  0.85099000  1.0
  H  H6  1  0.11024000  0.93593000  0.78569000  1.0
  H  H7  1  0.89593000  0.06041000  0.21112000  1.0
  H  H8  1  0.94530000  0.13785000  0.80977000  1.0
  H  H9  1  0.05111000  0.85099000  0.19037000  1.0
  H  H10  1  0.35769000  0.86793000  0.85965000  1.0
  H  H11  1  0.64968000  0.13688000  0.13672000  1.0
  H  H12  1  0.64846000  0.87266000  0.72927000  1.0
  H  H13  1  0.35034000  0.12084000  0.27573000  1.0
  H  H14  1  0.83733000  0.69800000  0.75584000  1.0
  H  H15  1  0.16844000  0.30157000  0.24854000  1.0
  H  H16  1  0.85812000  0.63892000  0.31409000  1.0
  H  H17  1  0.14049000  0.36588000  0.68925000  1.0
  H  H18  1  0.67245000  0.81784000  0.30783000  1.0
  H  H19  1  0.31903000  0.18134000  0.69597000  1.0
  H  H20  1  0.99744000  0.53352000  0.66195000  1.0
  H  H21  1  0.00448000  0.46747000  0.33910000  1.0
  C  C22  1  0.29506000  0.38303000  0.07459000  1.0
  C  C23  1  0.69712000  0.61508000  0.92531000  1.0
  C  C24  1  0.39547000  0.27785000  0.06859000  1.0
  C  C25  1  0.60247000  0.72492000  0.92836000  1.0
  C  C26  1  0.33232000  0.11124000  0.96481000  1.0
  C  C27  1  0.67047000  0.89097000  0.03184000  1.0
  C  C28  1  0.16668000  0.06266000  0.86944000  1.0
  C  C29  1  0.83565000  0.93441000  0.12782000  1.0
  C  C30  1  0.07343000  0.17459000  0.88243000  1.0
  C  C31  1  0.92328000  0.81790000  0.11751000  1.0
  C  C32  1  0.42509000  0.98999000  0.95162000  1.0
  C  C33  1  0.58141000  0.01522000  0.04398000  1.0
  C  C34  1  0.69794000  0.81864000  0.64017000  1.0
  C  C35  1  0.30060000  0.17719000  0.36415000  1.0
  C  C36  1  0.80302000  0.72072000  0.65386000  1.0
  C  C37  1  0.19954000  0.27872000  0.35033000  1.0
  C  C38  1  0.86412000  0.64918000  0.53630000  1.0
  C  C39  1  0.13744000  0.35255000  0.46670000  1.0
  C  C40  1  0.81539000  0.68674000  0.40943000  1.0
  C  C41  1  0.18308000  0.31571000  0.59403000  1.0
  C  C42  1  0.71086000  0.78687000  0.40427000  1.0
  C  C43  1  0.28354000  0.21201000  0.59925000  1.0
  C  C44  1  0.97037000  0.54414000  0.55356000  1.0
  C  C45  1  0.03266000  0.45865000  0.44844000  1.0
  C  C46  1  0.19605000  0.70329000  0.35509000  1.0
  C  C47  1  0.80868000  0.30142000  0.64197000  1.0
  C  C48  1  0.68280000  0.21219000  0.85483000  1.0
  C  C49  1  0.32252000  0.79125000  0.14105000  1.0
  S  S50  1  0.31600000  0.83585000  0.53699000  1.0
  S  S51  1  0.70588000  0.18461000  0.45296000  1.0
  S  S52  1  0.81268000  0.33712000  0.03598000  1.0
  S  S53  1  0.20730000  0.67984000  0.95376000  1.0
  N  N54  1  0.13461000  0.33406000  0.98481000  1.0
  N  N55  1  0.85659000  0.65859000  0.01790000  1.0
  N  N56  1  0.64989000  0.85225000  0.51672000  1.0
  N  N57  1  0.34321000  0.14199000  0.48664000  1.0
  N  N58  1  0.11137000  0.61082000  0.22137000  1.0
  N  N59  1  0.88325000  0.38520000  0.78030000  1.0
  N  N60  1  0.59563000  0.12484000  0.72063000  1.0
  N  N61  1  0.40095000  0.87034000  0.27918000  1.0
