# generated using pymatgen
data_Gd2CuH18C14S2(NO11)2
_symmetry_space_group_name_H-M   'P 1'
_cell_length_a   6.42948000
_cell_length_b   9.72968000
_cell_length_c   9.81010000
_cell_angle_alpha   96.30000000
_cell_angle_beta   96.53230000
_cell_angle_gamma   91.19860000
_symmetry_Int_Tables_number   1
_chemical_formula_structural   Gd2CuH18C14S2(NO11)2
_chemical_formula_sum   'Gd2 Cu1 H18 C14 S2 N2 O22'
_cell_volume   605.67535993
_cell_formula_units_Z   1
loop_
 _symmetry_equiv_pos_site_id
 _symmetry_equiv_pos_as_xyz
  1  'x, y, z'
loop_
 _atom_site_type_symbol
 _atom_site_label
 _atom_site_symmetry_multiplicity
 _atom_site_fract_x
 _atom_site_fract_y
 _atom_site_fract_z
 _atom_site_occupancy
  Gd  Gd0  1  0.57070000  0.74495000  0.46422000  1.0
  Gd  Gd1  1  0.42931000  0.25505000  0.53577000  1.0
  Cu  Cu2  1  0.00000000  0.00000000  0.00000000  1.0
  H  H3  1  0.77952000  0.14440000  0.16284000  1.0
  H  H4  1  0.22042000  0.85559000  0.83712000  1.0
  H  H5  1  0.77740000  0.99358000  0.21058000  1.0
  H  H6  1  0.22259000  0.00642000  0.78941000  1.0
  H  H7  1  0.12175000  0.63638000  0.46497000  1.0
  H  H8  1  0.87826000  0.36361000  0.53503000  1.0
  H  H9  1  0.21924000  0.64643000  0.62368000  1.0
  H  H10  1  0.78076000  0.35356000  0.37631000  1.0
  H  H11  1  0.04026000  0.82017000  0.54297000  1.0
  H  H12  1  0.95974000  0.17981000  0.45702000  1.0
  H  H13  1  0.90833000  0.95690000  0.58145000  1.0
  H  H14  1  0.09168000  0.04306000  0.41863000  1.0
  H  H15  1  0.81850000  0.79155000  0.79071000  1.0
  H  H16  1  0.18146000  0.20847000  0.20930000  1.0
  H  H17  1  0.68539000  0.42692000  0.98097000  1.0
  H  H18  1  0.31460000  0.57308000  0.01903000  1.0
  H  H19  1  0.98209000  0.79442000  0.21393000  1.0
  H  H20  1  0.01793000  0.20558000  0.78606000  1.0
  C  C21  1  0.81993000  0.73626000  0.88100000  1.0
  C  C22  1  0.18005000  0.26375000  0.11900000  1.0
  C  C23  1  0.74058000  0.60056000  0.86862000  1.0
  C  C24  1  0.25941000  0.39945000  0.13138000  1.0
  C  C25  1  0.74401000  0.53357000  0.98729000  1.0
  C  C26  1  0.25598000  0.46643000  0.01270000  1.0
  C  C27  1  0.82551000  0.60426000  0.11434000  1.0
  C  C28  1  0.17450000  0.39573000  0.88566000  1.0
  C  C29  1  0.90790000  0.73884000  0.11770000  1.0
  C  C30  1  0.09210000  0.26115000  0.88230000  1.0
  C  C31  1  0.65901000  0.52969000  0.72902000  1.0
  C  C32  1  0.34099000  0.47032000  0.27099000  1.0
  C  C33  1  0.82084000  0.53698000  0.24478000  1.0
  C  C34  1  0.17917000  0.46302000  0.75520000  1.0
  S  S35  1  0.42101000  0.96394000  0.27366000  1.0
  S  S36  1  0.57900000  0.03606000  0.72635000  1.0
  N  N37  1  0.90284000  0.80334000  0.00268000  1.0
  N  N38  1  0.09716000  0.19665000  0.99733000  1.0
  O  O39  1  0.65706000  0.59757000  0.62551000  1.0
  O  O40  1  0.34294000  0.40244000  0.37450000  1.0
  O  O41  1  0.59940000  0.40356000  0.72230000  1.0
  O  O42  1  0.40058000  0.59646000  0.27770000  1.0
  O  O43  1  0.84257000  0.61613000  0.35964000  1.0
  O  O44  1  0.15743000  0.38385000  0.64035000  1.0
  O  O45  1  0.79298000  0.40715000  0.23322000  1.0
  O  O46  1  0.20702000  0.59285000  0.76678000  1.0
  O  O47  1  0.31634000  0.94824000  0.13278000  1.0
  O  O48  1  0.68363000  0.05177000  0.86724000  1.0
  O  O49  1  0.29989000  0.89717000  0.37262000  1.0
  O  O50  1  0.70015000  0.10284000  0.62741000  1.0
  O  O51  1  0.62692000  0.89033000  0.28119000  1.0
  O  O52  1  0.37308000  0.10966000  0.71878000  1.0
  O  O53  1  0.46667000  0.11250000  0.32585000  1.0
  O  O54  1  0.53337000  0.88750000  0.67415000  1.0
  O  O55  1  0.86624000  0.06404000  0.17322000  1.0
  O  O56  1  0.13373000  0.93597000  0.82676000  1.0
  O  O57  1  0.22410000  0.69019000  0.53368000  1.0
  O  O58  1  0.77591000  0.30981000  0.46632000  1.0
  O  O59  1  0.90164000  0.86380000  0.53185000  1.0
  O  O60  1  0.09838000  0.13622000  0.46810000  1.0
