# generated using pymatgen
data_K2H16Pt(C7N2)4
_symmetry_space_group_name_H-M   'P 1'
_cell_length_a   8.21944000
_cell_length_b   8.42262000
_cell_length_c   20.40500000
_cell_angle_alpha   90.00000000
_cell_angle_beta   90.00000000
_cell_angle_gamma   105.41200000
_symmetry_Int_Tables_number   1
_chemical_formula_structural   K2H16Pt(C7N2)4
_chemical_formula_sum   'K4 H32 Pt2 C56 N16'
_cell_volume   1361.82400155
_cell_formula_units_Z   2
loop_
 _symmetry_equiv_pos_site_id
 _symmetry_equiv_pos_as_xyz
  1  'x, y, z'
loop_
 _atom_site_type_symbol
 _atom_site_label
 _atom_site_symmetry_multiplicity
 _atom_site_fract_x
 _atom_site_fract_y
 _atom_site_fract_z
 _atom_site_occupancy
  K  K0  1  0.96857000  0.12022000  0.57792000  1.0
  K  K1  1  0.03145000  0.37978000  0.07792000  1.0
  K  K2  1  0.03145000  0.87979000  0.42208000  1.0
  K  K3  1  0.96857000  0.62021000  0.92208000  1.0
  H  H4  1  0.34216000  0.97938000  0.56488000  1.0
  H  H5  1  0.65784000  0.52061000  0.06488000  1.0
  H  H6  1  0.65784000  0.02062000  0.43512000  1.0
  H  H7  1  0.34216000  0.47938000  0.93512000  1.0
  H  H8  1  0.55873000  0.87146000  0.62156000  1.0
  H  H9  1  0.44127000  0.62853000  0.12156000  1.0
  H  H10  1  0.44127000  0.12854000  0.37844000  1.0
  H  H11  1  0.55874000  0.37147000  0.87844000  1.0
  H  H12  1  0.55355000  0.85588000  0.74532000  1.0
  H  H13  1  0.44644000  0.64413000  0.24532000  1.0
  H  H14  1  0.44644000  0.14412000  0.25468000  1.0
  H  H15  1  0.55356000  0.35588000  0.75468000  1.0
  H  H16  1  0.42374000  0.90876000  0.85049000  1.0
  H  H17  1  0.57624000  0.59124000  0.35049000  1.0
  H  H18  1  0.57624000  0.09123000  0.14951000  1.0
  H  H19  1  0.42375000  0.40876000  0.64951000  1.0
  H  H20  1  0.20713000  0.00877000  0.90913000  1.0
  H  H21  1  0.79286000  0.49124000  0.40913000  1.0
  H  H22  1  0.79287000  0.99124000  0.09087000  1.0
  H  H23  1  0.20713000  0.50876000  0.59087000  1.0
  H  H24  1  0.95034000  0.11202000  0.90654000  1.0
  H  H25  1  0.04965000  0.38800000  0.40655000  1.0
  H  H26  1  0.04966000  0.88799000  0.09346000  1.0
  H  H27  1  0.95034000  0.61201000  0.59346000  1.0
  H  H28  1  0.73512000  0.20333000  0.84088000  1.0
  H  H29  1  0.26487000  0.29667000  0.34088000  1.0
  H  H30  1  0.26487000  0.79667000  0.15912000  1.0
  H  H31  1  0.73513000  0.70333000  0.65912000  1.0
  H  H32  1  0.75570000  0.20208000  0.71797000  1.0
  H  H33  1  0.24429000  0.29791000  0.21798000  1.0
  H  H34  1  0.24430000  0.79792000  0.28203000  1.0
  H  H35  1  0.75571000  0.70209000  0.78203000  1.0
  Pt  Pt36  1  0.50002000  0.50000000  0.50001000  1.0
  Pt  Pt37  1  0.50001000  0.00000000  0.99999000  1.0
  C  C38  1  0.68212000  0.70226000  0.51651000  1.0
  C  C39  1  0.31790000  0.79774000  0.01649000  1.0
  C  C40  1  0.31791000  0.29775000  0.48350000  1.0
  C  C41  1  0.68211000  0.20225000  0.98349000  1.0
  C  C42  1  0.64634000  0.36260000  0.53134000  1.0
  C  C43  1  0.35367000  0.13739000  0.03132000  1.0
  C  C44  1  0.35367000  0.63739000  0.46868000  1.0
  C  C45  1  0.64634000  0.86260000  0.96866000  1.0
  C  C46  1  0.34137000  0.97006000  0.61831000  1.0
  C  C47  1  0.65863000  0.52994000  0.11831000  1.0
  C  C48  1  0.65863000  0.02994000  0.38168000  1.0
  C  C49  1  0.34137000  0.47006000  0.88169000  1.0
  C  C50  1  0.46442000  0.90987000  0.65048000  1.0
  C  C51  1  0.53557000  0.59012000  0.15048000  1.0
  C  C52  1  0.53557000  0.09013000  0.34952000  1.0
  C  C53  1  0.46443000  0.40988000  0.84952000  1.0
  C  C54  1  0.46105000  0.90154000  0.71807000  1.0
  C  C55  1  0.53894000  0.59846000  0.21807000  1.0
  C  C56  1  0.53894000  0.09845000  0.28193000  1.0
  C  C57  1  0.46106000  0.40155000  0.78193000  1.0
  C  C58  1  0.33615000  0.95376000  0.75310000  1.0
  C  C59  1  0.66384000  0.54623000  0.25310000  1.0
  C  C60  1  0.66384000  0.04623000  0.24690000  1.0
  C  C61  1  0.33616000  0.45377000  0.74690000  1.0
  C  C62  1  0.21553000  0.01074000  0.71599000  1.0
  C  C63  1  0.78446000  0.48926000  0.21599000  1.0
  C  C64  1  0.78446000  0.98926000  0.28401000  1.0
  C  C65  1  0.21554000  0.51074000  0.78401000  1.0
  C  C66  1  0.32957000  0.95217000  0.82323000  1.0
  C  C67  1  0.67042000  0.54784000  0.32323000  1.0
  C  C68  1  0.67042000  0.04783000  0.17677000  1.0
  C  C69  1  0.32958000  0.45217000  0.67677000  1.0
  C  C70  1  0.20891000  0.00585000  0.85563000  1.0
  C  C71  1  0.79108000  0.49416000  0.35563000  1.0
  C  C72  1  0.79108000  0.99416000  0.14437000  1.0
  C  C73  1  0.20891000  0.50584000  0.64437000  1.0
  C  C74  1  0.08318000  0.06076000  0.82053000  1.0
  C  C75  1  0.91681000  0.43925000  0.32053000  1.0
  C  C76  1  0.91681000  0.93925000  0.17947000  1.0
  C  C77  1  0.08319000  0.56075000  0.67947000  1.0
  C  C78  1  0.08412000  0.06327000  0.75061000  1.0
  C  C79  1  0.91587000  0.43673000  0.25062000  1.0
  C  C80  1  0.91587000  0.93673000  0.24938000  1.0
  C  C81  1  0.08413000  0.56327000  0.74939000  1.0
  C  C82  1  0.95481000  0.11276000  0.85318000  1.0
  C  C83  1  0.04518000  0.38726000  0.35318000  1.0
  C  C84  1  0.04518000  0.88725000  0.14682000  1.0
  C  C85  1  0.95481000  0.61275000  0.64682000  1.0
  C  C86  1  0.83574000  0.16321000  0.81691000  1.0
  C  C87  1  0.16425000  0.33680000  0.31692000  1.0
  C  C88  1  0.16426000  0.83679000  0.18308000  1.0
  C  C89  1  0.83574000  0.66321000  0.68309000  1.0
  C  C90  1  0.84758000  0.16208000  0.74815000  1.0
  C  C91  1  0.15241000  0.33792000  0.24815000  1.0
  C  C92  1  0.15241000  0.83792000  0.25185000  1.0
  C  C93  1  0.84759000  0.66208000  0.75185000  1.0
  N  N94  1  0.79109000  0.82249000  0.52556000  1.0
  N  N95  1  0.20893000  0.67751000  0.02556000  1.0
  N  N96  1  0.20893000  0.17751000  0.47444000  1.0
  N  N97  1  0.79109000  0.32250000  0.97444000  1.0
  N  N98  1  0.73364000  0.28175000  0.54953000  1.0
  N  N99  1  0.26637000  0.21822000  0.04952000  1.0
  N  N100  1  0.26637000  0.71822000  0.45048000  1.0
  N  N101  1  0.73365000  0.78176000  0.95047000  1.0
  N  N102  1  0.22027000  0.01798000  0.64948000  1.0
  N  N103  1  0.77973000  0.48201000  0.14948000  1.0
  N  N104  1  0.77973000  0.98202000  0.35052000  1.0
  N  N105  1  0.22027000  0.51799000  0.85053000  1.0
  N  N106  1  0.96637000  0.11373000  0.71561000  1.0
  N  N107  1  0.03362000  0.38627000  0.21561000  1.0
  N  N108  1  0.03363000  0.88627000  0.28439000  1.0
  N  N109  1  0.96638000  0.61373000  0.78440000  1.0
