# generated using pymatgen
data_CuH18PdC18(N3O)2
_symmetry_space_group_name_H-M   'P 1'
_cell_length_a   8.10795000
_cell_length_b   8.34095000
_cell_length_c   8.92547000
_cell_angle_alpha   116.90800000
_cell_angle_beta   107.32200000
_cell_angle_gamma   95.56090000
_symmetry_Int_Tables_number   1
_chemical_formula_structural   CuH18PdC18(N3O)2
_chemical_formula_sum   'Cu1 H18 Pd1 C18 N6 O2'
_cell_volume   494.45902311
_cell_formula_units_Z   1
loop_
 _symmetry_equiv_pos_site_id
 _symmetry_equiv_pos_as_xyz
  1  'x, y, z'
loop_
 _atom_site_type_symbol
 _atom_site_label
 _atom_site_symmetry_multiplicity
 _atom_site_fract_x
 _atom_site_fract_y
 _atom_site_fract_z
 _atom_site_occupancy
  Cu  Cu0  1  0.00000000  0.50000000  0.00000000  1.0
  H  H1  1  0.29027000  0.83100000  0.09180000  1.0
  H  H2  1  0.70973000  0.16900000  0.90820000  1.0
  H  H3  1  0.00417000  0.14679000  0.96784000  1.0
  H  H4  1  0.99583000  0.85321000  0.03216000  1.0
  H  H5  1  0.10160000  0.86246000  0.81084000  1.0
  H  H6  1  0.89841000  0.13754000  0.18916000  1.0
  H  H7  1  0.25256000  0.85351000  0.59658000  1.0
  H  H8  1  0.74744000  0.14649000  0.40342000  1.0
  H  H9  1  0.29557000  0.12678000  0.55355000  1.0
  H  H10  1  0.70443000  0.87322000  0.44645000  1.0
  H  H11  1  0.06120000  0.46573000  0.65324000  1.0
  H  H12  1  0.93880000  0.53426000  0.34676000  1.0
  H  H13  1  0.24830000  0.40704000  0.59881000  1.0
  H  H14  1  0.75170000  0.59296000  0.40119000  1.0
  H  H15  1  0.43671000  0.60203000  0.94909000  1.0
  H  H16  1  0.56329000  0.39797000  0.05091000  1.0
  H  H17  1  0.36153000  0.72197000  0.83172000  1.0
  H  H18  1  0.63847000  0.27803000  0.16828000  1.0
  Pd  Pd19  1  0.50000000  0.50000000  0.50000000  1.0
  C  C20  1  0.41950000  0.22420000  0.34337000  1.0
  C  C21  1  0.58050000  0.77580000  0.65664000  1.0
  C  C22  1  0.30211000  0.52129000  0.32346000  1.0
  C  C23  1  0.69789000  0.47871000  0.67654000  1.0
  C  C24  1  0.06770000  0.13459000  0.87307000  1.0
  C  C25  1  0.93230000  0.86541000  0.12693000  1.0
  C  C26  1  0.12244000  0.97701000  0.78484000  1.0
  C  C27  1  0.87757000  0.02300000  0.21516000  1.0
  C  C28  1  0.20587000  0.97300000  0.66793000  1.0
  C  C29  1  0.79413000  0.02700000  0.33208000  1.0
  C  C30  1  0.23054000  0.12587000  0.64392000  1.0
  C  C31  1  0.76946000  0.87414000  0.35608000  1.0
  C  C32  1  0.16897000  0.27931000  0.73355000  1.0
  C  C33  1  0.83103000  0.72069000  0.26645000  1.0
  C  C34  1  0.19263000  0.44256000  0.70455000  1.0
  C  C35  1  0.80737000  0.55745000  0.29545000  1.0
  C  C36  1  0.31561000  0.62616000  0.87398000  1.0
  C  C37  1  0.68439000  0.37384000  0.12602000  1.0
  N  N38  1  0.37503000  0.06099000  0.25462000  1.0
  N  N39  1  0.62497000  0.93901000  0.74538000  1.0
  N  N40  1  0.18391000  0.53055000  0.21701000  1.0
  N  N41  1  0.81609000  0.46945000  0.78298000  1.0
  N  N42  1  0.08857000  0.28098000  0.84716000  1.0
  N  N43  1  0.91143000  0.71902000  0.15284000  1.0
  O  O44  1  0.21718000  0.70477000  0.98454000  1.0
  O  O45  1  0.78282000  0.29523000  0.01546000  1.0
