# generated using pymatgen
data_ZnH12C8(N5O2)2
_symmetry_space_group_name_H-M   'P 1'
_cell_length_a   6.51964000
_cell_length_b   8.46829000
_cell_length_c   12.62200000
_cell_angle_alpha   89.99990000
_cell_angle_beta   89.99990000
_cell_angle_gamma   89.99990000
_symmetry_Int_Tables_number   1
_chemical_formula_structural   ZnH12C8(N5O2)2
_chemical_formula_sum   'Zn2 H24 C16 N20 O8'
_cell_volume   696.86317236
_cell_formula_units_Z   2
loop_
 _symmetry_equiv_pos_site_id
 _symmetry_equiv_pos_as_xyz
  1  'x, y, z'
loop_
 _atom_site_type_symbol
 _atom_site_label
 _atom_site_symmetry_multiplicity
 _atom_site_fract_x
 _atom_site_fract_y
 _atom_site_fract_z
 _atom_site_occupancy
  Zn  Zn0  1  0.50000000  0.95849000  0.50000000  1.0
  Zn  Zn1  1  0.00000000  0.04151000  0.00000000  1.0
  H  H2  1  0.33238000  0.84050000  0.83325000  1.0
  H  H3  1  0.66763000  0.84050000  0.16675000  1.0
  H  H4  1  0.83238000  0.15950000  0.66675000  1.0
  H  H5  1  0.16762000  0.15950000  0.33325000  1.0
  H  H6  1  0.31058000  0.95556000  0.71539000  1.0
  H  H7  1  0.68942000  0.95555000  0.28461000  1.0
  H  H8  1  0.81058000  0.04445000  0.78461000  1.0
  H  H9  1  0.18942000  0.04445000  0.21539000  1.0
  H  H10  1  0.52330000  0.62235000  0.89242000  1.0
  H  H11  1  0.47670000  0.62235000  0.10758000  1.0
  H  H12  1  0.02329000  0.37765000  0.60758000  1.0
  H  H13  1  0.97670000  0.37765000  0.39242000  1.0
  H  H14  1  0.75446000  0.41074000  0.82738000  1.0
  H  H15  1  0.24554000  0.41073000  0.17262000  1.0
  H  H16  1  0.25446000  0.58927000  0.67262000  1.0
  H  H17  1  0.74554000  0.58927000  0.32738000  1.0
  H  H18  1  0.79209000  0.45355000  0.96366000  1.0
  H  H19  1  0.20791000  0.45355000  0.03634000  1.0
  H  H20  1  0.29208000  0.54644000  0.53634000  1.0
  H  H21  1  0.70791000  0.54645000  0.46366000  1.0
  H  H22  1  0.97412000  0.52334000  0.86863000  1.0
  H  H23  1  0.02588000  0.52334000  0.13138000  1.0
  H  H24  1  0.47412000  0.47666000  0.63137000  1.0
  H  H25  1  0.52588000  0.47666000  0.36863000  1.0
  C  C26  1  0.55302000  0.80918000  0.71686000  1.0
  C  C27  1  0.44698000  0.80918000  0.28314000  1.0
  C  C28  1  0.05302000  0.19082000  0.78314000  1.0
  C  C29  1  0.94698000  0.19082000  0.21686000  1.0
  C  C30  1  0.68390000  0.64939000  0.87230000  1.0
  C  C31  1  0.31610000  0.64939000  0.12770000  1.0
  C  C32  1  0.18390000  0.35061000  0.62770000  1.0
  C  C33  1  0.81610000  0.35061000  0.37230000  1.0
  C  C34  1  0.75517000  0.77803000  0.95047000  1.0
  C  C35  1  0.24483000  0.77803000  0.04953000  1.0
  C  C36  1  0.25517000  0.22197000  0.54953000  1.0
  C  C37  1  0.74483000  0.22197000  0.45047000  1.0
  C  C38  1  0.81144000  0.49946000  0.88328000  1.0
  C  C39  1  0.18857000  0.49946000  0.11672000  1.0
  C  C40  1  0.31143000  0.50054000  0.61672000  1.0
  C  C41  1  0.68856000  0.50054000  0.38328000  1.0
  N  N42  1  0.62373000  0.83221000  0.61730000  1.0
  N  N43  1  0.37628000  0.83221000  0.38270000  1.0
  N  N44  1  0.12373000  0.16779000  0.88270000  1.0
  N  N45  1  0.87628000  0.16779000  0.11730000  1.0
  N  N46  1  0.68469000  0.70623000  0.76322000  1.0
  N  N47  1  0.31531000  0.70623000  0.23678000  1.0
  N  N48  1  0.18469000  0.29377000  0.73678000  1.0
  N  N49  1  0.81531000  0.29377000  0.26322000  1.0
  N  N50  1  0.79781000  0.74364000  0.60591000  1.0
  N  N51  1  0.20219000  0.74364000  0.39409000  1.0
  N  N52  1  0.29781000  0.25636000  0.89409000  1.0
  N  N53  1  0.70219000  0.25636000  0.10592000  1.0
  N  N54  1  0.83617000  0.66862000  0.69198000  1.0
  N  N55  1  0.16383000  0.66862000  0.30802000  1.0
  N  N56  1  0.33617000  0.33138000  0.80802000  1.0
  N  N57  1  0.66383000  0.33138000  0.19199000  1.0
  N  N58  1  0.38780000  0.87493000  0.76038000  1.0
  N  N59  1  0.61220000  0.87493000  0.23962000  1.0
  N  N60  1  0.88781000  0.12508000  0.73962000  1.0
  N  N61  1  0.11219000  0.12507000  0.26038000  1.0
  O  O62  1  0.75344000  0.74459000  0.04679000  1.0
  O  O63  1  0.24656000  0.74458000  0.95321000  1.0
  O  O64  1  0.25344000  0.25541000  0.45321000  1.0
  O  O65  1  0.74656000  0.25542000  0.54679000  1.0
  O  O66  1  0.81389000  0.91121000  0.91082000  1.0
  O  O67  1  0.18612000  0.91121000  0.08918000  1.0
  O  O68  1  0.31388000  0.08879000  0.58918000  1.0
  O  O69  1  0.68612000  0.08879000  0.41082000  1.0
