# generated using pymatgen
data_ZnH6(C2O)6
_symmetry_space_group_name_H-M   'P 1'
_cell_length_a   5.54044000
_cell_length_b   15.38060000
_cell_length_c   15.38570000
_cell_angle_alpha   90.16440000
_cell_angle_beta   97.11510000
_cell_angle_gamma   97.01220000
_symmetry_Int_Tables_number   1
_chemical_formula_structural   ZnH6(C2O)6
_chemical_formula_sum   'Zn4 H24 C48 O24'
_cell_volume   1291.05388115
_cell_formula_units_Z   4
loop_
 _symmetry_equiv_pos_site_id
 _symmetry_equiv_pos_as_xyz
  1  'x, y, z'
loop_
 _atom_site_type_symbol
 _atom_site_label
 _atom_site_symmetry_multiplicity
 _atom_site_fract_x
 _atom_site_fract_y
 _atom_site_fract_z
 _atom_site_occupancy
  Zn  Zn0  1  0.72906000  0.50629000  0.00445000  1.0
  Zn  Zn1  1  0.24939000  0.48447000  0.97772000  1.0
  Zn  Zn2  1  0.25065000  0.97848000  0.48364000  1.0
  Zn  Zn3  1  0.73046000  0.00517000  0.50621000  1.0
  H  H4  1  0.72866000  0.05053000  0.73178000  1.0
  H  H5  1  0.02307000  0.06026000  0.86553000  1.0
  H  H6  1  0.69317000  0.27249000  0.96239000  1.0
  H  H7  1  0.99718000  0.16855000  0.98398000  1.0
  H  H8  1  0.69422000  0.96267000  0.27215000  1.0
  H  H9  1  0.99727000  0.98429000  0.16807000  1.0
  H  H10  1  0.72866000  0.73215000  0.04997000  1.0
  H  H11  1  0.02250000  0.86588000  0.05962000  1.0
  H  H12  1  0.93400000  0.23532000  0.46142000  1.0
  H  H13  1  0.24295000  0.36357000  0.47878000  1.0
  H  H14  1  0.93354000  0.46183000  0.23504000  1.0
  H  H15  1  0.24263000  0.47906000  0.36339000  1.0
  H  H16  1  0.30039000  0.93886000  0.71057000  1.0
  H  H17  1  0.03242000  0.94101000  0.82557000  1.0
  H  H18  1  0.30008000  0.71142000  0.93801000  1.0
  H  H19  1  0.03217000  0.82665000  0.93986000  1.0
  H  H20  1  0.99392000  0.36004000  0.79075000  1.0
  H  H21  1  0.00005000  0.15655000  0.58010000  1.0
  H  H22  1  0.00079000  0.58073000  0.15588000  1.0
  H  H23  1  0.99585000  0.79114000  0.35969000  1.0
  H  H24  1  0.17841000  0.31000000  0.10176000  1.0
  H  H25  1  0.17824000  0.10266000  0.30958000  1.0
  H  H26  1  0.95536000  0.60195000  0.80763000  1.0
  H  H27  1  0.95593000  0.80800000  0.60181000  1.0
  C  C28  1  0.58701000  0.61162000  0.87485000  1.0
  C  C29  1  0.37258000  0.36290000  0.87837000  1.0
  C  C30  1  0.56269000  0.38880000  0.12257000  1.0
  C  C31  1  0.36754000  0.61594000  0.09405000  1.0
  C  C32  1  0.56285000  0.12312000  0.38836000  1.0
  C  C33  1  0.36737000  0.09471000  0.61539000  1.0
  C  C34  1  0.58711000  0.87540000  0.61107000  1.0
  C  C35  1  0.37354000  0.87891000  0.36233000  1.0
  C  C36  1  0.36069000  0.15477000  0.68947000  1.0
  C  C37  1  0.54244000  0.15942000  0.76626000  1.0
  C  C38  1  0.17636000  0.20988000  0.68329000  1.0
  C  C39  1  0.71993000  0.10031000  0.78105000  1.0
  C  C40  1  0.88414000  0.10491000  0.85682000  1.0
  C  C41  1  0.36057000  0.28631000  0.81958000  1.0
  C  C42  1  0.17399000  0.27573000  0.74930000  1.0
  C  C43  1  0.53829000  0.22499000  0.83233000  1.0
  C  C44  1  0.70240000  0.22524000  0.91073000  1.0
  C  C45  1  0.87322000  0.16676000  0.92298000  1.0
  C  C46  1  0.36166000  0.82002000  0.28580000  1.0
  C  C47  1  0.53900000  0.83274000  0.22448000  1.0
  C  C48  1  0.17545000  0.74970000  0.27532000  1.0
  C  C49  1  0.70304000  0.91107000  0.22477000  1.0
  C  C50  1  0.87337000  0.92332000  0.16624000  1.0
  C  C51  1  0.36133000  0.68994000  0.15423000  1.0
  C  C52  1  0.17752000  0.68372000  0.20943000  1.0
  C  C53  1  0.54294000  0.76667000  0.15888000  1.0
  C  C54  1  0.72001000  0.78143000  0.09975000  1.0
  C  C55  1  0.88397000  0.85717000  0.10432000  1.0
  C  C56  1  0.56346000  0.19740000  0.32802000  1.0
  C  C57  1  0.75716000  0.27014000  0.33554000  1.0
  C  C58  1  0.36351000  0.19711000  0.26250000  1.0
  C  C59  1  0.93709000  0.28268000  0.40966000  1.0
  C  C60  1  0.11108000  0.35556000  0.41969000  1.0
  C  C61  1  0.56334000  0.32849000  0.19689000  1.0
  C  C62  1  0.36355000  0.26302000  0.19649000  1.0
  C  C63  1  0.75699000  0.33595000  0.26976000  1.0
  C  C64  1  0.93676000  0.41003000  0.28239000  1.0
  C  C65  1  0.11089000  0.41998000  0.35532000  1.0
  C  C66  1  0.60449000  0.81553000  0.68558000  1.0
  C  C67  1  0.44888000  0.81974000  0.75341000  1.0
  C  C68  1  0.77335000  0.75499000  0.68869000  1.0
  C  C69  1  0.30084000  0.88794000  0.75926000  1.0
  C  C70  1  0.15199000  0.88999000  0.82456000  1.0
  C  C71  1  0.60446000  0.68615000  0.81499000  1.0
  C  C72  1  0.77329000  0.68910000  0.75455000  1.0
  C  C73  1  0.44886000  0.75411000  0.81905000  1.0
  C  C74  1  0.30072000  0.76010000  0.88710000  1.0
  C  C75  1  0.15189000  0.82552000  0.88900000  1.0
  O  O76  1  0.79161000  0.58295000  0.90729000  1.0
  O  O77  1  0.37864000  0.57817000  0.89288000  1.0
  O  O78  1  0.16480000  0.39217000  0.88852000  1.0
  O  O79  1  0.57604000  0.40001000  0.91567000  1.0
  O  O80  1  0.35480000  0.39911000  0.07816000  1.0
  O  O81  1  0.76700000  0.42810000  0.10197000  1.0
  O  O82  1  0.56842000  0.59746000  0.07234000  1.0
  O  O83  1  0.15905000  0.56799000  0.06364000  1.0
  O  O84  1  0.35499000  0.07879000  0.39852000  1.0
  O  O85  1  0.76720000  0.10249000  0.42785000  1.0
  O  O86  1  0.56849000  0.07313000  0.59702000  1.0
  O  O87  1  0.15912000  0.06430000  0.56722000  1.0
  O  O88  1  0.79182000  0.90778000  0.58267000  1.0
  O  O89  1  0.37877000  0.89353000  0.57745000  1.0
  O  O90  1  0.16568000  0.88910000  0.39145000  1.0
  O  O91  1  0.57680000  0.91626000  0.39956000  1.0
  O  O92  1  0.98865000  0.32473000  0.73613000  1.0
  O  O93  1  0.99574000  0.20914000  0.61642000  1.0
  O  O94  1  0.99715000  0.61686000  0.20866000  1.0
  O  O95  1  0.99068000  0.73649000  0.32442000  1.0
  O  O96  1  0.16420000  0.25512000  0.13632000  1.0
  O  O97  1  0.16390000  0.13718000  0.25467000  1.0
  O  O98  1  0.93897000  0.63235000  0.75128000  1.0
  O  O99  1  0.93920000  0.75162000  0.63214000  1.0
