# generated using pymatgen
data_AgH6C4N3
_symmetry_space_group_name_H-M   'P 1'
_cell_length_a   7.37012000
_cell_length_b   11.93603163
_cell_length_c   11.93593845
_cell_angle_alpha   63.59764897
_cell_angle_beta   72.05581800
_cell_angle_gamma   72.05601889
_symmetry_Int_Tables_number   1
_chemical_formula_structural   AgH6C4N3
_chemical_formula_sum   'Ag6 H36 C24 N18'
_cell_volume   876.51461484
_cell_formula_units_Z   6
loop_
 _symmetry_equiv_pos_site_id
 _symmetry_equiv_pos_as_xyz
  1  'x, y, z'
loop_
 _atom_site_type_symbol
 _atom_site_label
 _atom_site_symmetry_multiplicity
 _atom_site_fract_x
 _atom_site_fract_y
 _atom_site_fract_z
 _atom_site_occupancy
  Ag  Ag0  1  0.71749000  0.15855000  0.00209000  1.0
  Ag  Ag1  1  0.12156000  0.00218000  0.15863000  1.0
  Ag  Ag2  1  0.21749000  0.50209000  0.65855000  1.0
  Ag  Ag3  1  0.62156000  0.65863000  0.50218000  1.0
  Ag  Ag4  1  0.08158000  0.91834000  0.91883000  1.0
  Ag  Ag5  1  0.58158000  0.41884000  0.41833000  1.0
  H  H6  1  0.37117000  0.35842000  0.13060000  1.0
  H  H7  1  0.13992000  0.13071000  0.35843000  1.0
  H  H8  1  0.87117000  0.63060000  0.85843000  1.0
  H  H9  1  0.63993000  0.85842000  0.63071000  1.0
  H  H10  1  0.47612000  0.48981000  0.09054000  1.0
  H  H11  1  0.94387000  0.09047000  0.48979000  1.0
  H  H12  1  0.97612000  0.59054000  0.98981000  1.0
  H  H13  1  0.44388000  0.98979000  0.59047000  1.0
  H  H14  1  0.34435000  0.42047000  0.24737000  1.0
  H  H15  1  0.98795000  0.24739000  0.42051000  1.0
  H  H16  1  0.84435000  0.74736000  0.92047000  1.0
  H  H17  1  0.48795000  0.92051000  0.74739000  1.0
  H  H18  1  0.08929000  0.62984000  0.14365000  1.0
  H  H19  1  0.13684000  0.14323000  0.63019000  1.0
  H  H20  1  0.58929000  0.64365000  0.12984000  1.0
  H  H21  1  0.63684000  0.13019000  0.64324000  1.0
  H  H22  1  0.88707000  0.55857000  0.24927000  1.0
  H  H23  1  0.30458000  0.24896000  0.55870000  1.0
  H  H24  1  0.38707000  0.74927000  0.05857000  1.0
  H  H25  1  0.80459000  0.05870000  0.74896000  1.0
  H  H26  1  0.04891000  0.58819000  0.31158000  1.0
  H  H27  1  0.05092000  0.31119000  0.58833000  1.0
  H  H28  1  0.54890000  0.81159000  0.08818000  1.0
  H  H29  1  0.55091000  0.08833000  0.81120000  1.0
  H  H30  1  0.54153000  0.02870000  0.35923000  1.0
  H  H31  1  0.07088000  0.35946000  0.02862000  1.0
  H  H32  1  0.04153000  0.85923000  0.52870000  1.0
  H  H33  1  0.57088000  0.52862000  0.85946000  1.0
  H  H34  1  0.38529000  0.92378000  0.39449000  1.0
  H  H35  1  0.29661000  0.39460000  0.92367000  1.0
  H  H36  1  0.88529000  0.89449000  0.42378000  1.0
  H  H37  1  0.79661000  0.42367000  0.89460000  1.0
  H  H38  1  0.39836000  0.06204000  0.24860000  1.0
  H  H39  1  0.29122000  0.24883000  0.06202000  1.0
  H  H40  1  0.89837000  0.74860000  0.56203000  1.0
  H  H41  1  0.79121000  0.56202000  0.74883000  1.0
  C  C42  1  0.62452000  0.30824000  0.20758000  1.0
  C  C43  1  0.85976000  0.20758000  0.30819000  1.0
  C  C44  1  0.12451000  0.70758000  0.80825000  1.0
  C  C45  1  0.35976000  0.80819000  0.70758000  1.0
  C  C46  1  0.44437000  0.39873000  0.16676000  1.0
  C  C47  1  0.99033000  0.16676000  0.39872000  1.0
  C  C48  1  0.94436000  0.66676000  0.89874000  1.0
  C  C49  1  0.49033000  0.89872000  0.66676000  1.0
  C  C50  1  0.97750000  0.62597000  0.23005000  1.0
  C  C51  1  0.16610000  0.22978000  0.62612000  1.0
  C  C52  1  0.47748000  0.73006000  0.12597000  1.0
  C  C53  1  0.66611000  0.12612000  0.72978000  1.0
  C  C54  1  0.48240000  0.98472000  0.31802000  1.0
  C  C55  1  0.21500000  0.31816000  0.98471000  1.0
  C  C56  1  0.98240000  0.81802000  0.48472000  1.0
  C  C57  1  0.71500000  0.48471000  0.81816000  1.0
  C  C58  1  0.64051000  0.90891000  0.25292000  1.0
  C  C59  1  0.19760000  0.25295000  0.90896000  1.0
  C  C60  1  0.14051000  0.75292000  0.40891000  1.0
  C  C61  1  0.69759000  0.40896000  0.75295000  1.0
  C  C62  1  0.85634000  0.75495000  0.21407000  1.0
  C  C63  1  0.17446000  0.21399000  0.75498000  1.0
  C  C64  1  0.35636000  0.71407000  0.25494000  1.0
  C  C65  1  0.67447000  0.25498000  0.71399000  1.0
  N  N66  1  0.69776000  0.30214000  0.30235000  1.0
  N  N67  1  0.19776000  0.80235000  0.80214000  1.0
  N  N68  1  0.73462000  0.22288000  0.15742000  1.0
  N  N69  1  0.88528000  0.15778000  0.22249000  1.0
  N  N70  1  0.23462000  0.65742000  0.72288000  1.0
  N  N71  1  0.38528000  0.72249000  0.65778000  1.0
  N  N72  1  0.71484000  0.78233000  0.30830000  1.0
  N  N73  1  0.19419000  0.30834000  0.78238000  1.0
  N  N74  1  0.21485000  0.80830000  0.28232000  1.0
  N  N75  1  0.69419000  0.28238000  0.80834000  1.0
  N  N76  1  0.73015000  0.95752000  0.13123000  1.0
  N  N77  1  0.18133000  0.13119000  0.95754000  1.0
  N  N78  1  0.23015000  0.63123000  0.45752000  1.0
  N  N79  1  0.68131000  0.45754000  0.63120000  1.0
  N  N80  1  0.86925000  0.85914000  0.10580000  1.0
  N  N81  1  0.16596000  0.10570000  0.85915000  1.0
  N  N82  1  0.36926000  0.60580000  0.35914000  1.0
  N  N83  1  0.66596000  0.35915000  0.60570000  1.0
