# generated using pymatgen
data_CdH18C24(NO2)2
_symmetry_space_group_name_H-M   'P 1'
_cell_length_a   9.84212000
_cell_length_b   10.50670000
_cell_length_c   12.15000000
_cell_angle_alpha   103.93500000
_cell_angle_beta   95.03990000
_cell_angle_gamma   109.66500000
_symmetry_Int_Tables_number   1
_chemical_formula_structural   CdH18C24(NO2)2
_chemical_formula_sum   'Cd2 H36 C48 N4 O8'
_cell_volume   1128.53505371
_cell_formula_units_Z   2
loop_
 _symmetry_equiv_pos_site_id
 _symmetry_equiv_pos_as_xyz
  1  'x, y, z'
loop_
 _atom_site_type_symbol
 _atom_site_label
 _atom_site_symmetry_multiplicity
 _atom_site_fract_x
 _atom_site_fract_y
 _atom_site_fract_z
 _atom_site_occupancy
  Cd  Cd0  1  0.91392000  0.62753000  0.59390000  1.0
  Cd  Cd1  1  0.08608000  0.37247000  0.40611000  1.0
  H  H2  1  0.06793000  0.60900000  0.82405000  1.0
  H  H3  1  0.93206000  0.39100000  0.17595000  1.0
  H  H4  1  0.12834000  0.64635000  0.03341000  1.0
  H  H5  1  0.87164000  0.35364000  0.96660000  1.0
  H  H6  1  0.28734000  0.53320000  0.10990000  1.0
  H  H7  1  0.71264000  0.46679000  0.89010000  1.0
  H  H8  1  0.38819000  0.38633000  0.97514000  1.0
  H  H9  1  0.61181000  0.61367000  0.02486000  1.0
  H  H10  1  0.32807000  0.34911000  0.76335000  1.0
  H  H11  1  0.67193000  0.65089000  0.23665000  1.0
  H  H12  1  0.93383000  0.87689000  0.99971000  1.0
  H  H13  1  0.06617000  0.12311000  0.00028000  1.0
  H  H14  1  0.82139000  0.96908000  0.16225000  1.0
  H  H15  1  0.17862000  0.03091000  0.83775000  1.0
  H  H16  1  0.55657000  0.93540000  0.12649000  1.0
  H  H17  1  0.44344000  0.06459000  0.87352000  1.0
  H  H18  1  0.40742000  0.81730000  0.92929000  1.0
  H  H19  1  0.59258000  0.18269000  0.07072000  1.0
  H  H20  1  0.52604000  0.73931000  0.76536000  1.0
  H  H21  1  0.47396000  0.26069000  0.23465000  1.0
  H  H22  1  0.85292000  0.37839000  0.71915000  1.0
  H  H23  1  0.14708000  0.62162000  0.28085000  1.0
  H  H24  1  0.64590000  0.17306000  0.73886000  1.0
  H  H25  1  0.35410000  0.82695000  0.26114000  1.0
  H  H26  1  0.36937000  0.24335000  0.47917000  1.0
  H  H27  1  0.63063000  0.75665000  0.52083000  1.0
  H  H28  1  0.58666000  0.44568000  0.47423000  1.0
  H  H29  1  0.41334000  0.55432000  0.52577000  1.0
  H  H30  1  0.49063000  0.94341000  0.65177000  1.0
  H  H31  1  0.50937000  0.05659000  0.34822000  1.0
  H  H32  1  0.26890000  0.73559000  0.64683000  1.0
  H  H33  1  0.73110000  0.26441000  0.35316000  1.0
  H  H34  1  0.98925000  0.93699000  0.58086000  1.0
  H  H35  1  0.01075000  0.06301000  0.41915000  1.0
  H  H36  1  0.19860000  0.15659000  0.58445000  1.0
  H  H37  1  0.80140000  0.84342000  0.41555000  1.0
  C  C38  1  0.15344000  0.44563000  0.65227000  1.0
  C  C39  1  0.84656000  0.55438000  0.34773000  1.0
  C  C40  1  0.19341000  0.47481000  0.77969000  1.0
  C  C41  1  0.80660000  0.52520000  0.22031000  1.0
  C  C42  1  0.13848000  0.56010000  0.85625000  1.0
  C  C43  1  0.86152000  0.43990000  0.14376000  1.0
  C  C44  1  0.17332000  0.58167000  0.97483000  1.0
  C  C45  1  0.82667000  0.41833000  0.02518000  1.0
  C  C46  1  0.26246000  0.51879000  0.01757000  1.0
  C  C47  1  0.73753000  0.48120000  0.98243000  1.0
  C  C48  1  0.31878000  0.43532000  0.94175000  1.0
  C  C49  1  0.68122000  0.56468000  0.05825000  1.0
  C  C50  1  0.28489000  0.41381000  0.82345000  1.0
  C  C51  1  0.71511000  0.58619000  0.17655000  1.0
  C  C52  1  0.80590000  0.75288000  0.77512000  1.0
  C  C53  1  0.19409000  0.24712000  0.22487000  1.0
  C  C54  1  0.73739000  0.80531000  0.87288000  1.0
  C  C55  1  0.26260000  0.19469000  0.12712000  1.0
  C  C56  1  0.81974000  0.86794000  0.98507000  1.0
  C  C57  1  0.18026000  0.13206000  0.01493000  1.0
  C  C58  1  0.75570000  0.91728000  0.07577000  1.0
  C  C59  1  0.24430000  0.08272000  0.92423000  1.0
  C  C60  1  0.60735000  0.89856000  0.05559000  1.0
  C  C61  1  0.39265000  0.10143000  0.94441000  1.0
  C  C62  1  0.52356000  0.83325000  0.94432000  1.0
  C  C63  1  0.47643000  0.16674000  0.05569000  1.0
  C  C64  1  0.58910000  0.78914000  0.85293000  1.0
  C  C65  1  0.41090000  0.21086000  0.14707000  1.0
  C  C66  1  0.74338000  0.34398000  0.66803000  1.0
  C  C67  1  0.25662000  0.65602000  0.33197000  1.0
  C  C68  1  0.62766000  0.22915000  0.67782000  1.0
  C  C69  1  0.37234000  0.77085000  0.32217000  1.0
  C  C70  1  0.48854000  0.18971000  0.61075000  1.0
  C  C71  1  0.51146000  0.81029000  0.38925000  1.0
  C  C72  1  0.47267000  0.26923000  0.53620000  1.0
  C  C73  1  0.52733000  0.73077000  0.46379000  1.0
  C  C74  1  0.59429000  0.38224000  0.53193000  1.0
  C  C75  1  0.40571000  0.61776000  0.46807000  1.0
  C  C76  1  0.36258000  0.06653000  0.61493000  1.0
  C  C77  1  0.63742000  0.93347000  0.38506000  1.0
  C  C78  1  0.38173000  0.94762000  0.63604000  1.0
  C  C79  1  0.61828000  0.05238000  0.36395000  1.0
  C  C80  1  0.25912000  0.83096000  0.63281000  1.0
  C  C81  1  0.74089000  0.16904000  0.36719000  1.0
  C  C82  1  0.10260000  0.94305000  0.59447000  1.0
  C  C83  1  0.89740000  0.05696000  0.40553000  1.0
  C  C84  1  0.21871000  0.06391000  0.59567000  1.0
  C  C85  1  0.78130000  0.93609000  0.40433000  1.0
  N  N86  1  0.72726000  0.41933000  0.59628000  1.0
  N  N87  1  0.27275000  0.58067000  0.40372000  1.0
  N  N88  1  0.12156000  0.82741000  0.61052000  1.0
  N  N89  1  0.87844000  0.17260000  0.38948000  1.0
  O  O90  1  0.07517000  0.50512000  0.61122000  1.0
  O  O91  1  0.92484000  0.49489000  0.38878000  1.0
  O  O92  1  0.19822000  0.36091000  0.58508000  1.0
  O  O93  1  0.80177000  0.63909000  0.41492000  1.0
  O  O94  1  0.91384000  0.71591000  0.79727000  1.0
  O  O95  1  0.08616000  0.28409000  0.20273000  1.0
  O  O96  1  0.75223000  0.74488000  0.67279000  1.0
  O  O97  1  0.24776000  0.25512000  0.32721000  1.0
