# generated using pymatgen
data_NaH16C6S2NO3
_symmetry_space_group_name_H-M   'P 1'
_cell_length_a   5.74657000
_cell_length_b   13.94550000
_cell_length_c   14.74150000
_cell_angle_alpha   108.11800000
_cell_angle_beta   90.02900000
_cell_angle_gamma   101.87100000
_symmetry_Int_Tables_number   1
_chemical_formula_structural   NaH16C6S2NO3
_chemical_formula_sum   'Na4 H64 C24 S8 N4 O12'
_cell_volume   1096.13537747
_cell_formula_units_Z   4
loop_
 _symmetry_equiv_pos_site_id
 _symmetry_equiv_pos_as_xyz
  1  'x, y, z'
loop_
 _atom_site_type_symbol
 _atom_site_label
 _atom_site_symmetry_multiplicity
 _atom_site_fract_x
 _atom_site_fract_y
 _atom_site_fract_z
 _atom_site_occupancy
  Na  Na0  1  0.20742000  0.44050000  0.95084000  1.0
  Na  Na1  1  0.76689000  0.55963000  0.54921000  1.0
  Na  Na2  1  0.79258000  0.55950000  0.04916000  1.0
  Na  Na3  1  0.23312000  0.44037000  0.45079000  1.0
  H  H4  1  0.79024000  0.33112000  0.44381000  1.0
  H  H5  1  0.45926000  0.66900000  0.05630000  1.0
  H  H6  1  0.20977000  0.66887000  0.55619000  1.0
  H  H7  1  0.54074000  0.33100000  0.94370000  1.0
  H  H8  1  0.87789000  0.23858000  0.87572000  1.0
  H  H9  1  0.63946000  0.76158000  0.62441000  1.0
  H  H10  1  0.12211000  0.76142000  0.12428000  1.0
  H  H11  1  0.36052000  0.23841000  0.37560000  1.0
  H  H12  1  0.15041000  0.23256000  0.87421000  1.0
  H  H13  1  0.91800000  0.76755000  0.62580000  1.0
  H  H14  1  0.84958000  0.76744000  0.12580000  1.0
  H  H15  1  0.08199000  0.23245000  0.37420000  1.0
  H  H16  1  0.23288000  0.54459000  0.15090000  1.0
  H  H17  1  0.68809000  0.45537000  0.34922000  1.0
  H  H18  1  0.76713000  0.45541000  0.84910000  1.0
  H  H19  1  0.31191000  0.54463000  0.65078000  1.0
  H  H20  1  0.02442000  0.45378000  0.15112000  1.0
  H  H21  1  0.57051000  0.54620000  0.34887000  1.0
  H  H22  1  0.97558000  0.54622000  0.84888000  1.0
  H  H23  1  0.42948000  0.45380000  0.65113000  1.0
  H  H24  1  0.45352000  0.30363000  0.57730000  1.0
  H  H25  1  0.15038000  0.69655000  0.92249000  1.0
  H  H26  1  0.54649000  0.69637000  0.42270000  1.0
  H  H27  1  0.84962000  0.30345000  0.07752000  1.0
  H  H28  1  0.56774000  0.20089000  0.50277000  1.0
  H  H29  1  0.36695000  0.79941000  0.99719000  1.0
  H  H30  1  0.43225000  0.79911000  0.49724000  1.0
  H  H31  1  0.63304000  0.20059000  0.00281000  1.0
  H  H32  1  0.87297000  0.39559000  0.64796000  1.0
  H  H33  1  0.47861000  0.60485000  0.85219000  1.0
  H  H34  1  0.12705000  0.60441000  0.35204000  1.0
  H  H35  1  0.52139000  0.39516000  0.14782000  1.0
  H  H36  1  0.98418000  0.29332000  0.56761000  1.0
  H  H37  1  0.69144000  0.70714000  0.93289000  1.0
  H  H38  1  0.01583000  0.70668000  0.43239000  1.0
  H  H39  1  0.30856000  0.29287000  0.06711000  1.0
  H  H40  1  0.59720000  0.07514000  0.54121000  1.0
  H  H41  1  0.52257000  0.92509000  0.95870000  1.0
  H  H42  1  0.40280000  0.92486000  0.45879000  1.0
  H  H43  1  0.47742000  0.07491000  0.04130000  1.0
  H  H44  1  0.50828000  0.06113000  0.65301000  1.0
  H  H45  1  0.44766000  0.93905000  0.84685000  1.0
  H  H46  1  0.49172000  0.93887000  0.34699000  1.0
  H  H47  1  0.55234000  0.06096000  0.15315000  1.0
  H  H48  1  0.92870000  0.14757000  0.72314000  1.0
  H  H49  1  0.78155000  0.85250000  0.77687000  1.0
  H  H50  1  0.07130000  0.85243000  0.27685000  1.0
  H  H51  1  0.21845000  0.14750000  0.22313000  1.0
  H  H52  1  0.01565000  0.14741000  0.60847000  1.0
  H  H53  1  0.86863000  0.85267000  0.89160000  1.0
  H  H54  1  0.98435000  0.85259000  0.39153000  1.0
  H  H55  1  0.13136000  0.14733000  0.10840000  1.0
  H  H56  1  0.08913000  0.99032000  0.65051000  1.0
  H  H57  1  0.09928000  0.00974000  0.84955000  1.0
  H  H58  1  0.91089000  0.00968000  0.34949000  1.0
  H  H59  1  0.90072000  0.99025000  0.15044000  1.0
  H  H60  1  0.88894000  0.95232000  0.54732000  1.0
  H  H61  1  0.93711000  0.04778000  0.95267000  1.0
  H  H62  1  0.11106000  0.04769000  0.45267000  1.0
  H  H63  1  0.06289000  0.95222000  0.04733000  1.0
  H  H64  1  0.77850000  0.95268000  0.65942000  1.0
  H  H65  1  0.82624000  0.04738000  0.84053000  1.0
  H  H66  1  0.22151000  0.04732000  0.34057000  1.0
  H  H67  1  0.17376000  0.95261000  0.15947000  1.0
  C  C68  1  0.50961000  0.25674000  0.73411000  1.0
  C  C69  1  0.25333000  0.74345000  0.76580000  1.0
  C  C70  1  0.49039000  0.74326000  0.26589000  1.0
  C  C71  1  0.74667000  0.25655000  0.23420000  1.0
  C  C72  1  0.59732000  0.26194000  0.57236000  1.0
  C  C73  1  0.33581000  0.73833000  0.92762000  1.0
  C  C74  1  0.40269000  0.73806000  0.42764000  1.0
  C  C75  1  0.66419000  0.26167000  0.07238000  1.0
  C  C76  1  0.83855000  0.33530000  0.57781000  1.0
  C  C77  1  0.50389000  0.66505000  0.92238000  1.0
  C  C78  1  0.16145000  0.66469000  0.42219000  1.0
  C  C79  1  0.49610000  0.33495000  0.07762000  1.0
  C  C80  1  0.63320000  0.10840000  0.61915000  1.0
  C  C81  1  0.52532000  0.89180000  0.88078000  1.0
  C  C82  1  0.36680000  0.89161000  0.38085000  1.0
  C  C83  1  0.47467000  0.10820000  0.11923000  1.0
  C  C84  1  0.88811000  0.10600000  0.64645000  1.0
  C  C85  1  0.78257000  0.89409000  0.85356000  1.0
  C  C86  1  0.11190000  0.89400000  0.35354000  1.0
  C  C87  1  0.21743000  0.10591000  0.14644000  1.0
  C  C88  1  0.91361000  0.99445000  0.62447000  1.0
  C  C89  1  0.91962000  0.00563000  0.87554000  1.0
  C  C90  1  0.08639000  0.00555000  0.37552000  1.0
  C  C91  1  0.08039000  0.99437000  0.12446000  1.0
  S  S92  1  0.43635000  0.37565000  0.76193000  1.0
  S  S93  1  0.06121000  0.62453000  0.73799000  1.0
  S  S94  1  0.56365000  0.62434000  0.23807000  1.0
  S  S95  1  0.93880000  0.37547000  0.26201000  1.0
  S  S96  1  0.49006000  0.19189000  0.81735000  1.0
  S  S97  1  0.29851000  0.80824000  0.68251000  1.0
  S  S98  1  0.50994000  0.80811000  0.18266000  1.0
  S  S99  1  0.70148000  0.19176000  0.31749000  1.0
  N  N100  1  0.57893000  0.21165000  0.64631000  1.0
  N  N101  1  0.36783000  0.78856000  0.85362000  1.0
  N  N102  1  0.42107000  0.78835000  0.35369000  1.0
  N  N103  1  0.63217000  0.21144000  0.14638000  1.0
  O  O104  1  0.83736000  0.38655000  0.50691000  1.0
  O  O105  1  0.45104000  0.61365000  0.99314000  1.0
  O  O106  1  0.16265000  0.61344000  0.49309000  1.0
  O  O107  1  0.54897000  0.38636000  0.00686000  1.0
  O  O108  1  0.03267000  0.26682000  0.91325000  1.0
  O  O109  1  0.76584000  0.73329000  0.58682000  1.0
  O  O110  1  0.96732000  0.73318000  0.08675000  1.0
  O  O111  1  0.23415000  0.26670000  0.41318000  1.0
  O  O112  1  0.08720000  0.49878000  0.11208000  1.0
  O  O113  1  0.58830000  0.50124000  0.38799000  1.0
  O  O114  1  0.91280000  0.50122000  0.88792000  1.0
  O  O115  1  0.41170000  0.49876000  0.61201000  1.0
