# generated using pymatgen
data_CsH5C14(O2F3)2
_symmetry_space_group_name_H-M   'P 1'
_cell_length_a   7.20468000
_cell_length_b   14.15300000
_cell_length_c   14.47900000
_cell_angle_alpha   90.06980000
_cell_angle_beta   90.00000000
_cell_angle_gamma   90.00000000
_symmetry_Int_Tables_number   1
_chemical_formula_structural   CsH5C14(O2F3)2
_chemical_formula_sum   'Cs4 H20 C56 O16 F24'
_cell_volume   1476.39120246
_cell_formula_units_Z   4
loop_
 _symmetry_equiv_pos_site_id
 _symmetry_equiv_pos_as_xyz
  1  'x, y, z'
loop_
 _atom_site_type_symbol
 _atom_site_label
 _atom_site_symmetry_multiplicity
 _atom_site_fract_x
 _atom_site_fract_y
 _atom_site_fract_z
 _atom_site_occupancy
  Cs  Cs0  1  0.64487000  0.05687000  0.35147000  1.0
  Cs  Cs1  1  0.14487000  0.44313000  0.64853000  1.0
  Cs  Cs2  1  0.35513000  0.94313000  0.64853000  1.0
  Cs  Cs3  1  0.85513000  0.55687000  0.35147000  1.0
  H  H4  1  0.84285000  0.06866000  0.71076000  1.0
  H  H5  1  0.34284000  0.43134000  0.28924000  1.0
  H  H6  1  0.15716000  0.93134000  0.28924000  1.0
  H  H7  1  0.65716000  0.56866000  0.71076000  1.0
  H  H8  1  0.59014000  0.33008000  0.80208000  1.0
  H  H9  1  0.09013000  0.16992000  0.19793000  1.0
  H  H10  1  0.40987000  0.66992000  0.19792000  1.0
  H  H11  1  0.90987000  0.83008000  0.80208000  1.0
  H  H12  1  0.80610000  0.05630000  0.99342000  1.0
  H  H13  1  0.30610000  0.44370000  0.00658000  1.0
  H  H14  1  0.19390000  0.94370000  0.00658000  1.0
  H  H15  1  0.69390000  0.55630000  0.99342000  1.0
  H  H16  1  0.53050000  0.80043000  0.90456000  1.0
  H  H17  1  0.03049000  0.69957000  0.09543000  1.0
  H  H18  1  0.46951000  0.19957000  0.09543000  1.0
  H  H19  1  0.96951000  0.30043000  0.90457000  1.0
  H  H20  1  0.75256000  0.30950000  0.34836000  1.0
  H  H21  1  0.25256000  0.19050000  0.65164000  1.0
  H  H22  1  0.24744000  0.69050000  0.65164000  1.0
  H  H23  1  0.74743000  0.80950000  0.34836000  1.0
  C  C24  1  0.78408000  0.31443000  0.49263000  1.0
  C  C25  1  0.28408000  0.18557000  0.50737000  1.0
  C  C26  1  0.21592000  0.68558000  0.50737000  1.0
  C  C27  1  0.71592000  0.81442000  0.49263000  1.0
  C  C28  1  0.74772000  0.26934000  0.58516000  1.0
  C  C29  1  0.24772000  0.23066000  0.41484000  1.0
  C  C30  1  0.25228000  0.73067000  0.41484000  1.0
  C  C31  1  0.75228000  0.76933000  0.58516000  1.0
  C  C32  1  0.80215000  0.17716000  0.60748000  1.0
  C  C33  1  0.30215000  0.32283000  0.39252000  1.0
  C  C34  1  0.19785000  0.82284000  0.39252000  1.0
  C  C35  1  0.69785000  0.67716000  0.60748000  1.0
  C  C36  1  0.79182000  0.13929000  0.69577000  1.0
  C  C37  1  0.29182000  0.36070000  0.30423000  1.0
  C  C38  1  0.20819000  0.86071000  0.30423000  1.0
  C  C39  1  0.70819000  0.63929000  0.69577000  1.0
  C  C40  1  0.71826000  0.19692000  0.76427000  1.0
  C  C41  1  0.21826000  0.30308000  0.23573000  1.0
  C  C42  1  0.28174000  0.80308000  0.23573000  1.0
  C  C43  1  0.78174000  0.69692000  0.76427000  1.0
  C  C44  1  0.65271000  0.28765000  0.74777000  1.0
  C  C45  1  0.15271000  0.21234000  0.25223000  1.0
  C  C46  1  0.34729000  0.71235000  0.25223000  1.0
  C  C47  1  0.84729000  0.78765000  0.74777000  1.0
  C  C48  1  0.67093000  0.32107000  0.65834000  1.0
  C  C49  1  0.17093000  0.17893000  0.34166000  1.0
  C  C50  1  0.32907000  0.67893000  0.34166000  1.0
  C  C51  1  0.82907000  0.82107000  0.65834000  1.0
  C  C52  1  0.77976000  0.80246000  0.20545000  1.0
  C  C53  1  0.27976000  0.69754000  0.79455000  1.0
  C  C54  1  0.22025000  0.19754000  0.79455000  1.0
  C  C55  1  0.72024000  0.30246000  0.20545000  1.0
  C  C56  1  0.74440000  0.84827000  0.11310000  1.0
  C  C57  1  0.24440000  0.65173000  0.88690000  1.0
  C  C58  1  0.25560000  0.15173000  0.88690000  1.0
  C  C59  1  0.75560000  0.34827000  0.11310000  1.0
  C  C60  1  0.79574000  0.94111000  0.09157000  1.0
  C  C61  1  0.29574000  0.55890000  0.90843000  1.0
  C  C62  1  0.20426000  0.05889000  0.90843000  1.0
  C  C63  1  0.70426000  0.44111000  0.09157000  1.0
  C  C64  1  0.76281000  0.98408000  0.00689000  1.0
  C  C65  1  0.26282000  0.51592000  0.99310000  1.0
  C  C66  1  0.23718000  0.01592000  0.99311000  1.0
  C  C67  1  0.73717000  0.48407000  0.00689000  1.0
  C  C68  1  0.66893000  0.93022000  0.94155000  1.0
  C  C69  1  0.16893000  0.56978000  0.05845000  1.0
  C  C70  1  0.33107000  0.06978000  0.05845000  1.0
  C  C71  1  0.83106000  0.43022000  0.94155000  1.0
  C  C72  1  0.60985000  0.83832000  0.95700000  1.0
  C  C73  1  0.10985000  0.66168000  0.04300000  1.0
  C  C74  1  0.39015000  0.16168000  0.04300000  1.0
  C  C75  1  0.89015000  0.33832000  0.95700000  1.0
  C  C76  1  0.65259000  0.79950000  0.04217000  1.0
  C  C77  1  0.15258000  0.70050000  0.95783000  1.0
  C  C78  1  0.34742000  0.20050000  0.95783000  1.0
  C  C79  1  0.84742000  0.29950000  0.04217000  1.0
  O  O80  1  0.86096000  0.39332000  0.49085000  1.0
  O  O81  1  0.36097000  0.10668000  0.50915000  1.0
  O  O82  1  0.13904000  0.60668000  0.50915000  1.0
  O  O83  1  0.63905000  0.89332000  0.49085000  1.0
  O  O84  1  0.73215000  0.26595000  0.42102000  1.0
  O  O85  1  0.23215000  0.23405000  0.57898000  1.0
  O  O86  1  0.26785000  0.73406000  0.57897000  1.0
  O  O87  1  0.76784000  0.76594000  0.42102000  1.0
  O  O88  1  0.72959000  0.85269000  0.27664000  1.0
  O  O89  1  0.22959000  0.64731000  0.72335000  1.0
  O  O90  1  0.27042000  0.14731000  0.72336000  1.0
  O  O91  1  0.77041000  0.35269000  0.27665000  1.0
  O  O92  1  0.84839000  0.72192000  0.20895000  1.0
  O  O93  1  0.34840000  0.77808000  0.79105000  1.0
  O  O94  1  0.15161000  0.27808000  0.79105000  1.0
  O  O95  1  0.65161000  0.22192000  0.20895000  1.0
  F  F96  1  0.87589000  0.12160000  0.54002000  1.0
  F  F97  1  0.37589000  0.37840000  0.45998000  1.0
  F  F98  1  0.12411000  0.87840000  0.45998000  1.0
  F  F99  1  0.62411000  0.62160000  0.54002000  1.0
  F  F100  1  0.71063000  0.16322000  0.85203000  1.0
  F  F101  1  0.21063000  0.33677000  0.14797000  1.0
  F  F102  1  0.28938000  0.83678000  0.14797000  1.0
  F  F103  1  0.78938000  0.66322000  0.85203000  1.0
  F  F104  1  0.60729000  0.41053000  0.64126000  1.0
  F  F105  1  0.10728000  0.08947000  0.35874000  1.0
  F  F106  1  0.39271000  0.58947000  0.35874000  1.0
  F  F107  1  0.89272000  0.91053000  0.64126000  1.0
  F  F108  1  0.88749000  0.99288000  0.15698000  1.0
  F  F109  1  0.38750000  0.50713000  0.84301000  1.0
  F  F110  1  0.11250000  0.00712000  0.84302000  1.0
  F  F111  1  0.61250000  0.49288000  0.15699000  1.0
  F  F112  1  0.63179000  0.96924000  0.85739000  1.0
  F  F113  1  0.13179000  0.53076000  0.14260000  1.0
  F  F114  1  0.36821000  0.03076000  0.14261000  1.0
  F  F115  1  0.86819000  0.46924000  0.85739000  1.0
  F  F116  1  0.59559000  0.70913000  0.05813000  1.0
  F  F117  1  0.09559000  0.79087000  0.94186000  1.0
  F  F118  1  0.40441000  0.29087000  0.94186000  1.0
  F  F119  1  0.90441000  0.20913000  0.05814000  1.0
