# generated using pymatgen
data_ZnH15C12N2O5
_symmetry_space_group_name_H-M   'P 1'
_cell_length_a   5.21083000
_cell_length_b   9.14936000
_cell_length_c   16.32020000
_cell_angle_alpha   96.83280000
_cell_angle_beta   97.26560000
_cell_angle_gamma   100.64200000
_symmetry_Int_Tables_number   1
_chemical_formula_structural   ZnH15C12N2O5
_chemical_formula_sum   'Zn2 H30 C24 N4 O10'
_cell_volume   750.42790795
_cell_formula_units_Z   2
loop_
 _symmetry_equiv_pos_site_id
 _symmetry_equiv_pos_as_xyz
  1  'x, y, z'
loop_
 _atom_site_type_symbol
 _atom_site_label
 _atom_site_symmetry_multiplicity
 _atom_site_fract_x
 _atom_site_fract_y
 _atom_site_fract_z
 _atom_site_occupancy
  Zn  Zn0  1  0.86662000  0.89759000  0.64056000  1.0
  Zn  Zn1  1  0.13338000  0.10241000  0.35944000  1.0
  H  H2  1  0.20686000  0.73908000  0.73916000  1.0
  H  H3  1  0.79314000  0.26093000  0.26084000  1.0
  H  H4  1  0.04714000  0.16557000  0.77278000  1.0
  H  H5  1  0.95287000  0.83444000  0.22722000  1.0
  H  H6  1  0.49024000  0.35293000  0.71203000  1.0
  H  H7  1  0.50976000  0.64707000  0.28797000  1.0
  H  H8  1  0.21051000  0.25444000  0.64062000  1.0
  H  H9  1  0.78949000  0.74555000  0.35938000  1.0
  H  H10  1  0.47589000  0.23868000  0.52653000  1.0
  H  H11  1  0.52411000  0.76132000  0.47347000  1.0
  H  H12  1  0.75332000  0.35576000  0.58926000  1.0
  H  H13  1  0.24668000  0.64424000  0.41074000  1.0
  H  H14  1  0.59854000  0.80937000  0.85299000  1.0
  H  H15  1  0.40145000  0.19063000  0.14701000  1.0
  H  H16  1  0.41822000  0.25271000  0.89063000  1.0
  H  H17  1  0.58177000  0.74730000  0.10937000  1.0
  H  H18  1  0.27249000  0.47383000  0.55491000  1.0
  H  H19  1  0.72752000  0.52617000  0.44509000  1.0
  H  H20  1  0.17637000  0.51638000  0.65220000  1.0
  H  H21  1  0.82364000  0.48362000  0.34781000  1.0
  H  H22  1  0.88210000  0.31970000  0.94283000  1.0
  H  H23  1  0.11790000  0.68030000  0.05717000  1.0
  H  H24  1  0.01987000  0.26183000  0.03737000  1.0
  H  H25  1  0.98012000  0.73817000  0.96263000  1.0
  H  H26  1  0.68071000  0.27560000  0.01978000  1.0
  H  H27  1  0.31928000  0.72440000  0.98022000  1.0
  H  H28  1  0.24977000  0.77759000  0.58423000  1.0
  H  H29  1  0.75023000  0.22241000  0.41577000  1.0
  H  H30  1  0.12572000  0.86289000  0.51277000  1.0
  H  H31  1  0.87428000  0.13711000  0.48723000  1.0
  C  C32  1  0.67075000  0.13633000  0.62005000  1.0
  C  C33  1  0.32925000  0.86367000  0.37995000  1.0
  C  C34  1  0.26622000  0.85182000  0.77407000  1.0
  C  C35  1  0.73378000  0.14818000  0.22593000  1.0
  C  C36  1  0.17473000  0.09084000  0.79324000  1.0
  C  C37  1  0.82527000  0.90917000  0.20676000  1.0
  C  C38  1  0.39725000  0.33607000  0.64645000  1.0
  C  C39  1  0.60276000  0.66393000  0.35355000  1.0
  C  C40  1  0.54223000  0.03740000  0.88224000  1.0
  C  C41  1  0.45776000  0.96261000  0.11776000  1.0
  C  C42  1  0.57572000  0.27043000  0.59143000  1.0
  C  C43  1  0.42428000  0.72957000  0.40857000  1.0
  C  C44  1  0.47828000  0.89078000  0.83811000  1.0
  C  C45  1  0.52172000  0.10923000  0.16189000  1.0
  C  C46  1  0.38206000  0.13760000  0.85897000  1.0
  C  C47  1  0.61794000  0.86240000  0.14103000  1.0
  C  C48  1  0.77089000  0.08390000  0.94961000  1.0
  C  C49  1  0.22910000  0.91610000  0.05039000  1.0
  C  C50  1  0.34046000  0.48420000  0.62254000  1.0
  C  C51  1  0.65955000  0.51580000  0.37746000  1.0
  C  C52  1  0.57551000  0.61468000  0.64611000  1.0
  C  C53  1  0.42449000  0.38532000  0.35390000  1.0
  C  C54  1  0.84501000  0.24485000  0.98994000  1.0
  C  C55  1  0.15498000  0.75515000  0.01006000  1.0
  N  N56  1  0.11817000  0.95070000  0.75088000  1.0
  N  N57  1  0.88183000  0.04931000  0.24911000  1.0
  N  N58  1  0.89282000  0.97732000  0.96910000  1.0
  N  N59  1  0.10717000  0.02267000  0.03090000  1.0
  O  O60  1  0.79862000  0.06326000  0.57064000  1.0
  O  O61  1  0.20137000  0.93673000  0.42936000  1.0
  O  O62  1  0.63643000  0.09592000  0.68927000  1.0
  O  O63  1  0.36357000  0.90408000  0.31073000  1.0
  O  O64  1  0.78789000  0.60322000  0.68678000  1.0
  O  O65  1  0.21212000  0.39679000  0.31322000  1.0
  O  O66  1  0.53705000  0.74159000  0.62135000  1.0
  O  O67  1  0.46295000  0.25840000  0.37866000  1.0
  O  O68  1  0.08253000  0.80698000  0.56045000  1.0
  O  O69  1  0.91747000  0.19302000  0.43955000  1.0
