# generated using pymatgen
data_CdH24C34N2O5
_symmetry_space_group_name_H-M   'P 1'
_cell_length_a   10.74470000
_cell_length_b   12.12440000
_cell_length_c   15.31605947
_cell_angle_alpha   67.62869876
_cell_angle_beta   69.93468072
_cell_angle_gamma   77.09400000
_symmetry_Int_Tables_number   1
_chemical_formula_structural   CdH24C34N2O5
_chemical_formula_sum   'Cd2 H48 C68 N4 O10'
_cell_volume   1723.19271056
_cell_formula_units_Z   2
loop_
 _symmetry_equiv_pos_site_id
 _symmetry_equiv_pos_as_xyz
  1  'x, y, z'
loop_
 _atom_site_type_symbol
 _atom_site_label
 _atom_site_symmetry_multiplicity
 _atom_site_fract_x
 _atom_site_fract_y
 _atom_site_fract_z
 _atom_site_occupancy
  Cd  Cd0  1  0.22588000  0.00153000  0.39286000  1.0
  Cd  Cd1  1  0.77412000  0.99847000  0.60714000  1.0
  H  H2  1  0.52057000  0.94758000  0.40632000  1.0
  H  H3  1  0.47942000  0.05242000  0.59368000  1.0
  H  H4  1  0.66356000  0.82050000  0.51499000  1.0
  H  H5  1  0.33644000  0.17950000  0.48501000  1.0
  H  H6  1  0.32157000  0.62942000  0.70770000  1.0
  H  H7  1  0.67843000  0.37058000  0.29230000  1.0
  H  H8  1  0.19588000  0.76288000  0.58793000  1.0
  H  H9  1  0.80411000  0.23712000  0.41207000  1.0
  H  H10  1  0.69224000  0.64763000  0.65692000  1.0
  H  H11  1  0.30777000  0.35238000  0.34308000  1.0
  H  H12  1  0.42825000  0.62536000  0.82303000  1.0
  H  H13  1  0.57175000  0.37464000  0.17697000  1.0
  H  H14  1  0.76335000  0.45617000  0.77646000  1.0
  H  H15  1  0.23665000  0.54383000  0.22354000  1.0
  H  H16  1  0.91314000  0.39959000  0.88007000  1.0
  H  H17  1  0.08684000  0.60040000  0.11994000  1.0
  H  H18  1  0.64743000  0.61226000  0.05380000  1.0
  H  H19  1  0.35257000  0.38774000  0.94620000  1.0
  H  H20  1  0.49388000  0.66459000  0.95178000  1.0
  H  H21  1  0.50611000  0.33542000  0.04823000  1.0
  H  H22  1  0.83710000  0.48393000  0.10484000  1.0
  H  H23  1  0.16289000  0.51607000  0.89517000  1.0
  H  H24  1  0.02959000  0.35822000  0.96395000  1.0
  H  H25  1  0.97039000  0.64178000  0.03606000  1.0
  H  H26  1  0.14533000  0.17687000  0.03397000  1.0
  H  H27  1  0.85466000  0.82313000  0.96603000  1.0
  H  H28  1  0.21434000  0.02820000  0.18083000  1.0
  H  H29  1  0.78567000  0.97181000  0.81916000  1.0
  H  H30  1  0.01977000  0.24274000  0.35138000  1.0
  H  H31  1  0.98023000  0.75725000  0.64862000  1.0
  H  H32  1  0.94721000  0.40282000  0.21276000  1.0
  H  H33  1  0.05277000  0.59717000  0.78725000  1.0
  H  H34  1  0.19012000  0.77768000  0.34784000  1.0
  H  H35  1  0.80988000  0.22232000  0.65216000  1.0
  H  H36  1  0.23990000  0.76102000  0.18205000  1.0
  H  H37  1  0.76012000  0.23898000  0.81794000  1.0
  H  H38  1  0.84291000  0.92223000  0.17070000  1.0
  H  H39  1  0.15709000  0.07776000  0.82930000  1.0
  H  H40  1  0.79294000  0.93671000  0.33842000  1.0
  H  H41  1  0.20706000  0.06329000  0.66158000  1.0
  H  H42  1  0.23497000  0.98005000  0.06388000  1.0
  H  H43  1  0.76503000  0.01996000  0.93612000  1.0
  H  H44  1  0.43906000  0.04004000  0.92435000  1.0
  H  H45  1  0.56094000  0.95996000  0.07565000  1.0
  H  H46  1  0.36223000  0.82892000  0.78264000  1.0
  H  H47  1  0.63778000  0.17108000  0.21736000  1.0
  H  H48  1  0.15496000  0.77041000  0.92102000  1.0
  H  H49  1  0.84506000  0.22959000  0.07897000  1.0
  C  C50  1  0.48200000  0.87409000  0.47290000  1.0
  C  C51  1  0.51800000  0.12590000  0.52710000  1.0
  C  C52  1  0.56061000  0.80301000  0.53356000  1.0
  C  C53  1  0.43938000  0.19699000  0.46644000  1.0
  C  C54  1  0.50434000  0.71417000  0.62193000  1.0
  C  C55  1  0.49566000  0.28584000  0.37807000  1.0
  C  C56  1  0.37022000  0.69882000  0.64171000  1.0
  C  C57  1  0.62978000  0.30118000  0.35829000  1.0
  C  C58  1  0.29949000  0.77227000  0.57580000  1.0
  C  C59  1  0.70051000  0.22772000  0.42420000  1.0
  C  C60  1  0.58426000  0.64960000  0.68970000  1.0
  C  C61  1  0.41573000  0.35041000  0.31031000  1.0
  C  C62  1  0.53537000  0.61139000  0.78873000  1.0
  C  C63  1  0.46463000  0.38862000  0.21127000  1.0
  C  C64  1  0.61984000  0.56739000  0.85466000  1.0
  C  C65  1  0.38016000  0.43262000  0.14534000  1.0
  C  C66  1  0.73781000  0.49096000  0.83716000  1.0
  C  C67  1  0.26219000  0.50904000  0.16284000  1.0
  C  C68  1  0.82274000  0.45939000  0.89606000  1.0
  C  C69  1  0.17726000  0.54061000  0.10394000  1.0
  C  C70  1  0.79348000  0.50431000  0.97351000  1.0
  C  C71  1  0.20651000  0.49568000  0.02650000  1.0
  C  C72  1  0.67286000  0.57713000  0.99318000  1.0
  C  C73  1  0.32715000  0.42286000  0.00682000  1.0
  C  C74  1  0.58651000  0.60705000  0.93589000  1.0
  C  C75  1  0.41348000  0.39295000  0.06412000  1.0
  C  C76  1  0.89129000  0.49205000  0.02775000  1.0
  C  C77  1  0.10870000  0.50795000  0.97225000  1.0
  C  C78  1  0.01710000  0.40035000  0.01879000  1.0
  C  C79  1  0.98290000  0.59965000  0.98121000  1.0
  C  C80  1  0.04110000  0.30428000  0.10977000  1.0
  C  C81  1  0.95890000  0.69572000  0.89023000  1.0
  C  C82  1  0.11517000  0.19544000  0.10312000  1.0
  C  C83  1  0.88483000  0.80456000  0.89688000  1.0
  C  C84  1  0.15259000  0.11182000  0.18411000  1.0
  C  C85  1  0.84741000  0.88818000  0.81589000  1.0
  C  C86  1  0.04535000  0.23245000  0.27934000  1.0
  C  C87  1  0.95464000  0.76754000  0.72066000  1.0
  C  C88  1  0.00427000  0.32053000  0.20152000  1.0
  C  C89  1  0.99572000  0.67946000  0.79849000  1.0
  C  C90  1  0.96181000  0.87612000  0.45059000  1.0
  C  C91  1  0.03818000  0.12388000  0.54941000  1.0
  C  C92  1  0.98826000  0.85872000  0.35371000  1.0
  C  C93  1  0.01175000  0.14128000  0.64628000  1.0
  C  C94  1  0.11355000  0.80811000  0.30955000  1.0
  C  C95  1  0.88645000  0.19189000  0.69045000  1.0
  C  C96  1  0.14185000  0.79871000  0.21675000  1.0
  C  C97  1  0.85815000  0.20129000  0.78325000  1.0
  C  C98  1  0.04417000  0.84236000  0.16686000  1.0
  C  C99  1  0.95583000  0.15764000  0.83314000  1.0
  C  C100  1  0.91753000  0.88975000  0.21072000  1.0
  C  C101  1  0.08247000  0.11024000  0.78928000  1.0
  C  C102  1  0.89015000  0.89727000  0.30411000  1.0
  C  C103  1  0.10986000  0.10273000  0.69588000  1.0
  C  C104  1  0.18392000  0.86991000  0.00136000  1.0
  C  C105  1  0.81609000  0.13009000  0.99863000  1.0
  C  C106  1  0.26249000  0.94705000  0.00237000  1.0
  C  C107  1  0.73751000  0.05295000  0.99763000  1.0
  C  C108  1  0.37691000  0.97994000  0.92466000  1.0
  C  C109  1  0.62309000  0.02006000  0.07534000  1.0
  C  C110  1  0.41487000  0.93629000  0.84570000  1.0
  C  C111  1  0.58513000  0.06372000  0.15430000  1.0
  C  C112  1  0.33342000  0.86106000  0.84499000  1.0
  C  C113  1  0.66659000  0.13895000  0.15501000  1.0
  C  C114  1  0.21871000  0.82790000  0.92190000  1.0
  C  C115  1  0.78130000  0.17210000  0.07810000  1.0
  C  C116  1  0.54129000  0.96673000  0.76444000  1.0
  C  C117  1  0.45871000  0.03328000  0.23556000  1.0
  N  N118  1  0.35316000  0.85977000  0.49306000  1.0
  N  N119  1  0.64685000  0.14023000  0.50693000  1.0
  N  N120  1  0.11947000  0.12994000  0.27104000  1.0
  N  N121  1  0.88053000  0.87006000  0.72896000  1.0
  O  O122  1  0.06076000  0.87307000  0.47990000  1.0
  O  O123  1  0.93925000  0.12693000  0.52009000  1.0
  O  O124  1  0.84036000  0.89301000  0.49892000  1.0
  O  O125  1  0.15964000  0.10698000  0.50108000  1.0
  O  O126  1  0.06641000  0.83621000  0.07378000  1.0
  O  O127  1  0.93359000  0.16379000  0.92622000  1.0
  O  O128  1  0.60568000  0.04651000  0.75882000  1.0
  O  O129  1  0.39433000  0.95351000  0.24117000  1.0
  O  O130  1  0.57882000  0.90841000  0.70364000  1.0
  O  O131  1  0.42119000  0.09161000  0.29636000  1.0
