# generated using pymatgen
data_TmH21(C9O2)3
_symmetry_space_group_name_H-M   'P 1'
_cell_length_a   7.84312000
_cell_length_b   11.34360000
_cell_length_c   12.92500000
_cell_angle_alpha   93.25540000
_cell_angle_beta   90.00000000
_cell_angle_gamma   89.99990000
_symmetry_Int_Tables_number   1
_chemical_formula_structural   TmH21(C9O2)3
_chemical_formula_sum   'Tm2 H42 C54 O12'
_cell_volume   1148.07150622
_cell_formula_units_Z   2
loop_
 _symmetry_equiv_pos_site_id
 _symmetry_equiv_pos_as_xyz
  1  'x, y, z'
loop_
 _atom_site_type_symbol
 _atom_site_label
 _atom_site_symmetry_multiplicity
 _atom_site_fract_x
 _atom_site_fract_y
 _atom_site_fract_z
 _atom_site_occupancy
  Tm  Tm0  1  0.53433000  0.54024000  0.47411000  1.0
  Tm  Tm1  1  0.03433000  0.45976000  0.52589000  1.0
  H  H2  1  0.71076000  0.12714000  0.61010000  1.0
  H  H3  1  0.21075000  0.87285000  0.38989000  1.0
  H  H4  1  0.37230000  0.26549000  0.60433000  1.0
  H  H5  1  0.87230000  0.73451000  0.39566000  1.0
  H  H6  1  0.57673000  0.95963000  0.59692000  1.0
  H  H7  1  0.07671000  0.04037000  0.40307000  1.0
  H  H8  1  0.41376000  0.77869000  0.62557000  1.0
  H  H9  1  0.91374000  0.22131000  0.37443000  1.0
  H  H10  1  0.10430000  0.78922000  0.66450000  1.0
  H  H11  1  0.60428000  0.21077000  0.33550000  1.0
  H  H12  1  0.95459000  0.98363000  0.67076000  1.0
  H  H13  1  0.45458000  0.01636000  0.32924000  1.0
  H  H14  1  0.11765000  0.16692000  0.63895000  1.0
  H  H15  1  0.61764000  0.83307000  0.36104000  1.0
  H  H16  1  0.44405000  0.62489000  0.75625000  1.0
  H  H17  1  0.94405000  0.37512000  0.24375000  1.0
  H  H18  1  0.20985000  0.45175000  0.86511000  1.0
  H  H19  1  0.70984000  0.54825000  0.13490000  1.0
  H  H20  1  0.48195000  0.73133000  0.90168000  1.0
  H  H21  1  0.98195000  0.26868000  0.09832000  1.0
  H  H22  1  0.54411000  0.82648000  0.07393000  1.0
  H  H23  1  0.04411000  0.17353000  0.92607000  1.0
  H  H24  1  0.44164000  0.73517000  0.23393000  1.0
  H  H25  1  0.94164000  0.26483000  0.76607000  1.0
  H  H26  1  0.27383000  0.54980000  0.22003000  1.0
  H  H27  1  0.77383000  0.45020000  0.77997000  1.0
  H  H28  1  0.21082000  0.45328000  0.04638000  1.0
  H  H29  1  0.71081000  0.54673000  0.95363000  1.0
  H  H30  1  0.67492000  0.81543000  0.73451000  1.0
  H  H31  1  0.17492000  0.18457000  0.26549000  1.0
  H  H32  1  0.97351000  0.66915000  0.81455000  1.0
  H  H33  1  0.47351000  0.33085000  0.18545000  1.0
  H  H34  1  0.72545000  0.95696000  0.85729000  1.0
  H  H35  1  0.22545000  0.04304000  0.14271000  1.0
  H  H36  1  0.71699000  0.07171000  0.02489000  1.0
  H  H37  1  0.21698000  0.92829000  0.97511000  1.0
  H  H38  1  0.85791000  0.99540000  0.18011000  1.0
  H  H39  1  0.35789000  0.00460000  0.81988000  1.0
  H  H40  1  0.01035000  0.80181000  0.16596000  1.0
  H  H41  1  0.51034000  0.19818000  0.83404000  1.0
  H  H42  1  0.02171000  0.68695000  0.99709000  1.0
  H  H43  1  0.52171000  0.31304000  0.00291000  1.0
  C  C44  1  0.69958000  0.31637000  0.59197000  1.0
  C  C45  1  0.19958000  0.68363000  0.40802000  1.0
  C  C46  1  0.62192000  0.20054000  0.60553000  1.0
  C  C47  1  0.12191000  0.79946000  0.39446000  1.0
  C  C48  1  0.45099000  0.18649000  0.60857000  1.0
  C  C49  1  0.95098000  0.81351000  0.39142000  1.0
  C  C50  1  0.35927000  0.07671000  0.61949000  1.0
  C  C51  1  0.85926000  0.92328000  0.38051000  1.0
  C  C52  1  0.44108000  0.96587000  0.61506000  1.0
  C  C53  1  0.94106000  0.03413000  0.38494000  1.0
  C  C54  1  0.34945000  0.86379000  0.63138000  1.0
  C  C55  1  0.84943000  0.13621000  0.36862000  1.0
  C  C56  1  0.17458000  0.86999000  0.65234000  1.0
  C  C57  1  0.67456000  0.13000000  0.34766000  1.0
  C  C58  1  0.09115000  0.97891000  0.65508000  1.0
  C  C59  1  0.59114000  0.02108000  0.34492000  1.0
  C  C60  1  0.18211000  0.08154000  0.63785000  1.0
  C  C61  1  0.68210000  0.91845000  0.36214000  1.0
  C  C62  1  0.27745000  0.49746000  0.67476000  1.0
  C  C63  1  0.77745000  0.50255000  0.32525000  1.0
  C  C64  1  0.35335000  0.55405000  0.76787000  1.0
  C  C65  1  0.85335000  0.44595000  0.23214000  1.0
  C  C66  1  0.29993000  0.52528000  0.86272000  1.0
  C  C67  1  0.79992000  0.47473000  0.13728000  1.0
  C  C68  1  0.34398000  0.58391000  0.96194000  1.0
  C  C69  1  0.84398000  0.41610000  0.03806000  1.0
  C  C70  1  0.43755000  0.69022000  0.97108000  1.0
  C  C71  1  0.93755000  0.30978000  0.02893000  1.0
  C  C72  1  0.47186000  0.74435000  0.06809000  1.0
  C  C73  1  0.97186000  0.25566000  0.93191000  1.0
  C  C74  1  0.41310000  0.69405000  0.15783000  1.0
  C  C75  1  0.91310000  0.30596000  0.84217000  1.0
  C  C76  1  0.31934000  0.58915000  0.15021000  1.0
  C  C77  1  0.81934000  0.41085000  0.84979000  1.0
  C  C78  1  0.28487000  0.53478000  0.05314000  1.0
  C  C79  1  0.78486000  0.46522000  0.94686000  1.0
  C  C80  1  0.79212000  0.67112000  0.64150000  1.0
  C  C81  1  0.29212000  0.32888000  0.35850000  1.0
  C  C82  1  0.77734000  0.75046000  0.73517000  1.0
  C  C83  1  0.27734000  0.24954000  0.26483000  1.0
  C  C84  1  0.87902000  0.74026000  0.81867000  1.0
  C  C85  1  0.37902000  0.25974000  0.18133000  1.0
  C  C86  1  0.87285000  0.81249000  0.91532000  1.0
  C  C87  1  0.37286000  0.18751000  0.08468000  1.0
  C  C88  1  0.78760000  0.92204000  0.92460000  1.0
  C  C89  1  0.28759000  0.07796000  0.07540000  1.0
  C  C90  1  0.78319000  0.98714000  0.01905000  1.0
  C  C91  1  0.28318000  0.01286000  0.98095000  1.0
  C  C92  1  0.86299000  0.94429000  0.10622000  1.0
  C  C93  1  0.36298000  0.05570000  0.89378000  1.0
  C  C94  1  0.94831000  0.83598000  0.09835000  1.0
  C  C95  1  0.44831000  0.16402000  0.90166000  1.0
  C  C96  1  0.95450000  0.77125000  0.00349000  1.0
  C  C97  1  0.45450000  0.22874000  0.99651000  1.0
  O  O98  1  0.60364000  0.40732000  0.58639000  1.0
  O  O99  1  0.10364000  0.59268000  0.41360000  1.0
  O  O100  1  0.86233000  0.32143000  0.58656000  1.0
  O  O101  1  0.36232000  0.67857000  0.41344000  1.0
  O  O102  1  0.30583000  0.54262000  0.58532000  1.0
  O  O103  1  0.80583000  0.45739000  0.41468000  1.0
  O  O104  1  0.17222000  0.41249000  0.67741000  1.0
  O  O105  1  0.67222000  0.58752000  0.32259000  1.0
  O  O106  1  0.67057000  0.67350000  0.57511000  1.0
  O  O107  1  0.17057000  0.32650000  0.42489000  1.0
  O  O108  1  0.92146000  0.60352000  0.62976000  1.0
  O  O109  1  0.42146000  0.39648000  0.37024000  1.0
