# generated using pymatgen
data_CdH12C18SIN7
_symmetry_space_group_name_H-M   'P 1'
_cell_length_a   8.17200000
_cell_length_b   8.83941000
_cell_length_c   13.86540000
_cell_angle_alpha   91.02890000
_cell_angle_beta   90.11480000
_cell_angle_gamma   109.56600000
_symmetry_Int_Tables_number   1
_chemical_formula_structural   CdH12C18SIN7
_chemical_formula_sum   'Cd2 H24 C36 S2 I2 N14'
_cell_volume   943.55529482
_cell_formula_units_Z   2
loop_
 _symmetry_equiv_pos_site_id
 _symmetry_equiv_pos_as_xyz
  1  'x, y, z'
loop_
 _atom_site_type_symbol
 _atom_site_label
 _atom_site_symmetry_multiplicity
 _atom_site_fract_x
 _atom_site_fract_y
 _atom_site_fract_z
 _atom_site_occupancy
  Cd  Cd0  1  0.71485000  0.69931000  0.52280000  1.0
  Cd  Cd1  1  0.28514000  0.30069000  0.47720000  1.0
  H  H2  1  0.92814000  0.82956000  0.71607000  1.0
  H  H3  1  0.07186000  0.17044000  0.28393000  1.0
  H  H4  1  0.69183000  0.35904000  0.62416000  1.0
  H  H5  1  0.30817000  0.64097000  0.37584000  1.0
  H  H6  1  0.80070000  0.25220000  0.76873000  1.0
  H  H7  1  0.19930000  0.74780000  0.23127000  1.0
  H  H8  1  0.97877000  0.44878000  0.89332000  1.0
  H  H9  1  0.02123000  0.55122000  0.10668000  1.0
  H  H10  1  0.67166000  0.40913000  0.93517000  1.0
  H  H11  1  0.32834000  0.59087000  0.06483000  1.0
  H  H12  1  0.69767000  0.50093000  0.10693000  1.0
  H  H13  1  0.30233000  0.49907000  0.89307000  1.0
  H  H14  1  0.48343000  0.33430000  0.22663000  1.0
  H  H15  1  0.51657000  0.66570000  0.77337000  1.0
  H  H16  1  0.25430000  0.08038000  0.16638000  1.0
  H  H17  1  0.74570000  0.91962000  0.83362000  1.0
  H  H18  1  0.35392000  0.86165000  0.73755000  1.0
  H  H19  1  0.64608000  0.13835000  0.26245000  1.0
  H  H20  1  0.41006000  0.01837000  0.58599000  1.0
  H  H21  1  0.58994000  0.98162000  0.41401000  1.0
  H  H22  1  0.16860000  0.33033000  0.69204000  1.0
  H  H23  1  0.83139000  0.66967000  0.30795000  1.0
  H  H24  1  0.09288000  0.18031000  0.84697000  1.0
  H  H25  1  0.90712000  0.81969000  0.15303000  1.0
  C  C26  1  0.90515000  0.70338000  0.73111000  1.0
  C  C27  1  0.09485000  0.29662000  0.26889000  1.0
  C  C28  1  0.77118000  0.43953000  0.67976000  1.0
  C  C29  1  0.22882000  0.56048000  0.32024000  1.0
  C  C30  1  0.83249000  0.38105000  0.75977000  1.0
  C  C31  1  0.16751000  0.61895000  0.24023000  1.0
  C  C32  1  0.93187000  0.48990000  0.82847000  1.0
  C  C33  1  0.06813000  0.51010000  0.17153000  1.0
  C  C34  1  0.96829000  0.65522000  0.81501000  1.0
  C  C35  1  0.03171000  0.34478000  0.18499000  1.0
  C  C36  1  0.05477000  0.76490000  0.89393000  1.0
  C  C37  1  0.94523000  0.23510000  0.10607000  1.0
  C  C38  1  0.21388000  0.96812000  0.98431000  1.0
  C  C39  1  0.78612000  0.03188000  0.01569000  1.0
  C  C40  1  0.34407000  0.11735000  0.01918000  1.0
  C  C41  1  0.65593000  0.88265000  0.98082000  1.0
  C  C42  1  0.58070000  0.33929000  0.98835000  1.0
  C  C43  1  0.41930000  0.66070000  0.01165000  1.0
  C  C44  1  0.59559000  0.39037000  0.08486000  1.0
  C  C45  1  0.40441000  0.60963000  0.91514000  1.0
  C  C46  1  0.47618000  0.29793000  0.15061000  1.0
  C  C47  1  0.52382000  0.70207000  0.84939000  1.0
  C  C48  1  0.34846000  0.15830000  0.11768000  1.0
  C  C49  1  0.65154000  0.84170000  0.88232000  1.0
  C  C50  1  0.22208000  0.01227000  0.80388000  1.0
  C  C51  1  0.77793000  0.98773000  0.19612000  1.0
  C  C52  1  0.31174000  0.96536000  0.73059000  1.0
  C  C53  1  0.68826000  0.03464000  0.26941000  1.0
  C  C54  1  0.34325000  0.05312000  0.64591000  1.0
  C  C55  1  0.65675000  0.94688000  0.35409000  1.0
  C  C56  1  0.20821000  0.22627000  0.70553000  1.0
  C  C57  1  0.79179000  0.77373000  0.29447000  1.0
  C  C58  1  0.16839000  0.14502000  0.79168000  1.0
  C  C59  1  0.83162000  0.85499000  0.20832000  1.0
  C  C60  1  0.88526000  0.10651000  0.55498000  1.0
  C  C61  1  0.11473000  0.89348000  0.44502000  1.0
  S  S62  1  0.73736000  0.98171000  0.62102000  1.0
  S  S63  1  0.26264000  0.01828000  0.37898000  1.0
  I  I64  1  0.65413000  0.38782000  0.42120000  1.0
  I  I65  1  0.34586000  0.61218000  0.57880000  1.0
  N  N66  1  0.80755000  0.59748000  0.66590000  1.0
  N  N67  1  0.19245000  0.40252000  0.33410000  1.0
  N  N68  1  0.02501000  0.72534000  0.98590000  1.0
  N  N69  1  0.97499000  0.27466000  0.01410000  1.0
  N  N70  1  0.12464000  0.85121000  0.04188000  1.0
  N  N71  1  0.87536000  0.14879000  0.95812000  1.0
  N  N72  1  0.17294000  0.91928000  0.88919000  1.0
  N  N73  1  0.82707000  0.08072000  0.11082000  1.0
  N  N74  1  0.45823000  0.20596000  0.95508000  1.0
  N  N75  1  0.54177000  0.79404000  0.04492000  1.0
  N  N76  1  0.29337000  0.18143000  0.63347000  1.0
  N  N77  1  0.70663000  0.81857000  0.36653000  1.0
  N  N78  1  0.98944000  0.19733000  0.50587000  1.0
  N  N79  1  0.01056000  0.80267000  0.49413000  1.0
