# generated using pymatgen
data_AgH10C12N3O4
_symmetry_space_group_name_H-M   'P 1'
_cell_length_a   8.46094000
_cell_length_b   10.42520000
_cell_length_c   13.86910000
_cell_angle_alpha   89.99990000
_cell_angle_beta   89.99980000
_cell_angle_gamma   79.49400000
_symmetry_Int_Tables_number   1
_chemical_formula_structural   AgH10C12N3O4
_chemical_formula_sum   'Ag4 H40 C48 N12 O16'
_cell_volume   1202.84310036
_cell_formula_units_Z   4
loop_
 _symmetry_equiv_pos_site_id
 _symmetry_equiv_pos_as_xyz
  1  'x, y, z'
loop_
 _atom_site_type_symbol
 _atom_site_label
 _atom_site_symmetry_multiplicity
 _atom_site_fract_x
 _atom_site_fract_y
 _atom_site_fract_z
 _atom_site_occupancy
  Ag  Ag0  1  0.01998000  0.49973000  0.23393000  1.0
  Ag  Ag1  1  0.48002000  0.00027000  0.73393000  1.0
  Ag  Ag2  1  0.98002000  0.50027000  0.76607000  1.0
  Ag  Ag3  1  0.51997000  0.99973000  0.26607000  1.0
  H  H4  1  0.83579000  0.82550000  0.51581000  1.0
  H  H5  1  0.66421000  0.67450000  0.01582000  1.0
  H  H6  1  0.16421000  0.17450000  0.48419000  1.0
  H  H7  1  0.33579000  0.32551000  0.98418000  1.0
  H  H8  1  0.69810000  0.21762000  0.41126000  1.0
  H  H9  1  0.80189000  0.28238000  0.91126000  1.0
  H  H10  1  0.30189000  0.78238000  0.58874000  1.0
  H  H11  1  0.19811000  0.71762000  0.08874000  1.0
  H  H12  1  0.07638000  0.95389000  0.26832000  1.0
  H  H13  1  0.42362000  0.54612000  0.76832000  1.0
  H  H14  1  0.92361000  0.04612000  0.73168000  1.0
  H  H15  1  0.57638000  0.45388000  0.23168000  1.0
  H  H16  1  0.94764000  0.62736000  0.46121000  1.0
  H  H17  1  0.55236000  0.87264000  0.96121000  1.0
  H  H18  1  0.05236000  0.37264000  0.53879000  1.0
  H  H19  1  0.44764000  0.12736000  0.03878000  1.0
  H  H20  1  0.09871000  0.69122000  0.52366000  1.0
  H  H21  1  0.40129000  0.80878000  0.02366000  1.0
  H  H22  1  0.90130000  0.30878000  0.47634000  1.0
  H  H23  1  0.59871000  0.19122000  0.97634000  1.0
  H  H24  1  0.34532000  0.48839000  0.56250000  1.0
  H  H25  1  0.15468000  0.01162000  0.06250000  1.0
  H  H26  1  0.65469000  0.51162000  0.43750000  1.0
  H  H27  1  0.84532000  0.98838000  0.93750000  1.0
  H  H28  1  0.31077000  0.26728000  0.30995000  1.0
  H  H29  1  0.18923000  0.23272000  0.80995000  1.0
  H  H30  1  0.68922000  0.73272000  0.69006000  1.0
  H  H31  1  0.81077000  0.76728000  0.19005000  1.0
  H  H32  1  0.16263000  0.75025000  0.33891000  1.0
  H  H33  1  0.33737000  0.74975000  0.83891000  1.0
  H  H34  1  0.83737000  0.24975000  0.66109000  1.0
  H  H35  1  0.66263000  0.25025000  0.16109000  1.0
  H  H36  1  0.44860000  0.27428000  0.47491000  1.0
  H  H37  1  0.05141000  0.22572000  0.97491000  1.0
  H  H38  1  0.55140000  0.72572000  0.52509000  1.0
  H  H39  1  0.94860000  0.77428000  0.02509000  1.0
  H  H40  1  0.99928000  0.25076000  0.14994000  1.0
  H  H41  1  0.50073000  0.24924000  0.64994000  1.0
  H  H42  1  0.00072000  0.74924000  0.85006000  1.0
  H  H43  1  0.49927000  0.75076000  0.35006000  1.0
  C  C44  1  0.96536000  0.87152000  0.38847000  1.0
  C  C45  1  0.53464000  0.62848000  0.88847000  1.0
  C  C46  1  0.03463000  0.12849000  0.61153000  1.0
  C  C47  1  0.46536000  0.37152000  0.11153000  1.0
  C  C48  1  0.85035000  0.89873000  0.46250000  1.0
  C  C49  1  0.64965000  0.60127000  0.96250000  1.0
  C  C50  1  0.14965000  0.10127000  0.53750000  1.0
  C  C51  1  0.35035000  0.39873000  0.03750000  1.0
  C  C52  1  0.75438000  0.02262000  0.47118000  1.0
  C  C53  1  0.74562000  0.47737000  0.97118000  1.0
  C  C54  1  0.24562000  0.97737000  0.52882000  1.0
  C  C55  1  0.25438000  0.52263000  0.02882000  1.0
  C  C56  1  0.77116000  0.12075000  0.40574000  1.0
  C  C57  1  0.72884000  0.37925000  0.90574000  1.0
  C  C58  1  0.22884000  0.87926000  0.59426000  1.0
  C  C59  1  0.27116000  0.62074000  0.09426000  1.0
  C  C60  1  0.88858000  0.09528000  0.33333333  1.0
  C  C61  1  0.61143000  0.40472000  0.83341000  1.0
  C  C62  1  0.11142000  0.90472000  0.66660000  1.0
  C  C63  1  0.38858000  0.59528000  0.16660000  1.0
  C  C64  1  0.98461000  0.97237000  0.32413000  1.0
  C  C65  1  0.51539000  0.52763000  0.82414000  1.0
  C  C66  1  0.01538000  0.02763000  0.67587000  1.0
  C  C67  1  0.48462000  0.47237000  0.17587000  1.0
  C  C68  1  0.06795000  0.65283000  0.45328000  1.0
  C  C69  1  0.43205000  0.84717000  0.95328000  1.0
  C  C70  1  0.93205000  0.34717000  0.54672000  1.0
  C  C71  1  0.56795000  0.15283000  0.04672000  1.0
  C  C72  1  0.18505000  0.53105000  0.43271000  1.0
  C  C73  1  0.31495000  0.96895000  0.93271000  1.0
  C  C74  1  0.81495000  0.46895000  0.56729000  1.0
  C  C75  1  0.68505000  0.03105000  0.06729000  1.0
  C  C76  1  0.30404000  0.46528000  0.49167000  1.0
  C  C77  1  0.19595000  0.03472000  0.99167000  1.0
  C  C78  1  0.69596000  0.53472000  0.50833000  1.0
  C  C79  1  0.80405000  0.96528000  0.00833000  1.0
  C  C80  1  0.28724000  0.34757000  0.36064000  1.0
  C  C81  1  0.21276000  0.15243000  0.86064000  1.0
  C  C82  1  0.71276000  0.65243000  0.63936000  1.0
  C  C83  1  0.78724000  0.84757000  0.13936000  1.0
  C  C84  1  0.63862000  0.05163000  0.55325000  1.0
  C  C85  1  0.86138000  0.44838000  0.05324000  1.0
  C  C86  1  0.36137000  0.94837000  0.44675000  1.0
  C  C87  1  0.13862000  0.55163000  0.94676000  1.0
  C  C88  1  0.90379000  0.20323000  0.26678000  1.0
  C  C89  1  0.59622000  0.29677000  0.76678000  1.0
  C  C90  1  0.09621000  0.79677000  0.73322000  1.0
  C  C91  1  0.40379000  0.70323000  0.23322000  1.0
  N  N92  1  0.05997000  0.74966000  0.37701000  1.0
  N  N93  1  0.44003000  0.75034000  0.87701000  1.0
  N  N94  1  0.94003000  0.25034000  0.62299000  1.0
  N  N95  1  0.55997000  0.24966000  0.12299000  1.0
  N  N96  1  0.17620000  0.45582000  0.35097000  1.0
  N  N97  1  0.32380000  0.04418000  0.85096000  1.0
  N  N98  1  0.82380000  0.54418000  0.64904000  1.0
  N  N99  1  0.67620000  0.95582000  0.14903000  1.0
  N  N100  1  0.36638000  0.35041000  0.44497000  1.0
  N  N101  1  0.13362000  0.14959000  0.94498000  1.0
  N  N102  1  0.63362000  0.64959000  0.55502000  1.0
  N  N103  1  0.86638000  0.85041000  0.05502000  1.0
  O  O104  1  0.63546000  0.96039000  0.61427000  1.0
  O  O105  1  0.86453000  0.53961000  0.11427000  1.0
  O  O106  1  0.36453000  0.03961000  0.38573000  1.0
  O  O107  1  0.13547000  0.46039000  0.88573000  1.0
  O  O108  1  0.55095000  0.16499000  0.55824000  1.0
  O  O109  1  0.94905000  0.33502000  0.05823000  1.0
  O  O110  1  0.44904000  0.83501000  0.44177000  1.0
  O  O111  1  0.05095000  0.66499000  0.94177000  1.0
  O  O112  1  0.81388000  0.31147000  0.27192000  1.0
  O  O113  1  0.68612000  0.18853000  0.77192000  1.0
  O  O114  1  0.18612000  0.68853000  0.72808000  1.0
  O  O115  1  0.31388000  0.81147000  0.22808000  1.0
  O  O116  1  0.01767000  0.17571000  0.19935000  1.0
  O  O117  1  0.48234000  0.32429000  0.69935000  1.0
  O  O118  1  0.98233000  0.82429000  0.80065000  1.0
  O  O119  1  0.51766000  0.67571000  0.30065000  1.0
