# generated using pymatgen
data_ZnH8C21N(O3F)2
_symmetry_space_group_name_H-M   'P 1'
_cell_length_a   10.97850000
_cell_length_b   14.84450000
_cell_length_c   16.18090000
_cell_angle_alpha   89.23340000
_cell_angle_beta   89.16520000
_cell_angle_gamma   89.56430000
_symmetry_Int_Tables_number   1
_chemical_formula_structural   ZnH8C21N(O3F)2
_chemical_formula_sum   'Zn2 H16 C42 N2 O12 F4'
_cell_volume   2636.41852855
_cell_formula_units_Z   2
loop_
 _symmetry_equiv_pos_site_id
 _symmetry_equiv_pos_as_xyz
  1  'x, y, z'
loop_
 _atom_site_type_symbol
 _atom_site_label
 _atom_site_symmetry_multiplicity
 _atom_site_fract_x
 _atom_site_fract_y
 _atom_site_fract_z
 _atom_site_occupancy
  Zn  Zn0  1  0.49744000  0.59527000  0.49821000  1.0
  Zn  Zn1  1  0.50252000  0.40473000  0.50179000  1.0
  H  H2  1  0.32463000  0.91370000  0.56089000  1.0
  H  H3  1  0.67537000  0.08631000  0.43912000  1.0
  H  H4  1  0.32373000  0.34224000  0.24034000  1.0
  H  H5  1  0.67625000  0.65777000  0.75967000  1.0
  H  H6  1  0.20568000  0.45699000  0.31789000  1.0
  H  H7  1  0.79428000  0.54302000  0.68210000  1.0
  H  H8  1  0.19304000  0.13658000  0.41042000  1.0
  H  H9  1  0.80695000  0.86344000  0.58959000  1.0
  H  H10  1  0.88831000  0.37658000  0.43389000  1.0
  H  H11  1  0.11165000  0.62343000  0.56610000  1.0
  H  H12  1  0.57324000  0.63647000  0.92329000  1.0
  H  H13  1  0.42724000  0.36349000  0.07670000  1.0
  H  H14  1  0.57104000  0.63309000  0.07743000  1.0
  H  H15  1  0.42947000  0.36685000  0.92255000  1.0
  H  H16  1  0.43760000  0.13537000  0.18590000  1.0
  H  H17  1  0.56242000  0.86466000  0.81412000  1.0
  C  C18  1  0.49631000  0.49937000  0.66104000  1.0
  C  C19  1  0.50376000  0.50062000  0.33895000  1.0
  C  C20  1  0.87260000  0.49653000  0.50526000  1.0
  C  C21  1  0.12736000  0.50348000  0.49473000  1.0
  C  C22  1  0.93432000  0.56750000  0.54346000  1.0
  C  C23  1  0.06563000  0.43251000  0.45653000  1.0
  C  C24  1  0.54025000  0.57519000  0.04291000  1.0
  C  C25  1  0.46027000  0.42475000  0.95707000  1.0
  C  C26  1  0.49904000  0.49828000  0.08704000  1.0
  C  C27  1  0.50141000  0.50168000  0.91294000  1.0
  C  C28  1  0.45902000  0.42300000  0.04277000  1.0
  C  C29  1  0.54148000  0.57695000  0.95722000  1.0
  C  C30  1  0.49911000  0.49740000  0.17447000  1.0
  C  C31  1  0.50124000  0.50258000  0.82552000  1.0
  C  C32  1  0.49899000  0.50093000  0.75028000  1.0
  C  C33  1  0.50125000  0.49906000  0.24971000  1.0
  C  C34  1  0.40097000  0.95105000  0.53436000  1.0
  C  C35  1  0.59903000  0.04896000  0.46565000  1.0
  C  C36  1  0.50321000  0.90611000  0.50126000  1.0
  C  C37  1  0.49679000  0.09390000  0.49875000  1.0
  C  C38  1  0.60076000  0.95585000  0.46741000  1.0
  C  C39  1  0.39923000  0.04416000  0.53260000  1.0
  C  C40  1  0.26382000  0.50736000  0.49686000  1.0
  C  C41  1  0.73615000  0.49264000  0.50314000  1.0
  C  C42  1  0.50774000  0.81074000  0.50137000  1.0
  C  C43  1  0.49225000  0.18927000  0.49863000  1.0
  C  C44  1  0.26749000  0.32198000  0.29321000  1.0
  C  C45  1  0.73249000  0.67803000  0.70679000  1.0
  C  C46  1  0.20145000  0.38634000  0.33708000  1.0
  C  C47  1  0.79851000  0.61367000  0.66291000  1.0
  C  C48  1  0.13150000  0.36330000  0.40747000  1.0
  C  C49  1  0.86847000  0.63671000  0.59252000  1.0
  C  C50  1  0.12810000  0.27184000  0.42993000  1.0
  C  C51  1  0.87187000  0.72817000  0.57006000  1.0
  C  C52  1  0.19501000  0.20642000  0.38899000  1.0
  C  C53  1  0.80498000  0.79359000  0.61102000  1.0
  C  C54  1  0.26636000  0.23176000  0.32003000  1.0
  C  C55  1  0.73363000  0.76825000  0.67998000  1.0
  C  C56  1  0.93870000  0.43008000  0.46327000  1.0
  C  C57  1  0.06126000  0.56993000  0.53672000  1.0
  C  C58  1  0.34403000  0.16177000  0.28121000  1.0
  C  C59  1  0.65597000  0.83825000  0.71880000  1.0
  N  N60  1  0.49108000  0.26736000  0.49900000  1.0
  N  N61  1  0.50889000  0.73265000  0.50101000  1.0
  O  O62  1  0.49057000  0.57587000  0.62457000  1.0
  O  O63  1  0.50944000  0.42413000  0.37544000  1.0
  O  O64  1  0.50070000  0.42206000  0.62799000  1.0
  O  O65  1  0.49930000  0.57793000  0.37200000  1.0
  O  O66  1  0.31168000  0.58515000  0.49605000  1.0
  O  O67  1  0.68829000  0.41485000  0.50396000  1.0
  O  O68  1  0.32000000  0.43222000  0.50109000  1.0
  O  O69  1  0.67996000  0.56778000  0.49891000  1.0
  O  O70  1  0.37130000  0.08926000  0.31372000  1.0
  O  O71  1  0.38588000  0.18557000  0.20414000  1.0
  O  O72  1  0.62871000  0.91076000  0.68630000  1.0
  O  O73  1  0.61413000  0.81445000  0.79588000  1.0
  F  F74  1  0.05983000  0.24598000  0.49724000  1.0
  F  F75  1  0.94013000  0.75403000  0.50276000  1.0
  F  F76  1  0.30207000  0.08871000  0.56390000  1.0
  F  F77  1  0.69793000  0.91131000  0.43611000  1.0
