# generated using pymatgen
data_CdH28C27(N2O3)2
_symmetry_space_group_name_H-M   'P 1'
_cell_length_a   8.81406000
_cell_length_b   10.41860000
_cell_length_c   14.72100000
_cell_angle_alpha   86.80560000
_cell_angle_beta   87.92310000
_cell_angle_gamma   77.42000000
_symmetry_Int_Tables_number   1
_chemical_formula_structural   CdH28C27(N2O3)2
_chemical_formula_sum   'Cd2 H56 C54 N8 O12'
_cell_volume   1316.92514853
_cell_formula_units_Z   2
loop_
 _symmetry_equiv_pos_site_id
 _symmetry_equiv_pos_as_xyz
  1  'x, y, z'
loop_
 _atom_site_type_symbol
 _atom_site_label
 _atom_site_symmetry_multiplicity
 _atom_site_fract_x
 _atom_site_fract_y
 _atom_site_fract_z
 _atom_site_occupancy
  Cd  Cd0  1  0.34835000  0.39050000  0.03213000  1.0
  Cd  Cd1  1  0.65164000  0.60950000  0.96787000  1.0
  H  H2  1  0.48120000  0.12998000  0.74541000  1.0
  H  H3  1  0.51880000  0.87002000  0.25460000  1.0
  H  H4  1  0.29400000  0.46876000  0.50719000  1.0
  H  H5  1  0.70600000  0.53124000  0.49281000  1.0
  H  H6  1  0.07729000  0.56418000  0.91883000  1.0
  H  H7  1  0.92271000  0.43582000  0.08117000  1.0
  H  H8  1  0.95806000  0.58236000  0.76784000  1.0
  H  H9  1  0.04194000  0.41764000  0.23216000  1.0
  H  H10  1  0.10234000  0.44119000  0.64244000  1.0
  H  H11  1  0.89767000  0.55881000  0.35756000  1.0
  H  H12  1  0.46416000  0.28992000  0.83522000  1.0
  H  H13  1  0.53584000  0.71008000  0.16478000  1.0
  H  H14  1  0.56023000  0.12561000  0.54865000  1.0
  H  H15  1  0.43977000  0.87439000  0.45135000  1.0
  H  H16  1  0.47442000  0.99889000  0.59714000  1.0
  H  H17  1  0.52558000  0.00111000  0.40286000  1.0
  H  H18  1  0.69701000  0.93563000  0.70766000  1.0
  H  H19  1  0.30299000  0.06437000  0.29235000  1.0
  H  H20  1  0.78239000  0.05927000  0.65315000  1.0
  H  H21  1  0.21761000  0.94072000  0.34686000  1.0
  H  H22  1  0.70718000  0.81987000  0.56380000  1.0
  H  H23  1  0.29281000  0.18013000  0.43621000  1.0
  H  H24  1  0.77743000  0.94529000  0.50275000  1.0
  H  H25  1  0.22257000  0.05471000  0.49725000  1.0
  H  H26  1  0.95341000  0.77935000  0.65974000  1.0
  H  H27  1  0.04658000  0.22063000  0.34026000  1.0
  H  H28  1  0.02039000  0.89498000  0.58561000  1.0
  H  H29  1  0.97961000  0.10502000  0.41439000  1.0
  H  H30  1  0.95378000  0.63031000  0.53637000  1.0
  H  H31  1  0.04622000  0.36969000  0.46363000  1.0
  H  H32  1  0.98438000  0.75111000  0.45258000  1.0
  H  H33  1  0.01561000  0.24889000  0.54742000  1.0
  H  H34  1  0.23959000  0.75296000  0.51272000  1.0
  H  H35  1  0.76040000  0.24705000  0.48728000  1.0
  H  H36  1  0.21485000  0.63719000  0.60234000  1.0
  H  H37  1  0.78515000  0.36281000  0.39766000  1.0
  H  H38  1  0.49402000  0.34769000  0.44247000  1.0
  H  H39  1  0.50598000  0.65231000  0.55754000  1.0
  H  H40  1  0.64599000  0.18412000  0.33677000  1.0
  H  H41  1  0.35401000  0.81588000  0.66323000  1.0
  H  H42  1  0.60078000  0.21926000  0.16853000  1.0
  H  H43  1  0.39921000  0.78074000  0.83147000  1.0
  H  H44  1  0.26796000  0.56048000  0.20753000  1.0
  H  H45  1  0.73205000  0.43952000  0.79247000  1.0
  H  H46  1  0.34527000  0.91874000  0.01320000  1.0
  H  H47  1  0.65473000  0.08125000  0.98680000  1.0
  H  H48  1  0.99365000  0.14934000  0.18228000  1.0
  H  H49  1  0.00635000  0.85067000  0.81771000  1.0
  H  H50  1  0.01408000  0.73449000  0.16239000  1.0
  H  H51  1  0.98592000  0.26551000  0.83762000  1.0
  H  H52  1  0.74332000  0.96377000  0.21509000  1.0
  H  H53  1  0.25668000  0.03624000  0.78491000  1.0
  H  H54  1  0.84733000  0.03486000  0.29282000  1.0
  H  H55  1  0.15268000  0.96515000  0.70718000  1.0
  H  H56  1  0.86873000  0.86124000  0.29403000  1.0
  H  H57  1  0.13127000  0.13878000  0.70597000  1.0
  C  C58  1  0.13646000  0.50638000  0.86342000  1.0
  C  C59  1  0.86354000  0.49362000  0.13658000  1.0
  C  C60  1  0.07060000  0.51602000  0.77790000  1.0
  C  C61  1  0.92940000  0.48398000  0.22210000  1.0
  C  C62  1  0.15027000  0.43946000  0.70983000  1.0
  C  C63  1  0.84973000  0.56054000  0.29017000  1.0
  C  C64  1  0.29460000  0.35564000  0.72850000  1.0
  C  C65  1  0.70540000  0.64436000  0.27151000  1.0
  C  C66  1  0.35196000  0.35168000  0.81600000  1.0
  C  C67  1  0.64804000  0.64832000  0.18400000  1.0
  C  C68  1  0.37834000  0.27489000  0.65412000  1.0
  C  C69  1  0.62166000  0.72511000  0.34588000  1.0
  C  C70  1  0.54939000  0.06701000  0.61196000  1.0
  C  C71  1  0.45062000  0.93299000  0.38804000  1.0
  C  C72  1  0.70787000  0.98978000  0.64201000  1.0
  C  C73  1  0.29213000  0.01022000  0.35800000  1.0
  C  C74  1  0.77934000  0.89280000  0.57017000  1.0
  C  C75  1  0.22065000  0.10719000  0.42983000  1.0
  C  C76  1  0.94626000  0.82186000  0.58930000  1.0
  C  C77  1  0.05374000  0.17813000  0.41071000  1.0
  C  C78  1  0.01031000  0.71421000  0.52306000  1.0
  C  C79  1  0.98969000  0.28579000  0.47694000  1.0
  C  C80  1  0.18609000  0.66858000  0.53149000  1.0
  C  C81  1  0.81391000  0.33142000  0.46851000  1.0
  C  C82  1  0.28358000  0.58295000  0.38530000  1.0
  C  C83  1  0.71643000  0.41704000  0.61471000  1.0
  C  C84  1  0.37113000  0.46953000  0.33262000  1.0
  C  C85  1  0.62887000  0.53047000  0.66738000  1.0
  C  C86  1  0.47633000  0.36043000  0.36938000  1.0
  C  C87  1  0.52368000  0.63957000  0.63062000  1.0
  C  C88  1  0.56040000  0.26860000  0.31065000  1.0
  C  C89  1  0.43960000  0.73140000  0.68935000  1.0
  C  C90  1  0.53617000  0.28685000  0.21750000  1.0
  C  C91  1  0.46383000  0.71315000  0.78250000  1.0
  C  C92  1  0.35172000  0.47865000  0.23845000  1.0
  C  C93  1  0.64829000  0.52135000  0.76155000  1.0
  C  C94  1  0.25658000  0.68201000  0.04638000  1.0
  C  C95  1  0.74342000  0.31798000  0.95363000  1.0
  C  C96  1  0.18354000  0.81389000  0.08240000  1.0
  C  C97  1  0.81646000  0.18611000  0.91760000  1.0
  C  C98  1  0.24335000  0.92554000  0.05840000  1.0
  C  C99  1  0.75665000  0.07445000  0.94160000  1.0
  C  C100  1  0.17238000  0.04641000  0.09406000  1.0
  C  C101  1  0.82762000  0.95359000  0.90594000  1.0
  C  C102  1  0.04535000  0.05390000  0.15505000  1.0
  C  C103  1  0.95466000  0.94610000  0.84494000  1.0
  C  C104  1  0.98770000  0.94261000  0.18171000  1.0
  C  C105  1  0.01230000  0.05740000  0.81829000  1.0
  C  C106  1  0.05663000  0.82328000  0.14370000  1.0
  C  C107  1  0.94337000  0.17673000  0.85631000  1.0
  C  C108  1  0.85478000  0.95100000  0.24962000  1.0
  C  C109  1  0.14522000  0.04901000  0.75038000  1.0
  C  C110  1  0.23234000  0.16842000  0.07028000  1.0
  C  C111  1  0.76766000  0.83157000  0.92970000  1.0
  N  N112  1  0.27410000  0.42561000  0.88154000  1.0
  N  N113  1  0.72590000  0.57439000  0.11846000  1.0
  N  N114  1  0.47063000  0.15822000  0.67842000  1.0
  N  N115  1  0.52937000  0.84178000  0.32159000  1.0
  N  N116  1  0.25825000  0.56037000  0.47537000  1.0
  N  N117  1  0.74175000  0.43964000  0.52462000  1.0
  N  N118  1  0.43142000  0.38968000  0.18241000  1.0
  N  N119  1  0.56858000  0.61032000  0.81759000  1.0
  O  O120  1  0.18360000  0.58926000  0.06259000  1.0
  O  O121  1  0.81638000  0.41074000  0.93741000  1.0
  O  O122  1  0.38662000  0.66689000  0.00359000  1.0
  O  O123  1  0.61338000  0.33309000  0.99643000  1.0
  O  O124  1  0.16402000  0.27518000  0.10678000  1.0
  O  O125  1  0.83600000  0.72482000  0.89321000  1.0
  O  O126  1  0.34977000  0.16209000  0.01609000  1.0
  O  O127  1  0.65023000  0.83790000  0.98389000  1.0
  O  O128  1  0.35819000  0.31363000  0.57240000  1.0
  O  O129  1  0.64181000  0.68637000  0.42761000  1.0
  O  O130  1  0.23944000  0.69298000  0.34570000  1.0
  O  O131  1  0.76055000  0.30703000  0.65429000  1.0
