# generated using pymatgen
data_CuH6C5N8
_symmetry_space_group_name_H-M   'P 1'
_cell_length_a   5.15359000
_cell_length_b   9.01292000
_cell_length_c   10.09850000
_cell_angle_alpha   105.50500000
_cell_angle_beta   90.12850000
_cell_angle_gamma   100.55500000
_symmetry_Int_Tables_number   1
_chemical_formula_structural   CuH6C5N8
_chemical_formula_sum   'Cu2 H12 C10 N16'
_cell_volume   443.69586135
_cell_formula_units_Z   2
loop_
 _symmetry_equiv_pos_site_id
 _symmetry_equiv_pos_as_xyz
  1  'x, y, z'
loop_
 _atom_site_type_symbol
 _atom_site_label
 _atom_site_symmetry_multiplicity
 _atom_site_fract_x
 _atom_site_fract_y
 _atom_site_fract_z
 _atom_site_occupancy
  Cu  Cu0  1  0.61477000  0.84968000  0.51143000  1.0
  Cu  Cu1  1  0.38524000  0.15032000  0.48858000  1.0
  H  H2  1  0.59465000  0.43341000  0.91061000  1.0
  H  H3  1  0.40536000  0.56659000  0.08939000  1.0
  H  H4  1  0.38489000  0.40969000  0.77047000  1.0
  H  H5  1  0.61511000  0.59031000  0.22954000  1.0
  H  H6  1  0.42034000  0.59676000  0.63623000  1.0
  H  H7  1  0.57966000  0.40323000  0.36377000  1.0
  H  H8  1  0.96577000  0.66666667  0.98436000  1.0
  H  H9  1  0.03424000  0.33333333  0.01564000  1.0
  H  H10  1  0.20888000  0.90278000  0.92488000  1.0
  H  H11  1  0.79112000  0.09723000  0.07511000  1.0
  H  H12  1  0.04083000  0.97900000  0.72211000  1.0
  H  H13  1  0.95916000  0.02100000  0.27788000  1.0
  C  C14  1  0.59317000  0.66110000  0.70337000  1.0
  C  C15  1  0.40683000  0.33890000  0.29662000  1.0
  C  C16  1  0.66852000  0.61138000  0.81635000  1.0
  C  C17  1  0.33147000  0.38862000  0.18365000  1.0
  C  C18  1  0.89730000  0.70026000  0.89622000  1.0
  C  C19  1  0.10270000  0.29975000  0.10377000  1.0
  C  C20  1  0.03345000  0.83230000  0.86319000  1.0
  C  C21  1  0.96655000  0.16771000  0.13680000  1.0
  C  C22  1  0.94384000  0.87562000  0.75135000  1.0
  C  C23  1  0.05615000  0.12438000  0.24864000  1.0
  N  N24  1  0.49833000  0.95236000  0.37025000  1.0
  N  N25  1  0.50168000  0.04762000  0.62975000  1.0
  N  N26  1  0.47163000  0.89775000  0.24645000  1.0
  N  N27  1  0.52838000  0.10224000  0.75355000  1.0
  N  N28  1  0.44876000  0.84606000  0.12763000  1.0
  N  N29  1  0.55123000  0.15395000  0.87237000  1.0
  N  N30  1  0.23268000  0.66963000  0.46413000  1.0
  N  N31  1  0.76732000  0.33037000  0.53587000  1.0
  N  N32  1  0.04290000  0.70299000  0.42479000  1.0
  N  N33  1  0.95710000  0.29701000  0.57521000  1.0
  N  N34  1  0.85212000  0.73758000  0.38145000  1.0
  N  N35  1  0.14787000  0.26243000  0.61856000  1.0
  N  N36  1  0.72766000  0.78884000  0.67345000  1.0
  N  N37  1  0.27234000  0.21116000  0.32654000  1.0
  N  N38  1  0.51608000  0.48455000  0.84595000  1.0
  N  N39  1  0.48392000  0.51545000  0.15406000  1.0
