# generated using pymatgen
data_ZnH5C10N3O4
_symmetry_space_group_name_H-M   'P 1'
_cell_length_a   9.68439000
_cell_length_b   10.57270000
_cell_length_c   11.15710000
_cell_angle_alpha   90.00000000
_cell_angle_beta   90.00000000
_cell_angle_gamma   89.99970000
_symmetry_Int_Tables_number   1
_chemical_formula_structural   ZnH5C10N3O4
_chemical_formula_sum   'Zn4 H20 C40 N12 O16'
_cell_volume   1142.37714426
_cell_formula_units_Z   4
loop_
 _symmetry_equiv_pos_site_id
 _symmetry_equiv_pos_as_xyz
  1  'x, y, z'
loop_
 _atom_site_type_symbol
 _atom_site_label
 _atom_site_symmetry_multiplicity
 _atom_site_fract_x
 _atom_site_fract_y
 _atom_site_fract_z
 _atom_site_occupancy
  Zn  Zn0  1  0.85472000  0.88326000  0.32079000  1.0
  Zn  Zn1  1  0.64528000  0.11674000  0.82079000  1.0
  Zn  Zn2  1  0.14528000  0.38326000  0.17921000  1.0
  Zn  Zn3  1  0.35472000  0.61674000  0.67921000  1.0
  H  H4  1  0.30075000  0.92770000  0.53269000  1.0
  H  H5  1  0.19925000  0.07230000  0.03269000  1.0
  H  H6  1  0.69925000  0.42770000  0.96731000  1.0
  H  H7  1  0.80075000  0.57230000  0.46731000  1.0
  H  H8  1  0.33715000  0.95611000  0.30884000  1.0
  H  H9  1  0.16285000  0.04389000  0.80884000  1.0
  H  H10  1  0.66285000  0.45611000  0.19116000  1.0
  H  H11  1  0.83716000  0.54389000  0.69116000  1.0
  H  H12  1  0.57407000  0.93654000  0.22749000  1.0
  H  H13  1  0.92593000  0.06346000  0.72749000  1.0
  H  H14  1  0.42593000  0.43654000  0.27251000  1.0
  H  H15  1  0.07407000  0.56346000  0.77251000  1.0
  H  H16  1  0.74111000  0.87200000  0.56485000  1.0
  H  H17  1  0.75889000  0.12800000  0.06485000  1.0
  H  H18  1  0.25889000  0.37200000  0.93515000  1.0
  H  H19  1  0.24111000  0.62800000  0.43515000  1.0
  H  H20  1  0.33449000  0.83980000  0.06321000  1.0
  H  H21  1  0.16551000  0.16020000  0.56321000  1.0
  H  H22  1  0.66551000  0.33980000  0.43679000  1.0
  H  H23  1  0.83449000  0.66020000  0.93679000  1.0
  C  C24  1  0.31059000  0.72283000  0.92837000  1.0
  C  C25  1  0.18941000  0.27717000  0.42836000  1.0
  C  C26  1  0.68941000  0.22284000  0.57163000  1.0
  C  C27  1  0.81059000  0.77717000  0.07164000  1.0
  C  C28  1  0.39498000  0.81017000  0.85716000  1.0
  C  C29  1  0.10502000  0.18983000  0.35716000  1.0
  C  C30  1  0.60503000  0.31017000  0.64284000  1.0
  C  C31  1  0.89497000  0.68983000  0.14284000  1.0
  C  C32  1  0.46546000  0.92081000  0.88469000  1.0
  C  C33  1  0.03454000  0.07919000  0.38469000  1.0
  C  C34  1  0.53454000  0.42081000  0.61531000  1.0
  C  C35  1  0.96546000  0.57919000  0.11531000  1.0
  C  C36  1  0.46960000  0.99811000  0.99481000  1.0
  C  C37  1  0.03040000  0.00189000  0.49481000  1.0
  C  C38  1  0.53041000  0.49810000  0.50519000  1.0
  C  C39  1  0.96960000  0.50190000  0.00519000  1.0
  C  C40  1  0.49505000  0.88026000  0.69486000  1.0
  C  C41  1  0.00495000  0.11974000  0.19486000  1.0
  C  C42  1  0.50495000  0.38026000  0.80514000  1.0
  C  C43  1  0.99505000  0.61974000  0.30514000  1.0
  C  C44  1  0.51804000  0.89691000  0.56538000  1.0
  C  C45  1  0.98196000  0.10309000  0.06538000  1.0
  C  C46  1  0.48196000  0.39691000  0.93462000  1.0
  C  C47  1  0.01804000  0.60309000  0.43462000  1.0
  C  C48  1  0.40301000  0.91990000  0.49221000  1.0
  C  C49  1  0.09699000  0.08010000  0.99221000  1.0
  C  C50  1  0.59699000  0.41990000  0.00780000  1.0
  C  C51  1  0.90301000  0.58010000  0.50779000  1.0
  C  C52  1  0.42224000  0.93570000  0.36960000  1.0
  C  C53  1  0.07776000  0.06430000  0.86960000  1.0
  C  C54  1  0.57776000  0.43570000  0.13040000  1.0
  C  C55  1  0.92224000  0.56430000  0.63040000  1.0
  C  C56  1  0.55480000  0.92588000  0.32296000  1.0
  C  C57  1  0.94520000  0.07412000  0.82296000  1.0
  C  C58  1  0.44520000  0.42588000  0.17704000  1.0
  C  C59  1  0.05480000  0.57412000  0.67704000  1.0
  C  C60  1  0.64803000  0.88897000  0.51247000  1.0
  C  C61  1  0.85197000  0.11103000  0.01247000  1.0
  C  C62  1  0.35197000  0.38897000  0.98753000  1.0
  C  C63  1  0.14803000  0.61103000  0.48752000  1.0
  N  N64  1  0.41489000  0.78586000  0.73761000  1.0
  N  N65  1  0.08511000  0.21414000  0.23761000  1.0
  N  N66  1  0.58511000  0.28586000  0.76239000  1.0
  N  N67  1  0.91489000  0.71414000  0.26239000  1.0
  N  N68  1  0.52943000  0.96309000  0.78255000  1.0
  N  N69  1  0.97057000  0.03691000  0.28256000  1.0
  N  N70  1  0.47057000  0.46309000  0.71744000  1.0
  N  N71  1  0.02943000  0.53691000  0.21744000  1.0
  N  N72  1  0.66516000  0.90216000  0.39325000  1.0
  N  N73  1  0.83484000  0.09784000  0.89325000  1.0
  N  N74  1  0.33484000  0.40216000  0.10675000  1.0
  N  N75  1  0.16516000  0.59784000  0.60675000  1.0
  O  O76  1  0.26379000  0.62539000  0.87982000  1.0
  O  O77  1  0.23620000  0.37461000  0.37982000  1.0
  O  O78  1  0.73621000  0.12538000  0.62019000  1.0
  O  O79  1  0.76379000  0.87462000  0.12018000  1.0
  O  O80  1  0.28731000  0.75090000  0.04145000  1.0
  O  O81  1  0.21269000  0.24911000  0.54145000  1.0
  O  O82  1  0.71269000  0.25089000  0.45856000  1.0
  O  O83  1  0.78731000  0.74911000  0.95855000  1.0
  O  O84  1  0.39855000  0.96090000  0.08473000  1.0
  O  O85  1  0.10145000  0.03910000  0.58473000  1.0
  O  O86  1  0.60145000  0.46090000  0.41527000  1.0
  O  O87  1  0.89855000  0.53910000  0.91527000  1.0
  O  O88  1  0.53937000  0.09998000  0.99058000  1.0
  O  O89  1  0.96063000  0.90002000  0.49058000  1.0
  O  O90  1  0.46063000  0.59998000  0.50942000  1.0
  O  O91  1  0.03937000  0.40002000  0.00942000  1.0
