# generated using pymatgen
data_CuH4C5I(NO)2
_symmetry_space_group_name_H-M   'P 1'
_cell_length_a   5.88091000
_cell_length_b   8.39876000
_cell_length_c   16.23435137
_cell_angle_alpha   77.48955950
_cell_angle_beta   87.17155319
_cell_angle_gamma   83.88680000
_symmetry_Int_Tables_number   1
_chemical_formula_structural   CuH4C5I(NO)2
_chemical_formula_sum   'Cu4 H16 C20 I4 N8 O8'
_cell_volume   778.07727212
_cell_formula_units_Z   4
loop_
 _symmetry_equiv_pos_site_id
 _symmetry_equiv_pos_as_xyz
  1  'x, y, z'
loop_
 _atom_site_type_symbol
 _atom_site_label
 _atom_site_symmetry_multiplicity
 _atom_site_fract_x
 _atom_site_fract_y
 _atom_site_fract_z
 _atom_site_occupancy
  Cu  Cu0  1  0.50232000  0.30753000  0.57323000  1.0
  Cu  Cu1  1  0.49768000  0.69246000  0.42677000  1.0
  Cu  Cu2  1  0.50995000  0.19310000  0.43316000  1.0
  Cu  Cu3  1  0.49006000  0.80690000  0.56684000  1.0
  H  H4  1  0.88232000  0.01994000  0.89728000  1.0
  H  H5  1  0.11768000  0.98005000  0.10272000  1.0
  H  H6  1  0.93048000  0.35023000  0.66246000  1.0
  H  H7  1  0.06953000  0.64978000  0.33753000  1.0
  H  H8  1  0.09007000  0.22602000  0.80808000  1.0
  H  H9  1  0.90993000  0.77397000  0.19192000  1.0
  H  H10  1  0.37362000  0.07194000  0.72218000  1.0
  H  H11  1  0.62637000  0.92807000  0.27782000  1.0
  H  H12  1  0.08239000  0.14545000  0.34520000  1.0
  H  H13  1  0.91761000  0.85455000  0.65480000  1.0
  H  H14  1  0.92438000  0.25841000  0.19935000  1.0
  H  H15  1  0.07561000  0.74159000  0.80065000  1.0
  H  H16  1  0.63008000  0.42786000  0.28021000  1.0
  H  H17  1  0.36991000  0.57215000  0.71979000  1.0
  H  H18  1  0.49639000  0.73289000  0.01210000  1.0
  H  H19  1  0.50362000  0.26711000  0.98790000  1.0
  C  C20  1  0.84322000  0.25918000  0.70748000  1.0
  C  C21  1  0.15679000  0.74083000  0.29252000  1.0
  C  C22  1  0.93341000  0.19179000  0.78620000  1.0
  C  C23  1  0.06659000  0.80820000  0.21380000  1.0
  C  C24  1  0.61562000  0.03839000  0.81995000  1.0
  C  C25  1  0.38437000  0.96161000  0.18005000  1.0
  C  C26  1  0.53343000  0.10758000  0.74034000  1.0
  C  C27  1  0.46656000  0.89242000  0.25966000  1.0
  C  C28  1  0.48687000  0.92149000  0.88583000  1.0
  C  C29  1  0.51315000  0.07850000  0.11418000  1.0
  C  C30  1  0.16901000  0.23394000  0.29815000  1.0
  C  C31  1  0.83098000  0.76607000  0.70185000  1.0
  C  C32  1  0.08046000  0.29932000  0.21825000  1.0
  C  C33  1  0.91953000  0.70069000  0.78175000  1.0
  C  C34  1  0.37657000  0.45749000  0.18441000  1.0
  C  C35  1  0.62341000  0.54252000  0.81559000  1.0
  C  C36  1  0.47128000  0.38931000  0.26290000  1.0
  C  C37  1  0.52869000  0.61070000  0.73710000  1.0
  C  C38  1  0.49520000  0.59253000  0.12705000  1.0
  C  C39  1  0.50479000  0.40746000  0.87294000  1.0
  I  I40  1  0.22344000  0.08527000  0.55739000  1.0
  I  I41  1  0.77657000  0.91474000  0.44260000  1.0
  I  I42  1  0.77532000  0.41980000  0.44428000  1.0
  I  I43  1  0.22469000  0.58020000  0.55572000  1.0
  N  N44  1  0.64450000  0.21613000  0.68323000  1.0
  N  N45  1  0.35549000  0.78387000  0.31677000  1.0
  N  N46  1  0.81802000  0.08026000  0.83979000  1.0
  N  N47  1  0.18197000  0.91974000  0.16021000  1.0
  N  N48  1  0.36731000  0.27823000  0.32063000  1.0
  N  N49  1  0.63267000  0.72178000  0.67937000  1.0
  N  N50  1  0.18171000  0.41208000  0.16121000  1.0
  N  N51  1  0.81828000  0.58792000  0.83879000  1.0
  O  O52  1  0.60247000  0.85933000  0.95130000  1.0
  O  O53  1  0.39753000  0.14066000  0.04870000  1.0
  O  O54  1  0.28826000  0.90230000  0.86792000  1.0
  O  O55  1  0.71175000  0.09769000  0.13208000  1.0
  O  O56  1  0.40986000  0.63943000  0.05204000  1.0
  O  O57  1  0.59015000  0.36058000  0.94796000  1.0
  O  O58  1  0.65233000  0.65150000  0.15511000  1.0
  O  O59  1  0.34773000  0.34849000  0.84489000  1.0
