# generated using pymatgen
data_NiH8(C3N2)4
_symmetry_space_group_name_H-M   'P 1'
_cell_length_a   6.86912000
_cell_length_b   9.74174000
_cell_length_c   10.42260000
_cell_angle_alpha   110.37300000
_cell_angle_beta   103.88500000
_cell_angle_gamma   104.24600000
_symmetry_Int_Tables_number   1
_chemical_formula_structural   NiH8(C3N2)4
_chemical_formula_sum   'Ni2 H16 C24 N16'
_cell_volume   591.61879777
_cell_formula_units_Z   2
loop_
 _symmetry_equiv_pos_site_id
 _symmetry_equiv_pos_as_xyz
  1  'x, y, z'
loop_
 _atom_site_type_symbol
 _atom_site_label
 _atom_site_symmetry_multiplicity
 _atom_site_fract_x
 _atom_site_fract_y
 _atom_site_fract_z
 _atom_site_occupancy
  Ni  Ni0  1  0.59576000  0.88518000  0.89655000  1.0
  Ni  Ni1  1  0.40424000  0.11481000  0.10344000  1.0
  H  H2  1  0.63685000  0.93630000  0.62106000  1.0
  H  H3  1  0.36314000  0.06370000  0.37893000  1.0
  H  H4  1  0.48374000  0.76640000  0.35161000  1.0
  H  H5  1  0.51626000  0.23360000  0.64839000  1.0
  H  H6  1  0.24151000  0.48199000  0.25745000  1.0
  H  H7  1  0.75850000  0.51801000  0.74256000  1.0
  H  H8  1  0.05471000  0.26761000  0.31680000  1.0
  H  H9  1  0.94530000  0.73239000  0.68320000  1.0
  H  H10  1  0.98204000  0.18079000  0.50349000  1.0
  H  H11  1  0.01796000  0.81921000  0.49651000  1.0
  H  H12  1  0.02399000  0.24962000  0.76978000  1.0
  H  H13  1  0.97602000  0.75038000  0.23022000  1.0
  H  H14  1  0.18570000  0.45435000  0.02976000  1.0
  H  H15  1  0.81430000  0.54565000  0.97024000  1.0
  H  H16  1  0.41269000  0.72707000  0.08758000  1.0
  H  H17  1  0.58732000  0.27293000  0.91242000  1.0
  C  C18  1  0.52613000  0.81540000  0.57627000  1.0
  C  C19  1  0.47386000  0.18459000  0.42373000  1.0
  C  C20  1  0.43820000  0.71787000  0.42446000  1.0
  C  C21  1  0.56181000  0.28214000  0.57555000  1.0
  C  C22  1  0.30669000  0.56326000  0.37350000  1.0
  C  C23  1  0.69331000  0.43673000  0.62649000  1.0
  C  C24  1  0.25751000  0.50704000  0.47426000  1.0
  C  C25  1  0.74249000  0.49297000  0.52575000  1.0
  C  C26  1  0.12233000  0.34942000  0.43272000  1.0
  C  C27  1  0.87768000  0.65057000  0.56728000  1.0
  C  C28  1  0.08154000  0.30198000  0.53588000  1.0
  C  C29  1  0.91846000  0.69802000  0.46412000  1.0
  C  C30  1  0.16765000  0.40955000  0.68773000  1.0
  C  C31  1  0.83235000  0.59046000  0.31227000  1.0
  C  C32  1  0.12512000  0.36922000  0.79859000  1.0
  C  C33  1  0.87487000  0.63077000  0.20141000  1.0
  C  C34  1  0.21332000  0.48286000  0.94203000  1.0
  C  C35  1  0.78669000  0.51715000  0.05797000  1.0
  C  C36  1  0.34317000  0.63606000  0.97545000  1.0
  C  C37  1  0.65683000  0.36393000  0.02454000  1.0
  C  C38  1  0.30157000  0.56649000  0.73185000  1.0
  C  C39  1  0.69842000  0.43351000  0.26816000  1.0
  C  C40  1  0.35009000  0.61438000  0.62452000  1.0
  C  C41  1  0.64991000  0.38562000  0.37547000  1.0
  N  N42  1  0.48515000  0.76489000  0.67379000  1.0
  N  N43  1  0.51485000  0.23512000  0.32621000  1.0
  N  N44  1  0.38681000  0.67719000  0.87342000  1.0
  N  N45  1  0.61320000  0.32281000  0.12658000  1.0
  N  N46  1  0.80631000  0.07413000  0.89111000  1.0
  N  N47  1  0.19369000  0.92588000  0.10890000  1.0
  N  N48  1  0.98380000  0.13801000  0.97958000  1.0
  N  N49  1  0.01618000  0.86198000  0.02041000  1.0
  N  N50  1  0.16074000  0.20800000  0.06826000  1.0
  N  N51  1  0.83927000  0.79200000  0.93174000  1.0
  N  N52  1  0.34046000  0.98240000  0.88171000  1.0
  N  N53  1  0.65954000  0.01760000  0.11829000  1.0
  N  N54  1  0.29586000  0.02482000  0.78635000  1.0
  N  N55  1  0.70414000  0.97518000  0.21365000  1.0
  N  N56  1  0.25243000  0.06324000  0.69181000  1.0
  N  N57  1  0.74757000  0.93677000  0.30819000  1.0
