# generated using pymatgen
data_FeH14C16(NO3)2
_symmetry_space_group_name_H-M   'P 1'
_cell_length_a   7.84918000
_cell_length_b   11.61530000
_cell_length_c   12.24994916
_cell_angle_alpha   118.15785782
_cell_angle_beta   100.11080869
_cell_angle_gamma   90.09610000
_symmetry_Int_Tables_number   1
_chemical_formula_structural   FeH14C16(NO3)2
_chemical_formula_sum   'Fe2 H28 C32 N4 O12'
_cell_volume   964.75973314
_cell_formula_units_Z   2
loop_
 _symmetry_equiv_pos_site_id
 _symmetry_equiv_pos_as_xyz
  1  'x, y, z'
loop_
 _atom_site_type_symbol
 _atom_site_label
 _atom_site_symmetry_multiplicity
 _atom_site_fract_x
 _atom_site_fract_y
 _atom_site_fract_z
 _atom_site_occupancy
  Fe  Fe0  1  0.00000000  0.50000000  0.50000000  1.0
  Fe  Fe1  1  0.50000000  0.00000000  0.50000000  1.0
  H  H2  1  0.16543000  0.29118000  0.38811000  1.0
  H  H3  1  0.33415000  0.90224000  0.61149000  1.0
  H  H4  1  0.83458000  0.70883000  0.61190000  1.0
  H  H5  1  0.66585000  0.09776000  0.38851000  1.0
  H  H6  1  0.97811000  0.23933000  0.39263000  1.0
  H  H7  1  0.52190000  0.84619000  0.60748000  1.0
  H  H8  1  0.02190000  0.76067000  0.60737000  1.0
  H  H9  1  0.47809000  0.15381000  0.39252000  1.0
  H  H10  1  0.22834000  0.68418000  0.73782000  1.0
  H  H11  1  0.27402000  0.94634000  0.25993000  1.0
  H  H12  1  0.77166000  0.31582000  0.26218000  1.0
  H  H13  1  0.72597000  0.05366000  0.74007000  1.0
  H  H14  1  0.41632000  0.67618000  0.91721000  1.0
  H  H15  1  0.08688000  0.75883000  0.08041000  1.0
  H  H16  1  0.58368000  0.32382000  0.08279000  1.0
  H  H17  1  0.91312000  0.24116000  0.91958000  1.0
  H  H18  1  0.20129000  0.27348000  0.75812000  1.0
  H  H19  1  0.29546000  0.51726000  0.24392000  1.0
  H  H20  1  0.79872000  0.72651000  0.24188000  1.0
  H  H21  1  0.70454000  0.48274000  0.75608000  1.0
  H  H22  1  0.01486000  0.30139000  0.58866000  1.0
  H  H23  1  0.48253000  0.71419000  0.41256000  1.0
  H  H24  1  0.98514000  0.69860000  0.41134000  1.0
  H  H25  1  0.51746000  0.28581000  0.58744000  1.0
  H  H26  1  0.42439000  0.35604000  0.94221000  1.0
  H  H27  1  0.07361000  0.41570000  0.06053000  1.0
  H  H28  1  0.57562000  0.64397000  0.05780000  1.0
  H  H29  1  0.92639000  0.58429000  0.93947000  1.0
  C  C30  1  0.22785000  0.59494000  0.74587000  1.0
  C  C31  1  0.27355000  0.84943000  0.25273000  1.0
  C  C32  1  0.77215000  0.40506000  0.25413000  1.0
  C  C33  1  0.72644000  0.15057000  0.74727000  1.0
  C  C34  1  0.33262000  0.58871000  0.84566000  1.0
  C  C35  1  0.16914000  0.74333000  0.15287000  1.0
  C  C36  1  0.66738000  0.41129000  0.15434000  1.0
  C  C37  1  0.83086000  0.25667000  0.84713000  1.0
  C  C38  1  0.33120000  0.47111000  0.85318000  1.0
  C  C39  1  0.16868000  0.61877000  0.14661000  1.0
  C  C40  1  0.66881000  0.52890000  0.14683000  1.0
  C  C41  1  0.83132000  0.38123000  0.85339000  1.0
  C  C42  1  0.21263000  0.36667000  0.75742000  1.0
  C  C43  1  0.28565000  0.61061000  0.24343000  1.0
  C  C44  1  0.78737000  0.63333000  0.24258000  1.0
  C  C45  1  0.71434000  0.38938000  0.75656000  1.0
  C  C46  1  0.10923000  0.38039000  0.66133000  1.0
  C  C47  1  0.38929000  0.72020000  0.33916000  1.0
  C  C48  1  0.89078000  0.61960000  0.33867000  1.0
  C  C49  1  0.61071000  0.27980000  0.66084000  1.0
  C  C50  1  0.37670000  0.53431000  0.49923000  1.0
  C  C51  1  0.12328000  0.03513000  0.50064000  1.0
  C  C52  1  0.62330000  0.46570000  0.50077000  1.0
  C  C53  1  0.87672000  0.96487000  0.49936000  1.0
  C  C54  1  0.44279000  0.40405000  0.45852000  1.0
  C  C55  1  0.05711000  0.94543000  0.54146000  1.0
  C  C56  1  0.55721000  0.59595000  0.54148000  1.0
  C  C57  1  0.94288000  0.05456000  0.45853000  1.0
  C  C58  1  0.44054000  0.45389000  0.95117000  1.0
  C  C59  1  0.05881000  0.50349000  0.04952000  1.0
  C  C60  1  0.55947000  0.54611000  0.04883000  1.0
  C  C61  1  0.94120000  0.49651000  0.95048000  1.0
  N  N62  1  0.11848000  0.49149000  0.65125000  1.0
  N  N63  1  0.38149000  0.84100000  0.34827000  1.0
  N  N64  1  0.88152000  0.50850000  0.34875000  1.0
  N  N65  1  0.61851000  0.15900000  0.65173000  1.0
  O  O66  1  0.03828000  0.30589000  0.37899000  1.0
  O  O67  1  0.46142000  0.92592000  0.62045000  1.0
  O  O68  1  0.96172000  0.69410000  0.62101000  1.0
  O  O69  1  0.53858000  0.07408000  0.37955000  1.0
  O  O70  1  0.23090000  0.58078000  0.49998000  1.0
  O  O71  1  0.26923000  0.08092000  0.49998000  1.0
  O  O72  1  0.76910000  0.41922000  0.50002000  1.0
  O  O73  1  0.73077000  0.91908000  0.50002000  1.0
  O  O74  1  0.37314000  0.28788000  0.40787000  1.0
  O  O75  1  0.12671000  0.87973000  0.59200000  1.0
  O  O76  1  0.62686000  0.71212000  0.59213000  1.0
  O  O77  1  0.87329000  0.12027000  0.40800000  1.0
