# generated using pymatgen
data_CoH24C28(NO5)2
_symmetry_space_group_name_H-M   'P 1'
_cell_length_a   7.25395000
_cell_length_b   8.00137000
_cell_length_c   10.67410000
_cell_angle_alpha   89.63620000
_cell_angle_beta   78.51760000
_cell_angle_gamma   86.32050000
_symmetry_Int_Tables_number   1
_chemical_formula_structural   CoH24C28(NO5)2
_chemical_formula_sum   'Co1 H24 C28 N2 O10'
_cell_volume   605.87700665
_cell_formula_units_Z   1
loop_
 _symmetry_equiv_pos_site_id
 _symmetry_equiv_pos_as_xyz
  1  'x, y, z'
loop_
 _atom_site_type_symbol
 _atom_site_label
 _atom_site_symmetry_multiplicity
 _atom_site_fract_x
 _atom_site_fract_y
 _atom_site_fract_z
 _atom_site_occupancy
  Co  Co0  1  0.50000000  0.00000000  0.00000000  1.0
  H  H1  1  0.83155000  0.21793000  0.98182000  1.0
  H  H2  1  0.16843000  0.78207000  0.01817000  1.0
  H  H3  1  0.92610000  0.41878000  0.95328000  1.0
  H  H4  1  0.07388000  0.58122000  0.04672000  1.0
  H  H5  1  0.94234000  0.00086000  0.83720000  1.0
  H  H6  1  0.05766000  0.99914000  0.16280000  1.0
  H  H7  1  0.08014000  0.91651000  0.60852000  1.0
  H  H8  1  0.91988000  0.08349000  0.39147000  1.0
  H  H9  1  0.23418000  0.12834000  0.45868000  1.0
  H  H10  1  0.76584000  0.87166000  0.54132000  1.0
  H  H11  1  0.07962000  0.49026000  0.76905000  1.0
  H  H12  1  0.92037000  0.50974000  0.23095000  1.0
  H  H13  1  0.22023000  0.33553000  0.33731000  1.0
  H  H14  1  0.77977000  0.66448000  0.66269000  1.0
  H  H15  1  0.34336000  0.56045000  0.19289000  1.0
  H  H16  1  0.65664000  0.43954000  0.80711000  1.0
  H  H17  1  0.40902000  0.85539000  0.51449000  1.0
  H  H18  1  0.59100000  0.14461000  0.48550000  1.0
  H  H19  1  0.29282000  0.63009000  0.66053000  1.0
  H  H20  1  0.70719000  0.36991000  0.33947000  1.0
  H  H21  1  0.62587000  0.74891000  0.88417000  1.0
  H  H22  1  0.37413000  0.25109000  0.11583000  1.0
  H  H23  1  0.50331000  0.86521000  0.80268000  1.0
  H  H24  1  0.49668000  0.13480000  0.19731000  1.0
  C  C25  1  0.11760000  0.22172000  0.01347000  1.0
  C  C26  1  0.88239000  0.77827000  0.98652000  1.0
  C  C27  1  0.95892000  0.28352000  0.94331000  1.0
  C  C28  1  0.04107000  0.71648000  0.05669000  1.0
  C  C29  1  0.00975000  0.08655000  0.76603000  1.0
  C  C30  1  0.99025000  0.91345000  0.23396000  1.0
  C  C31  1  0.08366000  0.04505000  0.63985000  1.0
  C  C32  1  0.91635000  0.95496000  0.36014000  1.0
  C  C33  1  0.16581000  0.16525000  0.55592000  1.0
  C  C34  1  0.83420000  0.83475000  0.44408000  1.0
  C  C35  1  0.16661000  0.33166000  0.59772000  1.0
  C  C36  1  0.83340000  0.66835000  0.40229000  1.0
  C  C37  1  0.09048000  0.36593000  0.72630000  1.0
  C  C38  1  0.90952000  0.63407000  0.27370000  1.0
  C  C39  1  0.24177000  0.46610000  0.51118000  1.0
  C  C40  1  0.75824000  0.53390000  0.48883000  1.0
  C  C41  1  0.26217000  0.44820000  0.37798000  1.0
  C  C42  1  0.73783000  0.55180000  0.62202000  1.0
  C  C43  1  0.32980000  0.57558000  0.29569000  1.0
  C  C44  1  0.67021000  0.42442000  0.70431000  1.0
  C  C45  1  0.37652000  0.72649000  0.34407000  1.0
  C  C46  1  0.62349000  0.27351000  0.65592000  1.0
  C  C47  1  0.36369000  0.74240000  0.47638000  1.0
  C  C48  1  0.63632000  0.25760000  0.52362000  1.0
  C  C49  1  0.29653000  0.61488000  0.55862000  1.0
  C  C50  1  0.70348000  0.38512000  0.44139000  1.0
  C  C51  1  0.43093000  0.87184000  0.25863000  1.0
  C  C52  1  0.56907000  0.12816000  0.74137000  1.0
  N  N53  1  0.01778000  0.24506000  0.80669000  1.0
  N  N54  1  0.98221000  0.75494000  0.19331000  1.0
  O  O55  1  0.20499000  0.08391000  0.97519000  1.0
  O  O56  1  0.79499000  0.91609000  0.02482000  1.0
  O  O57  1  0.14255000  0.31253000  0.10523000  1.0
  O  O58  1  0.85744000  0.68749000  0.89477000  1.0
  O  O59  1  0.47196000  0.00547000  0.30784000  1.0
  O  O60  1  0.52804000  0.99453000  0.69216000  1.0
  O  O61  1  0.42469000  0.85096000  0.13990000  1.0
  O  O62  1  0.57530000  0.14904000  0.86010000  1.0
  O  O63  1  0.49725000  0.80550000  0.88850000  1.0
  O  O64  1  0.50275000  0.19451000  0.11150000  1.0
