# generated using pymatgen
data_CdH16C23N3O5
_symmetry_space_group_name_H-M   'P 1'
_cell_length_a   9.88698000
_cell_length_b   10.42090000
_cell_length_c   10.92330000
_cell_angle_alpha   82.03570000
_cell_angle_beta   66.93480000
_cell_angle_gamma   85.29350000
_symmetry_Int_Tables_number   1
_chemical_formula_structural   CdH16C23N3O5
_chemical_formula_sum   'Cd2 H32 C46 N6 O10'
_cell_volume   1025.00899019
_cell_formula_units_Z   2
loop_
 _symmetry_equiv_pos_site_id
 _symmetry_equiv_pos_as_xyz
  1  'x, y, z'
loop_
 _atom_site_type_symbol
 _atom_site_label
 _atom_site_symmetry_multiplicity
 _atom_site_fract_x
 _atom_site_fract_y
 _atom_site_fract_z
 _atom_site_occupancy
  Cd  Cd0  1  0.34304000  0.43675000  0.54787000  1.0
  Cd  Cd1  1  0.65696000  0.56325000  0.45214000  1.0
  H  H2  1  0.60495000  0.10658000  0.74586000  1.0
  H  H3  1  0.39505000  0.89342000  0.25414000  1.0
  H  H4  1  0.67922000  0.98052000  0.92309000  1.0
  H  H5  1  0.32077000  0.01947000  0.07691000  1.0
  H  H6  1  0.66863000  0.08488000  0.11741000  1.0
  H  H7  1  0.33135000  0.91512000  0.88259000  1.0
  H  H8  1  0.58368000  0.31716000  0.13680000  1.0
  H  H9  1  0.41633000  0.68284000  0.86319000  1.0
  H  H10  1  0.92450000  0.26686000  0.16604000  1.0
  H  H11  1  0.07549000  0.73314000  0.83396000  1.0
  H  H12  1  0.04777000  0.06456000  0.06944000  1.0
  H  H13  1  0.95223000  0.93545000  0.93056000  1.0
  H  H14  1  0.92405000  0.85224000  0.16463000  1.0
  H  H15  1  0.07595000  0.14776000  0.83537000  1.0
  H  H16  1  0.68129000  0.84523000  0.35626000  1.0
  H  H17  1  0.31871000  0.15477000  0.64374000  1.0
  H  H18  1  0.35218000  0.26753000  0.34021000  1.0
  H  H19  1  0.64783000  0.73247000  0.65979000  1.0
  H  H20  1  0.19923000  0.12514000  0.28074000  1.0
  H  H21  1  0.80078000  0.87485000  0.71927000  1.0
  H  H22  1  0.93063000  0.10729000  0.42837000  1.0
  H  H23  1  0.06937000  0.89270000  0.57163000  1.0
  H  H24  1  0.82563000  0.23997000  0.62135000  1.0
  H  H25  1  0.17438000  0.76004000  0.37865000  1.0
  H  H26  1  0.97235000  0.50494000  0.65973000  1.0
  H  H27  1  0.02765000  0.49506000  0.34027000  1.0
  H  H28  1  0.85997000  0.37387000  0.76143000  1.0
  H  H29  1  0.14003000  0.62613000  0.23857000  1.0
  H  H30  1  0.22430000  0.36070000  0.90941000  1.0
  H  H31  1  0.77570000  0.63931000  0.09059000  1.0
  H  H32  1  0.82530000  0.53820000  0.88417000  1.0
  H  H33  1  0.17470000  0.46180000  0.11583000  1.0
  C  C34  1  0.52784000  0.36123000  0.72669000  1.0
  C  C35  1  0.47211000  0.63875000  0.27332000  1.0
  C  C36  1  0.55756000  0.28230000  0.84030000  1.0
  C  C37  1  0.44245000  0.71770000  0.15970000  1.0
  C  C38  1  0.60288000  0.15209000  0.83087000  1.0
  C  C39  1  0.39712000  0.84791000  0.16912000  1.0
  C  C40  1  0.64424000  0.08220000  0.92986000  1.0
  C  C41  1  0.35576000  0.91780000  0.07014000  1.0
  C  C42  1  0.63794000  0.14105000  0.03995000  1.0
  C  C43  1  0.36206000  0.85895000  0.96004000  1.0
  C  C44  1  0.59048000  0.26981000  0.05155000  1.0
  C  C45  1  0.40953000  0.73019000  0.94845000  1.0
  C  C46  1  0.55018000  0.34162000  0.95136000  1.0
  C  C47  1  0.44984000  0.65838000  0.04863000  1.0
  C  C48  1  0.66780000  0.29337000  0.37089000  1.0
  C  C49  1  0.33216000  0.70661000  0.62912000  1.0
  C  C50  1  0.73856000  0.16931000  0.31709000  1.0
  C  C51  1  0.26144000  0.83069000  0.68292000  1.0
  C  C52  1  0.87370000  0.17333000  0.20772000  1.0
  C  C53  1  0.12630000  0.82667000  0.79229000  1.0
  C  C54  1  0.94168000  0.06018000  0.15355000  1.0
  C  C55  1  0.05832000  0.93982000  0.84644000  1.0
  C  C56  1  0.87277000  0.94153000  0.20623000  1.0
  C  C57  1  0.12723000  0.05846000  0.79376000  1.0
  C  C58  1  0.73724000  0.93620000  0.31389000  1.0
  C  C59  1  0.26276000  0.06380000  0.68611000  1.0
  C  C60  1  0.67056000  0.04910000  0.37180000  1.0
  C  C61  1  0.32944000  0.95089000  0.62820000  1.0
  C  C62  1  0.23466000  0.25816000  0.39871000  1.0
  C  C63  1  0.76534000  0.74184000  0.60129000  1.0
  C  C64  1  0.14926000  0.17874000  0.36738000  1.0
  C  C65  1  0.85074000  0.82126000  0.63262000  1.0
  C  C66  1  0.00045000  0.16955000  0.44895000  1.0
  C  C67  1  0.99956000  0.83045000  0.55105000  1.0
  C  C68  1  0.94178000  0.24215000  0.55697000  1.0
  C  C69  1  0.05823000  0.75785000  0.44303000  1.0
  C  C70  1  0.03352000  0.31988000  0.58275000  1.0
  C  C71  1  0.96649000  0.68013000  0.41725000  1.0
  C  C72  1  0.97351000  0.40098000  0.69765000  1.0
  C  C73  1  0.02649000  0.59902000  0.30235000  1.0
  C  C74  1  0.02908000  0.44153000  0.88427000  1.0
  C  C75  1  0.97091000  0.55848000  0.11573000  1.0
  C  C76  1  0.12540000  0.42076000  0.95105000  1.0
  C  C77  1  0.87460000  0.57924000  0.04895000  1.0
  C  C78  1  0.90285000  0.52091000  0.93349000  1.0
  C  C79  1  0.09715000  0.47909000  0.06651000  1.0
  N  N80  1  0.49658000  0.47158000  0.95364000  1.0
  N  N81  1  0.50343000  0.52842000  0.04635000  1.0
  N  N82  1  0.54584000  0.04122000  0.49446000  1.0
  N  N83  1  0.45416000  0.95878000  0.50554000  1.0
  N  N84  1  0.17814000  0.32624000  0.50479000  1.0
  N  N85  1  0.82186000  0.67377000  0.49521000  1.0
  O  O86  1  0.41054000  0.33821000  0.71303000  1.0
  O  O87  1  0.58947000  0.66179000  0.28698000  1.0
  O  O88  1  0.62717000  0.43901000  0.65301000  1.0
  O  O89  1  0.37284000  0.56101000  0.34698000  1.0
  O  O90  1  0.75529000  0.37949000  0.36493000  1.0
  O  O91  1  0.24472000  0.62052000  0.63507000  1.0
  O  O92  1  0.52846000  0.30323000  0.41514000  1.0
  O  O93  1  0.47156000  0.69676000  0.58487000  1.0
  O  O94  1  0.06742000  0.37894000  0.77094000  1.0
  O  O95  1  0.93258000  0.62106000  0.22906000  1.0
