# generated using pymatgen
data_Co3H42C66(N4O3)4
_symmetry_space_group_name_H-M   'P 1'
_cell_length_a   12.64300000
_cell_length_b   15.44872133
_cell_length_c   18.76380000
_cell_angle_alpha   73.87315543
_cell_angle_beta   89.99500000
_cell_angle_gamma   65.85322885
_symmetry_Int_Tables_number   1
_chemical_formula_structural   Co3H42C66(N4O3)4
_chemical_formula_sum   'Co6 H84 C132 N32 O24'
_cell_volume   3185.57290763
_cell_formula_units_Z   2
loop_
 _symmetry_equiv_pos_site_id
 _symmetry_equiv_pos_as_xyz
  1  'x, y, z'
loop_
 _atom_site_type_symbol
 _atom_site_label
 _atom_site_symmetry_multiplicity
 _atom_site_fract_x
 _atom_site_fract_y
 _atom_site_fract_z
 _atom_site_occupancy
  Co  Co0  1  0.33467000  0.42210000  0.97233000  1.0
  Co  Co1  1  0.75632000  0.57868000  0.52608000  1.0
  Co  Co2  1  0.38552000  0.99675000  0.75392000  1.0
  Co  Co3  1  0.66521000  0.57883000  0.02603000  1.0
  Co  Co4  1  0.24293000  0.42233000  0.47222000  1.0
  Co  Co5  1  0.61743000  0.99722000  0.25379000  1.0
  H  H6  1  0.52051000  0.75187000  0.63465000  1.0
  H  H7  1  0.51200000  0.46684000  0.72386000  1.0
  H  H8  1  0.35233000  0.69521000  0.83004000  1.0
  H  H9  1  0.59791000  0.38566000  0.03306000  1.0
  H  H10  1  0.78407000  0.20513000  0.04408000  1.0
  H  H11  1  0.46436000  0.19214000  0.99199000  1.0
  H  H12  1  0.84500000  0.02842000  0.10146000  1.0
  H  H13  1  0.84829000  0.79351000  0.01713000  1.0
  H  H14  1  0.58116000  0.09234000  0.92598000  1.0
  H  H15  1  0.48237000  0.02197000  0.89187000  1.0
  H  H16  1  0.65374000  0.79922000  0.79064000  1.0
  H  H17  1  0.81206000  0.78206000  0.90213000  1.0
  H  H18  1  0.96011000  0.90911000  0.19193000  1.0
  H  H19  1  0.25444000  0.62284000  0.24648000  1.0
  H  H20  1  0.01954000  0.72986000  0.04277000  1.0
  H  H21  1  0.26327000  0.46778000  0.23477000  1.0
  H  H22  1  0.36750000  0.34243000  0.14923000  1.0
  H  H23  1  0.17345000  0.63387000  0.00395000  1.0
  H  H24  1  0.12911000  0.93409000  0.24070000  1.0
  H  H25  1  0.16586000  0.91713000  0.39216000  1.0
  H  H26  1  0.17129000  0.64951000  0.37292000  1.0
  H  H27  1  0.27176000  0.24153000  0.86316000  1.0
  H  H28  1  0.98459000  0.53164000  0.77757000  1.0
  H  H29  1  0.04446000  0.31013000  0.66570000  1.0
  H  H30  1  0.97954000  0.61796000  0.46309000  1.0
  H  H31  1  0.98676000  0.79679000  0.45625000  1.0
  H  H32  1  0.65562000  0.80796000  0.51076000  1.0
  H  H33  1  0.87383000  0.97177000  0.40282000  1.0
  H  H34  1  0.63796000  0.20749000  0.48457000  1.0
  H  H35  1  0.67011000  0.90842000  0.57604000  1.0
  H  H36  1  0.50061000  0.97746000  0.60570000  1.0
  H  H37  1  0.44084000  0.19796000  0.71043000  1.0
  H  H38  1  0.58534000  0.21814000  0.60196000  1.0
  H  H39  1  0.86861000  0.08891000  0.31130000  1.0
  H  H40  1  0.87547000  0.37572000  0.25374000  1.0
  H  H41  1  0.74706000  0.27144000  0.45818000  1.0
  H  H42  1  0.73145000  0.53154000  0.26441000  1.0
  H  H43  1  0.71192000  0.65773000  0.34875000  1.0
  H  H44  1  0.80536000  0.36773000  0.49575000  1.0
  H  H45  1  0.06186000  0.06481000  0.26043000  1.0
  H  H46  1  0.08399000  0.08366000  0.10896000  1.0
  H  H47  1  0.81839000  0.34924000  0.12867000  1.0
  H  H48  1  0.48657000  0.24182000  0.36307000  1.0
  H  H49  1  0.48390000  0.53185000  0.27760000  1.0
  H  H50  1  0.64522000  0.31059000  0.16552000  1.0
  H  H51  1  0.40309000  0.61801000  0.96278000  1.0
  H  H52  1  0.21685000  0.79661000  0.95589000  1.0
  H  H53  1  0.53643000  0.80811000  0.01095000  1.0
  H  H54  1  0.15433000  0.97164000  0.90280000  1.0
  H  H55  1  0.15410000  0.20743000  0.98467000  1.0
  H  H56  1  0.42120000  0.90854000  0.07602000  1.0
  H  H57  1  0.52132000  0.97773000  0.10576000  1.0
  H  H58  1  0.36025000  0.19832000  0.21042000  1.0
  H  H59  1  0.19585000  0.21822000  0.10201000  1.0
  H  H60  1  0.04247000  0.08897000  0.81113000  1.0
  H  H61  1  0.74900000  0.37584000  0.75361000  1.0
  H  H62  1  0.98135000  0.27126000  0.95821000  1.0
  H  H63  1  0.73739000  0.53153000  0.76444000  1.0
  H  H64  1  0.63088000  0.65773000  0.84879000  1.0
  H  H65  1  0.82701000  0.36766000  0.99577000  1.0
  H  H66  1  0.87147000  0.06548000  0.76044000  1.0
  H  H67  1  0.83116000  0.08400000  0.60900000  1.0
  H  H68  1  0.83375000  0.34886000  0.62849000  1.0
  H  H69  1  0.72748000  0.75239000  0.13460000  1.0
  H  H70  1  0.02080000  0.46730000  0.22379000  1.0
  H  H71  1  0.95196000  0.69551000  0.33017000  1.0
  H  H72  1  0.01572000  0.38588000  0.53270000  1.0
  H  H73  1  0.01035000  0.20522000  0.54366000  1.0
  H  H74  1  0.34312000  0.19253000  0.49201000  1.0
  H  H75  1  0.12656000  0.02865000  0.60135000  1.0
  H  H76  1  0.35823000  0.79375000  0.51708000  1.0
  H  H77  1  0.32639000  0.09266000  0.42581000  1.0
  H  H78  1  0.49560000  0.02231000  0.39168000  1.0
  H  H79  1  0.54758000  0.79908000  0.29092000  1.0
  H  H80  1  0.40630000  0.78197000  0.40236000  1.0
  H  H81  1  0.13079000  0.90930000  0.69181000  1.0
  H  H82  1  0.12293000  0.62293000  0.74647000  1.0
  H  H83  1  0.25058000  0.73006000  0.54261000  1.0
  H  H84  1  0.26862000  0.46797000  0.73463000  1.0
  H  H85  1  0.28988000  0.34260000  0.64907000  1.0
  H  H86  1  0.19279000  0.63406000  0.50387000  1.0
  H  H87  1  0.93754000  0.93430000  0.74091000  1.0
  H  H88  1  0.91779000  0.91699000  0.89241000  1.0
  H  H89  1  0.17938000  0.64931000  0.87283000  1.0
  C  C90  1  0.40524000  0.83752000  0.73327000  1.0
  C  C91  1  0.42998000  0.73542000  0.73138000  1.0
  C  C92  1  0.49233000  0.70274000  0.67514000  1.0
  C  C93  1  0.52084000  0.60698000  0.67135000  1.0
  C  C94  1  0.59502000  0.57138000  0.61407000  1.0
  C  C95  1  0.48881000  0.54236000  0.72549000  1.0
  C  C96  1  0.42908000  0.57336000  0.78308000  1.0
  C  C97  1  0.39862000  0.67044000  0.78544000  1.0
  C  C98  1  0.40059000  0.50075000  0.84196000  1.0
  C  C99  1  0.59797000  0.31852000  0.02540000  1.0
  C  C100  1  0.69081000  0.22918000  0.03189000  1.0
  C  C101  1  0.52490000  0.22083000  0.00448000  1.0
  C  C102  1  0.70430000  0.06786000  0.01710000  1.0
  C  C103  1  0.80900000  0.00229000  0.06357000  1.0
  C  C104  1  0.86522000  0.90337000  0.06183000  1.0
  C  C105  1  0.81184000  0.87132000  0.01533000  1.0
  C  C106  1  0.71006000  0.93865000  0.96718000  1.0
  C  C107  1  0.65632000  0.03780000  0.96669000  1.0
  C  C108  1  0.55006000  0.95912000  0.87961000  1.0
  C  C109  1  0.64164000  0.84178000  0.82955000  1.0
  C  C110  1  0.72078000  0.83264000  0.88427000  1.0
  C  C111  1  0.97656000  0.83081000  0.10970000  1.0
  C  C112  1  0.01323000  0.84470000  0.17439000  1.0
  C  C113  1  0.11275000  0.77003000  0.22188000  1.0
  C  C114  1  0.17793000  0.68019000  0.20766000  1.0
  C  C115  1  0.14105000  0.66742000  0.14261000  1.0
  C  C116  1  0.04326000  0.74189000  0.09375000  1.0
  C  C117  1  0.26451000  0.48320000  0.17485000  1.0
  C  C118  1  0.31218000  0.42161000  0.13195000  1.0
  C  C119  1  0.21439000  0.57051000  0.05388000  1.0
  C  C120  1  0.14093000  0.87531000  0.29163000  1.0
  C  C121  1  0.16046000  0.86406000  0.36635000  1.0
  C  C122  1  0.16535000  0.72456000  0.36008000  1.0
  C  C123  1  0.22893000  0.16161000  0.75956000  1.0
  C  C124  1  0.16282000  0.26431000  0.76480000  1.0
  C  C125  1  0.19565000  0.29337000  0.82235000  1.0
  C  C126  1  0.13179000  0.38937000  0.82733000  1.0
  C  C127  1  0.17199000  0.42314000  0.88530000  1.0
  C  C128  1  0.03485000  0.45673000  0.77403000  1.0
  C  C129  1  0.00322000  0.42909000  0.71532000  1.0
  C  C130  1  0.06754000  0.33285000  0.71105000  1.0
  C  C131  1  0.90109000  0.50289000  0.65759000  1.0
  C  C132  1  0.91316000  0.68418000  0.47246000  1.0
  C  C133  1  0.91733000  0.77285000  0.46787000  1.0
  C  C134  1  0.74420000  0.77995000  0.49708000  1.0
  C  C135  1  0.77086000  0.93251000  0.48600000  1.0
  C  C136  1  0.81067000  0.99790000  0.44016000  1.0
  C  C137  1  0.76691000  0.09703000  0.44121000  1.0
  C  C138  1  0.68019000  0.12946000  0.48696000  1.0
  C  C139  1  0.64503000  0.06219000  0.53468000  1.0
  C  C140  1  0.69148000  0.96275000  0.53564000  1.0
  C  C141  1  0.50264000  0.04050000  0.61902000  1.0
  C  C142  1  0.47333000  0.15607000  0.67128000  1.0
  C  C143  1  0.54503000  0.16697000  0.61794000  1.0
  C  C144  1  0.80549000  0.16917000  0.39247000  1.0
  C  C145  1  0.85617000  0.15423000  0.32792000  1.0
  C  C146  1  0.88054000  0.22862000  0.27949000  1.0
  C  C147  1  0.85584000  0.31892000  0.29293000  1.0
  C  C148  1  0.80640000  0.33262000  0.35780000  1.0
  C  C149  1  0.78292000  0.25875000  0.40736000  1.0
  C  C150  1  0.74796000  0.51659000  0.32426000  1.0
  C  C151  1  0.73492000  0.57868000  0.36661000  1.0
  C  C152  1  0.78371000  0.43055000  0.44549000  1.0
  C  C153  1  0.01499000  0.12383000  0.20959000  1.0
  C  C154  1  0.02444000  0.13602000  0.13487000  1.0
  C  C155  1  0.88793000  0.27441000  0.14140000  1.0
  C  C156  1  0.60925000  0.16197000  0.25942000  1.0
  C  C157  1  0.57273000  0.26467000  0.26462000  1.0
  C  C158  1  0.51090000  0.29362000  0.32224000  1.0
  C  C159  1  0.47886000  0.38958000  0.32731000  1.0
  C  C160  1  0.40483000  0.42324000  0.38530000  1.0
  C  C161  1  0.50844000  0.45697000  0.27405000  1.0
  C  C162  1  0.56755000  0.42945000  0.21526000  1.0
  C  C163  1  0.59943000  0.33325000  0.21089000  1.0
  C  C164  1  0.59587000  0.50327000  0.15750000  1.0
  C  C165  1  0.40315000  0.68421000  0.97226000  1.0
  C  C166  1  0.31016000  0.77274000  0.96774000  1.0
  C  C167  1  0.47597000  0.78012000  0.99704000  1.0
  C  C168  1  0.29653000  0.93249000  0.98598000  1.0
  C  C169  1  0.19130000  0.99781000  0.94017000  1.0
  C  C170  1  0.13585000  0.09694000  0.94121000  1.0
  C  C171  1  0.18996000  0.12944000  0.98700000  1.0
  C  C172  1  0.29234000  0.06223000  0.03474000  1.0
  C  C173  1  0.34546000  0.96280000  0.03566000  1.0
  C  C174  1  0.45623000  0.04070000  0.11914000  1.0
  C  C175  1  0.36985000  0.15633000  0.17133000  1.0
  C  C176  1  0.28729000  0.16708000  0.11803000  1.0
  C  C177  1  0.02519000  0.16905000  0.89245000  1.0
  C  C178  1  0.98952000  0.15418000  0.82785000  1.0
  C  C179  1  0.89082000  0.22865000  0.77942000  1.0
  C  C180  1  0.82528000  0.31896000  0.79286000  1.0
  C  C181  1  0.86104000  0.33258000  0.85779000  1.0
  C  C182  1  0.95824000  0.25860000  0.90738000  1.0
  C  C183  1  0.73584000  0.51658000  0.82429000  1.0
  C  C184  1  0.68685000  0.57867000  0.86664000  1.0
  C  C185  1  0.78591000  0.43048000  0.94551000  1.0
  C  C186  1  0.86015000  0.12421000  0.70957000  1.0
  C  C187  1  0.83870000  0.13629000  0.63486000  1.0
  C  C188  1  0.83818000  0.27430000  0.64128000  1.0
  C  C189  1  0.75719000  0.83807000  0.23322000  1.0
  C  C190  1  0.83435000  0.73586000  0.23139000  1.0
  C  C191  1  0.80468000  0.70320000  0.17514000  1.0
  C  C192  1  0.87183000  0.60741000  0.17135000  1.0
  C  C193  1  0.83332000  0.57188000  0.11401000  1.0
  C  C194  1  0.96843000  0.54278000  0.22548000  1.0
  C  C195  1  0.99715000  0.57372000  0.28310000  1.0
  C  C196  1  0.93051000  0.67078000  0.28552000  1.0
  C  C197  1  0.09839000  0.50113000  0.34187000  1.0
  C  C198  1  0.08290000  0.31877000  0.52512000  1.0
  C  C199  1  0.07952000  0.22938000  0.53157000  1.0
  C  C200  1  0.25379000  0.22120000  0.50431000  1.0
  C  C201  1  0.22771000  0.06810000  0.51691000  1.0
  C  C202  1  0.18868000  0.00250000  0.56347000  1.0
  C  C203  1  0.23140000  0.90360000  0.56177000  1.0
  C  C204  1  0.31677000  0.87158000  0.51522000  1.0
  C  C205  1  0.35120000  0.93892000  0.46707000  1.0
  C  C206  1  0.30571000  0.03811000  0.46650000  1.0
  C  C207  1  0.49081000  0.95937000  0.37953000  1.0
  C  C208  1  0.51695000  0.84174000  0.32972000  1.0
  C  C209  1  0.44684000  0.83267000  0.38439000  1.0
  C  C210  1  0.19272000  0.83096000  0.60961000  1.0
  C  C211  1  0.14223000  0.84480000  0.67432000  1.0
  C  C212  1  0.11745000  0.77010000  0.72186000  1.0
  C  C213  1  0.14204000  0.68028000  0.70761000  1.0
  C  C214  1  0.19157000  0.66755000  0.64253000  1.0
  C  C215  1  0.21488000  0.74205000  0.59362000  1.0
  C  C216  1  0.25208000  0.48338000  0.67472000  1.0
  C  C217  1  0.26606000  0.42177000  0.63180000  1.0
  C  C218  1  0.21528000  0.57064000  0.55375000  1.0
  C  C219  1  0.98442000  0.87536000  0.79179000  1.0
  C  C220  1  0.97614000  0.86396000  0.86653000  1.0
  C  C221  1  0.11040000  0.72440000  0.86008000  1.0
  N  N222  1  0.49513000  0.31197000  0.00863000  1.0
  N  N223  1  0.64373000  0.16748000  0.01825000  1.0
  N  N224  1  0.66187000  0.90851000  0.91549000  1.0
  N  N225  1  0.53571000  0.92067000  0.82742000  1.0
  N  N226  1  0.20333000  0.57775000  0.12472000  1.0
  N  N227  1  0.28059000  0.47660000  0.05682000  1.0
  N  N228  1  0.14387000  0.78620000  0.28813000  1.0
  N  N229  1  0.17579000  0.76963000  0.40866000  1.0
  N  N230  1  0.80446000  0.68997000  0.49043000  1.0
  N  N231  1  0.80968000  0.83330000  0.48387000  1.0
  N  N232  1  0.56408000  0.09220000  0.58519000  1.0
  N  N233  1  0.44778000  0.07687000  0.67143000  1.0
  N  N234  1  0.77974000  0.42261000  0.37490000  1.0
  N  N235  1  0.75757000  0.52439000  0.44188000  1.0
  N  N236  1  0.92761000  0.21227000  0.21325000  1.0
  N  N237  1  0.94484000  0.23034000  0.09273000  1.0
  N  N238  1  0.50590000  0.69017000  0.99027000  1.0
  N  N239  1  0.35712000  0.83329000  0.98384000  1.0
  N  N240  1  0.34310000  0.09227000  0.08533000  1.0
  N  N241  1  0.47467000  0.07721000  0.17148000  1.0
  N  N242  1  0.79787000  0.42257000  0.87492000  1.0
  N  N243  1  0.71832000  0.52434000  0.94191000  1.0
  N  N244  1  0.86003000  0.21238000  0.71316000  1.0
  N  N245  1  0.82502000  0.23029000  0.59264000  1.0
  N  N246  1  0.19228000  0.31235000  0.50842000  1.0
  N  N247  1  0.18841000  0.16775000  0.51803000  1.0
  N  N248  1  0.42967000  0.90871000  0.41547000  1.0
  N  N249  1  0.54383000  0.92076000  0.32747000  1.0
  N  N250  1  0.21891000  0.57790000  0.62461000  1.0
  N  N251  1  0.24284000  0.47676000  0.55668000  1.0
  N  N252  1  0.07034000  0.78623000  0.78817000  1.0
  N  N253  1  0.05502000  0.76939000  0.90873000  1.0
  O  O254  1  0.36526000  0.52707000  0.90134000  1.0
  O  O255  1  0.41013000  0.42072000  0.83320000  1.0
  O  O256  1  0.32912000  0.88251000  0.77149000  1.0
  O  O257  1  0.46474000  0.88033000  0.69686000  1.0
  O  O258  1  0.60486000  0.64023000  0.55918000  1.0
  O  O259  1  0.64865000  0.48017000  0.62231000  1.0
  O  O260  1  0.89052000  0.47695000  0.59816000  1.0
  O  O261  1  0.83160000  0.58247000  0.66737000  1.0
  O  O262  1  0.19792000  0.13256000  0.70997000  1.0
  O  O263  1  0.32229000  0.10262000  0.80695000  1.0
  O  O264  1  0.25095000  0.35429000  0.93980000  1.0
  O  O265  1  0.13475000  0.51427000  0.87797000  1.0
  O  O266  1  0.63236000  0.47727000  0.09810000  1.0
  O  O267  1  0.58586000  0.58283000  0.16729000  1.0
  O  O268  1  0.66921000  0.13283000  0.20982000  1.0
  O  O269  1  0.57493000  0.10296000  0.30689000  1.0
  O  O270  1  0.39448000  0.35438000  0.43967000  1.0
  O  O271  1  0.35106000  0.51436000  0.37809000  1.0
  O  O272  1  0.10754000  0.52739000  0.40125000  1.0
  O  O273  1  0.16885000  0.42109000  0.33309000  1.0
  O  O274  1  0.78822000  0.88297000  0.27156000  1.0
  O  O275  1  0.65504000  0.88109000  0.19657000  1.0
  O  O276  1  0.75479000  0.64070000  0.05906000  1.0
  O  O277  1  0.87083000  0.48065000  0.12224000  1.0
