# generated using pymatgen
data_CuH11C16IN5
_symmetry_space_group_name_H-M   'P 1'
_cell_length_a   9.03408000
_cell_length_b   9.42699000
_cell_length_c   10.22910000
_cell_angle_alpha   71.94900000
_cell_angle_beta   71.54060000
_cell_angle_gamma   67.65040000
_symmetry_Int_Tables_number   1
_chemical_formula_structural   CuH11C16IN5
_chemical_formula_sum   'Cu2 H22 C32 I2 N10'
_cell_volume   746.22235169
_cell_formula_units_Z   2
loop_
 _symmetry_equiv_pos_site_id
 _symmetry_equiv_pos_as_xyz
  1  'x, y, z'
loop_
 _atom_site_type_symbol
 _atom_site_label
 _atom_site_symmetry_multiplicity
 _atom_site_fract_x
 _atom_site_fract_y
 _atom_site_fract_z
 _atom_site_occupancy
  Cu  Cu0  1  0.52082000  0.96540000  0.88206000  1.0
  Cu  Cu1  1  0.47918000  0.03460000  0.11795000  1.0
  H  H2  1  0.16341000  0.60605000  0.00228000  1.0
  H  H3  1  0.83658000  0.39395000  0.99773000  1.0
  H  H4  1  0.12359000  0.66624000  0.75761000  1.0
  H  H5  1  0.87641000  0.33376000  0.24239000  1.0
  H  H6  1  0.42658000  0.96867000  0.63313000  1.0
  H  H7  1  0.57342000  0.03133000  0.36688000  1.0
  H  H8  1  0.13477000  0.96139000  0.12613000  1.0
  H  H9  1  0.86524000  0.03861000  0.87388000  1.0
  H  H10  1  0.34159000  0.72694000  0.04869000  1.0
  H  H11  1  0.65840000  0.27306000  0.95132000  1.0
  H  H12  1  0.91794000  0.82620000  0.23845000  1.0
  H  H13  1  0.08206000  0.17380000  0.76155000  1.0
  H  H14  1  0.81220000  0.65419000  0.32861000  1.0
  H  H15  1  0.18780000  0.34582000  0.67138000  1.0
  H  H16  1  0.83653000  0.69074000  0.73234000  1.0
  H  H17  1  0.16346000  0.30926000  0.26766000  1.0
  H  H18  1  0.54028000  0.43536000  0.71345000  1.0
  H  H19  1  0.45972000  0.56464000  0.28653000  1.0
  H  H20  1  0.64596000  0.53679000  0.85200000  1.0
  H  H21  1  0.35403000  0.46320000  0.14800000  1.0
  H  H22  1  0.62478000  0.50035000  0.44850000  1.0
  H  H23  1  0.37522000  0.49966000  0.55149000  1.0
  C  C24  1  0.22001000  0.68591000  0.91772000  1.0
  C  C25  1  0.77999000  0.31409000  0.08228000  1.0
  C  C26  1  0.19790000  0.71864000  0.78129000  1.0
  C  C27  1  0.80210000  0.28136000  0.21871000  1.0
  C  C28  1  0.27527000  0.82017000  0.67533000  1.0
  C  C29  1  0.72473000  0.17983000  0.32467000  1.0
  C  C30  1  0.36679000  0.88750000  0.71250000  1.0
  C  C31  1  0.63321000  0.11250000  0.28750000  1.0
  C  C32  1  0.11037000  0.90549000  0.23779000  1.0
  C  C33  1  0.88964000  0.09451000  0.76222000  1.0
  C  C34  1  0.20244000  0.90903000  0.32402000  1.0
  C  C35  1  0.79757000  0.09096000  0.67598000  1.0
  C  C36  1  0.84147000  0.68166000  0.52165000  1.0
  C  C37  1  0.15853000  0.31834000  0.47835000  1.0
  C  C38  1  0.26871000  0.86323000  0.52760000  1.0
  C  C39  1  0.73129000  0.13677000  0.47240000  1.0
  C  C40  1  0.31698000  0.75356000  0.94452000  1.0
  C  C41  1  0.68302000  0.24644000  0.05548000  1.0
  C  C42  1  0.99239000  0.83204000  0.30098000  1.0
  C  C43  1  0.00762000  0.16796000  0.69902000  1.0
  C  C44  1  0.96316000  0.76612000  0.45019000  1.0
  C  C45  1  0.03684000  0.23388000  0.54981000  1.0
  C  C46  1  0.77778000  0.62915000  0.44355000  1.0
  C  C47  1  0.22222000  0.37085000  0.55645000  1.0
  C  C48  1  0.79275000  0.64656000  0.66997000  1.0
  C  C49  1  0.20725000  0.35343000  0.33003000  1.0
  C  C50  1  0.62452000  0.50428000  0.65908000  1.0
  C  C51  1  0.37548000  0.49572000  0.34091000  1.0
  C  C52  1  0.68553000  0.55880000  0.73736000  1.0
  C  C53  1  0.31447000  0.44119000  0.26263000  1.0
  C  C54  1  0.67066000  0.54098000  0.51198000  1.0
  C  C55  1  0.32935000  0.45902000  0.48801000  1.0
  I  I56  1  0.70081000  0.76317000  0.05784000  1.0
  I  I57  1  0.29919000  0.23683000  0.94217000  1.0
  N  N58  1  0.38788000  0.85543000  0.84379000  1.0
  N  N59  1  0.61212000  0.14457000  0.15622000  1.0
  N  N60  1  0.16204000  0.84459000  0.46792000  1.0
  N  N61  1  0.83796000  0.15541000  0.53209000  1.0
  N  N62  1  0.32897000  0.96234000  0.29954000  1.0
  N  N63  1  0.67103000  0.03766000  0.70046000  1.0
  N  N64  1  0.04524000  0.77459000  0.53327000  1.0
  N  N65  1  0.95476000  0.22541000  0.46673000  1.0
  N  N66  1  0.36851000  0.93376000  0.42504000  1.0
  N  N67  1  0.63149000  0.06624000  0.57497000  1.0
