# generated using pymatgen
data_KH8C6N5O2
_symmetry_space_group_name_H-M   'P 1'
_cell_length_a   7.19448000
_cell_length_b   8.65008000
_cell_length_c   8.64997000
_cell_angle_alpha   91.11740000
_cell_angle_beta   108.07860000
_cell_angle_gamma   108.07870000
_symmetry_Int_Tables_number   1
_chemical_formula_structural   KH8C6N5O2
_chemical_formula_sum   'K2 H16 C12 N10 O4'
_cell_volume   482.46220708
_cell_formula_units_Z   2
loop_
 _symmetry_equiv_pos_site_id
 _symmetry_equiv_pos_as_xyz
  1  'x, y, z'
loop_
 _atom_site_type_symbol
 _atom_site_label
 _atom_site_symmetry_multiplicity
 _atom_site_fract_x
 _atom_site_fract_y
 _atom_site_fract_z
 _atom_site_occupancy
  K  K0  1  0.50000000  0.49998000  0.50000000  1.0
  K  K1  1  0.00001000  0.50002000  0.49998000  1.0
  H  H2  1  0.80449000  0.29274000  0.08869000  1.0
  H  H3  1  0.69551000  0.91131000  0.70726000  1.0
  H  H4  1  0.19551000  0.70727000  0.91131000  1.0
  H  H5  1  0.30449000  0.08868000  0.29274000  1.0
  H  H6  1  0.80386000  0.48582000  0.88020000  1.0
  H  H7  1  0.69615000  0.11980000  0.51417000  1.0
  H  H8  1  0.19615000  0.51418000  0.11980000  1.0
  H  H9  1  0.30386000  0.88020000  0.48583000  1.0
  H  H10  1  0.01644000  0.16802000  0.34585000  1.0
  H  H11  1  0.48355000  0.65415000  0.83197000  1.0
  H  H12  1  0.98356000  0.83197000  0.65415000  1.0
  H  H13  1  0.51644000  0.34585000  0.16802000  1.0
  H  H14  1  0.14988000  0.19469000  0.53516000  1.0
  H  H15  1  0.35010000  0.46484000  0.80531000  1.0
  H  H16  1  0.85011000  0.80531000  0.46484000  1.0
  H  H17  1  0.64988000  0.53516000  0.19468000  1.0
  C  C18  1  0.75000000  0.96640000  0.03359000  1.0
  C  C19  1  0.25000000  0.03360000  0.96641000  1.0
  C  C20  1  0.75000000  0.08455000  0.91545000  1.0
  C  C21  1  0.25000000  0.91545000  0.08455000  1.0
  C  C22  1  0.78313000  0.24959000  0.96314000  1.0
  C  C23  1  0.71687000  0.03686000  0.75040000  1.0
  C  C24  1  0.21688000  0.75041000  0.03686000  1.0
  C  C25  1  0.28313000  0.96314000  0.24960000  1.0
  C  C26  1  0.78112000  0.35728000  0.84587000  1.0
  C  C27  1  0.71889000  0.15413000  0.64272000  1.0
  C  C28  1  0.21888000  0.64273000  0.15413000  1.0
  C  C29  1  0.28112000  0.84587000  0.35728000  1.0
  N  N30  1  0.81867000  0.00590000  0.19810000  1.0
  N  N31  1  0.68132000  0.80190000  0.99409000  1.0
  N  N32  1  0.18133000  0.99410000  0.80190000  1.0
  N  N33  1  0.31867000  0.19810000  0.00591000  1.0
  N  N34  1  0.79110000  0.86284000  0.25905000  1.0
  N  N35  1  0.70889000  0.74095000  0.13716000  1.0
  N  N36  1  0.20889000  0.13716000  0.74095000  1.0
  N  N37  1  0.29111000  0.25905000  0.86284000  1.0
  N  N38  1  0.75001000  0.31274000  0.68726000  1.0
  N  N39  1  0.25001000  0.68726000  0.31274000  1.0
  O  O40  1  0.13157000  0.25019000  0.43419000  1.0
  O  O41  1  0.36841000  0.56581000  0.74981000  1.0
  O  O42  1  0.86842000  0.74981000  0.56581000  1.0
  O  O43  1  0.63158000  0.43419000  0.25019000  1.0
