# generated using pymatgen
data_CoH10(C2N)4
_symmetry_space_group_name_H-M   'P 1'
_cell_length_a   14.63040000
_cell_length_b   14.63655320
_cell_length_c   14.63960000
_cell_angle_alpha   109.48019377
_cell_angle_beta   109.46900000
_cell_angle_gamma   109.44626907
_symmetry_Int_Tables_number   1
_chemical_formula_structural   CoH10(C2N)4
_chemical_formula_sum   'Co6 H60 C48 N24'
_cell_volume   2413.79181555
_cell_formula_units_Z   6
loop_
 _symmetry_equiv_pos_site_id
 _symmetry_equiv_pos_as_xyz
  1  'x, y, z'
loop_
 _atom_site_type_symbol
 _atom_site_label
 _atom_site_symmetry_multiplicity
 _atom_site_fract_x
 _atom_site_fract_y
 _atom_site_fract_z
 _atom_site_occupancy
  Co  Co0  1  0.75015000  0.49983000  0.24971000  1.0
  Co  Co1  1  0.24995000  0.49982000  0.74992000  1.0
  Co  Co2  1  0.74985000  0.25030000  0.50010000  1.0
  Co  Co3  1  0.25019000  0.74994000  0.50008000  1.0
  Co  Co4  1  0.50032000  0.75030000  0.25001000  1.0
  Co  Co5  1  0.49991000  0.24977000  0.75008000  1.0
  H  H6  1  0.65256000  0.23766000  0.12143000  1.0
  H  H7  1  0.88347000  0.76268000  0.41200000  1.0
  H  H8  1  0.34671000  0.46787000  0.58444000  1.0
  H  H9  1  0.11646000  0.52972000  0.87876000  1.0
  H  H10  1  0.87883000  0.11703000  0.53127000  1.0
  H  H11  1  0.58438000  0.34758000  0.46894000  1.0
  H  H12  1  0.41491000  0.88363000  0.76230000  1.0
  H  H13  1  0.12100000  0.65059000  0.23732000  1.0
  H  H14  1  0.47144000  0.58771000  0.35057000  1.0
  H  H15  1  0.53145000  0.87835000  0.11589000  1.0
  H  H16  1  0.23760000  0.12108000  0.65137000  1.0
  H  H17  1  0.76232000  0.41301000  0.88316000  1.0
  H  H18  1  0.12096000  0.23726000  0.65108000  1.0
  H  H19  1  0.41355000  0.76198000  0.88327000  1.0
  H  H20  1  0.58775000  0.47111000  0.35012000  1.0
  H  H21  1  0.87879000  0.53072000  0.11585000  1.0
  H  H22  1  0.52971000  0.11627000  0.87878000  1.0
  H  H23  1  0.47006000  0.34943000  0.58737000  1.0
  H  H24  1  0.76296000  0.88438000  0.41580000  1.0
  H  H25  1  0.23795000  0.65266000  0.12149000  1.0
  H  H26  1  0.34670000  0.58403000  0.46797000  1.0
  H  H27  1  0.11626000  0.87867000  0.53002000  1.0
  H  H28  1  0.65062000  0.12100000  0.23750000  1.0
  H  H29  1  0.88373000  0.41499000  0.76243000  1.0
  H  H30  1  0.82919000  0.56439000  0.47896000  1.0
  H  H31  1  0.89562000  0.50871000  0.55204000  1.0
  H  H32  1  0.76550000  0.49267000  0.53735000  1.0
  H  H33  1  0.08178000  0.51619000  0.36749000  1.0
  H  H34  1  0.98040000  0.47675000  0.23226000  1.0
  H  H35  1  0.93593000  0.43926000  0.31926000  1.0
  H  H36  1  0.12709000  0.68935000  0.61975000  1.0
  H  H37  1  0.24693000  0.76482000  0.75451000  1.0
  H  H38  1  0.14231000  0.62812000  0.70703000  1.0
  H  H39  1  0.07461000  0.37634000  0.51052000  1.0
  H  H40  1  0.92511000  0.30187000  0.43576000  1.0
  H  H41  1  0.99957000  0.23983000  0.48696000  1.0
  H  H42  1  0.47693000  0.98023000  0.23203000  1.0
  H  H43  1  0.51612000  0.08159000  0.36716000  1.0
  H  H44  1  0.43934000  0.93578000  0.31902000  1.0
  H  H45  1  0.76474000  0.24664000  0.75432000  1.0
  H  H46  1  0.68926000  0.12691000  0.61954000  1.0
  H  H47  1  0.62805000  0.14206000  0.70687000  1.0
  H  H48  1  0.30197000  0.92519000  0.43585000  1.0
  H  H49  1  0.37641000  0.07464000  0.51062000  1.0
  H  H50  1  0.23982000  0.99956000  0.48698000  1.0
  H  H51  1  0.50881000  0.89563000  0.55215000  1.0
  H  H52  1  0.56447000  0.82919000  0.47904000  1.0
  H  H53  1  0.49270000  0.76552000  0.53741000  1.0
  H  H54  1  0.61362000  0.66483000  0.10929000  1.0
  H  H55  1  0.72837000  0.64333000  0.16314000  1.0
  H  H56  1  0.73504000  0.77150000  0.23880000  1.0
  H  H57  1  0.37908000  0.50826000  0.07162000  1.0
  H  H58  1  0.29611000  0.43514000  0.92261000  1.0
  H  H59  1  0.24360000  0.49058000  0.00686000  1.0
  H  H60  1  0.50220000  0.52466000  0.75583000  1.0
  H  H61  1  0.56538000  0.48274000  0.84843000  1.0
  H  H62  1  0.49757000  0.55962000  0.88140000  1.0
  H  H63  1  0.43537000  0.29635000  0.92256000  1.0
  H  H64  1  0.50858000  0.37939000  0.07159000  1.0
  H  H65  1  0.49062000  0.24379000  0.00687000  1.0
  C  C66  1  0.68065000  0.26684000  0.20943000  1.0
  C  C67  1  0.94244000  0.73329000  0.41236000  1.0
  C  C68  1  0.31886000  0.52801000  0.58568000  1.0
  C  C69  1  0.05745000  0.47062000  0.79060000  1.0
  C  C70  1  0.79076000  0.05797000  0.47165000  1.0
  C  C71  1  0.58596000  0.31977000  0.52914000  1.0
  C  C72  1  0.41380000  0.94240000  0.73304000  1.0
  C  C73  1  0.20926000  0.67987000  0.26668000  1.0
  C  C74  1  0.53031000  0.58771000  0.32116000  1.0
  C  C75  1  0.47142000  0.79034000  0.05722000  1.0
  C  C76  1  0.26671000  0.20914000  0.67985000  1.0
  C  C77  1  0.73320000  0.41289000  0.94221000  1.0
  C  C78  1  0.20911000  0.26652000  0.67971000  1.0
  C  C79  1  0.41337000  0.73286000  0.94229000  1.0
  C  C80  1  0.58774000  0.53011000  0.32093000  1.0
  C  C81  1  0.79071000  0.47087000  0.05713000  1.0
  C  C82  1  0.47064000  0.05734000  0.79062000  1.0
  C  C83  1  0.52916000  0.32033000  0.58731000  1.0
  C  C84  1  0.73353000  0.94304000  0.41446000  1.0
  C  C85  1  0.26703000  0.68074000  0.20946000  1.0
  C  C86  1  0.31891000  0.58546000  0.52818000  1.0
  C  C87  1  0.05741000  0.79060000  0.47040000  1.0
  C  C88  1  0.67983000  0.20922000  0.26674000  1.0
  C  C89  1  0.94248000  0.41384000  0.73310000  1.0
  C  C90  1  0.75606000  0.38689000  0.38692000  1.0
  C  C91  1  0.81438000  0.49382000  0.49425000  1.0
  C  C92  1  0.99993000  0.61280000  0.36974000  1.0
  C  C93  1  0.99968000  0.50573000  0.31960000  1.0
  C  C94  1  0.24345000  0.63023000  0.63025000  1.0
  C  C95  1  0.18704000  0.68083000  0.68065000  1.0
  C  C96  1  0.99980000  0.36992000  0.61276000  1.0
  C  C97  1  0.99977000  0.31933000  0.50590000  1.0
  C  C98  1  0.61297000  0.00002000  0.36991000  1.0
  C  C99  1  0.50581000  0.99956000  0.31937000  1.0
  C  C100  1  0.63022000  0.24340000  0.63032000  1.0
  C  C101  1  0.68073000  0.18681000  0.68047000  1.0
  C  C102  1  0.36992000  0.99979000  0.61280000  1.0
  C  C103  1  0.31938000  0.99981000  0.50596000  1.0
  C  C104  1  0.38695000  0.75612000  0.38697000  1.0
  C  C105  1  0.49388000  0.81440000  0.49435000  1.0
  C  C106  1  0.63083000  0.63088000  0.24384000  1.0
  C  C107  1  0.67980000  0.68025000  0.18592000  1.0
  C  C108  1  0.37000000  0.61282000  0.00006000  1.0
  C  C109  1  0.31949000  0.50607000  0.00024000  1.0
  C  C110  1  0.38685000  0.38686000  0.75632000  1.0
  C  C111  1  0.49368000  0.49394000  0.81336000  1.0
  C  C112  1  0.61305000  0.36992000  0.99999000  1.0
  C  C113  1  0.50627000  0.31967000  0.00020000  1.0
  N  N114  1  0.72847000  0.37889000  0.28547000  1.0
  N  N115  1  0.90648000  0.62119000  0.34873000  1.0
  N  N116  1  0.27157000  0.55677000  0.65032000  1.0
  N  N117  1  0.09335000  0.44253000  0.71444000  1.0
  N  N118  1  0.71447000  0.09366000  0.44308000  1.0
  N  N119  1  0.64999000  0.27158000  0.55682000  1.0
  N  N120  1  0.35005000  0.90637000  0.62097000  1.0
  N  N121  1  0.28516000  0.72727000  0.37862000  1.0
  N  N122  1  0.55790000  0.65140000  0.27271000  1.0
  N  N123  1  0.44361000  0.71445000  0.09342000  1.0
  N  N124  1  0.37880000  0.28530000  0.72797000  1.0
  N  N125  1  0.62114000  0.34901000  0.90645000  1.0
  N  N126  1  0.28510000  0.37857000  0.72770000  1.0
  N  N127  1  0.34928000  0.62089000  0.90649000  1.0
  N  N128  1  0.65127000  0.55776000  0.27229000  1.0
  N  N129  1  0.71472000  0.44319000  0.09331000  1.0
  N  N130  1  0.44256000  0.09327000  0.71450000  1.0
  N  N131  1  0.55749000  0.27231000  0.65125000  1.0
  N  N132  1  0.62145000  0.90674000  0.34998000  1.0
  N  N133  1  0.37909000  0.72857000  0.28557000  1.0
  N  N134  1  0.27166000  0.65020000  0.55684000  1.0
  N  N135  1  0.09343000  0.71437000  0.44303000  1.0
  N  N136  1  0.72721000  0.28517000  0.37865000  1.0
  N  N137  1  0.90635000  0.35010000  0.62099000  1.0
