# generated using pymatgen
data_Zn4H40C66N16O13
_symmetry_space_group_name_H-M   'P 1'
_cell_length_a   18.56200000
_cell_length_b   19.63910000
_cell_length_c   20.40700100
_cell_angle_alpha   111.51061725
_cell_angle_beta   103.84781703
_cell_angle_gamma   109.72500000
_symmetry_Int_Tables_number   1
_chemical_formula_structural   Zn4H40C66N16O13
_chemical_formula_sum   'Zn4 H40 C66 N16 O13'
_cell_volume   5928.59354080
_cell_formula_units_Z   1
loop_
 _symmetry_equiv_pos_site_id
 _symmetry_equiv_pos_as_xyz
  1  'x, y, z'
loop_
 _atom_site_type_symbol
 _atom_site_label
 _atom_site_symmetry_multiplicity
 _atom_site_fract_x
 _atom_site_fract_y
 _atom_site_fract_z
 _atom_site_occupancy
  Zn  Zn0  1  0.59991000  0.60557000  0.50091000  1.0
  Zn  Zn1  1  0.38800000  0.38198000  0.47807000  1.0
  Zn  Zn2  1  0.51037000  0.59267000  0.62295000  1.0
  Zn  Zn3  1  0.48731000  0.38860000  0.36393000  1.0
  H  H4  1  0.76762000  0.79140000  0.64241000  1.0
  H  H5  1  0.94084000  0.13398000  0.10918000  1.0
  H  H6  1  0.82385000  0.00408000  0.99431000  1.0
  H  H7  1  0.38391000  0.30743000  0.59987000  1.0
  H  H8  1  0.76922000  0.60922000  0.57541000  1.0
  H  H9  1  0.66613000  0.69216000  0.77680000  1.0
  H  H10  1  0.62830000  0.67785000  0.38714000  1.0
  H  H11  1  0.48641000  0.86526000  0.70507000  1.0
  H  H12  1  0.59837000  0.92512000  0.76108000  1.0
  H  H13  1  0.53204000  0.87706000  0.79934000  1.0
  H  H14  1  0.07263000  0.15318000  0.22358000  1.0
  H  H15  1  0.21737000  0.38318000  0.39978000  1.0
  H  H16  1  0.07881000  0.25199000  0.27743000  1.0
  H  H17  1  0.05694000  0.17800000  0.31144000  1.0
  H  H18  1  0.57158000  0.80425000  0.47656000  1.0
  H  H19  1  0.51948000  0.40917000  0.16674000  1.0
  H  H20  1  0.30469000  0.65034000  0.60664000  1.0
  H  H21  1  0.63492000  0.22766000  0.80257000  1.0
  H  H22  1  0.52453000  0.16784000  0.74001000  1.0
  H  H23  1  0.57466000  0.27903000  0.78531000  1.0
  H  H24  1  0.67815000  0.95348000  0.54578000  1.0
  H  H25  1  0.65177000  0.64888000  0.97739000  1.0
  H  H26  1  0.33770000  0.36178000  0.22560000  1.0
  H  H27  1  0.41261000  0.29532000  0.81242000  1.0
  H  H28  1  0.37610000  0.29460000  0.88640000  1.0
  H  H29  1  0.39475000  0.21121000  0.83319000  1.0
  H  H30  1  0.51451000  0.33030000  0.02242000  1.0
  H  H31  1  0.58242000  0.56820000  0.82840000  1.0
  H  H32  1  0.69902000  0.30438000  0.44178000  1.0
  H  H33  1  0.76067000  0.33765000  0.39295000  1.0
  H  H34  1  0.66347000  0.24180000  0.33956000  1.0
  H  H35  1  0.48590000  0.21356000  0.26677000  1.0
  H  H36  1  0.39559000  0.15455000  0.27685000  1.0
  H  H37  1  0.59476000  0.09237000  0.71380000  1.0
  H  H38  1  0.45944000  0.10881000  0.24651000  1.0
  H  H39  1  0.55007000  0.39012000  0.59060000  1.0
  H  H40  1  0.67280000  0.11080000  0.50158000  1.0
  H  H41  1  0.65427000  0.64351000  0.08745000  1.0
  H  H42  1  0.95770000  0.04047000  0.85416000  1.0
  H  H43  1  0.07543000  0.16976000  0.96916000  1.0
  C  C44  1  0.73381000  0.75358000  0.66349000  1.0
  C  C45  1  0.55699000  0.74634000  0.53325000  1.0
  C  C46  1  0.53363000  0.47667000  0.26935000  1.0
  C  C47  1  0.53236000  0.35019000  0.52989000  1.0
  C  C48  1  0.33166000  0.56832000  0.55265000  1.0
  C  C49  1  0.58098000  0.55664000  0.27959000  1.0
  C  C50  1  0.25011000  0.50838000  0.49336000  1.0
  C  C51  1  0.56682000  0.81062000  0.60184000  1.0
  C  C52  1  0.22868000  0.28856000  0.24383000  1.0
  C  C53  1  0.82828000  0.49498000  0.49404000  1.0
  C  C54  1  0.89756000  0.50259000  0.49600000  1.0
  C  C55  1  0.55459000  0.28817000  0.49758000  1.0
  C  C56  1  0.97127000  0.50899000  0.49484000  1.0
  C  C57  1  0.03845000  0.51315000  0.49214000  1.0
  C  C58  1  0.11051000  0.51494000  0.48990000  1.0
  C  C59  1  0.51447000  0.50547000  0.71915000  1.0
  C  C60  1  0.17574000  0.51264000  0.48848000  1.0
  C  C61  1  0.61321000  0.09846000  0.66870000  1.0
  C  C62  1  0.62908000  0.03643000  0.62226000  1.0
  C  C63  1  0.65571000  0.04473000  0.56488000  1.0
  C  C64  1  0.65717000  0.10796000  0.54897000  1.0
  C  C65  1  0.63476000  0.16611000  0.59077000  1.0
  C  C66  1  0.47989000  0.42486000  0.71080000  1.0
  C  C67  1  0.61722000  0.16338000  0.65440000  1.0
  C  C68  1  0.61322000  0.96239000  0.62522000  1.0
  C  C69  1  0.62105000  0.21988000  0.56474000  1.0
  C  C70  1  0.59528000  0.25570000  0.53494000  1.0
  C  C71  1  0.66910000  0.41990000  0.42719000  1.0
  C  C72  1  0.59191000  0.89249000  0.61732000  1.0
  C  C73  1  0.60234000  0.54199000  0.97156000  1.0
  C  C74  1  0.55803000  0.45470000  0.92144000  1.0
  C  C75  1  0.53983000  0.40398000  0.95576000  1.0
  C  C76  1  0.56062000  0.43827000  0.03504000  1.0
  C  C77  1  0.74859000  0.48686000  0.48576000  1.0
  C  C78  1  0.60033000  0.52517000  0.08342000  1.0
  C  C79  1  0.62292000  0.57632000  0.05029000  1.0
  C  C80  1  0.53022000  0.42544000  0.84127000  1.0
  C  C81  1  0.60849000  0.55431000  0.16013000  1.0
  C  C82  1  0.60138000  0.56598000  0.22088000  1.0
  C  C83  1  0.42333000  0.37428000  0.63212000  1.0
  C  C84  1  0.50189000  0.41392000  0.77523000  1.0
  C  C85  1  0.02017000  0.13356000  0.97452000  1.0
  C  C86  1  0.01889000  0.15816000  0.04841000  1.0
  C  C87  1  0.94462000  0.11299000  0.05329000  1.0
  C  C88  1  0.59580000  0.61057000  0.35507000  1.0
  C  C89  1  0.87913000  0.04044000  0.98907000  1.0
  C  C90  1  0.88492000  0.01056000  0.91716000  1.0
  C  C91  1  0.95452000  0.06130000  0.91030000  1.0
  C  C92  1  0.09247000  0.21804000  0.11694000  1.0
  C  C93  1  0.82743000  0.92972000  0.85520000  1.0
  C  C94  1  0.78631000  0.85764000  0.80312000  1.0
  C  C95  1  0.72772000  0.54783000  0.52583000  1.0
  C  C96  1  0.15658000  0.25468000  0.17644000  1.0
  C  C97  1  0.51185000  0.25573000  0.41637000  1.0
  C  C98  1  0.68257000  0.70315000  0.73269000  1.0
  C  C99  1  0.26321000  0.44272000  0.44990000  1.0
  C  C100  1  0.73881000  0.77722000  0.73933000  1.0
  C  C101  1  0.54116000  0.87092000  0.74680000  1.0
  C  C102  1  0.09143000  0.20267000  0.28189000  1.0
  C  C103  1  0.58291000  0.22409000  0.75934000  1.0
  C  C104  1  0.41574000  0.27795000  0.85800000  1.0
  C  C105  1  0.69679000  0.30538000  0.38783000  1.0
  C  C106  1  0.45967000  0.16603000  0.28294000  1.0
  C  C107  1  0.54972000  0.76980000  0.64556000  1.0
  C  C108  1  0.31311000  0.33743000  0.25994000  1.0
  C  C109  1  0.23636000  0.27515000  0.30889000  1.0
  N  N110  1  0.67862000  0.67310000  0.61650000  1.0
  N  N111  1  0.48196000  0.50253000  0.65153000  1.0
  N  N112  1  0.60879000  0.44159000  0.43245000  1.0
  N  N113  1  0.42419000  0.42019000  0.59698000  1.0
  N  N114  1  0.64446000  0.52038000  0.49296000  1.0
  N  N115  1  0.46792000  0.29409000  0.40168000  1.0
  N  N116  1  0.64567000  0.64092000  0.65853000  1.0
  N  N117  1  0.56094000  0.56647000  0.38649000  1.0
  N  N118  1  0.34463000  0.46244000  0.48149000  1.0
  N  N119  1  0.53215000  0.69107000  0.60596000  1.0
  N  N120  1  0.36459000  0.35049000  0.32691000  1.0
  N  N121  1  0.31736000  0.31188000  0.35759000  1.0
  N  N122  1  0.53698000  0.67513000  0.53529000  1.0
  N  N123  1  0.52149000  0.48262000  0.33263000  1.0
  N  N124  1  0.38703000  0.54010000  0.54529000  1.0
  N  N125  1  0.47989000  0.35259000  0.47324000  1.0
  O  O126  1  0.54885000  0.79641000  0.71606000  1.0
  O  O127  1  0.53886000  0.38670000  0.06570000  1.0
  O  O128  1  0.56994000  0.57785000  0.78367000  1.0
  O  O129  1  0.64759000  0.34488000  0.36979000  1.0
  O  O130  1  0.51218000  0.19223000  0.36096000  1.0
  O  O131  1  0.17877000  0.23504000  0.32936000  1.0
  O  O132  1  0.56871000  0.75197000  0.47193000  1.0
  O  O133  1  0.50215000  0.40185000  0.20681000  1.0
  O  O134  1  0.35522000  0.64368000  0.61131000  1.0
  O  O135  1  0.60140000  0.22494000  0.69562000  1.0
  O  O136  1  0.67621000  0.98810000  0.52159000  1.0
  O  O137  1  0.62149000  0.59086000  0.93729000  1.0
  O  O138  1  0.50161000  0.31818000  0.91448000  1.0
