# generated using pymatgen
data_Zn3H20C30(N2O3)4
_symmetry_space_group_name_H-M   'P 1'
_cell_length_a   12.02110000
_cell_length_b   12.95850000
_cell_length_c   12.95850000
_cell_angle_alpha   108.35000000
_cell_angle_beta   106.09600000
_cell_angle_gamma   106.09600000
_symmetry_Int_Tables_number   1
_chemical_formula_structural   Zn3H20C30(N2O3)4
_chemical_formula_sum   'Zn6 H40 C60 N16 O24'
_cell_volume   1687.39526177
_cell_formula_units_Z   2
loop_
 _symmetry_equiv_pos_site_id
 _symmetry_equiv_pos_as_xyz
  1  'x, y, z'
loop_
 _atom_site_type_symbol
 _atom_site_label
 _atom_site_symmetry_multiplicity
 _atom_site_fract_x
 _atom_site_fract_y
 _atom_site_fract_z
 _atom_site_occupancy
  Zn  Zn0  1  0.98714000  0.48715000  0.25780000  1.0
  Zn  Zn1  1  0.51286000  0.74220000  0.51285000  1.0
  Zn  Zn2  1  0.01286000  0.51284000  0.74220000  1.0
  Zn  Zn3  1  0.48714000  0.25780000  0.48716000  1.0
  Zn  Zn4  1  0.75000000  0.22254000  0.77747000  1.0
  Zn  Zn5  1  0.25000000  0.77747000  0.22254000  1.0
  H  H6  1  0.66928000  0.16951000  0.33157000  1.0
  H  H7  1  0.83072000  0.66843000  0.83049000  1.0
  H  H8  1  0.33072000  0.83049000  0.66843000  1.0
  H  H9  1  0.16928000  0.33157000  0.16951000  1.0
  H  H10  1  0.79102000  0.91599000  0.46075000  1.0
  H  H11  1  0.70898000  0.53925000  0.08401000  1.0
  H  H12  1  0.20898000  0.08401000  0.53925000  1.0
  H  H13  1  0.29102000  0.46075000  0.91599000  1.0
  H  H14  1  0.98475000  0.23396000  0.23625000  1.0
  H  H15  1  0.51525000  0.76375000  0.76604000  1.0
  H  H16  1  0.01525000  0.76604000  0.76375000  1.0
  H  H17  1  0.48474000  0.23625000  0.23396000  1.0
  H  H18  1  0.91459000  0.60955000  0.49722000  1.0
  H  H19  1  0.58541000  0.50278000  0.39045000  1.0
  H  H20  1  0.08541000  0.39045000  0.50278000  1.0
  H  H21  1  0.41459000  0.49722000  0.60955000  1.0
  H  H22  1  0.96552000  0.70953000  0.22765000  1.0
  H  H23  1  0.53449000  0.77235000  0.29047000  1.0
  H  H24  1  0.03448000  0.29047000  0.77235000  1.0
  H  H25  1  0.46551000  0.22765000  0.70953000  1.0
  H  H26  1  0.75691000  0.07876000  0.42484000  1.0
  H  H27  1  0.74309000  0.57516000  0.92124000  1.0
  H  H28  1  0.24309000  0.92124000  0.57516000  1.0
  H  H29  1  0.25691000  0.42484000  0.07876000  1.0
  H  H30  1  0.73483000  0.38580000  0.31785000  1.0
  H  H31  1  0.76517000  0.68215000  0.61420000  1.0
  H  H32  1  0.26517000  0.61420000  0.68215000  1.0
  H  H33  1  0.23483000  0.31785000  0.38580000  1.0
  H  H34  1  0.86572000  0.81113000  0.52238000  1.0
  H  H35  1  0.63428000  0.47762000  0.18887000  1.0
  H  H36  1  0.13428000  0.18887000  0.47762000  1.0
  H  H37  1  0.36572000  0.52238000  0.81113000  1.0
  H  H38  1  0.93475000  0.03374000  0.17521000  1.0
  H  H39  1  0.56525000  0.82479000  0.96626000  1.0
  H  H40  1  0.06525000  0.96626000  0.82479000  1.0
  H  H41  1  0.43475000  0.17521000  0.03374000  1.0
  H  H42  1  0.98033000  0.87541000  0.21894000  1.0
  H  H43  1  0.51966000  0.78106000  0.12459000  1.0
  H  H44  1  0.01966000  0.12459000  0.78106000  1.0
  H  H45  1  0.48034000  0.21894000  0.87542000  1.0
  C  C46  1  0.91926000  0.66104000  0.44536000  1.0
  C  C47  1  0.58074000  0.55464000  0.33896000  1.0
  C  C48  1  0.08074000  0.33896000  0.55464000  1.0
  C  C49  1  0.41926000  0.44536000  0.66104000  1.0
  C  C50  1  0.94591000  0.70902000  0.30420000  1.0
  C  C51  1  0.55409000  0.69580000  0.29098000  1.0
  C  C52  1  0.05409000  0.29098000  0.69580000  1.0
  C  C53  1  0.44591000  0.30420000  0.70902000  1.0
  C  C54  1  0.74404000  0.21530000  0.31018000  1.0
  C  C55  1  0.75596000  0.68982000  0.78470000  1.0
  C  C56  1  0.25597000  0.78470000  0.68982000  1.0
  C  C57  1  0.24403000  0.31018000  0.21530000  1.0
  C  C58  1  0.82735000  0.38624000  0.00749000  1.0
  C  C59  1  0.67265000  0.99251000  0.61376000  1.0
  C  C60  1  0.17266000  0.61377000  0.99252000  1.0
  C  C61  1  0.32734000  0.00748000  0.38623000  1.0
  C  C62  1  0.84345000  0.06803000  0.29751000  1.0
  C  C63  1  0.65655000  0.70249000  0.93197000  1.0
  C  C64  1  0.15655000  0.93197000  0.70249000  1.0
  C  C65  1  0.34345000  0.29751000  0.06803000  1.0
  C  C66  1  0.92856000  0.33177000  0.01106000  1.0
  C  C67  1  0.57144000  0.98893000  0.66823000  1.0
  C  C68  1  0.07145000  0.66823000  0.98894000  1.0
  C  C69  1  0.42855000  0.01106000  0.33177000  1.0
  C  C70  1  0.90725000  0.24611000  0.25803000  1.0
  C  C71  1  0.59275000  0.74197000  0.75389000  1.0
  C  C72  1  0.09275000  0.75389000  0.74197000  1.0
  C  C73  1  0.40725000  0.25803000  0.24611000  1.0
  C  C74  1  0.88939000  0.88393000  0.34340000  1.0
  C  C75  1  0.61061000  0.65660000  0.11607000  1.0
  C  C76  1  0.11061000  0.11607000  0.65660000  1.0
  C  C77  1  0.38939000  0.34340000  0.88393000  1.0
  C  C78  1  0.75000000  0.34775000  0.65225000  1.0
  C  C79  1  0.25000000  0.65225000  0.34775000  1.0
  C  C80  1  0.80340000  0.03332000  0.37721000  1.0
  C  C81  1  0.69660000  0.62279000  0.96668000  1.0
  C  C82  1  0.19660000  0.96668000  0.62279000  1.0
  C  C83  1  0.30340000  0.37721000  0.03332000  1.0
  C  C84  1  0.92949000  0.91802000  0.26300000  1.0
  C  C85  1  0.57051000  0.73700000  0.08198000  1.0
  C  C86  1  0.07051000  0.08198000  0.73700000  1.0
  C  C87  1  0.42949000  0.26300000  0.91802000  1.0
  C  C88  1  0.75000000  0.42130000  0.57870000  1.0
  C  C89  1  0.25000000  0.57870000  0.42130000  1.0
  C  C90  1  0.90482000  0.00892000  0.23914000  1.0
  C  C91  1  0.59518000  0.76086000  0.99108000  1.0
  C  C92  1  0.09518000  0.99108000  0.76086000  1.0
  C  C93  1  0.40482000  0.23914000  0.00892000  1.0
  C  C94  1  0.82553000  0.94118000  0.39928000  1.0
  C  C95  1  0.67447000  0.60072000  0.05881000  1.0
  C  C96  1  0.17447000  0.05882000  0.60072000  1.0
  C  C97  1  0.32553000  0.39928000  0.94119000  1.0
  C  C98  1  0.89372000  0.76007000  0.45847000  1.0
  C  C99  1  0.60628000  0.54153000  0.23993000  1.0
  C  C100  1  0.10628000  0.23993000  0.54153000  1.0
  C  C101  1  0.39372000  0.45847000  0.76007000  1.0
  C  C102  1  0.77590000  0.32096000  0.30052000  1.0
  C  C103  1  0.72409000  0.69948000  0.67904000  1.0
  C  C104  1  0.22409000  0.67904000  0.69948000  1.0
  C  C105  1  0.27590000  0.30052000  0.32096000  1.0
  N  N106  1  0.95134000  0.63018000  0.34869000  1.0
  N  N107  1  0.54866000  0.65131000  0.36982000  1.0
  N  N108  1  0.04866000  0.36982000  0.65131000  1.0
  N  N109  1  0.45134000  0.34869000  0.63018000  1.0
  N  N110  1  0.87750000  0.33909000  0.26815000  1.0
  N  N111  1  0.62250000  0.73185000  0.66091000  1.0
  N  N112  1  0.12250000  0.66091000  0.73185000  1.0
  N  N113  1  0.37750000  0.26815000  0.33909000  1.0
  N  N114  1  0.82836000  0.16826000  0.28283000  1.0
  N  N115  1  0.67164000  0.71717000  0.83175000  1.0
  N  N116  1  0.17165000  0.83175000  0.71717000  1.0
  N  N117  1  0.32835000  0.28283000  0.16826000  1.0
  N  N118  1  0.91064000  0.78995000  0.36808000  1.0
  N  N119  1  0.58936000  0.63192000  0.21004000  1.0
  N  N120  1  0.08936000  0.21004000  0.63192000  1.0
  N  N121  1  0.41064000  0.36808000  0.78996000  1.0
  O  O122  1  0.91439000  0.25469000  0.91343000  1.0
  O  O123  1  0.58561000  0.08657000  0.74531000  1.0
  O  O124  1  0.08561000  0.74531000  0.08657000  1.0
  O  O125  1  0.41440000  0.91343000  0.25469000  1.0
  O  O126  1  0.73513000  0.34790000  0.90912000  1.0
  O  O127  1  0.76487000  0.09088000  0.65210000  1.0
  O  O128  1  0.26487000  0.65210000  0.09088000  1.0
  O  O129  1  0.23513000  0.90912000  0.34790000  1.0
  O  O130  1  0.84378000  0.46539000  0.10383000  1.0
  O  O131  1  0.65622000  0.89617000  0.53461000  1.0
  O  O132  1  0.15624000  0.53462000  0.89617000  1.0
  O  O133  1  0.34377000  0.10383000  0.46538000  1.0
  O  O134  1  0.01637000  0.36827000  0.11099000  1.0
  O  O135  1  0.48363000  0.88901000  0.63173000  1.0
  O  O136  1  0.98363000  0.63172000  0.88901000  1.0
  O  O137  1  0.51637000  0.11099000  0.36828000  1.0
  O  O138  1  0.85470000  0.50219000  0.60539000  1.0
  O  O139  1  0.64530000  0.39461000  0.49781000  1.0
  O  O140  1  0.14530000  0.49781000  0.39461000  1.0
  O  O141  1  0.35470000  0.60538000  0.50218000  1.0
  O  O142  1  0.85223000  0.37331000  0.73626000  1.0
  O  O143  1  0.64777000  0.26374000  0.62669000  1.0
  O  O144  1  0.14777000  0.62668000  0.26373000  1.0
  O  O145  1  0.35223000  0.73626000  0.37331000  1.0
