# generated using pymatgen
data_Cd3H28C36(NO7)2
_symmetry_space_group_name_H-M   'P 1'
_cell_length_a   7.63011000
_cell_length_b   10.19620000
_cell_length_c   13.59760000
_cell_angle_alpha   68.45010000
_cell_angle_beta   80.71600000
_cell_angle_gamma   71.12430000
_symmetry_Int_Tables_number   1
_chemical_formula_structural   Cd3H28C36(NO7)2
_chemical_formula_sum   'Cd3 H28 C36 N2 O14'
_cell_volume   929.92206530
_cell_formula_units_Z   1
loop_
 _symmetry_equiv_pos_site_id
 _symmetry_equiv_pos_as_xyz
  1  'x, y, z'
loop_
 _atom_site_type_symbol
 _atom_site_label
 _atom_site_symmetry_multiplicity
 _atom_site_fract_x
 _atom_site_fract_y
 _atom_site_fract_z
 _atom_site_occupancy
  Cd  Cd0  1  0.17156000  0.34689000  0.45479000  1.0
  Cd  Cd1  1  0.82844000  0.65311000  0.54521000  1.0
  Cd  Cd2  1  0.50000000  0.00000000  0.50000000  1.0
  H  H3  1  0.14401000  0.86682000  0.45220000  1.0
  H  H4  1  0.85599000  0.13318000  0.54781000  1.0
  H  H5  1  0.21010000  0.76259000  0.16778000  1.0
  H  H6  1  0.78990000  0.23741000  0.83222000  1.0
  H  H7  1  0.16422000  0.20377000  0.15028000  1.0
  H  H8  1  0.83578000  0.79624000  0.84972000  1.0
  H  H9  1  0.41214000  0.81581000  0.03601000  1.0
  H  H10  1  0.58786000  0.18419000  0.96399000  1.0
  H  H11  1  0.46554000  0.87769000  0.84160000  1.0
  H  H12  1  0.53447000  0.12231000  0.15840000  1.0
  H  H13  1  0.10028000  0.31375000  0.79492000  1.0
  H  H14  1  0.89972000  0.68625000  0.20508000  1.0
  H  H15  1  0.04370000  0.25281000  0.98933000  1.0
  H  H16  1  0.95630000  0.74719000  0.01067000  1.0
  H  H17  1  0.39010000  0.79384000  0.72419000  1.0
  H  H18  1  0.60991000  0.20616000  0.27581000  1.0
  H  H19  1  0.27414000  0.65693000  0.86363000  1.0
  H  H20  1  0.72586000  0.34306000  0.13637000  1.0
  H  H21  1  0.34866000  0.46335000  0.88402000  1.0
  H  H22  1  0.65134000  0.53664000  0.11598000  1.0
  H  H23  1  0.12688000  0.57487000  0.83059000  1.0
  H  H24  1  0.87312000  0.42512000  0.16941000  1.0
  H  H25  1  0.42660000  0.53353000  0.59374000  1.0
  H  H26  1  0.57340000  0.46647000  0.40627000  1.0
  H  H27  1  0.22530000  0.49353000  0.66904000  1.0
  H  H28  1  0.77470000  0.50647000  0.33096000  1.0
  H  H29  1  0.44925000  0.38737000  0.71916000  1.0
  H  H30  1  0.55075000  0.61263000  0.28084000  1.0
  C  C31  1  0.15113000  0.04654000  0.30566000  1.0
  C  C32  1  0.84887000  0.95346000  0.69435000  1.0
  C  C33  1  0.15498000  0.90106000  0.36625000  1.0
  C  C34  1  0.84501000  0.09894000  0.63375000  1.0
  C  C35  1  0.17291000  0.80022000  0.31531000  1.0
  C  C36  1  0.82709000  0.19978000  0.68470000  1.0
  C  C37  1  0.19450000  0.84396000  0.20495000  1.0
  C  C38  1  0.80550000  0.15604000  0.79505000  1.0
  C  C39  1  0.19103000  0.98892000  0.14305000  1.0
  C  C40  1  0.80897000  0.01109000  0.85695000  1.0
  C  C41  1  0.16476000  0.09035000  0.19496000  1.0
  C  C42  1  0.83523000  0.90965000  0.80504000  1.0
  C  C43  1  0.22200000  0.02912000  0.02708000  1.0
  C  C44  1  0.77800000  0.97088000  0.97292000  1.0
  C  C45  1  0.34005000  0.92427000  0.98341000  1.0
  C  C46  1  0.65995000  0.07573000  0.01659000  1.0
  C  C47  1  0.37147000  0.95869000  0.87467000  1.0
  C  C48  1  0.62853000  0.04131000  0.12532000  1.0
  C  C49  1  0.28654000  0.09925000  0.80544000  1.0
  C  C50  1  0.71346000  0.90075000  0.19455000  1.0
  C  C51  1  0.17042000  0.20530000  0.84816000  1.0
  C  C52  1  0.82958000  0.79470000  0.15184000  1.0
  C  C53  1  0.13887000  0.17046000  0.95742000  1.0
  C  C54  1  0.86113000  0.82954000  0.04258000  1.0
  C  C55  1  0.14502000  0.15490000  0.35699000  1.0
  C  C56  1  0.85498000  0.84511000  0.64301000  1.0
  C  C57  1  0.16816000  0.64580000  0.37591000  1.0
  C  C58  1  0.83184000  0.35420000  0.62409000  1.0
  C  C59  1  0.31672000  0.13105000  0.68798000  1.0
  C  C60  1  0.68328000  0.86895000  0.31202000  1.0
  C  C61  1  0.41270000  0.72025000  0.67807000  1.0
  C  C62  1  0.58731000  0.27974000  0.32193000  1.0
  C  C63  1  0.27138000  0.57238000  0.83263000  1.0
  C  C64  1  0.72862000  0.42762000  0.16737000  1.0
  C  C65  1  0.36530000  0.49733000  0.67375000  1.0
  C  C66  1  0.63470000  0.50267000  0.32625000  1.0
  N  N67  1  0.35557000  0.60130000  0.72585000  1.0
  N  N68  1  0.64443000  0.39869000  0.27415000  1.0
  O  O69  1  0.10011000  0.29121000  0.30522000  1.0
  O  O70  1  0.89990000  0.70879000  0.69479000  1.0
  O  O71  1  0.19043000  0.10495000  0.45482000  1.0
  O  O72  1  0.80957000  0.89504000  0.54518000  1.0
  O  O73  1  0.13073000  0.60656000  0.47595000  1.0
  O  O74  1  0.86927000  0.39345000  0.52406000  1.0
  O  O75  1  0.20490000  0.55579000  0.32532000  1.0
  O  O76  1  0.79510000  0.44421000  0.67468000  1.0
  O  O77  1  0.41639000  0.02286000  0.65901000  1.0
  O  O78  1  0.58361000  0.97714000  0.34099000  1.0
  O  O79  1  0.24096000  0.26046000  0.62745000  1.0
  O  O80  1  0.75904000  0.73954000  0.37255000  1.0
  O  O81  1  0.48643000  0.75315000  0.58492000  1.0
  O  O82  1  0.51357000  0.24685000  0.41508000  1.0
