# generated using pymatgen
data_K2HC3(NO)3
_symmetry_space_group_name_H-M   'P 1'
_cell_length_a   6.63493000
_cell_length_b   6.87477000
_cell_length_c   7.36137666
_cell_angle_alpha   89.99984934
_cell_angle_beta   63.21420569
_cell_angle_gamma   89.99950000
_symmetry_Int_Tables_number   1
_chemical_formula_structural   K2HC3(NO)3
_chemical_formula_sum   'K4 H2 C6 N6 O6'
_cell_volume   299.74911919
_cell_formula_units_Z   2
loop_
 _symmetry_equiv_pos_site_id
 _symmetry_equiv_pos_as_xyz
  1  'x, y, z'
loop_
 _atom_site_type_symbol
 _atom_site_label
 _atom_site_symmetry_multiplicity
 _atom_site_fract_x
 _atom_site_fract_y
 _atom_site_fract_z
 _atom_site_occupancy
  K  K0  1  0.82262000  0.49999000  0.35484000  1.0
  K  K1  1  0.17736000  0.99998000  0.64516000  1.0
  K  K2  1  0.17738000  0.50001000  0.64516000  1.0
  K  K3  1  0.82263000  0.00002000  0.35483000  1.0
  H  H4  1  0.20481000  0.25000000  0.99996000  1.0
  H  H5  1  0.79519000  0.75000000  0.00004000  1.0
  C  C6  1  0.55173000  0.25000000  0.81497000  1.0
  C  C7  1  0.44827000  0.75000000  0.18503000  1.0
  C  C8  1  0.36682000  0.25000000  0.18486000  1.0
  C  C9  1  0.63318000  0.75000000  0.81514000  1.0
  C  C10  1  0.75651000  0.25000000  0.99989000  1.0
  C  C11  1  0.24349000  0.75000000  0.00011000  1.0
  N  N12  1  0.36010000  0.25000000  0.99993000  1.0
  N  N13  1  0.63990000  0.75000000  0.00008000  1.0
  N  N14  1  0.75457000  0.25000000  0.81479000  1.0
  N  N15  1  0.24543000  0.75000000  0.18521000  1.0
  N  N16  1  0.56949000  0.25000000  0.18502000  1.0
  N  N17  1  0.43051000  0.75000000  0.81498000  1.0
  O  O18  1  0.52659000  0.25000000  0.65361000  1.0
  O  O19  1  0.47342000  0.75000000  0.34638000  1.0
  O  O20  1  0.18033000  0.25000000  0.34625000  1.0
  O  O21  1  0.81967000  0.75000000  0.65375000  1.0
  O  O22  1  0.95043000  0.25000000  0.99985000  1.0
  O  O23  1  0.04957000  0.75000000  0.00015000  1.0
