# generated using pymatgen
data_AlH12C24(NO3)3
_symmetry_space_group_name_H-M   'P 1'
_cell_length_a   3.95367000
_cell_length_b   15.76760000
_cell_length_c   15.81160000
_cell_angle_alpha   60.11470000
_cell_angle_beta   87.65510000
_cell_angle_gamma   87.12870000
_symmetry_Int_Tables_number   1
_chemical_formula_structural   AlH12C24(NO3)3
_chemical_formula_sum   'Al1 H12 C24 N3 O9'
_cell_volume   853.40258901
_cell_formula_units_Z   1
loop_
 _symmetry_equiv_pos_site_id
 _symmetry_equiv_pos_as_xyz
  1  'x, y, z'
loop_
 _atom_site_type_symbol
 _atom_site_label
 _atom_site_symmetry_multiplicity
 _atom_site_fract_x
 _atom_site_fract_y
 _atom_site_fract_z
 _atom_site_occupancy
  Al  Al0  1  0.93243000  0.50156000  0.49967000  1.0
  H  H1  1  0.10749000  0.75036000  0.52704000  1.0
  H  H2  1  0.13816000  0.84684000  0.61343000  1.0
  H  H3  1  0.69409000  0.60546000  0.84414000  1.0
  H  H4  1  0.75722000  0.04478000  0.60883000  1.0
  H  H5  1  0.16316000  0.23513000  0.74749000  1.0
  H  H6  1  0.19069000  0.05155000  0.84461000  1.0
  H  H7  1  0.71329000  0.84708000  0.04679000  1.0
  H  H8  1  0.19013000  0.52179000  0.23165000  1.0
  H  H9  1  0.21862000  0.60858000  0.04858000  1.0
  H  H10  1  0.75510000  0.47918000  0.71194000  1.0
  H  H11  1  0.82117000  0.30249000  0.48274000  1.0
  H  H12  1  0.77123000  0.71608000  0.30405000  1.0
  C  C13  1  0.43960000  0.57919000  0.34826000  1.0
  C  C14  1  0.40365000  0.57546000  0.57807000  1.0
  C  C15  1  0.44775000  0.34955000  0.57373000  1.0
  C  C16  1  0.46433000  0.93009000  0.78560000  1.0
  C  C17  1  0.43421000  0.78604000  0.78682000  1.0
  C  C18  1  0.46096000  0.78691000  0.92974000  1.0
  C  C19  1  0.24313000  0.72104000  0.59512000  1.0
  C  C20  1  0.25711000  0.77409000  0.64301000  1.0
  C  C21  1  0.41782000  0.73129000  0.73377000  1.0
  C  C22  1  0.56893000  0.63783000  0.77420000  1.0
  C  C23  1  0.57974000  0.58720000  0.72235000  1.0
  C  C24  1  0.40871000  0.62847000  0.63221000  1.0
  C  C25  1  0.63242000  0.08617000  0.64022000  1.0
  C  C26  1  0.64635000  0.18844000  0.58978000  1.0
  C  C27  1  0.46857000  0.24239000  0.62852000  1.0
  C  C28  1  0.30072000  0.19217000  0.71977000  1.0
  C  C29  1  0.31283000  0.09109000  0.77306000  1.0
  C  C30  1  0.47216000  0.03813000  0.73151000  1.0
  C  C31  1  0.60359000  0.77521000  0.08703000  1.0
  C  C32  1  0.61492000  0.72363000  0.18906000  1.0
  C  C33  1  0.45826000  0.63182000  0.24146000  1.0
  C  C34  1  0.31156000  0.59182000  0.18991000  1.0
  C  C35  1  0.32428000  0.63973000  0.08915000  1.0
  C  C36  1  0.46458000  0.73309000  0.03757000  1.0
  N  N37  1  0.44370000  0.88423000  0.73354000  1.0
  N  N38  1  0.44132000  0.73400000  0.88478000  1.0
  N  N39  1  0.47441000  0.88509000  0.88349000  1.0
  O  O40  1  0.20047000  0.39379000  0.59172000  1.0
  O  O41  1  0.20909000  0.51712000  0.39177000  1.0
  O  O42  1  0.17109000  0.59485000  0.51680000  1.0
  O  O43  1  0.68043000  0.39528000  0.50797000  1.0
  O  O44  1  0.64112000  0.50876000  0.59615000  1.0
  O  O45  1  0.65809000  0.59894000  0.39470000  1.0
  O  O46  1  0.74947000  0.49983000  0.76191000  1.0
  O  O47  1  0.82104000  0.23169000  0.50422000  1.0
  O  O48  1  0.76776000  0.76525000  0.23349000  1.0
