# generated using pymatgen
data_CuPH20C24IN
_symmetry_space_group_name_H-M   'P 1'
_cell_length_a   9.40900000
_cell_length_b   10.02160000
_cell_length_c   12.41630000
_cell_angle_alpha   105.36300000
_cell_angle_beta   108.63800000
_cell_angle_gamma   97.46690000
_symmetry_Int_Tables_number   1
_chemical_formula_structural   CuPH20C24IN
_chemical_formula_sum   'Cu2 P2 H40 C48 I2 N2'
_cell_volume   1039.80193571
_cell_formula_units_Z   2
loop_
 _symmetry_equiv_pos_site_id
 _symmetry_equiv_pos_as_xyz
  1  'x, y, z'
loop_
 _atom_site_type_symbol
 _atom_site_label
 _atom_site_symmetry_multiplicity
 _atom_site_fract_x
 _atom_site_fract_y
 _atom_site_fract_z
 _atom_site_occupancy
  Cu  Cu0  1  0.36115000  0.46918000  0.40669000  1.0
  Cu  Cu1  1  0.63885000  0.53082000  0.59332000  1.0
  P  P2  1  0.24524000  0.28008000  0.24433000  1.0
  P  P3  1  0.75476000  0.71992000  0.75567000  1.0
  H  H4  1  0.33096000  0.70514000  0.31002000  1.0
  H  H5  1  0.66904000  0.29486000  0.68998000  1.0
  H  H6  1  0.20867000  0.91114000  0.32851000  1.0
  H  H7  1  0.79133000  0.08886000  0.67149000  1.0
  H  H8  1  0.01160000  0.75696000  0.55657000  1.0
  H  H9  1  0.98839000  0.24304000  0.44343000  1.0
  H  H10  1  0.14405000  0.56000000  0.52934000  1.0
  H  H11  1  0.85594000  0.43999000  0.47066000  1.0
  H  H12  1  0.07050000  0.05503000  0.41912000  1.0
  H  H13  1  0.92950000  0.94497000  0.58088000  1.0
  H  H14  1  0.01334000  0.43671000  0.25120000  1.0
  H  H15  1  0.98666000  0.56329000  0.74880000  1.0
  H  H16  1  0.73825000  0.37349000  0.22302000  1.0
  H  H17  1  0.26175000  0.62651000  0.77698000  1.0
  H  H18  1  0.60830000  0.11994000  0.17779000  1.0
  H  H19  1  0.39170000  0.88006000  0.82221000  1.0
  H  H20  1  0.75801000  0.93308000  0.16252000  1.0
  H  H21  1  0.24199000  0.06692000  0.83748000  1.0
  H  H22  1  0.03171000  0.99555000  0.18726000  1.0
  H  H23  1  0.96829000  0.00445000  0.81274000  1.0
  H  H24  1  0.47588000  0.20706000  0.42267000  1.0
  H  H25  1  0.52412000  0.79295000  0.57733000  1.0
  H  H26  1  0.59438000  0.99743000  0.41563000  1.0
  H  H27  1  0.40563000  0.00258000  0.58437000  1.0
  H  H28  1  0.51266000  0.79710000  0.22557000  1.0
  H  H29  1  0.48734000  0.20290000  0.77443000  1.0
  H  H30  1  0.30820000  0.80363000  0.04013000  1.0
  H  H31  1  0.69180000  0.19637000  0.95987000  1.0
  H  H32  1  0.19005000  0.01051000  0.04735000  1.0
  H  H33  1  0.80995000  0.98949000  0.95265000  1.0
  H  H34  1  0.47961000  0.31841000  0.14698000  1.0
  H  H35  1  0.52039000  0.68159000  0.85302000  1.0
  H  H36  1  0.48389000  0.35995000  0.95998000  1.0
  H  H37  1  0.51611000  0.64005000  0.04002000  1.0
  H  H38  1  0.24343000  0.37552000  0.80843000  1.0
  H  H39  1  0.75656000  0.62448000  0.19157000  1.0
  H  H40  1  0.99904000  0.35352000  0.84885000  1.0
  H  H41  1  0.00096000  0.64648000  0.15115000  1.0
  H  H42  1  0.99312000  0.30686000  0.03280000  1.0
  H  H43  1  0.00688000  0.69314000  0.96720000  1.0
  C  C44  1  0.25785000  0.72041000  0.36270000  1.0
  C  C45  1  0.74215000  0.27959000  0.63730000  1.0
  C  C46  1  0.18927000  0.83492000  0.37358000  1.0
  C  C47  1  0.81073000  0.16508000  0.62641000  1.0
  C  C48  1  0.10061000  0.85549000  0.44632000  1.0
  C  C49  1  0.89940000  0.14452000  0.55368000  1.0
  C  C50  1  0.08039000  0.75094000  0.50035000  1.0
  C  C51  1  0.91961000  0.24907000  0.49965000  1.0
  C  C52  1  0.15319000  0.63969000  0.48513000  1.0
  C  C53  1  0.84681000  0.36031000  0.51487000  1.0
  C  C54  1  0.04153000  0.98268000  0.46500000  1.0
  C  C55  1  0.95848000  0.01732000  0.53500000  1.0
  C  C56  1  0.04221000  0.22066000  0.22044000  1.0
  C  C57  1  0.95779000  0.77933000  0.77956000  1.0
  C  C58  1  0.95694000  0.32591000  0.23013000  1.0
  C  C59  1  0.04306000  0.67409000  0.76987000  1.0
  C  C60  1  0.80157000  0.28989000  0.21370000  1.0
  C  C61  1  0.19843000  0.71011000  0.78630000  1.0
  C  C62  1  0.72929000  0.14841000  0.18942000  1.0
  C  C63  1  0.27071000  0.85159000  0.81058000  1.0
  C  C64  1  0.81332000  0.04364000  0.18137000  1.0
  C  C65  1  0.18668000  0.95635000  0.81863000  1.0
  C  C66  1  0.96863000  0.07917000  0.19596000  1.0
  C  C67  1  0.03137000  0.92083000  0.80404000  1.0
  C  C68  1  0.32439000  0.12195000  0.23617000  1.0
  C  C69  1  0.67561000  0.87805000  0.76383000  1.0
  C  C70  1  0.43948000  0.11788000  0.33940000  1.0
  C  C71  1  0.56052000  0.88212000  0.66060000  1.0
  C  C72  1  0.50590000  0.00067000  0.33511000  1.0
  C  C73  1  0.49410000  0.99933000  0.66489000  1.0
  C  C74  1  0.45927000  0.88762000  0.22782000  1.0
  C  C75  1  0.54073000  0.11238000  0.77218000  1.0
  C  C76  1  0.34469000  0.89095000  0.12459000  1.0
  C  C77  1  0.65531000  0.10905000  0.87541000  1.0
  C  C78  1  0.27740000  0.00748000  0.12861000  1.0
  C  C79  1  0.72260000  0.99252000  0.87139000  1.0
  C  C80  1  0.23586000  0.30788000  0.10246000  1.0
  C  C81  1  0.76414000  0.69212000  0.89754000  1.0
  C  C82  1  0.37395000  0.32457000  0.08088000  1.0
  C  C83  1  0.62604000  0.67543000  0.91912000  1.0
  C  C84  1  0.37616000  0.34822000  0.97575000  1.0
  C  C85  1  0.62384000  0.65178000  0.02425000  1.0
  C  C86  1  0.24138000  0.35836000  0.89123000  1.0
  C  C87  1  0.75862000  0.64164000  0.10877000  1.0
  C  C88  1  0.10483000  0.34565000  0.91373000  1.0
  C  C89  1  0.89517000  0.65435000  0.08627000  1.0
  C  C90  1  0.10151000  0.31962000  0.01812000  1.0
  C  C91  1  0.89849000  0.68039000  0.98188000  1.0
  I  I92  1  0.37754000  0.39819000  0.60251000  1.0
  I  I93  1  0.62246000  0.60181000  0.39750000  1.0
  N  N94  1  0.24392000  0.62452000  0.41945000  1.0
  N  N95  1  0.75608000  0.37548000  0.58055000  1.0
