# generated using pymatgen
data_CdH3C7NO4
_symmetry_space_group_name_H-M   'P 1'
_cell_length_a   7.86565000
_cell_length_b   8.81100000
_cell_length_c   10.14530000
_cell_angle_alpha   90.66480000
_cell_angle_beta   89.99960000
_cell_angle_gamma   89.99970000
_symmetry_Int_Tables_number   1
_chemical_formula_structural   CdH3C7NO4
_chemical_formula_sum   'Cd4 H12 C28 N4 O16'
_cell_volume   703.06499894
_cell_formula_units_Z   4
loop_
 _symmetry_equiv_pos_site_id
 _symmetry_equiv_pos_as_xyz
  1  'x, y, z'
loop_
 _atom_site_type_symbol
 _atom_site_label
 _atom_site_symmetry_multiplicity
 _atom_site_fract_x
 _atom_site_fract_y
 _atom_site_fract_z
 _atom_site_occupancy
  Cd  Cd0  1  0.86269000  0.40399000  0.63621000  1.0
  Cd  Cd1  1  0.36269000  0.09602000  0.36379000  1.0
  Cd  Cd2  1  0.13731000  0.59601000  0.36379000  1.0
  Cd  Cd3  1  0.63731000  0.90399000  0.63621000  1.0
  H  H4  1  0.12608000  0.05996000  0.02405000  1.0
  H  H5  1  0.62607000  0.44003000  0.97595000  1.0
  H  H6  1  0.87392000  0.94004000  0.97594000  1.0
  H  H7  1  0.37392000  0.55996000  0.02405000  1.0
  H  H8  1  0.89768000  0.17480000  0.87899000  1.0
  H  H9  1  0.39767000  0.32520000  0.12101000  1.0
  H  H10  1  0.10232000  0.82520000  0.12101000  1.0
  H  H11  1  0.60233000  0.67480000  0.87899000  1.0
  H  H12  1  0.42965000  0.09012000  0.95477000  1.0
  H  H13  1  0.92964000  0.40988000  0.04523000  1.0
  H  H14  1  0.57035000  0.90988000  0.04523000  1.0
  H  H15  1  0.07036000  0.59012000  0.95477000  1.0
  C  C16  1  0.36724000  0.22153000  0.78466000  1.0
  C  C17  1  0.86723000  0.27848000  0.21535000  1.0
  C  C18  1  0.63276000  0.77848000  0.21534000  1.0
  C  C19  1  0.13277000  0.72152000  0.78465000  1.0
  C  C20  1  0.15849000  0.12188000  0.93534000  1.0
  C  C21  1  0.65848000  0.37812000  0.06466000  1.0
  C  C22  1  0.84152000  0.87812000  0.06466000  1.0
  C  C23  1  0.34152000  0.62188000  0.93534000  1.0
  C  C24  1  0.23309000  0.28437000  0.71229000  1.0
  C  C25  1  0.73309000  0.21563000  0.28772000  1.0
  C  C26  1  0.76691000  0.71564000  0.28771000  1.0
  C  C27  1  0.26691000  0.78437000  0.71228000  1.0
  C  C28  1  0.03277000  0.18785000  0.85825000  1.0
  C  C29  1  0.53276000  0.31214000  0.14174000  1.0
  C  C30  1  0.96724000  0.81215000  0.14174000  1.0
  C  C31  1  0.46724000  0.68785000  0.85826000  1.0
  C  C32  1  0.32692000  0.13934000  0.89741000  1.0
  C  C33  1  0.82691000  0.36066000  0.10259000  1.0
  C  C34  1  0.67308000  0.86066000  0.10259000  1.0
  C  C35  1  0.17308000  0.63934000  0.89741000  1.0
  C  C36  1  0.55226000  0.24167000  0.75133000  1.0
  C  C37  1  0.05225000  0.25833000  0.24868000  1.0
  C  C38  1  0.44775000  0.75833000  0.24867000  1.0
  C  C39  1  0.94775000  0.74167000  0.75132000  1.0
  C  C40  1  0.25901000  0.36247000  0.58131000  1.0
  C  C41  1  0.75900000  0.13753000  0.41869000  1.0
  C  C42  1  0.74099000  0.63754000  0.41869000  1.0
  C  C43  1  0.24100000  0.86247000  0.58131000  1.0
  N  N44  1  0.07010000  0.26932000  0.75123000  1.0
  N  N45  1  0.57009000  0.23068000  0.24878000  1.0
  N  N46  1  0.92991000  0.73068000  0.24877000  1.0
  N  N47  1  0.42991000  0.76932000  0.75122000  1.0
  O  O48  1  0.60126000  0.37521000  0.72445000  1.0
  O  O49  1  0.10126000  0.12479000  0.27555000  1.0
  O  O50  1  0.39874000  0.62480000  0.27555000  1.0
  O  O51  1  0.89874000  0.87520000  0.72445000  1.0
  O  O52  1  0.37084000  0.31379000  0.50400000  1.0
  O  O53  1  0.87085000  0.18622000  0.49601000  1.0
  O  O54  1  0.62916000  0.68622000  0.49600000  1.0
  O  O55  1  0.12916000  0.81378000  0.50399000  1.0
  O  O56  1  0.15606000  0.47242000  0.55969000  1.0
  O  O57  1  0.65606000  0.02758000  0.44032000  1.0
  O  O58  1  0.84395000  0.52759000  0.44031000  1.0
  O  O59  1  0.34394000  0.97241000  0.55969000  1.0
  O  O60  1  0.64869000  0.12688000  0.76165000  1.0
  O  O61  1  0.14869000  0.37312000  0.23835000  1.0
  O  O62  1  0.35131000  0.87312000  0.23835000  1.0
  O  O63  1  0.85131000  0.62687000  0.76165000  1.0
