# generated using pymatgen
data_CdH17C25N7O4
_symmetry_space_group_name_H-M   'P 1'
_cell_length_a   20.00390000
_cell_length_b   20.00390000
_cell_length_c   21.20120000
_cell_angle_alpha   78.71670000
_cell_angle_beta   78.71610000
_cell_angle_gamma   83.60910000
_symmetry_Int_Tables_number   1
_chemical_formula_structural   CdH17C25N7O4
_chemical_formula_sum   'Cd6 H102 C150 N42 O24'
_cell_volume   8135.43039243
_cell_formula_units_Z   6
loop_
 _symmetry_equiv_pos_site_id
 _symmetry_equiv_pos_as_xyz
  1  'x, y, z'
loop_
 _atom_site_type_symbol
 _atom_site_label
 _atom_site_symmetry_multiplicity
 _atom_site_fract_x
 _atom_site_fract_y
 _atom_site_fract_z
 _atom_site_occupancy
  Cd  Cd0  1  0.77947000  0.02332000  0.44520000  1.0
  Cd  Cd1  1  0.97667000  0.22053000  0.05480000  1.0
  Cd  Cd2  1  0.22052000  0.97667000  0.55480000  1.0
  Cd  Cd3  1  0.02332000  0.77948000  0.94520000  1.0
  Cd  Cd4  1  0.50530000  0.49470000  0.75000000  1.0
  Cd  Cd5  1  0.49470000  0.50530000  0.25000000  1.0
  H  H6  1  0.05952000  0.85737000  0.71514000  1.0
  H  H7  1  0.14264000  0.94048000  0.78486000  1.0
  H  H8  1  0.94047000  0.14264000  0.28486000  1.0
  H  H9  1  0.85736000  0.05953000  0.21513000  1.0
  H  H10  1  0.03040000  0.91676000  0.60685000  1.0
  H  H11  1  0.08324000  0.96960000  0.89315000  1.0
  H  H12  1  0.96959000  0.08324000  0.39315000  1.0
  H  H13  1  0.91675000  0.03041000  0.10684000  1.0
  H  H14  1  0.84562000  0.00997000  0.70716000  1.0
  H  H15  1  0.99003000  0.15437000  0.79284000  1.0
  H  H16  1  0.15437000  0.99003000  0.29285000  1.0
  H  H17  1  0.00997000  0.84564000  0.20715000  1.0
  H  H18  1  0.87310000  0.94508000  0.81491000  1.0
  H  H19  1  0.05493000  0.12690000  0.68508000  1.0
  H  H20  1  0.12689000  0.05492000  0.18509000  1.0
  H  H21  1  0.94508000  0.87311000  0.31491000  1.0
  H  H22  1  0.00834000  0.13911000  0.52744000  1.0
  H  H23  1  0.86090000  0.99165000  0.97256000  1.0
  H  H24  1  0.99165000  0.86089000  0.47257000  1.0
  H  H25  1  0.13911000  0.00834000  0.02744000  1.0
  H  H26  1  0.04436000  0.06496000  0.57482000  1.0
  H  H27  1  0.93505000  0.95564000  0.92518000  1.0
  H  H28  1  0.95564000  0.93505000  0.42518000  1.0
  H  H29  1  0.06496000  0.04436000  0.07482000  1.0
  H  H30  1  0.97671000  0.11597000  0.61287000  1.0
  H  H31  1  0.88403000  0.02328000  0.88713000  1.0
  H  H32  1  0.02328000  0.88403000  0.38713000  1.0
  H  H33  1  0.11597000  0.97671000  0.11287000  1.0
  H  H34  1  0.49746000  0.72257000  0.65472000  1.0
  H  H35  1  0.27744000  0.50254000  0.84528000  1.0
  H  H36  1  0.50255000  0.27743000  0.34528000  1.0
  H  H37  1  0.72256000  0.49746000  0.15472000  1.0
  H  H38  1  0.52872000  0.83517000  0.58351000  1.0
  H  H39  1  0.16483000  0.47128000  0.91649000  1.0
  H  H40  1  0.47128000  0.16483000  0.41649000  1.0
  H  H41  1  0.83517000  0.52872000  0.08351000  1.0
  H  H42  1  0.71131000  0.73433000  0.48810000  1.0
  H  H43  1  0.26566000  0.28869000  0.01191000  1.0
  H  H44  1  0.28869000  0.26566000  0.51190000  1.0
  H  H45  1  0.73434000  0.71131000  0.98810000  1.0
  H  H46  1  0.67992000  0.62249000  0.56180000  1.0
  H  H47  1  0.37750000  0.32008000  0.93820000  1.0
  H  H48  1  0.32008000  0.37750000  0.43820000  1.0
  H  H49  1  0.62250000  0.67992000  0.06180000  1.0
  H  H50  1  0.57332000  0.81241000  0.40378000  1.0
  H  H51  1  0.18758000  0.42668000  0.09622000  1.0
  H  H52  1  0.42668000  0.18759000  0.59621000  1.0
  H  H53  1  0.81241000  0.57332000  0.90379000  1.0
  H  H54  1  0.55024000  0.89926000  0.37046000  1.0
  H  H55  1  0.10073000  0.44977000  0.12954000  1.0
  H  H56  1  0.44977000  0.10073000  0.62954000  1.0
  H  H57  1  0.89926000  0.55024000  0.87046000  1.0
  H  H58  1  0.51104000  0.86168000  0.45065000  1.0
  H  H59  1  0.13832000  0.48896000  0.04935000  1.0
  H  H60  1  0.48896000  0.13832000  0.54934000  1.0
  H  H61  1  0.86167000  0.51105000  0.95066000  1.0
  H  H62  1  0.86473000  0.86956000  0.66419000  1.0
  H  H63  1  0.13044000  0.13528000  0.83580000  1.0
  H  H64  1  0.13527000  0.13044000  0.33580000  1.0
  H  H65  1  0.86956000  0.86473000  0.16419000  1.0
  H  H66  1  0.77698000  0.78468000  0.68802000  1.0
  H  H67  1  0.21532000  0.22302000  0.81198000  1.0
  H  H68  1  0.22302000  0.21532000  0.31198000  1.0
  H  H69  1  0.78468000  0.77698000  0.18802000  1.0
  H  H70  1  0.69167000  0.79354000  0.61526000  1.0
  H  H71  1  0.20646000  0.30833000  0.88474000  1.0
  H  H72  1  0.30832000  0.20646000  0.38474000  1.0
  H  H73  1  0.79355000  0.69167000  0.11526000  1.0
  H  H74  1  0.70663000  0.24925000  0.45958000  1.0
  H  H75  1  0.75075000  0.29337000  0.04042000  1.0
  H  H76  1  0.29337000  0.75075000  0.54042000  1.0
  H  H77  1  0.24925000  0.70663000  0.95957000  1.0
  H  H78  1  0.64425000  0.35321000  0.50102000  1.0
  H  H79  1  0.64679000  0.35575000  0.99898000  1.0
  H  H80  1  0.35576000  0.64679000  0.49898000  1.0
  H  H81  1  0.35321000  0.64425000  0.00101000  1.0
  H  H82  1  0.53535000  0.22222000  0.66606000  1.0
  H  H83  1  0.77778000  0.46465000  0.83394000  1.0
  H  H84  1  0.46465000  0.77778000  0.33394000  1.0
  H  H85  1  0.22222000  0.53536000  0.16606000  1.0
  H  H86  1  0.60161000  0.11902000  0.62548000  1.0
  H  H87  1  0.88098000  0.39839000  0.87452000  1.0
  H  H88  1  0.39838000  0.88097000  0.37451000  1.0
  H  H89  1  0.11902000  0.60162000  0.12548000  1.0
  H  H90  1  0.41802000  0.39387000  0.52653000  1.0
  H  H91  1  0.60612000  0.58197000  0.97348000  1.0
  H  H92  1  0.58198000  0.60612000  0.47347000  1.0
  H  H93  1  0.39387000  0.41803000  0.02653000  1.0
  H  H94  1  0.47805000  0.32106000  0.52123000  1.0
  H  H95  1  0.67893000  0.52195000  0.97877000  1.0
  H  H96  1  0.52195000  0.67894000  0.47877000  1.0
  H  H97  1  0.32106000  0.47805000  0.02123000  1.0
  H  H98  1  0.50084000  0.40309000  0.47846000  1.0
  H  H99  1  0.59691000  0.49915000  0.02155000  1.0
  H  H100  1  0.49916000  0.59691000  0.52154000  1.0
  H  H101  1  0.40309000  0.50085000  0.97846000  1.0
  H  H102  1  0.66524000  0.27839000  0.66622000  1.0
  H  H103  1  0.72161000  0.33476000  0.83378000  1.0
  H  H104  1  0.33476000  0.72160000  0.33379000  1.0
  H  H105  1  0.27839000  0.66525000  0.16622000  1.0
  H  H106  1  0.74008000  0.25991000  0.75001000  1.0
  H  H107  1  0.25991000  0.74009000  0.25001000  1.0
  C  C108  1  0.98191000  0.85848000  0.83565000  1.0
  C  C109  1  0.14152000  0.01809000  0.66435000  1.0
  C  C110  1  0.01809000  0.14152000  0.16435000  1.0
  C  C111  1  0.85847000  0.98191000  0.33565000  1.0
  C  C112  1  0.96734000  0.89738000  0.77091000  1.0
  C  C113  1  0.10262000  0.03266000  0.72909000  1.0
  C  C114  1  0.03265000  0.10262000  0.22909000  1.0
  C  C115  1  0.89738000  0.96735000  0.27090000  1.0
  C  C116  1  0.01242000  0.89005000  0.71275000  1.0
  C  C117  1  0.10996000  0.98758000  0.78725000  1.0
  C  C118  1  0.98757000  0.10995000  0.28725000  1.0
  C  C119  1  0.89004000  0.01243000  0.21275000  1.0
  C  C120  1  0.99688000  0.92382000  0.65271000  1.0
  C  C121  1  0.07618000  0.00312000  0.84729000  1.0
  C  C122  1  0.00311000  0.07618000  0.34729000  1.0
  C  C123  1  0.92382000  0.99688000  0.15270000  1.0
  C  C124  1  0.93659000  0.96624000  0.65189000  1.0
  C  C125  1  0.03376000  0.06341000  0.84811000  1.0
  C  C126  1  0.06340000  0.03376000  0.34811000  1.0
  C  C127  1  0.96624000  0.93660000  0.15188000  1.0
  C  C128  1  0.89216000  0.97622000  0.70954000  1.0
  C  C129  1  0.02377000  0.10784000  0.79045000  1.0
  C  C130  1  0.10784000  0.02377000  0.29046000  1.0
  C  C131  1  0.97622000  0.89216000  0.20954000  1.0
  C  C132  1  0.90743000  0.94075000  0.76895000  1.0
  C  C133  1  0.05925000  0.09257000  0.73105000  1.0
  C  C134  1  0.09256000  0.05925000  0.23105000  1.0
  C  C135  1  0.94075000  0.90744000  0.26895000  1.0
  C  C136  1  0.99667000  0.09600000  0.56748000  1.0
  C  C137  1  0.90401000  0.00332000  0.93251000  1.0
  C  C138  1  0.00332000  0.90400000  0.43252000  1.0
  C  C139  1  0.09600000  0.99668000  0.06748000  1.0
  C  C140  1  0.94513000  0.05754000  0.55159000  1.0
  C  C141  1  0.94246000  0.05487000  0.94841000  1.0
  C  C142  1  0.05487000  0.94246000  0.44841000  1.0
  C  C143  1  0.05754000  0.94513000  0.05158000  1.0
  C  C144  1  0.87110000  0.98205000  0.55854000  1.0
  C  C145  1  0.01795000  0.12890000  0.94145000  1.0
  C  C146  1  0.12890000  0.01795000  0.44145000  1.0
  C  C147  1  0.98205000  0.87110000  0.05854000  1.0
  C  C148  1  0.56983000  0.59993000  0.65668000  1.0
  C  C149  1  0.40008000  0.43017000  0.84333000  1.0
  C  C150  1  0.43017000  0.40007000  0.34332000  1.0
  C  C151  1  0.59993000  0.56983000  0.15669000  1.0
  C  C152  1  0.58735000  0.66679000  0.61224000  1.0
  C  C153  1  0.33321000  0.41265000  0.88776000  1.0
  C  C154  1  0.41266000  0.33321000  0.38776000  1.0
  C  C155  1  0.66679000  0.58735000  0.11224000  1.0
  C  C156  1  0.54405000  0.72617000  0.61808000  1.0
  C  C157  1  0.27383000  0.45595000  0.88192000  1.0
  C  C158  1  0.45596000  0.27383000  0.38192000  1.0
  C  C159  1  0.72616000  0.54405000  0.11808000  1.0
  C  C160  1  0.56123000  0.78831000  0.57846000  1.0
  C  C161  1  0.21170000  0.43877000  0.92154000  1.0
  C  C162  1  0.43877000  0.21169000  0.42154000  1.0
  C  C163  1  0.78831000  0.56123000  0.07846000  1.0
  C  C164  1  0.62173000  0.79028000  0.53246000  1.0
  C  C165  1  0.20972000  0.37828000  0.96755000  1.0
  C  C166  1  0.37827000  0.20972000  0.46754000  1.0
  C  C167  1  0.79029000  0.62172000  0.03246000  1.0
  C  C168  1  0.66456000  0.73116000  0.52468000  1.0
  C  C169  1  0.26884000  0.33544000  0.97532000  1.0
  C  C170  1  0.33544000  0.26884000  0.47532000  1.0
  C  C171  1  0.73116000  0.66456000  0.02468000  1.0
  C  C172  1  0.64736000  0.66958000  0.56526000  1.0
  C  C173  1  0.33043000  0.35264000  0.93474000  1.0
  C  C174  1  0.35264000  0.33043000  0.43474000  1.0
  C  C175  1  0.66957000  0.64736000  0.06526000  1.0
  C  C176  1  0.55908000  0.86406000  0.41505000  1.0
  C  C177  1  0.13594000  0.44092000  0.08496000  1.0
  C  C178  1  0.44092000  0.13594000  0.58495000  1.0
  C  C179  1  0.86406000  0.55908000  0.91505000  1.0
  C  C180  1  0.61414000  0.88881000  0.44019000  1.0
  C  C181  1  0.11118000  0.38587000  0.05981000  1.0
  C  C182  1  0.38587000  0.11118000  0.55981000  1.0
  C  C183  1  0.88881000  0.61414000  0.94019000  1.0
  C  C184  1  0.69075000  0.89394000  0.50006000  1.0
  C  C185  1  0.10605000  0.30926000  0.99994000  1.0
  C  C186  1  0.30926000  0.10605000  0.49994000  1.0
  C  C187  1  0.89395000  0.69074000  0.00006000  1.0
  C  C188  1  0.82639000  0.92541000  0.57791000  1.0
  C  C189  1  0.07460000  0.17362000  0.92209000  1.0
  C  C190  1  0.17361000  0.07459000  0.42208000  1.0
  C  C191  1  0.92541000  0.82639000  0.07791000  1.0
  C  C192  1  0.82741000  0.87292000  0.63249000  1.0
  C  C193  1  0.12708000  0.17259000  0.86750000  1.0
  C  C194  1  0.17259000  0.12708000  0.36750000  1.0
  C  C195  1  0.87292000  0.82741000  0.13249000  1.0
  C  C196  1  0.77833000  0.82541000  0.64542000  1.0
  C  C197  1  0.17459000  0.22168000  0.85458000  1.0
  C  C198  1  0.22167000  0.17459000  0.35458000  1.0
  C  C199  1  0.82541000  0.77832000  0.14542000  1.0
  C  C200  1  0.73073000  0.82980000  0.60449000  1.0
  C  C201  1  0.17020000  0.26927000  0.89551000  1.0
  C  C202  1  0.26927000  0.17019000  0.39551000  1.0
  C  C203  1  0.82981000  0.73073000  0.10449000  1.0
  C  C204  1  0.73517000  0.88211000  0.54927000  1.0
  C  C205  1  0.11789000  0.26483000  0.95073000  1.0
  C  C206  1  0.26483000  0.11789000  0.45072000  1.0
  C  C207  1  0.88212000  0.73517000  0.04927000  1.0
  C  C208  1  0.69558000  0.11632000  0.51657000  1.0
  C  C209  1  0.88368000  0.30441000  0.98343000  1.0
  C  C210  1  0.30442000  0.88367000  0.48342000  1.0
  C  C211  1  0.11632000  0.69558000  0.01658000  1.0
  C  C212  1  0.65743000  0.17872000  0.54046000  1.0
  C  C213  1  0.82128000  0.34256000  0.95953000  1.0
  C  C214  1  0.34256000  0.82128000  0.45953000  1.0
  C  C215  1  0.17871000  0.65744000  0.04047000  1.0
  C  C216  1  0.66953000  0.24436000  0.50499000  1.0
  C  C217  1  0.75564000  0.33047000  0.99502000  1.0
  C  C218  1  0.33047000  0.75563000  0.49501000  1.0
  C  C219  1  0.24436000  0.66954000  0.00498000  1.0
  C  C220  1  0.63480000  0.30178000  0.52779000  1.0
  C  C221  1  0.69823000  0.36520000  0.97222000  1.0
  C  C222  1  0.36521000  0.69822000  0.47222000  1.0
  C  C223  1  0.30177000  0.63480000  0.02778000  1.0
  C  C224  1  0.58693000  0.29286000  0.58575000  1.0
  C  C225  1  0.70714000  0.41307000  0.91425000  1.0
  C  C226  1  0.41307000  0.70714000  0.41425000  1.0
  C  C227  1  0.29286000  0.58693000  0.08574000  1.0
  C  C228  1  0.57342000  0.22763000  0.62123000  1.0
  C  C229  1  0.77237000  0.42658000  0.87877000  1.0
  C  C230  1  0.42658000  0.77237000  0.37877000  1.0
  C  C231  1  0.22763000  0.57343000  0.12123000  1.0
  C  C232  1  0.60961000  0.17075000  0.59878000  1.0
  C  C233  1  0.82925000  0.39039000  0.90122000  1.0
  C  C234  1  0.39039000  0.82924000  0.40122000  1.0
  C  C235  1  0.17075000  0.60962000  0.09878000  1.0
  C  C236  1  0.47200000  0.37568000  0.52403000  1.0
  C  C237  1  0.62431000  0.52800000  0.97597000  1.0
  C  C238  1  0.52800000  0.62431000  0.47597000  1.0
  C  C239  1  0.37568000  0.47200000  0.02403000  1.0
  C  C240  1  0.49582000  0.38869000  0.58221000  1.0
  C  C241  1  0.61131000  0.50418000  0.91779000  1.0
  C  C242  1  0.50419000  0.61131000  0.41779000  1.0
  C  C243  1  0.38869000  0.49582000  0.08221000  1.0
  C  C244  1  0.55498000  0.38045000  0.66088000  1.0
  C  C245  1  0.61956000  0.44502000  0.83912000  1.0
  C  C246  1  0.44502000  0.61955000  0.33912000  1.0
  C  C247  1  0.38045000  0.55499000  0.16088000  1.0
  C  C248  1  0.60473000  0.36335000  0.70523000  1.0
  C  C249  1  0.63665000  0.39527000  0.79477000  1.0
  C  C250  1  0.39527000  0.63665000  0.29477000  1.0
  C  C251  1  0.36335000  0.60474000  0.20523000  1.0
  C  C252  1  0.65740000  0.31077000  0.70303000  1.0
  C  C253  1  0.68923000  0.34261000  0.79697000  1.0
  C  C254  1  0.34261000  0.68923000  0.29697000  1.0
  C  C255  1  0.31077000  0.65740000  0.20303000  1.0
  C  C256  1  0.69922000  0.30078000  0.75000000  1.0
  C  C257  1  0.30078000  0.69922000  0.25000000  1.0
  N  N258  1  0.91863000  0.99938000  0.59034000  1.0
  N  N259  1  0.00062000  0.08137000  0.90966000  1.0
  N  N260  1  0.08136000  0.00062000  0.40966000  1.0
  N  N261  1  0.99938000  0.91864000  0.09034000  1.0
  N  N262  1  0.91560000  0.07452000  0.49920000  1.0
  N  N263  1  0.92549000  0.08440000  0.00080000  1.0
  N  N264  1  0.08440000  0.92548000  0.50079000  1.0
  N  N265  1  0.07452000  0.91560000  0.99920000  1.0
  N  N266  1  0.86981000  0.02747000  0.50382000  1.0
  N  N267  1  0.97253000  0.13019000  0.99618000  1.0
  N  N268  1  0.13019000  0.97253000  0.49617000  1.0
  N  N269  1  0.02747000  0.86981000  0.00382000  1.0
  N  N270  1  0.64118000  0.85451000  0.49369000  1.0
  N  N271  1  0.14550000  0.35882000  0.00631000  1.0
  N  N272  1  0.35882000  0.14549000  0.50631000  1.0
  N  N273  1  0.85451000  0.64118000  0.99369000  1.0
  N  N274  1  0.64539000  0.94565000  0.41518000  1.0
  N  N275  1  0.05435000  0.35461000  0.08482000  1.0
  N  N276  1  0.35461000  0.05435000  0.58481000  1.0
  N  N277  1  0.94565000  0.64539000  0.91518000  1.0
  N  N278  1  0.69272000  0.94850000  0.45267000  1.0
  N  N279  1  0.05149000  0.30728000  0.04733000  1.0
  N  N280  1  0.30728000  0.05149000  0.54733000  1.0
  N  N281  1  0.94850000  0.69272000  0.95266000  1.0
  N  N282  1  0.78192000  0.92812000  0.53750000  1.0
  N  N283  1  0.07188000  0.21808000  0.96250000  1.0
  N  N284  1  0.21808000  0.07188000  0.46250000  1.0
  N  N285  1  0.92812000  0.78192000  0.03750000  1.0
  N  N286  1  0.54949000  0.35151000  0.60844000  1.0
  N  N287  1  0.64849000  0.45050000  0.89156000  1.0
  N  N288  1  0.45051000  0.64849000  0.39156000  1.0
  N  N289  1  0.35151000  0.54950000  0.10844000  1.0
  N  N290  1  0.46977000  0.43695000  0.61688000  1.0
  N  N291  1  0.56304000  0.53022000  0.88313000  1.0
  N  N292  1  0.53024000  0.56304000  0.38312000  1.0
  N  N293  1  0.43695000  0.46977000  0.11688000  1.0
  N  N294  1  0.50675000  0.43151000  0.66540000  1.0
  N  N295  1  0.56849000  0.49325000  0.83461000  1.0
  N  N296  1  0.49325000  0.56849000  0.33461000  1.0
  N  N297  1  0.43150000  0.50675000  0.16539000  1.0
  N  N298  1  0.59598000  0.40403000  0.75000000  1.0
  N  N299  1  0.40403000  0.59598000  0.25000000  1.0
  O  O300  1  0.04046000  0.82535000  0.83631000  1.0
  O  O301  1  0.17466000  0.95955000  0.66368000  1.0
  O  O302  1  0.95954000  0.17465000  0.16369000  1.0
  O  O303  1  0.82535000  0.04046000  0.33631000  1.0
  O  O304  1  0.93597000  0.86011000  0.88600000  1.0
  O  O305  1  0.13989000  0.06402000  0.61400000  1.0
  O  O306  1  0.06402000  0.13989000  0.11400000  1.0
  O  O307  1  0.86011000  0.93598000  0.38599000  1.0
  O  O308  1  0.51043000  0.60100000  0.69359000  1.0
  O  O309  1  0.39901000  0.48956000  0.80642000  1.0
  O  O310  1  0.48956000  0.39900000  0.30641000  1.0
  O  O311  1  0.60100000  0.51043000  0.19358000  1.0
  O  O312  1  0.61264000  0.54907000  0.65535000  1.0
  O  O313  1  0.45093000  0.38735000  0.84466000  1.0
  O  O314  1  0.38736000  0.45094000  0.34466000  1.0
  O  O315  1  0.54907000  0.61265000  0.15536000  1.0
  O  O316  1  0.73052000  0.12716000  0.45820000  1.0
  O  O317  1  0.87284000  0.26948000  0.04180000  1.0
  O  O318  1  0.26948000  0.87284000  0.54180000  1.0
  O  O319  1  0.12715000  0.73051000  0.95820000  1.0
  O  O320  1  0.69119000  0.05929000  0.55402000  1.0
  O  O321  1  0.94071000  0.30879000  0.94598000  1.0
  O  O322  1  0.30880000  0.94071000  0.44597000  1.0
  O  O323  1  0.05928000  0.69119000  0.05403000  1.0
