# generated using pymatgen
data_YbH9C5(NO4)2
_symmetry_space_group_name_H-M   'P 1'
_cell_length_a   6.51378000
_cell_length_b   6.62580000
_cell_length_c   6.62572000
_cell_angle_alpha   64.53390000
_cell_angle_beta   73.13430000
_cell_angle_gamma   73.13470000
_symmetry_Int_Tables_number   1
_chemical_formula_structural   YbH9C5(NO4)2
_chemical_formula_sum   'Yb1 H9 C5 N2 O8'
_cell_volume   242.50283533
_cell_formula_units_Z   1
loop_
 _symmetry_equiv_pos_site_id
 _symmetry_equiv_pos_as_xyz
  1  'x, y, z'
loop_
 _atom_site_type_symbol
 _atom_site_label
 _atom_site_symmetry_multiplicity
 _atom_site_fract_x
 _atom_site_fract_y
 _atom_site_fract_z
 _atom_site_occupancy
  Yb  Yb0  1  0.99999000  0.64627000  0.35375000  1.0
  H  H1  1  0.59814000  0.00263000  0.55720000  1.0
  H  H2  1  0.40184000  0.44280000  0.99736000  1.0
  H  H3  1  0.46946000  0.90327000  0.85126000  1.0
  H  H4  1  0.53052000  0.14866000  0.09679000  1.0
  H  H5  1  0.17457000  0.18027000  0.80656000  1.0
  H  H6  1  0.82545000  0.19338000  0.81973000  1.0
  H  H7  1  0.12955000  0.17611000  0.19216000  1.0
  H  H8  1  0.87045000  0.80787000  0.82388000  1.0
  H  H9  1  0.50001000  0.55942000  0.44057000  1.0
  C  C10  1  0.29384000  0.17789000  0.65040000  1.0
  C  C11  1  0.70615000  0.34961000  0.82208000  1.0
  C  C12  1  0.96321000  0.17589000  0.29851000  1.0
  C  C13  1  0.03682000  0.70147000  0.82412000  1.0
  C  C14  1  0.49999000  0.71459000  0.28541000  1.0
  N  N15  1  0.46730000  0.01411000  0.68651000  1.0
  N  N16  1  0.53270000  0.31346000  0.98590000  1.0
  O  O17  1  0.33138000  0.79274000  0.19451000  1.0
  O  O18  1  0.66862000  0.80551000  0.20727000  1.0
  O  O19  1  0.26040000  0.32241000  0.45751000  1.0
  O  O20  1  0.73961000  0.54253000  0.67757000  1.0
  O  O21  1  0.87701000  0.00687000  0.34419000  1.0
  O  O22  1  0.12300000  0.65583000  0.99315000  1.0
  O  O23  1  0.87195000  0.33681000  0.36579000  1.0
  O  O24  1  0.12805000  0.63418000  0.66322000  1.0
