# generated using pymatgen
data_Zn4H4C24S6O19F4
_symmetry_space_group_name_H-M   'P 1'
_cell_length_a   19.60860000
_cell_length_b   19.68490000
_cell_length_c   33.23370000
_cell_angle_alpha   79.29270000
_cell_angle_beta   79.53030000
_cell_angle_gamma   64.08870000
_symmetry_Int_Tables_number   1
_chemical_formula_structural   Zn4H4C24S6O19F4
_chemical_formula_sum   'Zn16 H16 C96 S24 O76 F16'
_cell_volume   11263.93636149
_cell_formula_units_Z   4
loop_
 _symmetry_equiv_pos_site_id
 _symmetry_equiv_pos_as_xyz
  1  'x, y, z'
loop_
 _atom_site_type_symbol
 _atom_site_label
 _atom_site_symmetry_multiplicity
 _atom_site_fract_x
 _atom_site_fract_y
 _atom_site_fract_z
 _atom_site_occupancy
  Zn  Zn0  1  0.05562000  0.39817000  0.47983000  1.0
  Zn  Zn1  1  0.98634000  0.47977000  0.56119000  1.0
  Zn  Zn2  1  0.05699000  0.56182000  0.48206000  1.0
  Zn  Zn3  1  0.90296000  0.55691000  0.47838000  1.0
  Zn  Zn4  1  0.69167000  0.34896000  0.27301000  1.0
  Zn  Zn5  1  0.68643000  0.19150000  0.26733000  1.0
  Zn  Zn6  1  0.77068000  0.26537000  0.19058000  1.0
  Zn  Zn7  1  0.84871000  0.19500000  0.27029000  1.0
  Zn  Zn8  1  0.26953000  0.76444000  0.68886000  1.0
  Zn  Zn9  1  0.35239000  0.69565000  0.76994000  1.0
  Zn  Zn10  1  0.19156000  0.84655000  0.77173000  1.0
  Zn  Zn11  1  0.18901000  0.69221000  0.76807000  1.0
  Zn  Zn12  1  0.55714000  0.06470000  0.98269000  1.0
  Zn  Zn13  1  0.40073000  0.05744000  0.97635000  1.0
  Zn  Zn14  1  0.55602000  0.90133000  0.98038000  1.0
  Zn  Zn15  1  0.48332000  0.98052000  0.05938000  1.0
  H  H16  1  0.74899000  0.45056000  0.34923000  1.0
  H  H17  1  0.00107000  0.30069000  0.40019000  1.0
  H  H18  1  0.20043000  0.70061000  0.60057000  1.0
  H  H19  1  0.04933000  0.54932000  0.64987000  1.0
  H  H20  1  0.64973000  0.14885000  0.04932000  1.0
  H  H21  1  0.60124000  0.09958000  0.20084000  1.0
  H  H22  1  0.30032000  0.99980000  0.90063000  1.0
  H  H23  1  0.44972000  0.74931000  0.84953000  1.0
  H  H24  1  0.84384000  0.57297000  0.39938000  1.0
  H  H25  1  0.96494000  0.23609000  0.29159000  1.0
  H  H26  1  0.06930000  0.68664000  0.51399000  1.0
  H  H27  1  0.06285000  0.68013000  0.73646000  1.0
  H  H28  1  0.79449000  0.17776000  0.12185000  1.0
  H  H29  1  0.57166000  0.95569000  0.12858000  1.0
  H  H30  1  0.17777000  0.90534000  0.85012000  1.0
  H  H31  1  0.51443000  0.78569000  0.95825000  1.0
  C  C32  1  0.06231000  0.31358000  0.56282000  1.0
  C  C33  1  0.06440000  0.57344000  0.56897000  1.0
  C  C34  1  0.18134000  0.43986000  0.43971000  1.0
  C  C35  1  0.93709000  0.68632000  0.43783000  1.0
  C  C36  1  0.93419000  0.43357000  0.42849000  1.0
  C  C37  1  0.81947000  0.55980000  0.56060000  1.0
  C  C38  1  0.56356000  0.31174000  0.31228000  1.0
  C  C39  1  0.68640000  0.17592000  0.18113000  1.0
  C  C40  1  0.69032000  0.43067000  0.18891000  1.0
  C  C41  1  0.93727000  0.18747000  0.18869000  1.0
  C  C42  1  0.82061000  0.32244000  0.31621000  1.0
  C  C43  1  0.81049000  0.06869000  0.31044000  1.0
  C  C44  1  0.43621000  0.68906000  0.68694000  1.0
  C  C45  1  0.31637000  0.81671000  0.82105000  1.0
  C  C46  1  0.18854000  0.93069000  0.68946000  1.0
  C  C47  1  0.06347000  0.81030000  0.81254000  1.0
  C  C48  1  0.17638000  0.68550000  0.68140000  1.0
  C  C49  1  0.31250000  0.56896000  0.81014000  1.0
  C  C50  1  0.43580000  0.18704000  0.93784000  1.0
  C  C51  1  0.42934000  0.92819000  0.93341000  1.0
  C  C52  1  0.68065000  0.94171000  0.93941000  1.0
  C  C53  1  0.56238000  0.81418000  0.06247000  1.0
  C  C54  1  0.57296000  0.06422000  0.06902000  1.0
  C  C55  1  0.31806000  0.06061000  0.05992000  1.0
  C  C56  1  0.90059000  0.40647000  0.40105000  1.0
  C  C57  1  0.85128000  0.34661000  0.34656000  1.0
  C  C58  1  0.82814000  0.44790000  0.38692000  1.0
  C  C59  1  0.92236000  0.30380000  0.36206000  1.0
  C  C60  1  0.80492000  0.41787000  0.35999000  1.0
  C  C61  1  0.94596000  0.33422000  0.38860000  1.0
  C  C62  1  0.09742000  0.60101000  0.59644000  1.0
  C  C63  1  0.14892000  0.65233000  0.65400000  1.0
  C  C64  1  0.14184000  0.64293000  0.58281000  1.0
  C  C65  1  0.10700000  0.60792000  0.66764000  1.0
  C  C66  1  0.16641000  0.66809000  0.61148000  1.0
  C  C67  1  0.08180000  0.58339000  0.63897000  1.0
  C  C68  1  0.30195000  0.45407000  0.40173000  1.0
  C  C69  1  0.44325000  0.29771000  0.35066000  1.0
  C  C70  1  0.25588000  0.41519000  0.41498000  1.0
  C  C71  1  0.48919000  0.33664000  0.33718000  1.0
  C  C72  1  0.37473000  0.34006000  0.37412000  1.0
  C  C73  1  0.37036000  0.41174000  0.37814000  1.0
  C  C74  1  0.72794000  0.57651000  0.62767000  1.0
  C  C75  1  0.52753000  0.67158000  0.61957000  1.0
  C  C76  1  0.74472000  0.58429000  0.58507000  1.0
  C  C77  1  0.51074000  0.66362000  0.66217000  1.0
  C  C78  1  0.60661000  0.63957000  0.60660000  1.0
  C  C79  1  0.64891000  0.60774000  0.64056000  1.0
  C  C80  1  0.07884000  0.22208000  0.63018000  1.0
  C  C81  1  0.17300000  0.02239000  0.62234000  1.0
  C  C82  1  0.08732000  0.23909000  0.58761000  1.0
  C  C83  1  0.16463000  0.00536000  0.66493000  1.0
  C  C84  1  0.14236000  0.10126000  0.60936000  1.0
  C  C85  1  0.11035000  0.14317000  0.64323000  1.0
  C  C86  1  0.84453000  0.80293000  0.39567000  1.0
  C  C87  1  0.90351000  0.95205000  0.35253000  1.0
  C  C88  1  0.91248000  0.76072000  0.41296000  1.0
  C  C89  1  0.83558000  0.99410000  0.33515000  1.0
  C  C90  1  0.90746000  0.88204000  0.37454000  1.0
  C  C91  1  0.84079000  0.87262000  0.37340000  1.0
  C  C92  1  0.65618000  0.15118000  0.15079000  1.0
  C  C93  1  0.59795000  0.09411000  0.09937000  1.0
  C  C94  1  0.66829000  0.16601000  0.10751000  1.0
  C  C95  1  0.58330000  0.08180000  0.14265000  1.0
  C  C96  1  0.63970000  0.13719000  0.08267000  1.0
  C  C97  1  0.61273000  0.10978000  0.16749000  1.0
  C  C98  1  0.67403000  0.52243000  0.12146000  1.0
  C  C99  1  0.57855000  0.72217000  0.12964000  1.0
  C  C100  1  0.66547000  0.50518000  0.16403000  1.0
  C  C101  1  0.58748000  0.73952000  0.08708000  1.0
  C  C102  1  0.61020000  0.64322000  0.14251000  1.0
  C  C103  1  0.64278000  0.60147000  0.10860000  1.0
  C  C104  1  0.08399000  0.12594000  0.17666000  1.0
  C  C105  1  0.17152000  0.12301000  0.07235000  1.0
  C  C106  1  0.01157000  0.16309000  0.16379000  1.0
  C  C107  1  0.24398000  0.08606000  0.08514000  1.0
  C  C108  1  0.11281000  0.13819000  0.10548000  1.0
  C  C109  1  0.14288000  0.11145000  0.14355000  1.0
  C  C110  1  0.34377000  0.84972000  0.84862000  1.0
  C  C111  1  0.40468000  0.89778000  0.90317000  1.0
  C  C112  1  0.30237000  0.92164000  0.86284000  1.0
  C  C113  1  0.44728000  0.82707000  0.88774000  1.0
  C  C114  1  0.33294000  0.94426000  0.88979000  1.0
  C  C115  1  0.41641000  0.80411000  0.86110000  1.0
  C  C116  1  0.40460000  0.45161000  0.85210000  1.0
  C  C117  1  0.34348000  0.30429000  0.89575000  1.0
  C  C118  1  0.33680000  0.49430000  0.83474000  1.0
  C  C119  1  0.41142000  0.26145000  0.91297000  1.0
  C  C120  1  0.34050000  0.37362000  0.87326000  1.0
  C  C121  1  0.40779000  0.38205000  0.87425000  1.0
  C  C122  1  0.94119000  0.79832000  0.84942000  1.0
  C  C123  1  0.80267000  0.95357000  0.90219000  1.0
  C  C124  1  0.98887000  0.83565000  0.83719000  1.0
  C  C125  1  0.75490000  0.91637000  0.91434000  1.0
  C  C126  1  0.87061000  0.91116000  0.87835000  1.0
  C  C127  1  0.87287000  0.84098000  0.87297000  1.0
  S  S128  1  0.29627000  0.32530000  0.39848000  1.0
  S  S129  1  0.44850000  0.42676000  0.35340000  1.0
  S  S130  1  0.66275000  0.63021000  0.55993000  1.0
  S  S131  1  0.59276000  0.61622000  0.68721000  1.0
  S  S132  1  0.13453000  0.15757000  0.56267000  1.0
  S  S133  1  0.11886000  0.08686000  0.68994000  1.0
  S  S134  1  0.97345000  0.80657000  0.40201000  1.0
  S  S135  1  0.77510000  0.94777000  0.34564000  1.0
  S  S136  1  0.61844000  0.58658000  0.18911000  1.0
  S  S137  1  0.63528000  0.65812000  0.06201000  1.0
  S  S138  1  0.01469000  0.18096000  0.11028000  1.0
  S  S139  1  0.24106000  0.06966000  0.13866000  1.0
  S  S140  1  0.27542000  0.44897000  0.84527000  1.0
  S  S141  1  0.47333000  0.30621000  0.90175000  1.0
  S  S142  1  0.95009000  0.92471000  0.85460000  1.0
  S  S143  1  0.79288000  0.82798000  0.89625000  1.0
  S  S144  1  0.75743000  0.53685000  0.40372000  1.0
  S  S145  1  0.98492000  0.20696000  0.35316000  1.0
  S  S146  1  0.17618000  0.66246000  0.52969000  1.0
  S  S147  1  0.08737000  0.57368000  0.72079000  1.0
  S  S148  1  0.71335000  0.22682000  0.08040000  1.0
  S  S149  1  0.52268000  0.03648000  0.16979000  1.0
  S  S150  1  0.21266000  0.99229000  0.84623000  1.0
  S  S151  1  0.54413000  0.76381000  0.89718000  1.0
  O  O152  1  0.00107000  0.49785000  0.50056000  1.0
  O  O153  1  0.08044000  0.31291000  0.52377000  1.0
  O  O154  1  0.04714000  0.51840000  0.58449000  1.0
  O  O155  1  0.15563000  0.50402000  0.45338000  1.0
  O  O156  1  0.02500000  0.37193000  0.58196000  1.0
  O  O157  1  0.14912000  0.39391000  0.44519000  1.0
  O  O158  1  0.05352000  0.60769000  0.53223000  1.0
  O  O159  1  0.00496000  0.65822000  0.44812000  1.0
  O  O160  1  0.90891000  0.50544000  0.42990000  1.0
  O  O161  1  0.88972000  0.65591000  0.44718000  1.0
  O  O162  1  0.98762000  0.38296000  0.44798000  1.0
  O  O163  1  0.87803000  0.53130000  0.58017000  1.0
  O  O164  1  0.81853000  0.57007000  0.52137000  1.0
  O  O165  1  0.74789000  0.25088000  0.25063000  1.0
  O  O166  1  0.59247000  0.36061000  0.30290000  1.0
  O  O167  1  0.65244000  0.17876000  0.21745000  1.0
  O  O168  1  0.72104000  0.37212000  0.16962000  1.0
  O  O169  1  0.59279000  0.24440000  0.30222000  1.0
  O  O170  1  0.67848000  0.43196000  0.22807000  1.0
  O  O171  1  0.74525000  0.19056000  0.16930000  1.0
  O  O172  1  0.87894000  0.22447000  0.16871000  1.0
  O  O173  1  0.86774000  0.27270000  0.29274000  1.0
  O  O174  1  0.93638000  0.17012000  0.22769000  1.0
  O  O175  1  0.74910000  0.35482000  0.31488000  1.0
  O  O176  1  0.74652000  0.09218000  0.29600000  1.0
  O  O177  1  0.85398000  0.10318000  0.30561000  1.0
  O  O178  1  0.25173000  0.74942000  0.74947000  1.0
  O  O179  1  0.37741000  0.72651000  0.66780000  1.0
  O  O180  1  0.36708000  0.76417000  0.80133000  1.0
  O  O181  1  0.17718000  0.93131000  0.72870000  1.0
  O  O182  1  0.43734000  0.67104000  0.72602000  1.0
  O  O183  1  0.21767000  0.87254000  0.66992000  1.0
  O  O184  1  0.24421000  0.84148000  0.81978000  1.0
  O  O185  1  0.09308000  0.85866000  0.80354000  1.0
  O  O186  1  0.14215000  0.69611000  0.71806000  1.0
  O  O187  1  0.09270000  0.74318000  0.80214000  1.0
  O  O188  1  0.23123000  0.70321000  0.66587000  1.0
  O  O189  1  0.35681000  0.60262000  0.80490000  1.0
  O  O190  1  0.24782000  0.59341000  0.79633000  1.0
  O  O191  1  0.49912000  0.00189000  0.99930000  1.0
  O  O192  1  0.50361000  0.15909000  0.94820000  1.0
  O  O193  1  0.39688000  0.99945000  0.93448000  1.0
  O  O194  1  0.64742000  0.89668000  0.94453000  1.0
  O  O195  1  0.38831000  0.15680000  0.94694000  1.0
  O  O196  1  0.65627000  0.00496000  0.95389000  1.0
  O  O197  1  0.47950000  0.88119000  0.95700000  1.0
  O  O198  1  0.58189000  0.81403000  0.02347000  1.0
  O  O199  1  0.55843000  0.00546000  0.08091000  1.0
  O  O200  1  0.52350000  0.87258000  0.08148000  1.0
  O  O201  1  0.56987000  0.09829000  0.03265000  1.0
  O  O202  1  0.31785000  0.06905000  0.02093000  1.0
  O  O203  1  0.37653000  0.03153000  0.07996000  1.0
  O  O204  1  0.79666000  0.59330000  0.38506000  1.0
  O  O205  1  0.69224000  0.56083000  0.38212000  1.0
  O  O206  1  0.75033000  0.52759000  0.44806000  1.0
  O  O207  1  0.01272000  0.21645000  0.30526000  1.0
  O  O208  1  0.05092000  0.18348000  0.37401000  1.0
  O  O209  1  0.93890000  0.16452000  0.36130000  1.0
  O  O210  1  0.09903000  0.71831000  0.51067000  1.0
  O  O211  1  0.21830000  0.70687000  0.52835000  1.0
  O  O212  1  0.21012000  0.59166000  0.51222000  1.0
  O  O213  1  0.03123000  0.65045000  0.73949000  1.0
  O  O214  1  0.04297000  0.53159000  0.72202000  1.0
  O  O215  1  0.15833000  0.53981000  0.73862000  1.0
  O  O216  1  0.79886000  0.18002000  0.09107000  1.0
  O  O217  1  0.71588000  0.22675000  0.03705000  1.0
  O  O218  1  0.67779000  0.29672000  0.09878000  1.0
  O  O219  1  0.56983000  0.95140000  0.15932000  1.0
  O  O220  1  0.52309000  0.03379000  0.21312000  1.0
  O  O221  1  0.45227000  0.07170000  0.15140000  1.0
  O  O222  1  0.15661000  0.95233000  0.86446000  1.0
  O  O223  1  0.18840000  0.05656000  0.86821000  1.0
  O  O224  1  0.22145000  0.00055000  0.80187000  1.0
  O  O225  1  0.53412000  0.73736000  0.94527000  1.0
  O  O226  1  0.56680000  0.69764000  0.87703000  1.0
  O  O227  1  0.58784000  0.80863000  0.88870000  1.0
  F  F228  1  0.28446000  0.52439000  0.40964000  1.0
  F  F229  1  0.46056000  0.22740000  0.34259000  1.0
  F  F230  1  0.78018000  0.54289000  0.65442000  1.0
  F  F231  1  0.47526000  0.70574000  0.59289000  1.0
  F  F232  1  0.04467000  0.27396000  0.65678000  1.0
  F  F233  1  0.20665000  0.97053000  0.59569000  1.0
  F  F234  1  0.78779000  0.78090000  0.39914000  1.0
  F  F235  1  0.96025000  0.97391000  0.34901000  1.0
  F  F236  1  0.70848000  0.47083000  0.09480000  1.0
  F  F237  1  0.54413000  0.77388000  0.15633000  1.0
  F  F238  1  0.09791000  0.10564000  0.21612000  1.0
  F  F239  1  0.15718000  0.14303000  0.03292000  1.0
  F  F240  1  0.46203000  0.47277000  0.84852000  1.0
  F  F241  1  0.28597000  0.28327000  0.89957000  1.0
  F  F242  1  0.95694000  0.72926000  0.84006000  1.0
  F  F243  1  0.78722000  0.02258000  0.91158000  1.0
