# generated using pymatgen
data_ZnH30C34I4NO14
_symmetry_space_group_name_H-M   'P 1'
_cell_length_a   16.13940000
_cell_length_b   18.47130000
_cell_length_c   19.43820000
_cell_angle_alpha   89.73660000
_cell_angle_beta   91.54600000
_cell_angle_gamma   89.80540000
_symmetry_Int_Tables_number   1
_chemical_formula_structural   ZnH30C34I4NO14
_chemical_formula_sum   'Zn2 H60 C68 I8 N2 O28'
_cell_volume   5792.62605307
_cell_formula_units_Z   2
loop_
 _symmetry_equiv_pos_site_id
 _symmetry_equiv_pos_as_xyz
  1  'x, y, z'
loop_
 _atom_site_type_symbol
 _atom_site_label
 _atom_site_symmetry_multiplicity
 _atom_site_fract_x
 _atom_site_fract_y
 _atom_site_fract_z
 _atom_site_occupancy
  Zn  Zn0  1  0.49495000  0.42236000  0.50625000  1.0
  Zn  Zn1  1  0.49711000  0.58264000  0.50025000  1.0
  H  H2  1  0.37282000  0.65700000  0.73182000  1.0
  H  H3  1  0.39714000  0.62193000  0.64810000  1.0
  H  H4  1  0.42430000  0.71268000  0.67041000  1.0
  H  H5  1  0.71035000  0.48848000  0.34000000  1.0
  H  H6  1  0.74916000  0.57870000  0.34900000  1.0
  H  H7  1  0.74406000  0.53727000  0.26516000  1.0
  H  H8  1  0.29683000  0.48342000  0.23501000  1.0
  H  H9  1  0.33185000  0.51910000  0.31707000  1.0
  H  H10  1  0.27027000  0.43868000  0.31385000  1.0
  H  H11  1  0.36673000  0.38452000  0.67978000  1.0
  H  H12  1  0.37510000  0.34458000  0.76500000  1.0
  H  H13  1  0.40474000  0.29382000  0.69086000  1.0
  H  H14  1  0.61391000  0.68401000  0.78668000  1.0
  H  H15  1  0.66119000  0.63508000  0.85789000  1.0
  H  H16  1  0.60808000  0.71889000  0.87271000  1.0
  H  H17  1  0.67700000  0.67739000  0.13653000  1.0
  H  H18  1  0.61433000  0.67266000  0.21155000  1.0
  H  H19  1  0.56817000  0.65890000  0.12713000  1.0
  H  H20  1  0.39532000  0.32542000  0.20640000  1.0
  H  H21  1  0.47189000  0.31857000  0.14099000  1.0
  H  H22  1  0.36370000  0.31857000  0.11717000  1.0
  H  H23  1  0.64025000  0.35031000  0.86041000  1.0
  H  H24  1  0.57969000  0.30800000  0.79203000  1.0
  H  H25  1  0.56946000  0.27863000  0.87964000  1.0
  H  H26  1  0.76526000  0.49360000  0.00108000  1.0
  H  H27  1  0.73748000  0.55170000  0.92955000  1.0
  H  H28  1  0.79315000  0.46916000  0.91515000  1.0
  H  H29  1  0.33221000  0.62639000  0.01060000  1.0
  H  H30  1  0.41912000  0.66141000  0.05882000  1.0
  H  H31  1  0.32646000  0.63729000  0.10242000  1.0
  H  H32  1  0.68149000  0.35106000  0.01932000  1.0
  H  H33  1  0.61935000  0.34112000  0.09427000  1.0
  H  H34  1  0.72949000  0.35222000  0.10394000  1.0
  H  H35  1  0.30900000  0.48112000  0.97577000  1.0
  H  H36  1  0.35615000  0.44645000  0.89978000  1.0
  H  H37  1  0.28086000  0.51818000  0.89244000  1.0
  H  H38  1  0.67123000  0.36057000  0.65573000  1.0
  H  H39  1  0.70149000  0.30252000  0.58760000  1.0
  H  H40  1  0.66239000  0.26397000  0.66604000  1.0
  H  H41  1  0.29862000  0.75806000  0.40527000  1.0
  H  H42  1  0.29838000  0.67713000  0.45862000  1.0
  H  H43  1  0.29190000  0.66962000  0.36692000  1.0
  H  H44  1  0.30261000  0.32615000  0.35988000  1.0
  H  H45  1  0.30258000  0.33144000  0.45178000  1.0
  H  H46  1  0.31218000  0.24424000  0.41004000  1.0
  H  H47  1  0.70486000  0.75062000  0.58862000  1.0
  H  H48  1  0.70365000  0.66946000  0.53643000  1.0
  H  H49  1  0.70602000  0.66227000  0.62827000  1.0
  H  H50  1  0.64120000  0.06713000  0.58097000  1.0
  H  H51  1  0.70442000  0.14628000  0.57167000  1.0
  H  H52  1  0.68271000  0.11171000  0.65580000  1.0
  H  H53  1  0.42208000  0.77632000  0.31312000  1.0
  H  H54  1  0.49366000  0.85079000  0.31485000  1.0
  H  H55  1  0.38571000  0.86691000  0.29520000  1.0
  H  H56  1  0.51796000  0.18754000  0.31581000  1.0
  H  H57  1  0.42523000  0.14028000  0.29004000  1.0
  H  H58  1  0.42079000  0.23503000  0.31140000  1.0
  H  H59  1  0.62316000  0.86271000  0.69418000  1.0
  H  H60  1  0.58304000  0.77358000  0.67677000  1.0
  H  H61  1  0.51483000  0.85081000  0.67412000  1.0
  C  C62  1  0.50748000  0.49605000  0.37409000  1.0
  C  C63  1  0.48753000  0.50213000  0.63327000  1.0
  C  C64  1  0.49387000  0.50366000  0.71070000  1.0
  C  C65  1  0.51470000  0.49496000  0.29710000  1.0
  C  C66  1  0.60308000  0.47920000  0.96946000  1.0
  C  C67  1  0.46306000  0.52743000  0.03901000  1.0
  C  C68  1  0.60057000  0.47383000  0.04162000  1.0
  C  C69  1  0.46360000  0.52792000  0.96693000  1.0
  C  C70  1  0.53116000  0.49841000  0.07687000  1.0
  C  C71  1  0.53376000  0.50493000  0.93179000  1.0
  C  C72  1  0.54539000  0.27453000  0.55228000  1.0
  C  C73  1  0.45342000  0.73344000  0.44964000  1.0
  C  C74  1  0.46150000  0.27330000  0.45205000  1.0
  C  C75  1  0.54991000  0.73191000  0.54154000  1.0
  C  C76  1  0.55262000  0.19837000  0.55225000  1.0
  C  C77  1  0.45731000  0.80940000  0.44478000  1.0
  C  C78  1  0.47189000  0.19826000  0.44488000  1.0
  C  C79  1  0.55028000  0.80801000  0.54475000  1.0
  C  C80  1  0.51548000  0.16030000  0.49734000  1.0
  C  C81  1  0.50486000  0.84689000  0.49434000  1.0
  C  C82  1  0.45196000  0.04302000  0.53207000  1.0
  C  C83  1  0.56841000  0.96415000  0.45757000  1.0
  C  C84  1  0.57105000  0.04008000  0.45795000  1.0
  C  C85  1  0.44851000  0.96708000  0.53065000  1.0
  C  C86  1  0.50709000  0.92727000  0.49395000  1.0
  C  C87  1  0.51370000  0.07990000  0.49600000  1.0
  C  C88  1  0.33552000  0.50777000  0.49450000  1.0
  C  C89  1  0.65600000  0.50196000  0.50851000  1.0
  C  C90  1  0.95439000  0.43018000  0.50073000  1.0
  C  C91  1  0.03563000  0.56341000  0.48085000  1.0
  C  C92  1  0.04086000  0.43191000  0.49873000  1.0
  C  C93  1  0.94916000  0.56154000  0.48192000  1.0
  C  C94  1  0.90719000  0.49510000  0.49356000  1.0
  C  C95  1  0.08299000  0.49875000  0.48982000  1.0
  C  C96  1  0.82039000  0.49447000  0.49889000  1.0
  C  C97  1  0.17023000  0.50130000  0.49031000  1.0
  C  C98  1  0.24562000  0.50537000  0.49187000  1.0
  C  C99  1  0.74546000  0.49744000  0.50453000  1.0
  C  C100  1  0.50429000  0.56969000  0.74709000  1.0
  C  C101  1  0.57865000  0.53323000  0.26617000  1.0
  C  C102  1  0.45678000  0.45738000  0.25618000  1.0
  C  C103  1  0.49777000  0.43833000  0.74936000  1.0
  C  C104  1  0.52260000  0.56927000  0.81821000  1.0
  C  C105  1  0.58410000  0.53404000  0.19418000  1.0
  C  C106  1  0.46481000  0.45496000  0.18448000  1.0
  C  C107  1  0.51576000  0.43883000  0.82054000  1.0
  C  C108  1  0.52797000  0.50426000  0.85554000  1.0
  C  C109  1  0.52793000  0.49447000  0.15279000  1.0
  C  C110  1  0.41807000  0.65734000  0.69033000  1.0
  C  C111  1  0.71399000  0.54204000  0.31512000  1.0
  C  C112  1  0.31825000  0.46946000  0.28773000  1.0
  C  C113  1  0.40286000  0.34791000  0.71386000  1.0
  C  C114  1  0.60829000  0.66964000  0.84141000  1.0
  C  C115  1  0.62424000  0.65041000  0.15994000  1.0
  C  C116  1  0.41040000  0.34044000  0.15335000  1.0
  C  C117  1  0.58047000  0.32532000  0.84609000  1.0
  C  C118  1  0.74598000  0.49505000  0.94641000  1.0
  C  C119  1  0.36683000  0.62331000  0.05995000  1.0
  C  C120  1  0.67426000  0.36771000  0.07316000  1.0
  C  C121  1  0.33154000  0.49531000  0.92444000  1.0
  C  C122  1  0.65792000  0.30939000  0.62962000  1.0
  C  C123  1  0.31792000  0.70105000  0.40989000  1.0
  C  C124  1  0.32733000  0.30219000  0.40776000  1.0
  C  C125  1  0.68323000  0.69444000  0.58424000  1.0
  C  C126  1  0.65773000  0.11983000  0.60334000  1.0
  C  C127  1  0.42995000  0.83389000  0.32547000  1.0
  C  C128  1  0.45087000  0.18290000  0.32321000  1.0
  C  C129  1  0.57782000  0.83142000  0.66390000  1.0
  I  I130  1  0.11331000  0.33792000  0.51006000  1.0
  I  I131  1  0.87692000  0.65519000  0.46680000  1.0
  I  I132  1  0.88887000  0.33333333  0.51335000  1.0
  I  I133  1  0.09986000  0.66069000  0.46717000  1.0
  I  I134  1  0.36516000  0.10435000  0.58605000  1.0
  I  I135  1  0.65546000  0.90233000  0.40426000  1.0
  I  I136  1  0.66123000  0.09753000  0.40395000  1.0
  I  I137  1  0.35644000  0.90960000  0.58251000  1.0
  N  N138  1  0.49945000  0.30951000  0.50367000  1.0
  N  N139  1  0.50034000  0.69651000  0.49621000  1.0
  O  O140  1  0.52903000  0.43896000  0.40640000  1.0
  O  O141  1  0.51322000  0.55796000  0.60185000  1.0
  O  O142  1  0.46005000  0.44528000  0.60389000  1.0
  O  O143  1  0.48044000  0.55437000  0.39963000  1.0
  O  O144  1  0.37142000  0.44913000  0.47893000  1.0
  O  O145  1  0.62405000  0.56192000  0.48927000  1.0
  O  O146  1  0.62002000  0.44569000  0.53026000  1.0
  O  O147  1  0.36808000  0.56780000  0.51191000  1.0
  O  O148  1  0.49858000  0.63719000  0.71725000  1.0
  O  O149  1  0.63254000  0.57340000  0.30675000  1.0
  O  O150  1  0.39043000  0.42346000  0.28649000  1.0
  O  O151  1  0.48741000  0.37124000  0.72016000  1.0
  O  O152  1  0.53136000  0.63371000  0.85342000  1.0
  O  O153  1  0.64496000  0.57480000  0.16377000  1.0
  O  O154  1  0.40834000  0.41750000  0.14379000  1.0
  O  O155  1  0.51382000  0.37540000  0.85832000  1.0
  O  O156  1  0.67098000  0.45470000  0.93417000  1.0
  O  O157  1  0.39579000  0.55113000  0.07469000  1.0
  O  O158  1  0.66718000  0.44495000  0.07879000  1.0
  O  O159  1  0.39421000  0.55045000  0.92919000  1.0
  O  O160  1  0.57484000  0.31770000  0.60223000  1.0
  O  O161  1  0.40689000  0.69363000  0.40516000  1.0
  O  O162  1  0.41604000  0.31305000  0.40631000  1.0
  O  O163  1  0.59389000  0.69039000  0.58658000  1.0
  O  O164  1  0.58614000  0.16570000  0.61016000  1.0
  O  O165  1  0.41188000  0.84827000  0.39669000  1.0
  O  O166  1  0.43531000  0.15912000  0.39269000  1.0
  O  O167  1  0.59692000  0.84532000  0.59264000  1.0
