# generated using pymatgen
data_V4P2H18C24N4O15
_symmetry_space_group_name_H-M   'P 1'
_cell_length_a   9.82659000
_cell_length_b   10.04680000
_cell_length_c   14.91180000
_cell_angle_alpha   76.98500000
_cell_angle_beta   89.99970000
_cell_angle_gamma   89.99960000
_symmetry_Int_Tables_number   1
_chemical_formula_structural   V4P2H18C24N4O15
_chemical_formula_sum   'V8 P4 H36 C48 N8 O30'
_cell_volume   1434.36054686
_cell_formula_units_Z   2
loop_
 _symmetry_equiv_pos_site_id
 _symmetry_equiv_pos_as_xyz
  1  'x, y, z'
loop_
 _atom_site_type_symbol
 _atom_site_label
 _atom_site_symmetry_multiplicity
 _atom_site_fract_x
 _atom_site_fract_y
 _atom_site_fract_z
 _atom_site_occupancy
  V  V0  1  0.58207000  0.21860000  0.04320000  1.0
  V  V1  1  0.41793000  0.21860000  0.54320000  1.0
  V  V2  1  0.41793000  0.78140000  0.95680000  1.0
  V  V3  1  0.58207000  0.78140000  0.45680000  1.0
  V  V4  1  0.67670000  0.32462000  0.24555000  1.0
  V  V5  1  0.32330000  0.32462000  0.74555000  1.0
  V  V6  1  0.32330000  0.67537000  0.75445000  1.0
  V  V7  1  0.67669000  0.67537000  0.25445000  1.0
  P  P8  1  0.47417000  0.90487000  0.13897000  1.0
  P  P9  1  0.52582000  0.90487000  0.63897000  1.0
  P  P10  1  0.52582000  0.09513000  0.86103000  1.0
  P  P11  1  0.47417000  0.09513000  0.36103000  1.0
  H  H12  1  0.41661000  0.88333000  0.28073000  1.0
  H  H13  1  0.58338000  0.88333000  0.78072000  1.0
  H  H14  1  0.58338000  0.11667000  0.71928000  1.0
  H  H15  1  0.41662000  0.11667000  0.21928000  1.0
  H  H16  1  0.54308000  0.48967000  0.90354000  1.0
  H  H17  1  0.45692000  0.48968000  0.40354000  1.0
  H  H18  1  0.45692000  0.51033000  0.09647000  1.0
  H  H19  1  0.54309000  0.51033000  0.59647000  1.0
  H  H20  1  0.68733000  0.66257000  0.79937000  1.0
  H  H21  1  0.31267000  0.66258000  0.29937000  1.0
  H  H22  1  0.31267000  0.33742000  0.20063000  1.0
  H  H23  1  0.68734000  0.33742000  0.70063000  1.0
  H  H24  1  0.94190000  0.63114000  0.80115000  1.0
  H  H25  1  0.05810000  0.63115000  0.30116000  1.0
  H  H26  1  0.05809000  0.36885000  0.19885000  1.0
  H  H27  1  0.94192000  0.36886000  0.69885000  1.0
  H  H28  1  0.14197000  0.48944000  0.86771000  1.0
  H  H29  1  0.85802000  0.48945000  0.36771000  1.0
  H  H30  1  0.85802000  0.51055000  0.13229000  1.0
  H  H31  1  0.14198000  0.51055000  0.63229000  1.0
  H  H32  1  0.23624000  0.28308000  0.97312000  1.0
  H  H33  1  0.76376000  0.28309000  0.47312000  1.0
  H  H34  1  0.76376000  0.71691000  0.02688000  1.0
  H  H35  1  0.23624000  0.71692000  0.52688000  1.0
  H  H36  1  0.19277000  0.05870000  0.08816000  1.0
  H  H37  1  0.80723000  0.05871000  0.58815000  1.0
  H  H38  1  0.80723000  0.94130000  0.91185000  1.0
  H  H39  1  0.19277000  0.94130000  0.41185000  1.0
  H  H40  1  0.02123000  0.90079000  0.18314000  1.0
  H  H41  1  0.97877000  0.90080000  0.68314000  1.0
  H  H42  1  0.97877000  0.09921000  0.81686000  1.0
  H  H43  1  0.02123000  0.09921000  0.31686000  1.0
  H  H44  1  0.77593000  0.96236000  0.16895000  1.0
  H  H45  1  0.22407000  0.96237000  0.66895000  1.0
  H  H46  1  0.22407000  0.03764000  0.83105000  1.0
  H  H47  1  0.77593000  0.03763000  0.33105000  1.0
  C  C48  1  0.65310000  0.47816000  0.90232000  1.0
  C  C49  1  0.34690000  0.47817000  0.40232000  1.0
  C  C50  1  0.34689000  0.52184000  0.09768000  1.0
  C  C51  1  0.65311000  0.52184000  0.59768000  1.0
  C  C52  1  0.73521000  0.57469000  0.84422000  1.0
  C  C53  1  0.26479000  0.57470000  0.34422000  1.0
  C  C54  1  0.26479000  0.42531000  0.15578000  1.0
  C  C55  1  0.73522000  0.42531000  0.65578000  1.0
  C  C56  1  0.87476000  0.55751000  0.84496000  1.0
  C  C57  1  0.12524000  0.55752000  0.34496000  1.0
  C  C58  1  0.12524000  0.44249000  0.15504000  1.0
  C  C59  1  0.87477000  0.44249000  0.65504000  1.0
  C  C60  1  0.93216000  0.44173000  0.90430000  1.0
  C  C61  1  0.06784000  0.44174000  0.40430000  1.0
  C  C62  1  0.06784000  0.55827000  0.09570000  1.0
  C  C63  1  0.93217000  0.55827000  0.59570000  1.0
  C  C64  1  0.07520000  0.41520000  0.91071000  1.0
  C  C65  1  0.92479000  0.41520000  0.41071000  1.0
  C  C66  1  0.92479000  0.58480000  0.08928000  1.0
  C  C67  1  0.07521000  0.58480000  0.58928000  1.0
  C  C68  1  0.12675000  0.30110000  0.96840000  1.0
  C  C69  1  0.87325000  0.30111000  0.46839000  1.0
  C  C70  1  0.87325000  0.69889000  0.03160000  1.0
  C  C71  1  0.12675000  0.69889000  0.53160000  1.0
  C  C72  1  0.03824000  0.20425000  0.02484000  1.0
  C  C73  1  0.96176000  0.20426000  0.52483000  1.0
  C  C74  1  0.96176000  0.79575000  0.97516000  1.0
  C  C75  1  0.03824000  0.79575000  0.47517000  1.0
  C  C76  1  0.08443000  0.08297000  0.08474000  1.0
  C  C77  1  0.91557000  0.08298000  0.58474000  1.0
  C  C78  1  0.91557000  0.91703000  0.91526000  1.0
  C  C79  1  0.08443000  0.91703000  0.41526000  1.0
  C  C80  1  0.99067000  0.99581000  0.13660000  1.0
  C  C81  1  0.00933000  0.99582000  0.63660000  1.0
  C  C82  1  0.00933000  0.00418000  0.86340000  1.0
  C  C83  1  0.99067000  0.00419000  0.36340000  1.0
  C  C84  1  0.85143000  0.02970000  0.12892000  1.0
  C  C85  1  0.14857000  0.02971000  0.62892000  1.0
  C  C86  1  0.14857000  0.97029000  0.87108000  1.0
  C  C87  1  0.85143000  0.97029000  0.37108000  1.0
  C  C88  1  0.89586000  0.22867000  0.02113000  1.0
  C  C89  1  0.10414000  0.22868000  0.52113000  1.0
  C  C90  1  0.10414000  0.77132000  0.97887000  1.0
  C  C91  1  0.89586000  0.77132000  0.47886000  1.0
  C  C92  1  0.84254000  0.34821000  0.96051000  1.0
  C  C93  1  0.15745000  0.34822000  0.46050000  1.0
  C  C94  1  0.15746000  0.65178000  0.03950000  1.0
  C  C95  1  0.84255000  0.65178000  0.53949000  1.0
  N  N96  1  0.70490000  0.36743000  0.95923000  1.0
  N  N97  1  0.29510000  0.36744000  0.45923000  1.0
  N  N98  1  0.29510000  0.63256000  0.04077000  1.0
  N  N99  1  0.70491000  0.63256000  0.54077000  1.0
  N  N100  1  0.80477000  0.14243000  0.07254000  1.0
  N  N101  1  0.19523000  0.14244000  0.57254000  1.0
  N  N102  1  0.19523000  0.85756000  0.92746000  1.0
  N  N103  1  0.80477000  0.85756000  0.42745000  1.0
  O  O104  1  0.44453000  0.29761000  0.00428000  1.0
  O  O105  1  0.55547000  0.29761000  0.50428000  1.0
  O  O106  1  0.55547000  0.70239000  0.99572000  1.0
  O  O107  1  0.44453000  0.70238000  0.49572000  1.0
  O  O108  1  0.60582000  0.29894000  0.14731000  1.0
  O  O109  1  0.39418000  0.29894000  0.64731000  1.0
  O  O110  1  0.39418000  0.70106000  0.85269000  1.0
  O  O111  1  0.60582000  0.70105000  0.35269000  1.0
  O  O112  1  0.51932000  0.05255000  0.13716000  1.0
  O  O113  1  0.48068000  0.05255000  0.63716000  1.0
  O  O114  1  0.48068000  0.94745000  0.86284000  1.0
  O  O115  1  0.51932000  0.94745000  0.36284000  1.0
  O  O116  1  0.37302000  0.86389000  0.22440000  1.0
  O  O117  1  0.62697000  0.86389000  0.72440000  1.0
  O  O118  1  0.62697000  0.13611000  0.77560000  1.0
  O  O119  1  0.37303000  0.13611000  0.27560000  1.0
  O  O120  1  0.39696000  0.89174000  0.05357000  1.0
  O  O121  1  0.60304000  0.89174000  0.55357000  1.0
  O  O122  1  0.60303000  0.10826000  0.94642000  1.0
  O  O123  1  0.39696000  0.10826000  0.44643000  1.0
  O  O124  1  0.59881000  0.80612000  0.15865000  1.0
  O  O125  1  0.40118000  0.80611000  0.65865000  1.0
  O  O126  1  0.40118000  0.19388000  0.84135000  1.0
  O  O127  1  0.59882000  0.19388000  0.34135000  1.0
  O  O128  1  0.64632000  0.50000000  0.25000000  1.0
  O  O129  1  0.35368000  0.50000000  0.75000000  1.0
  O  O130  1  0.83736000  0.29026000  0.24384000  1.0
  O  O131  1  0.16264000  0.29027000  0.74385000  1.0
  O  O132  1  0.16264000  0.70973000  0.75615000  1.0
  O  O133  1  0.83736000  0.70973000  0.25615000  1.0
