# generated using pymatgen
data_Zn8H69C61NO26
_symmetry_space_group_name_H-M   'P 1'
_cell_length_a   18.22990000
_cell_length_b   18.23290000
_cell_length_c   18.25653901
_cell_angle_alpha   90.09001205
_cell_angle_beta   119.91090010
_cell_angle_gamma   119.92900000
_symmetry_Int_Tables_number   1
_chemical_formula_structural   Zn8H69C61NO26
_chemical_formula_sum   'Zn8 H69 C61 N1 O26'
_cell_volume   4297.85602432
_cell_formula_units_Z   1
loop_
 _symmetry_equiv_pos_site_id
 _symmetry_equiv_pos_as_xyz
  1  'x, y, z'
loop_
 _atom_site_type_symbol
 _atom_site_label
 _atom_site_symmetry_multiplicity
 _atom_site_fract_x
 _atom_site_fract_y
 _atom_site_fract_z
 _atom_site_occupancy
  Zn  Zn0  1  0.41087000  0.54192000  0.45554000  1.0
  Zn  Zn1  1  0.58697000  0.54377000  0.45461000  1.0
  Zn  Zn2  1  0.41440000  0.37066000  0.45801000  1.0
  Zn  Zn3  1  0.58973000  0.54401000  0.63386000  1.0
  Zn  Zn4  1  0.58704000  0.95574000  0.04540000  1.0
  Zn  Zn5  1  0.58956000  0.13404000  0.04475000  1.0
  Zn  Zn6  1  0.41051000  0.95539000  0.04147000  1.0
  Zn  Zn7  1  0.41406000  0.95606000  0.86960000  1.0
  H  H8  1  0.32826000  0.67411000  0.72047000  1.0
  H  H9  1  0.91022000  0.21643000  0.08721000  1.0
  H  H10  1  0.65992000  0.39311000  0.80416000  1.0
  H  H11  1  0.45378000  0.60765000  0.77964000  1.0
  H  H12  1  0.63241000  0.22028000  0.80744000  1.0
  H  H13  1  0.66451000  0.30076000  0.89243000  1.0
  H  H14  1  0.52092000  0.38805000  0.79710000  1.0
  H  H15  1  0.52271000  0.29815000  0.88859000  1.0
  H  H16  1  0.34506000  0.18482000  0.59536000  1.0
  H  H17  1  0.44167000  0.18637000  0.59550000  1.0
  H  H18  1  0.44487000  0.09707000  0.68789000  1.0
  H  H19  1  0.90925000  0.29988000  0.27348000  1.0
  H  H20  1  0.34546000  0.09353000  0.68492000  1.0
  H  H21  1  0.38984000  0.30191000  0.71270000  1.0
  H  H22  1  0.62721000  0.78115000  0.90841000  1.0
  H  H23  1  0.39111000  0.21346000  0.80426000  1.0
  H  H24  1  0.90898000  0.77346000  0.79931000  1.0
  H  H25  1  0.90991000  0.82286000  0.71621000  1.0
  H  H26  1  0.08985000  0.91283000  0.80627000  1.0
  H  H27  1  0.09033000  0.86407000  0.89001000  1.0
  H  H28  1  0.90894000  0.63576000  0.79957000  1.0
  H  H29  1  0.09034000  0.72636000  0.89022000  1.0
  H  H30  1  0.09083000  0.39034000  0.22654000  1.0
  H  H31  1  0.90966000  0.65604000  0.59561000  1.0
  H  H32  1  0.90958000  0.75226000  0.59529000  1.0
  H  H33  1  0.09043000  0.84273000  0.68566000  1.0
  H  H34  1  0.67203000  0.82582000  0.77967000  1.0
  H  H35  1  0.09052000  0.74652000  0.68592000  1.0
  H  H36  1  0.90975000  0.58663000  0.71667000  1.0
  H  H37  1  0.08979000  0.67661000  0.80657000  1.0
  H  H38  1  0.52608000  0.39040000  0.22660000  1.0
  H  H39  1  0.39354000  0.30659000  0.17733000  1.0
  H  H40  1  0.39352000  0.21638000  0.08727000  1.0
  H  H41  1  0.90942000  0.29974000  0.13583000  1.0
  H  H42  1  0.52603000  0.29947000  0.13576000  1.0
  H  H43  1  0.66377000  0.39031000  0.36416000  1.0
  H  H44  1  0.66377000  0.29942000  0.27332000  1.0
  H  H45  1  0.43876000  0.18594000  0.34339000  1.0
  H  H46  1  0.54646000  0.89222000  0.72048000  1.0
  H  H47  1  0.34261000  0.18596000  0.24743000  1.0
  H  H48  1  0.34261000  0.09541000  0.15685000  1.0
  H  H49  1  0.43866000  0.09524000  0.25276000  1.0
  H  H50  1  0.62925000  0.30642000  0.41280000  1.0
  H  H51  1  0.62927000  0.21622000  0.32269000  1.0
  H  H52  1  0.09040000  0.18560000  0.24703000  1.0
  H  H53  1  0.66374000  0.77347000  0.36408000  1.0
  H  H54  1  0.62913000  0.82293000  0.41277000  1.0
  H  H55  1  0.62916000  0.91298000  0.32284000  1.0
  H  H56  1  0.66362000  0.86415000  0.27334000  1.0
  H  H57  1  0.52624000  0.63572000  0.22649000  1.0
  H  H58  1  0.37312000  0.71870000  0.59178000  1.0
  H  H59  1  0.52624000  0.72649000  0.13591000  1.0
  H  H60  1  0.34249000  0.65668000  0.24737000  1.0
  H  H61  1  0.43859000  0.75288000  0.34339000  1.0
  H  H62  1  0.43846000  0.84333000  0.25296000  1.0
  H  H63  1  0.09022000  0.18557000  0.34307000  1.0
  H  H64  1  0.34238000  0.74710000  0.15694000  1.0
  H  H65  1  0.39363000  0.58694000  0.17714000  1.0
  H  H66  1  0.39360000  0.67694000  0.08719000  1.0
  H  H67  1  0.09061000  0.39043000  0.36408000  1.0
  H  H68  1  0.08975000  0.30651000  0.41277000  1.0
  H  H69  1  0.90982000  0.21661000  0.32284000  1.0
  H  H70  1  0.61646000  0.25525000  0.67698000  1.0
  H  H71  1  0.78541000  0.36368000  0.71845000  1.0
  H  H72  1  0.79733000  0.34887000  0.81962000  1.0
  H  H73  1  0.79706000  0.44171000  0.78889000  1.0
  H  H74  1  0.90937000  0.09530000  0.25269000  1.0
  H  H75  1  0.90956000  0.09534000  0.15666000  1.0
  H  H76  1  0.09015000  0.30635000  0.17709000  1.0
  C  C77  1  0.78054000  0.64014000  0.64063000  1.0
  C  C78  1  0.05980000  0.19944000  0.27983000  1.0
  C  C79  1  0.10121000  0.29908000  0.30054000  1.0
  C  C80  1  0.21926000  0.35984000  0.35955000  1.0
  C  C81  1  0.89877000  0.19803000  0.19939000  1.0
  C  C82  1  0.94008000  0.25888000  0.15146000  1.0
  C  C83  1  0.94004000  0.13966000  0.21998000  1.0
  C  C84  1  0.61003000  0.32266000  0.76129000  1.0
  C  C85  1  0.60895000  0.26112000  0.82070000  1.0
  C  C86  1  0.46750000  0.31649000  0.75681000  1.0
  C  C87  1  0.42251000  0.19942000  0.64005000  1.0
  C  C88  1  0.57099000  0.76677000  0.83779000  1.0
  C  C89  1  0.49928000  0.29906000  0.69806000  1.0
  C  C90  1  0.49953000  0.19807000  0.79944000  1.0
  C  C91  1  0.46810000  0.25699000  0.81735000  1.0
  C  C92  1  0.49993000  0.63987000  0.35925000  1.0
  C  C93  1  0.42301000  0.13967000  0.70001000  1.0
  C  C94  1  0.93976000  0.78844000  0.75858000  1.0
  C  C95  1  0.05986000  0.84847000  0.81865000  1.0
  C  C96  1  0.93973000  0.65114000  0.75884000  1.0
  C  C97  1  0.94013000  0.71954000  0.63973000  1.0
  C  C98  1  0.89863000  0.69910000  0.69785000  1.0
  C  C99  1  0.59581000  0.79292000  0.76733000  1.0
  C  C100  1  0.10112000  0.80031000  0.79903000  1.0
  C  C101  1  0.05981000  0.71116000  0.81885000  1.0
  C  C102  1  0.05989000  0.77944000  0.69956000  1.0
  C  C103  1  0.47025000  0.31894000  0.21157000  1.0
  C  C104  1  0.50107000  0.36008000  0.64095000  1.0
  C  C105  1  0.47025000  0.25878000  0.15148000  1.0
  C  C106  1  0.60737000  0.31885000  0.34854000  1.0
  C  C107  1  0.41970000  0.19968000  0.28008000  1.0
  C  C108  1  0.49853000  0.29926000  0.30068000  1.0
  C  C109  1  0.49856000  0.19784000  0.19938000  1.0
  C  C110  1  0.52593000  0.82835000  0.73287000  1.0
  C  C111  1  0.60738000  0.25868000  0.28842000  1.0
  C  C112  1  0.41969000  0.13967000  0.22011000  1.0
  C  C113  1  0.60726000  0.78851000  0.34850000  1.0
  C  C114  1  0.60722000  0.84858000  0.28846000  1.0
  C  C115  1  0.47030000  0.65129000  0.21146000  1.0
  C  C116  1  0.50011000  0.36020000  0.35958000  1.0
  C  C117  1  0.41955000  0.72003000  0.28005000  1.0
  C  C118  1  0.49847000  0.69929000  0.30059000  1.0
  C  C119  1  0.49836000  0.80057000  0.19943000  1.0
  C  C120  1  0.47027000  0.71135000  0.15146000  1.0
  C  C121  1  0.42935000  0.73312000  0.66242000  1.0
  C  C122  1  0.41946000  0.77992000  0.22018000  1.0
  C  C123  1  0.50113000  0.14077000  0.86031000  1.0
  C  C124  1  0.49989000  0.85938000  0.14021000  1.0
  C  C125  1  0.78073000  0.14086000  0.14057000  1.0
  C  C126  1  0.21917000  0.85925000  0.85980000  1.0
  C  C127  1  0.50016000  0.14053000  0.14005000  1.0
  C  C128  1  0.49897000  0.63954000  0.63904000  1.0
  C  C129  1  0.50088000  0.85984000  0.86118000  1.0
  C  C130  1  0.47437000  0.67154000  0.76733000  1.0
  C  C131  1  0.40452000  0.70697000  0.73286000  1.0
  C  C132  1  0.49837000  0.69734000  0.69569000  1.0
  C  C133  1  0.50204000  0.80258000  0.80460000  1.0
  C  C134  1  0.76256000  0.37008000  0.76226000  1.0
  C  C135  1  0.05993000  0.31893000  0.34851000  1.0
  C  C136  1  0.93985000  0.25897000  0.28851000  1.0
  C  C137  1  0.06015000  0.31884000  0.21146000  1.0
  N  N138  1  0.65004000  0.32020000  0.70957000  1.0
  O  O139  1  0.50255000  0.50208000  0.50196000  1.0
  O  O140  1  0.26184000  0.88049000  0.94425000  1.0
  O  O141  1  0.56339000  0.18224000  0.11875000  1.0
  O  O142  1  0.73793000  0.61861000  0.68251000  1.0
  O  O143  1  0.43785000  0.88151000  0.81953000  1.0
  O  O144  1  0.43828000  0.05565000  0.11615000  1.0
  O  O145  1  0.56233000  0.88230000  0.94597000  1.0
  O  O146  1  0.73395000  0.05598000  0.11807000  1.0
  O  O147  1  0.26651000  0.88291000  0.82218000  1.0
  O  O148  1  0.56398000  0.18241000  0.94470000  1.0
  O  O149  1  0.43762000  0.88208000  0.11564000  1.0
  O  O150  1  0.43765000  0.61554000  0.38188000  1.0
  O  O151  1  0.26204000  0.44440000  0.38052000  1.0
  O  O152  1  0.56342000  0.61878000  0.38092000  1.0
  O  O153  1  0.43787000  0.32197000  0.55627000  1.0
  O  O154  1  0.56308000  0.44473000  0.38093000  1.0
  O  O155  1  0.56205000  0.61797000  0.68039000  1.0
  O  O156  1  0.43841000  0.32230000  0.38278000  1.0
  O  O157  1  0.43635000  0.61652000  0.55429000  1.0
  O  O158  1  0.56368000  0.44453000  0.68263000  1.0
  O  O159  1  0.73378000  0.61712000  0.55588000  1.0
  O  O160  1  0.26648000  0.32210000  0.38359000  1.0
  O  O161  1  0.50158000  0.00195000  0.00091000  1.0
  O  O162  1  0.43948000  0.05588000  0.82224000  1.0
  O  O163  1  0.56372000  0.88129000  0.11948000  1.0
  O  O164  1  0.73789000  0.18260000  0.11850000  1.0
