# generated using pymatgen
data_CuH10C10(NO2)2
_symmetry_space_group_name_H-M   'P 1'
_cell_length_a   8.44087000
_cell_length_b   9.27037000
_cell_length_c   17.78720000
_cell_angle_alpha   90.00000000
_cell_angle_beta   102.50600000
_cell_angle_gamma   90.00000000
_symmetry_Int_Tables_number   1
_chemical_formula_structural   CuH10C10(NO2)2
_chemical_formula_sum   'Cu4 H40 C40 N8 O16'
_cell_volume   1358.82427304
_cell_formula_units_Z   4
loop_
 _symmetry_equiv_pos_site_id
 _symmetry_equiv_pos_as_xyz
  1  'x, y, z'
loop_
 _atom_site_type_symbol
 _atom_site_label
 _atom_site_symmetry_multiplicity
 _atom_site_fract_x
 _atom_site_fract_y
 _atom_site_fract_z
 _atom_site_occupancy
  Cu  Cu0  1  0.91248000  0.26133000  0.55655000  1.0
  Cu  Cu1  1  0.58753000  0.76134000  0.44345000  1.0
  Cu  Cu2  1  0.08753000  0.73866000  0.44346000  1.0
  Cu  Cu3  1  0.41249000  0.23867000  0.55655000  1.0
  H  H4  1  0.75343000  0.34297000  0.80969000  1.0
  H  H5  1  0.74658000  0.84298000  0.19031000  1.0
  H  H6  1  0.24657000  0.65703000  0.19031000  1.0
  H  H7  1  0.25343000  0.15703000  0.80969000  1.0
  H  H8  1  0.86000000  0.89975000  0.76499000  1.0
  H  H9  1  0.63999000  0.39976000  0.23501000  1.0
  H  H10  1  0.13999000  0.10024000  0.23501000  1.0
  H  H11  1  0.36000000  0.60024000  0.76500000  1.0
  H  H12  1  0.69950000  0.16320000  0.89558000  1.0
  H  H13  1  0.80050000  0.66319000  0.10441000  1.0
  H  H14  1  0.30050000  0.83681000  0.10442000  1.0
  H  H15  1  0.19951000  0.33678000  0.89559000  1.0
  H  H16  1  0.65702000  0.98609000  0.85783000  1.0
  H  H17  1  0.84297000  0.48608000  0.14217000  1.0
  H  H18  1  0.34297000  0.01392000  0.14217000  1.0
  H  H19  1  0.15701000  0.51390000  0.85783000  1.0
  H  H20  1  0.73967000  0.87712000  0.97793000  1.0
  H  H21  1  0.76032000  0.37712000  0.02207000  1.0
  H  H22  1  0.26033000  0.12288000  0.02207000  1.0
  H  H23  1  0.23966000  0.62287000  0.97793000  1.0
  H  H24  1  0.78667000  0.04774000  0.02444000  1.0
  H  H25  1  0.71332000  0.54774000  0.97555000  1.0
  H  H26  1  0.21333000  0.95225000  0.97556000  1.0
  H  H27  1  0.28667000  0.45225000  0.02444000  1.0
  H  H28  1  0.83346000  0.40871000  0.68613000  1.0
  H  H29  1  0.66653000  0.90872000  0.31387000  1.0
  H  H30  1  0.16652000  0.59129000  0.31387000  1.0
  H  H31  1  0.33347000  0.09129000  0.68612000  1.0
  H  H32  1  0.93084000  0.98289000  0.64313000  1.0
  H  H33  1  0.56916000  0.48291000  0.35686000  1.0
  H  H34  1  0.06915000  0.01710000  0.35687000  1.0
  H  H35  1  0.43083000  0.51711000  0.64314000  1.0
  H  H36  1  0.98266000  0.20985000  0.97427000  1.0
  H  H37  1  0.51733000  0.70984000  0.02572000  1.0
  H  H38  1  0.01734000  0.79016000  0.02572000  1.0
  H  H39  1  0.48266000  0.29015000  0.97427000  1.0
  H  H40  1  0.06184000  0.14269000  0.89579000  1.0
  H  H41  1  0.43815000  0.64269000  0.10420000  1.0
  H  H42  1  0.93816000  0.85730000  0.10421000  1.0
  H  H43  1  0.56184000  0.35730000  0.89579000  1.0
  C  C44  1  0.80006000  0.11503000  0.79759000  1.0
  C  C45  1  0.69994000  0.61503000  0.20241000  1.0
  C  C46  1  0.19994000  0.88497000  0.20241000  1.0
  C  C47  1  0.30006000  0.38496000  0.79759000  1.0
  C  C48  1  0.79404000  0.25957000  0.77490000  1.0
  C  C49  1  0.70596000  0.75958000  0.22509000  1.0
  C  C50  1  0.20596000  0.74043000  0.22509000  1.0
  C  C51  1  0.29405000  0.24042000  0.77490000  1.0
  C  C52  1  0.85298000  0.01393000  0.75011000  1.0
  C  C53  1  0.64702000  0.51393000  0.24989000  1.0
  C  C54  1  0.14702000  0.98607000  0.24989000  1.0
  C  C55  1  0.35297000  0.48607000  0.75012000  1.0
  C  C56  1  0.75243000  0.06923000  0.87088000  1.0
  C  C57  1  0.74757000  0.56923000  0.12911000  1.0
  C  C58  1  0.24757000  0.93077000  0.12912000  1.0
  C  C59  1  0.25242000  0.43075000  0.87088000  1.0
  C  C60  1  0.83677000  0.95746000  0.99528000  1.0
  C  C61  1  0.66322000  0.45746000  0.00472000  1.0
  C  C62  1  0.16323000  0.04254000  0.00472000  1.0
  C  C63  1  0.33677000  0.54254000  0.99528000  1.0
  C  C64  1  0.83786000  0.29773000  0.70656000  1.0
  C  C65  1  0.66214000  0.79774000  0.29344000  1.0
  C  C66  1  0.16213000  0.70226000  0.29344000  1.0
  C  C67  1  0.33787000  0.20226000  0.70655000  1.0
  C  C68  1  0.89358000  0.05957000  0.68231000  1.0
  C  C69  1  0.60643000  0.55958000  0.31769000  1.0
  C  C70  1  0.10642000  0.94042000  0.31769000  1.0
  C  C71  1  0.39357000  0.44043000  0.68231000  1.0
  C  C72  1  0.02203000  0.11030000  0.94817000  1.0
  C  C73  1  0.47797000  0.61030000  0.05183000  1.0
  C  C74  1  0.97797000  0.88969000  0.05183000  1.0
  C  C75  1  0.52203000  0.38970000  0.94817000  1.0
  C  C76  1  0.90670000  0.98955000  0.48537000  1.0
  C  C77  1  0.59333000  0.48958000  0.51463000  1.0
  C  C78  1  0.09331000  0.01043000  0.51463000  1.0
  C  C79  1  0.40671000  0.51045000  0.48538000  1.0
  C  C80  1  0.97163000  0.47000000  0.45916000  1.0
  C  C81  1  0.52838000  0.97003000  0.54084000  1.0
  C  C82  1  0.02837000  0.52998000  0.54084000  1.0
  C  C83  1  0.47164000  0.03001000  0.45916000  1.0
  N  N84  1  0.88562000  0.19897000  0.66074000  1.0
  N  N85  1  0.61438000  0.69898000  0.33926000  1.0
  N  N86  1  0.11438000  0.80102000  0.33926000  1.0
  N  N87  1  0.38562000  0.30103000  0.66074000  1.0
  N  N88  1  0.88864000  0.00779000  0.92672000  1.0
  N  N89  1  0.61135000  0.50779000  0.07328000  1.0
  N  N90  1  0.11136000  0.99220000  0.07328000  1.0
  N  N91  1  0.38864000  0.49220000  0.92672000  1.0
  O  O92  1  0.81358000  0.08366000  0.50568000  1.0
  O  O93  1  0.68644000  0.58369000  0.49433000  1.0
  O  O94  1  0.18644000  0.91633000  0.49433000  1.0
  O  O95  1  0.31358000  0.41637000  0.50568000  1.0
  O  O96  1  0.85875000  0.88142000  0.44420000  1.0
  O  O97  1  0.64124000  0.38143000  0.55581000  1.0
  O  O98  1  0.14125000  0.11858000  0.55580000  1.0
  O  O99  1  0.35875000  0.61857000  0.44420000  1.0
  O  O100  1  0.91502000  0.34315000  0.45223000  1.0
  O  O101  1  0.58499000  0.84317000  0.54777000  1.0
  O  O102  1  0.08499000  0.65684000  0.54777000  1.0
  O  O103  1  0.41503000  0.15687000  0.45224000  1.0
  O  O104  1  0.98407000  0.55170000  0.40342000  1.0
  O  O105  1  0.51593000  0.05173000  0.59657000  1.0
  O  O106  1  0.01593000  0.44828000  0.59657000  1.0
  O  O107  1  0.48407000  0.94833000  0.40342000  1.0
