# generated using pymatgen
data_SrCoP2H8(CO4)2
_symmetry_space_group_name_H-M   'P 1'
_cell_length_a   7.92838000
_cell_length_b   7.99588000
_cell_length_c   8.59111395
_cell_angle_alpha   84.71766062
_cell_angle_beta   62.51669456
_cell_angle_gamma   78.49630000
_symmetry_Int_Tables_number   1
_chemical_formula_structural   SrCoP2H8(CO4)2
_chemical_formula_sum   'Sr2 Co2 P4 H16 C4 O16'
_cell_volume   473.45856591
_cell_formula_units_Z   2
loop_
 _symmetry_equiv_pos_site_id
 _symmetry_equiv_pos_as_xyz
  1  'x, y, z'
loop_
 _atom_site_type_symbol
 _atom_site_label
 _atom_site_symmetry_multiplicity
 _atom_site_fract_x
 _atom_site_fract_y
 _atom_site_fract_z
 _atom_site_occupancy
  Sr  Sr0  1  0.03603000  0.75005000  0.92787000  1.0
  Sr  Sr1  1  0.96397000  0.24995000  0.07213000  1.0
  Co  Co2  1  0.49913000  0.25013000  0.00185000  1.0
  Co  Co3  1  0.50087000  0.74986000  0.99815000  1.0
  P  P4  1  0.83071000  0.43879000  0.77821000  1.0
  P  P5  1  0.39124000  0.06106000  0.77818000  1.0
  P  P6  1  0.16929000  0.56121000  0.22179000  1.0
  P  P7  1  0.60876000  0.93894000  0.22182000  1.0
  H  H8  1  0.08553000  0.31023000  0.51335000  1.0
  H  H9  1  0.40152000  0.18989000  0.51336000  1.0
  H  H10  1  0.91447000  0.68977000  0.48665000  1.0
  H  H11  1  0.59848000  0.81011000  0.48664000  1.0
  H  H12  1  0.87038000  0.38158000  0.49323000  1.0
  H  H13  1  0.63675000  0.11808000  0.49314000  1.0
  H  H14  1  0.12962000  0.61842000  0.50677000  1.0
  H  H15  1  0.36325000  0.88192000  0.50686000  1.0
  H  H16  1  0.47835000  0.57927000  0.73197000  1.0
  H  H17  1  0.78952000  0.92067000  0.73209000  1.0
  H  H18  1  0.52165000  0.42073000  0.26803000  1.0
  H  H19  1  0.21048000  0.07934000  0.26791000  1.0
  H  H20  1  0.34783000  0.45297000  0.74788000  1.0
  H  H21  1  0.90419000  0.04703000  0.74782000  1.0
  H  H22  1  0.65217000  0.54703000  0.25212000  1.0
  H  H23  1  0.09581000  0.95297000  0.25218000  1.0
  C  C24  1  0.96393000  0.41711000  0.54273000  1.0
  C  C25  1  0.49358000  0.08282000  0.54269000  1.0
  C  C26  1  0.03607000  0.58290000  0.45727000  1.0
  C  C27  1  0.50641000  0.91717000  0.45732000  1.0
  O  O28  1  0.77569000  0.26158000  0.85985000  1.0
  O  O29  1  0.36479000  0.23823000  0.85985000  1.0
  O  O30  1  0.22431000  0.73842000  0.14015000  1.0
  O  O31  1  0.63522000  0.76176000  0.14015000  1.0
  O  O32  1  0.64458000  0.57097000  0.81699000  1.0
  O  O33  1  0.53849000  0.92862000  0.81686000  1.0
  O  O34  1  0.35542000  0.42903000  0.18301000  1.0
  O  O35  1  0.46150000  0.07138000  0.18315000  1.0
  O  O36  1  0.95934000  0.48933000  0.84754000  1.0
  O  O37  1  0.19316000  0.01069000  0.84748000  1.0
  O  O38  1  0.04066000  0.51067000  0.15246000  1.0
  O  O39  1  0.80684000  0.98931000  0.15252000  1.0
  O  O40  1  0.36074000  0.57364000  0.72079000  1.0
  O  O41  1  0.91834000  0.92635000  0.72082000  1.0
  O  O42  1  0.63926000  0.42636000  0.27921000  1.0
  O  O43  1  0.08166000  0.07366000  0.27918000  1.0
