# generated using pymatgen
data_AlH5C10SO7
_symmetry_space_group_name_H-M   'P 1'
_cell_length_a   6.61124000
_cell_length_b   10.99955717
_cell_length_c   12.70710196
_cell_angle_alpha   73.41185703
_cell_angle_beta   75.30519061
_cell_angle_gamma   74.62246297
_symmetry_Int_Tables_number   1
_chemical_formula_structural   AlH5C10SO7
_chemical_formula_sum   'Al2 H10 C20 S2 O14'
_cell_volume   837.92060724
_cell_formula_units_Z   2
loop_
 _symmetry_equiv_pos_site_id
 _symmetry_equiv_pos_as_xyz
  1  'x, y, z'
loop_
 _atom_site_type_symbol
 _atom_site_label
 _atom_site_symmetry_multiplicity
 _atom_site_fract_x
 _atom_site_fract_y
 _atom_site_fract_z
 _atom_site_occupancy
  Al  Al0  1  0.49679000  0.51055000  0.48618000  1.0
  Al  Al1  1  0.99489000  0.50952000  0.48949000  1.0
  H  H2  1  0.26297000  0.60474000  0.35173000  1.0
  H  H3  1  0.78149000  0.34576000  0.55425000  1.0
  H  H4  1  0.61457000  0.48876000  0.13577000  1.0
  H  H5  1  0.38463000  0.53756000  0.83555000  1.0
  H  H6  1  0.87290000  0.74956000  0.64035000  1.0
  H  H7  1  0.58484000  0.20740000  0.65804000  1.0
  H  H8  1  0.09498000  0.22289000  0.43378000  1.0
  H  H9  1  0.32879000  0.79736000  0.43302000  1.0
  H  H10  1  0.07897000  0.74538000  0.76051000  1.0
  H  H11  1  0.82077000  0.17470000  0.76917000  1.0
  C  C12  1  0.64602000  0.73510000  0.49905000  1.0
  C  C13  1  0.83160000  0.52549000  0.28772000  1.0
  C  C14  1  0.33831000  0.27433000  0.50572000  1.0
  C  C15  1  0.16547000  0.49805000  0.68485000  1.0
  C  C16  1  0.77715000  0.50357000  0.10341000  1.0
  C  C17  1  0.22116000  0.52413000  0.86806000  1.0
  C  C18  1  0.89829000  0.52333000  0.16888000  1.0
  C  C19  1  0.09940000  0.50380000  0.80284000  1.0
  C  C20  1  0.10395000  0.52430000  0.97753000  1.0
  C  C21  1  0.89425000  0.50408000  0.99396000  1.0
  C  C22  1  0.55644000  0.86583000  0.51882000  1.0
  C  C23  1  0.64984000  0.92341000  0.57952000  1.0
  C  C24  1  0.37294000  0.93722000  0.47490000  1.0
  C  C25  1  0.81025000  0.85103000  0.64172000  1.0
  C  C26  1  0.89059000  0.90409000  0.70485000  1.0
  C  C27  1  0.40023000  0.13269000  0.52327000  1.0
  C  C28  1  0.29685000  0.07170000  0.47589000  1.0
  C  C29  1  0.56950000  0.05703000  0.58271000  1.0
  C  C30  1  0.65207000  0.10832000  0.64937000  1.0
  C  C31  1  0.80977000  0.03573000  0.70877000  1.0
  S  S32  1  0.15366000  0.54336000  0.09793000  1.0
  S  S33  1  0.84357000  0.48485000  0.87383000  1.0
  O  O34  1  0.52637000  0.68328000  0.46478000  1.0
  O  O35  1  0.96795000  0.54340000  0.33460000  1.0
  O  O36  1  0.15254000  0.33283000  0.48003000  1.0
  O  O37  1  0.34962000  0.52020000  0.63537000  1.0
  O  O38  1  0.46909000  0.33639000  0.51355000  1.0
  O  O39  1  0.03283000  0.47201000  0.64109000  1.0
  O  O40  1  0.83499000  0.67565000  0.51104000  1.0
  O  O41  1  0.64286000  0.50867000  0.33458000  1.0
  O  O42  1  0.24191000  0.57609000  0.43268000  1.0
  O  O43  1  0.75193000  0.43983000  0.53895000  1.0
  O  O44  1  0.13134000  0.13235000  0.42382000  1.0
  O  O45  1  0.26180000  0.89176000  0.42541000  1.0
  O  O46  1  0.04411000  0.83550000  0.76642000  1.0
  O  O47  1  0.89146000  0.08401000  0.77363000  1.0
