# generated using pymatgen
data_CdH7C7SNCl2
_symmetry_space_group_name_H-M   'P 1'
_cell_length_a   3.86751000
_cell_length_b   11.07540000
_cell_length_c   23.21190000
_cell_angle_alpha   89.99980000
_cell_angle_beta   90.00000000
_cell_angle_gamma   98.02790000
_symmetry_Int_Tables_number   1
_chemical_formula_structural   CdH7C7SNCl2
_chemical_formula_sum   'Cd4 H28 C28 S4 N4 Cl8'
_cell_volume   984.52003386
_cell_formula_units_Z   4
loop_
 _symmetry_equiv_pos_site_id
 _symmetry_equiv_pos_as_xyz
  1  'x, y, z'
loop_
 _atom_site_type_symbol
 _atom_site_label
 _atom_site_symmetry_multiplicity
 _atom_site_fract_x
 _atom_site_fract_y
 _atom_site_fract_z
 _atom_site_occupancy
  Cd  Cd0  1  0.29687000  0.14655000  0.47355000  1.0
  Cd  Cd1  1  0.70313000  0.35345000  0.97355000  1.0
  Cd  Cd2  1  0.70313000  0.85345000  0.52645000  1.0
  Cd  Cd3  1  0.29687000  0.64655000  0.02645000  1.0
  H  H4  1  0.96158000  0.70354000  0.21348000  1.0
  H  H5  1  0.03841000  0.79646000  0.71349000  1.0
  H  H6  1  0.03842000  0.29646000  0.78652000  1.0
  H  H7  1  0.96159000  0.20354000  0.28652000  1.0
  H  H8  1  0.45083000  0.35305000  0.26890000  1.0
  H  H9  1  0.54916000  0.14695000  0.76890000  1.0
  H  H10  1  0.54916000  0.64695000  0.73110000  1.0
  H  H11  1  0.45085000  0.85305000  0.23110000  1.0
  H  H12  1  0.95254000  0.78030000  0.31496000  1.0
  H  H13  1  0.04744000  0.71970000  0.81497000  1.0
  H  H14  1  0.04746000  0.21970000  0.68503000  1.0
  H  H15  1  0.95254000  0.28031000  0.18503000  1.0
  H  H16  1  0.68763000  0.64616000  0.39178000  1.0
  H  H17  1  0.31237000  0.85384000  0.89178000  1.0
  H  H18  1  0.31238000  0.35383000  0.60822000  1.0
  H  H19  1  0.68762000  0.14617000  0.10822000  1.0
  H  H20  1  0.70258000  0.49193000  0.19067000  1.0
  H  H21  1  0.29740000  0.00806000  0.69068000  1.0
  H  H22  1  0.29741000  0.50807000  0.80933000  1.0
  H  H23  1  0.70260000  0.99194000  0.30933000  1.0
  H  H24  1  0.24434000  0.54549000  0.42983000  1.0
  H  H25  1  0.75566000  0.95450000  0.92983000  1.0
  H  H26  1  0.75567000  0.45450000  0.57017000  1.0
  H  H27  1  0.24433000  0.04550000  0.07017000  1.0
  H  H28  1  0.15694000  0.40033000  0.46055000  1.0
  H  H29  1  0.84306000  0.09968000  0.96055000  1.0
  H  H30  1  0.84306000  0.59967000  0.53945000  1.0
  H  H31  1  0.15694000  0.90033000  0.03945000  1.0
  C  C32  1  0.54822000  0.48967000  0.33555000  1.0
  C  C33  1  0.45177000  0.01033000  0.83555000  1.0
  C  C34  1  0.45178000  0.51033000  0.66445000  1.0
  C  C35  1  0.54824000  0.98967000  0.16445000  1.0
  C  C36  1  0.84481000  0.64442000  0.24788000  1.0
  C  C37  1  0.15518000  0.85558000  0.74788000  1.0
  C  C38  1  0.15520000  0.35558000  0.75212000  1.0
  C  C39  1  0.84481000  0.14443000  0.25212000  1.0
  C  C40  1  0.55780000  0.44710000  0.27859000  1.0
  C  C41  1  0.44218000  0.05290000  0.77859000  1.0
  C  C42  1  0.44220000  0.55290000  0.72141000  1.0
  C  C43  1  0.55782000  0.94710000  0.22141000  1.0
  C  C44  1  0.83748000  0.68741000  0.30434000  1.0
  C  C45  1  0.16251000  0.81259000  0.80434000  1.0
  C  C46  1  0.16253000  0.31259000  0.69566000  1.0
  C  C47  1  0.83747000  0.18742000  0.19566000  1.0
  C  C48  1  0.68528000  0.61126000  0.34787000  1.0
  C  C49  1  0.31471000  0.88875000  0.84787000  1.0
  C  C50  1  0.31474000  0.38874000  0.65213000  1.0
  C  C51  1  0.68528000  0.11126000  0.15213000  1.0
  C  C52  1  0.70115000  0.52454000  0.23501000  1.0
  C  C53  1  0.29884000  0.97546000  0.73501000  1.0
  C  C54  1  0.29885000  0.47546000  0.76499000  1.0
  C  C55  1  0.70116000  0.02455000  0.26499000  1.0
  C  C56  1  0.40523000  0.40675000  0.38230000  1.0
  C  C57  1  0.59477000  0.09325000  0.88230000  1.0
  C  C58  1  0.59478000  0.59324000  0.61770000  1.0
  C  C59  1  0.40524000  0.90676000  0.11770000  1.0
  S  S60  1  0.43380000  0.25615000  0.37623000  1.0
  S  S61  1  0.56620000  0.24385000  0.87623000  1.0
  S  S62  1  0.56620000  0.74384000  0.62377000  1.0
  S  S63  1  0.43381000  0.75616000  0.12377000  1.0
  N  N64  1  0.26907000  0.45480000  0.42788000  1.0
  N  N65  1  0.73092000  0.04521000  0.92788000  1.0
  N  N66  1  0.73093000  0.54520000  0.57212000  1.0
  N  N67  1  0.26908000  0.95480000  0.07212000  1.0
  Cl  Cl68  1  0.85435000  0.27780000  0.52432000  1.0
  Cl  Cl69  1  0.14565000  0.22220000  0.02432000  1.0
  Cl  Cl70  1  0.14565000  0.72220000  0.47567000  1.0
  Cl  Cl71  1  0.85434000  0.77780000  0.97568000  1.0
  Cl  Cl72  1  0.25305000  0.00636000  0.56636000  1.0
  Cl  Cl73  1  0.74694000  0.49364000  0.06636000  1.0
  Cl  Cl74  1  0.74695000  0.99364000  0.43364000  1.0
  Cl  Cl75  1  0.25306000  0.50636000  0.93364000  1.0
