# generated using pymatgen
data_ZnH30C32(N2O3)2
_symmetry_space_group_name_H-M   'P 1'
_cell_length_a   7.83661000
_cell_length_b   11.46370000
_cell_length_c   17.07800000
_cell_angle_alpha   96.34560000
_cell_angle_beta   90.00000000
_cell_angle_gamma   90.00000000
_symmetry_Int_Tables_number   1
_chemical_formula_structural   ZnH30C32(N2O3)2
_chemical_formula_sum   'Zn2 H60 C64 N8 O12'
_cell_volume   1524.82878544
_cell_formula_units_Z   2
loop_
 _symmetry_equiv_pos_site_id
 _symmetry_equiv_pos_as_xyz
  1  'x, y, z'
loop_
 _atom_site_type_symbol
 _atom_site_label
 _atom_site_symmetry_multiplicity
 _atom_site_fract_x
 _atom_site_fract_y
 _atom_site_fract_z
 _atom_site_occupancy
  Zn  Zn0  1  0.03048000  0.00000000  0.75000000  1.0
  Zn  Zn1  1  0.96952000  0.00000000  0.25000000  1.0
  H  H2  1  0.40281000  0.12411000  0.77483000  1.0
  H  H3  1  0.40282000  0.87589000  0.72517000  1.0
  H  H4  1  0.59718000  0.87589000  0.22517000  1.0
  H  H5  1  0.59718000  0.12411000  0.27483000  1.0
  H  H6  1  0.05017000  0.11686000  0.58777000  1.0
  H  H7  1  0.05017000  0.88314000  0.91223000  1.0
  H  H8  1  0.94983000  0.88313000  0.41223000  1.0
  H  H9  1  0.94983000  0.11686000  0.08777000  1.0
  H  H10  1  0.33872000  0.24746000  0.55214000  1.0
  H  H11  1  0.33872000  0.75254000  0.94786000  1.0
  H  H12  1  0.66128000  0.75254000  0.44786000  1.0
  H  H13  1  0.66128000  0.24746000  0.05214000  1.0
  H  H14  1  0.63916000  0.25501000  0.61555000  1.0
  H  H15  1  0.63916000  0.74498000  0.88445000  1.0
  H  H16  1  0.36084000  0.74499000  0.38445000  1.0
  H  H17  1  0.36084000  0.25501000  0.11555000  1.0
  H  H18  1  0.66646000  0.20551000  0.70795000  1.0
  H  H19  1  0.66646000  0.79449000  0.79205000  1.0
  H  H20  1  0.33354000  0.79450000  0.29205000  1.0
  H  H21  1  0.33354000  0.20551000  0.20795000  1.0
  H  H22  1  0.29972000  0.39821000  0.71785000  1.0
  H  H23  1  0.29973000  0.60179000  0.78215000  1.0
  H  H24  1  0.70028000  0.60179000  0.28215000  1.0
  H  H25  1  0.70028000  0.39821000  0.21785000  1.0
  H  H26  1  0.84926000  0.39721000  0.71824000  1.0
  H  H27  1  0.84926000  0.60279000  0.78176000  1.0
  H  H28  1  0.15074000  0.60279000  0.28176000  1.0
  H  H29  1  0.15074000  0.39722000  0.21824000  1.0
  H  H30  1  0.77912000  0.69695000  0.63062000  1.0
  H  H31  1  0.77912000  0.30305000  0.86938000  1.0
  H  H32  1  0.22088000  0.30305000  0.36938000  1.0
  H  H33  1  0.22087000  0.69696000  0.13062000  1.0
  H  H34  1  0.55508000  0.55814000  0.57186000  1.0
  H  H35  1  0.55508000  0.44186000  0.92814000  1.0
  H  H36  1  0.44493000  0.44186000  0.42814000  1.0
  H  H37  1  0.44492000  0.55815000  0.07186000  1.0
  H  H38  1  0.47892000  0.98900000  0.57375000  1.0
  H  H39  1  0.47892000  0.01100000  0.92625000  1.0
  H  H40  1  0.52108000  0.01100000  0.42625000  1.0
  H  H41  1  0.52108000  0.98900000  0.07375000  1.0
  H  H42  1  0.24991000  0.85492000  0.52017000  1.0
  H  H43  1  0.24991000  0.14508000  0.97983000  1.0
  H  H44  1  0.75009000  0.14508000  0.47983000  1.0
  H  H45  1  0.75009000  0.85492000  0.02017000  1.0
  H  H46  1  0.11383000  0.70733000  0.44388000  1.0
  H  H47  1  0.11383000  0.29267000  0.05611000  1.0
  H  H48  1  0.88617000  0.29267000  0.55612000  1.0
  H  H49  1  0.88618000  0.70733000  0.94389000  1.0
  H  H50  1  0.04972000  0.70329000  0.54398000  1.0
  H  H51  1  0.04972000  0.29671000  0.95602000  1.0
  H  H52  1  0.95028000  0.29671000  0.45602000  1.0
  H  H53  1  0.95028000  0.70329000  0.04398000  1.0
  H  H54  1  0.87634000  0.56700000  0.45105000  1.0
  H  H55  1  0.87634000  0.43300000  0.04895000  1.0
  H  H56  1  0.12366000  0.43300000  0.54895000  1.0
  H  H57  1  0.12366000  0.56700000  0.95105000  1.0
  H  H58  1  0.06354000  0.49415000  0.41437000  1.0
  H  H59  1  0.06354000  0.50585000  0.08563000  1.0
  H  H60  1  0.93646000  0.50585000  0.58563000  1.0
  H  H61  1  0.93646000  0.49415000  0.91436000  1.0
  C  C62  1  0.34379000  0.13850000  0.71921000  1.0
  C  C63  1  0.34379000  0.86150000  0.78079000  1.0
  C  C64  1  0.65621000  0.86150000  0.28079000  1.0
  C  C65  1  0.65620000  0.13850000  0.21921000  1.0
  C  C66  1  0.16639000  0.13895000  0.62057000  1.0
  C  C67  1  0.16639000  0.86105000  0.87943000  1.0
  C  C68  1  0.83362000  0.86105000  0.37942000  1.0
  C  C69  1  0.83361000  0.13895000  0.12058000  1.0
  C  C70  1  0.30660000  0.20312000  0.60297000  1.0
  C  C71  1  0.30660000  0.79689000  0.89703000  1.0
  C  C72  1  0.69339000  0.79689000  0.39703000  1.0
  C  C73  1  0.69339000  0.20311000  0.10297000  1.0
  C  C74  1  0.58285000  0.25899000  0.67459000  1.0
  C  C75  1  0.58284000  0.74100000  0.82541000  1.0
  C  C76  1  0.41716000  0.74101000  0.32541000  1.0
  C  C77  1  0.41715000  0.25900000  0.17459000  1.0
  C  C78  1  0.57435000  0.38380000  0.71309000  1.0
  C  C79  1  0.57435000  0.61619000  0.78691000  1.0
  C  C80  1  0.42565000  0.61619000  0.28692000  1.0
  C  C81  1  0.42565000  0.38381000  0.21309000  1.0
  C  C82  1  0.42111000  0.44241000  0.73164000  1.0
  C  C83  1  0.42111000  0.55759000  0.76836000  1.0
  C  C84  1  0.57889000  0.55759000  0.26836000  1.0
  C  C85  1  0.57889000  0.44241000  0.23164000  1.0
  C  C86  1  0.72848000  0.44266000  0.73182000  1.0
  C  C87  1  0.72848000  0.55734000  0.76818000  1.0
  C  C88  1  0.27152000  0.55734000  0.26818000  1.0
  C  C89  1  0.27153000  0.44266000  0.23182000  1.0
  C  C90  1  0.78067000  0.93423000  0.63831000  1.0
  C  C91  1  0.78068000  0.06577000  0.86169000  1.0
  C  C92  1  0.21932000  0.06577000  0.36169000  1.0
  C  C93  1  0.21933000  0.93423000  0.13831000  1.0
  C  C94  1  0.64393000  0.85178000  0.60529000  1.0
  C  C95  1  0.64393000  0.14822000  0.89471000  1.0
  C  C96  1  0.35607000  0.14822000  0.39471000  1.0
  C  C97  1  0.35607000  0.85178000  0.10529000  1.0
  C  C98  1  0.66383000  0.72989000  0.60506000  1.0
  C  C99  1  0.66383000  0.27011000  0.89493000  1.0
  C  C100  1  0.33617000  0.27011000  0.39494000  1.0
  C  C101  1  0.33617000  0.72990000  0.10506000  1.0
  C  C102  1  0.53919000  0.65282000  0.57340000  1.0
  C  C103  1  0.53919000  0.34718000  0.92660000  1.0
  C  C104  1  0.46081000  0.34718000  0.42660000  1.0
  C  C105  1  0.46081000  0.65282000  0.07340000  1.0
  C  C106  1  0.49384000  0.89464000  0.57445000  1.0
  C  C107  1  0.49383000  0.10536000  0.92555000  1.0
  C  C108  1  0.50617000  0.10536000  0.42555000  1.0
  C  C109  1  0.50616000  0.89464000  0.07445000  1.0
  C  C110  1  0.36463000  0.81878000  0.54423000  1.0
  C  C111  1  0.36463000  0.18121000  0.95577000  1.0
  C  C112  1  0.63537000  0.18121000  0.45577000  1.0
  C  C113  1  0.63537000  0.81879000  0.04423000  1.0
  C  C114  1  0.38878000  0.69717000  0.54301000  1.0
  C  C115  1  0.38878000  0.30283000  0.95699000  1.0
  C  C116  1  0.61122000  0.30283000  0.45699000  1.0
  C  C117  1  0.61122000  0.69717000  0.04301000  1.0
  C  C118  1  0.10674000  0.65127000  0.49222000  1.0
  C  C119  1  0.10674000  0.34873000  0.00778000  1.0
  C  C120  1  0.89326000  0.34873000  0.50778000  1.0
  C  C121  1  0.89326000  0.65127000  0.99222000  1.0
  C  C122  1  0.00525000  0.54090000  0.46759000  1.0
  C  C123  1  0.00525000  0.45910000  0.03241000  1.0
  C  C124  1  0.99475000  0.45910000  0.53241000  1.0
  C  C125  1  0.99475000  0.54090000  0.96759000  1.0
  N  N126  1  0.19145000  0.09931000  0.69325000  1.0
  N  N127  1  0.19145000  0.90069000  0.80675000  1.0
  N  N128  1  0.80855000  0.90068000  0.30675000  1.0
  N  N129  1  0.80855000  0.09932000  0.19325000  1.0
  N  N130  1  0.41762000  0.20122000  0.66576000  1.0
  N  N131  1  0.41762000  0.79877000  0.83424000  1.0
  N  N132  1  0.58238000  0.79878000  0.33424000  1.0
  N  N133  1  0.58238000  0.20123000  0.16576000  1.0
  O  O134  1  0.89234000  0.88746000  0.68202000  1.0
  O  O135  1  0.89235000  0.11253000  0.81797000  1.0
  O  O136  1  0.10765000  0.11254000  0.31798000  1.0
  O  O137  1  0.10765000  0.88747000  0.18202000  1.0
  O  O138  1  0.78113000  0.03909000  0.62411000  1.0
  O  O139  1  0.78113000  0.96091000  0.87589000  1.0
  O  O140  1  0.21887000  0.96091000  0.37589000  1.0
  O  O141  1  0.21887000  0.03909000  0.12411000  1.0
  O  O142  1  0.27520000  0.61435000  0.51231000  1.0
  O  O143  1  0.27520000  0.38565000  0.98769000  1.0
  O  O144  1  0.72480000  0.38565000  0.48769000  1.0
  O  O145  1  0.72480000  0.61435000  0.01231000  1.0
