# generated using pymatgen
data_Zn2H21C38N2(Cl3O4)2
_symmetry_space_group_name_H-M   'P 1'
_cell_length_a   11.01510000
_cell_length_b   14.09010000
_cell_length_c   26.19930000
_cell_angle_alpha   89.27270000
_cell_angle_beta   89.69110000
_cell_angle_gamma   89.74220000
_symmetry_Int_Tables_number   1
_chemical_formula_structural   Zn2H21C38N2(Cl3O4)2
_chemical_formula_sum   'Zn4 H42 C76 N4 Cl12 O16'
_cell_volume   4065.80589463
_cell_formula_units_Z   2
loop_
 _symmetry_equiv_pos_site_id
 _symmetry_equiv_pos_as_xyz
  1  'x, y, z'
loop_
 _atom_site_type_symbol
 _atom_site_label
 _atom_site_symmetry_multiplicity
 _atom_site_fract_x
 _atom_site_fract_y
 _atom_site_fract_z
 _atom_site_occupancy
  Zn  Zn0  1  0.45769000  0.38439000  0.50019000  1.0
  Zn  Zn1  1  0.46215000  0.59217000  0.49427000  1.0
  Zn  Zn2  1  0.53524000  0.62011000  0.91511000  1.0
  Zn  Zn3  1  0.54681000  0.41451000  0.91700000  1.0
  H  H4  1  0.28305000  0.04113000  0.52063000  1.0
  H  H5  1  0.60129000  0.93011000  0.43673000  1.0
  H  H6  1  0.37326000  0.73370000  0.55933000  1.0
  H  H7  1  0.36698000  0.90990000  0.56914000  1.0
  H  H8  1  0.63752000  0.24338000  0.49097000  1.0
  H  H9  1  0.66636000  0.06755000  0.48831000  1.0
  H  H10  1  0.37722000  0.38678000  0.81309000  1.0
  H  H11  1  0.33412000  0.35943000  0.62533000  1.0
  H  H12  1  0.55493000  0.35127000  0.23678000  1.0
  H  H13  1  0.50324000  0.65221000  0.17925000  1.0
  H  H14  1  0.48077000  0.37068000  0.06984000  1.0
  H  H15  1  0.45877000  0.35072000  0.16327000  1.0
  H  H16  1  0.38641000  0.61064000  0.34089000  1.0
  H  H17  1  0.38788000  0.62743000  0.24672000  1.0
  H  H18  1  0.17929000  0.55143000  0.40256000  1.0
  H  H19  1  0.72992000  0.51186000  0.40517000  1.0
  H  H20  1  0.37506000  0.96042000  0.87451000  1.0
  H  H21  1  0.64897000  0.07788000  0.98787000  1.0
  H  H22  1  0.46722000  0.26833000  0.85055000  1.0
  H  H23  1  0.45640000  0.09361000  0.84448000  1.0
  H  H24  1  0.68824000  0.76225000  0.95489000  1.0
  H  H25  1  0.71136000  0.93768000  0.95826000  1.0
  H  H26  1  0.26344000  0.42920000  0.00188000  1.0
  H  H27  1  0.81546000  0.47930000  0.00965000  1.0
  H  H28  1  0.23576000  0.27446000  0.55728000  1.0
  H  H29  1  0.20892000  0.27529000  0.49138000  1.0
  H  H30  1  0.16308000  0.17512000  0.52952000  1.0
  H  H31  1  0.69356000  0.69605000  0.44002000  1.0
  H  H32  1  0.56530000  0.68976000  0.40060000  1.0
  H  H33  1  0.66468000  0.78984000  0.39507000  1.0
  H  H34  1  0.59775000  0.25955000  0.30571000  1.0
  H  H35  1  0.62407000  0.31633000  0.36515000  1.0
  H  H36  1  0.48276000  0.26329000  0.35408000  1.0
  H  H37  1  0.61456000  0.71227000  0.06400000  1.0
  H  H38  1  0.45796000  0.71939000  0.05249000  1.0
  H  H39  1  0.51535000  0.75332000  0.11331000  1.0
  H  H40  1  0.37465000  0.72326000  0.83586000  1.0
  H  H41  1  0.28844000  0.72671000  0.89232000  1.0
  H  H42  1  0.27725000  0.82314000  0.84727000  1.0
  H  H43  1  0.76202000  0.30188000  0.98149000  1.0
  H  H44  1  0.62448000  0.32398000  0.01368000  1.0
  H  H45  1  0.70872000  0.21789000  0.02806000  1.0
  C  C46  1  0.46001000  0.46823000  0.39895000  1.0
  C  C47  1  0.69669000  0.48100000  0.49843000  1.0
  C  C48  1  0.46728000  0.49627000  0.59537000  1.0
  C  C49  1  0.22539000  0.51291000  0.49666000  1.0
  C  C50  1  0.52173000  0.52372000  0.01455000  1.0
  C  C51  1  0.77619000  0.52640000  0.91718000  1.0
  C  C52  1  0.53572000  0.51646000  0.81705000  1.0
  C  C53  1  0.30584000  0.50103000  0.91332000  1.0
  C  C54  1  0.35410000  0.18244000  0.51466000  1.0
  C  C55  1  0.36441000  0.08360000  0.51442000  1.0
  C  C56  1  0.55020000  0.78984000  0.46173000  1.0
  C  C57  1  0.55051000  0.88886000  0.46506000  1.0
  C  C58  1  0.42137000  0.78061000  0.53282000  1.0
  C  C59  1  0.41820000  0.87837000  0.53794000  1.0
  C  C60  1  0.56150000  0.19518000  0.49708000  1.0
  C  C61  1  0.57666000  0.09744000  0.49557000  1.0
  C  C62  1  0.47572000  0.03927000  0.50451000  1.0
  C  C63  1  0.48270000  0.93479000  0.50276000  1.0
  C  C64  1  0.51651000  0.51348000  0.76005000  1.0
  C  C65  1  0.43808000  0.44305000  0.73966000  1.0
  C  C66  1  0.57325000  0.57743000  0.72712000  1.0
  C  C67  1  0.37188000  0.38002000  0.77187000  1.0
  C  C68  1  0.29751000  0.31145000  0.75208000  1.0
  C  C69  1  0.48354000  0.50276000  0.65237000  1.0
  C  C70  1  0.55665000  0.57228000  0.67319000  1.0
  C  C71  1  0.42271000  0.43691000  0.68553000  1.0
  C  C72  1  0.34505000  0.36586000  0.66629000  1.0
  C  C73  1  0.28445000  0.30382000  0.69838000  1.0
  C  C74  1  0.46363000  0.47064000  0.34192000  1.0
  C  C75  1  0.50646000  0.52114000  0.07133000  1.0
  C  C76  1  0.50915000  0.39487000  0.31248000  1.0
  C  C77  1  0.51419000  0.40759000  0.25948000  1.0
  C  C78  1  0.50992000  0.60275000  0.10236000  1.0
  C  C79  1  0.49780000  0.58970000  0.15519000  1.0
  C  C80  1  0.48796000  0.43191000  0.09448000  1.0
  C  C81  1  0.47604000  0.42088000  0.14687000  1.0
  C  C82  1  0.42235000  0.55370000  0.31742000  1.0
  C  C83  1  0.42475000  0.56343000  0.26470000  1.0
  C  C84  1  0.47294000  0.49042000  0.23458000  1.0
  C  C85  1  0.48207000  0.50032000  0.17856000  1.0
  C  C86  1  0.08872000  0.50619000  0.49713000  1.0
  C  C87  1  0.02297000  0.51908000  0.45079000  1.0
  C  C88  1  0.02745000  0.48380000  0.54199000  1.0
  C  C89  1  0.08127000  0.54170000  0.40381000  1.0
  C  C90  1  0.01552000  0.55292000  0.35937000  1.0
  C  C91  1  0.83337000  0.48532000  0.49799000  1.0
  C  C92  1  0.89889000  0.47308000  0.54243000  1.0
  C  C93  1  0.89378000  0.50800000  0.45133000  1.0
  C  C94  1  0.82826000  0.52000000  0.40526000  1.0
  C  C95  1  0.88701000  0.54180000  0.36002000  1.0
  C  C96  1  0.44116000  0.82033000  0.89116000  1.0
  C  C97  1  0.44788000  0.91933000  0.89225000  1.0
  C  C98  1  0.61463000  0.21650000  0.95650000  1.0
  C  C99  1  0.60899000  0.11741000  0.95608000  1.0
  C  C100  1  0.50662000  0.22323000  0.88018000  1.0
  C  C101  1  0.50008000  0.12525000  0.87730000  1.0
  C  C102  1  0.62101000  0.80953000  0.93766000  1.0
  C  C103  1  0.63271000  0.90737000  0.93961000  1.0
  C  C104  1  0.54423000  0.96498000  0.91623000  1.0
  C  C105  1  0.55127000  0.06966000  0.91652000  1.0
  C  C106  1  0.16895000  0.50206000  0.91377000  1.0
  C  C107  1  0.10475000  0.47745000  0.95933000  1.0
  C  C108  1  0.10626000  0.53268000  0.87104000  1.0
  C  C109  1  0.16543000  0.44064000  0.00296000  1.0
  C  C110  1  0.10152000  0.41716000  0.04678000  1.0
  C  C111  1  0.91301000  0.52196000  0.91641000  1.0
  C  C112  1  0.97743000  0.54154000  0.87197000  1.0
  C  C113  1  0.97561000  0.48956000  0.96095000  1.0
  C  C114  1  0.91314000  0.46844000  0.00712000  1.0
  C  C115  1  0.97381000  0.43275000  0.04911000  1.0
  C  C116  1  0.23370000  0.22878000  0.52365000  1.0
  C  C117  1  0.62225000  0.73938000  0.42178000  1.0
  C  C118  1  0.55621000  0.30349000  0.33544000  1.0
  C  C119  1  0.52520000  0.70249000  0.08208000  1.0
  C  C120  1  0.33916000  0.77154000  0.86506000  1.0
  C  C121  1  0.68088000  0.26718000  0.99758000  1.0
  N  N122  1  0.45328000  0.23721000  0.50610000  1.0
  N  N123  1  0.48380000  0.73732000  0.49529000  1.0
  N  N124  1  0.52824000  0.76659000  0.91401000  1.0
  N  N125  1  0.56123000  0.26837000  0.91878000  1.0
  Cl  Cl126  1  0.63358000  0.65188000  0.63470000  1.0
  Cl  Cl127  1  0.66750000  0.66367000  0.75035000  1.0
  Cl  Cl128  1  0.22021000  0.23593000  0.79313000  1.0
  Cl  Cl129  1  0.19245000  0.21798000  0.67279000  1.0
  Cl  Cl130  1  0.82430000  0.44529000  0.59853000  1.0
  Cl  Cl131  1  0.10604000  0.47081000  0.59838000  1.0
  Cl  Cl132  1  0.08999000  0.58036000  0.30310000  1.0
  Cl  Cl133  1  0.80350000  0.55502000  0.30493000  1.0
  Cl  Cl134  1  0.90256000  0.57352000  0.81696000  1.0
  Cl  Cl135  1  0.18505000  0.56017000  0.81576000  1.0
  Cl  Cl136  1  0.17652000  0.36850000  0.09843000  1.0
  Cl  Cl137  1  0.89280000  0.40676000  0.10402000  1.0
  O  O138  1  0.44678000  0.38897000  0.42204000  1.0
  O  O139  1  0.47103000  0.54867000  0.42064000  1.0
  O  O140  1  0.64432000  0.56044000  0.50439000  1.0
  O  O141  1  0.64680000  0.40142000  0.49132000  1.0
  O  O142  1  0.43600000  0.57140000  0.57175000  1.0
  O  O143  1  0.48530000  0.41519000  0.57576000  1.0
  O  O144  1  0.28109000  0.43469000  0.50342000  1.0
  O  O145  1  0.27249000  0.59367000  0.48878000  1.0
  O  O146  1  0.55307000  0.60119000  0.99268000  1.0
  O  O147  1  0.50311000  0.44572000  0.99123000  1.0
  O  O148  1  0.72510000  0.44730000  0.92674000  1.0
  O  O149  1  0.72405000  0.60545000  0.90919000  1.0
  O  O150  1  0.57045000  0.43995000  0.83868000  1.0
  O  O151  1  0.51258000  0.59450000  0.83882000  1.0
  O  O152  1  0.35413000  0.57909000  0.92526000  1.0
  O  O153  1  0.36005000  0.42428000  0.90214000  1.0
