# generated using pymatgen
data_SnH22C26(N2O)2
_symmetry_space_group_name_H-M   'P 1'
_cell_length_a   12.28250000
_cell_length_b   14.05290000
_cell_length_c   17.82820000
_cell_angle_alpha   90.00070000
_cell_angle_beta   90.00070000
_cell_angle_gamma   93.44560000
_symmetry_Int_Tables_number   1
_chemical_formula_structural   SnH22C26(N2O)2
_chemical_formula_sum   'Sn4 H88 C104 N16 O8'
_cell_volume   3071.66922457
_cell_formula_units_Z   4
loop_
 _symmetry_equiv_pos_site_id
 _symmetry_equiv_pos_as_xyz
  1  'x, y, z'
loop_
 _atom_site_type_symbol
 _atom_site_label
 _atom_site_symmetry_multiplicity
 _atom_site_fract_x
 _atom_site_fract_y
 _atom_site_fract_z
 _atom_site_occupancy
  Sn  Sn0  1  0.76769000  0.33751000  0.83114000  1.0
  Sn  Sn1  1  0.23230000  0.16248000  0.33115000  1.0
  Sn  Sn2  1  0.23231000  0.66249000  0.16886000  1.0
  Sn  Sn3  1  0.76770000  0.83752000  0.66886000  1.0
  H  H4  1  0.97988000  0.34790000  0.73544000  1.0
  H  H5  1  0.02011000  0.15209000  0.23544000  1.0
  H  H6  1  0.02012000  0.65210000  0.26456000  1.0
  H  H7  1  0.97989000  0.84791000  0.76456000  1.0
  H  H8  1  0.17604000  0.39029000  0.75308000  1.0
  H  H9  1  0.82395000  0.10970000  0.25307000  1.0
  H  H10  1  0.82396000  0.60971000  0.24693000  1.0
  H  H11  1  0.17605000  0.89029000  0.74693000  1.0
  H  H12  1  0.24777000  0.43445000  0.88036000  1.0
  H  H13  1  0.75223000  0.06554000  0.38036000  1.0
  H  H14  1  0.75222000  0.56554000  0.11964000  1.0
  H  H15  1  0.24778000  0.93445000  0.61964000  1.0
  H  H16  1  0.12087000  0.43782000  0.98859000  1.0
  H  H17  1  0.87913000  0.06218000  0.48859000  1.0
  H  H18  1  0.87912000  0.56218000  0.01141000  1.0
  H  H19  1  0.12087000  0.93782000  0.51142000  1.0
  H  H20  1  0.92374000  0.40175000  0.97095000  1.0
  H  H21  1  0.07626000  0.09825000  0.47094000  1.0
  H  H22  1  0.07625000  0.59825000  0.02906000  1.0
  H  H23  1  0.92374000  0.90175000  0.52906000  1.0
  H  H24  1  0.51809000  0.27692000  0.85543000  1.0
  H  H25  1  0.48190000  0.22308000  0.35543000  1.0
  H  H26  1  0.48191000  0.72308000  0.14457000  1.0
  H  H27  1  0.51810000  0.77692000  0.64457000  1.0
  H  H28  1  0.40435000  0.20615000  0.95858000  1.0
  H  H29  1  0.59564000  0.29384000  0.45858000  1.0
  H  H30  1  0.59566000  0.79385000  0.04143000  1.0
  H  H31  1  0.40436000  0.70616000  0.54142000  1.0
  H  H32  1  0.49183000  0.15057000  0.07546000  1.0
  H  H33  1  0.50817000  0.34943000  0.57547000  1.0
  H  H34  1  0.50817000  0.84943000  0.92454000  1.0
  H  H35  1  0.49183000  0.65058000  0.42453000  1.0
  H  H36  1  0.69374000  0.15950000  0.08648000  1.0
  H  H37  1  0.30626000  0.34051000  0.58647000  1.0
  H  H38  1  0.30627000  0.84051000  0.91353000  1.0
  H  H39  1  0.69374000  0.65950000  0.41353000  1.0
  H  H40  1  0.80833000  0.23156000  0.98403000  1.0
  H  H41  1  0.19168000  0.26845000  0.48403000  1.0
  H  H42  1  0.19168000  0.76845000  0.01597000  1.0
  H  H43  1  0.80833000  0.73156000  0.51597000  1.0
  H  H44  1  0.55410000  0.45361000  0.80603000  1.0
  H  H45  1  0.44589000  0.04638000  0.30603000  1.0
  H  H46  1  0.44589000  0.54639000  0.19397000  1.0
  H  H47  1  0.55411000  0.95363000  0.69396000  1.0
  H  H48  1  0.47147000  0.53735000  0.70033000  1.0
  H  H49  1  0.52854000  0.96264000  0.20033000  1.0
  H  H50  1  0.52853000  0.46265000  0.29967000  1.0
  H  H51  1  0.47145000  0.03736000  0.79966000  1.0
  H  H52  1  0.56449000  0.54699000  0.57629000  1.0
  H  H53  1  0.43552000  0.95302000  0.07629000  1.0
  H  H54  1  0.43551000  0.45301000  0.42371000  1.0
  H  H55  1  0.56447000  0.04699000  0.92371000  1.0
  H  H56  1  0.74056000  0.47164000  0.55822000  1.0
  H  H57  1  0.25945000  0.02837000  0.05821000  1.0
  H  H58  1  0.25945000  0.52836000  0.44178000  1.0
  H  H59  1  0.74054000  0.97164000  0.94178000  1.0
  H  H60  1  0.82129000  0.38302000  0.66176000  1.0
  H  H61  1  0.17871000  0.11698000  0.16176000  1.0
  H  H62  1  0.17872000  0.61698000  0.33824000  1.0
  H  H63  1  0.82128000  0.88303000  0.83824000  1.0
  H  H64  1  0.63392000  0.90916000  0.50073000  1.0
  H  H65  1  0.36609000  0.59082000  0.00073000  1.0
  H  H66  1  0.36609000  0.09083000  0.49927000  1.0
  H  H67  1  0.63390000  0.40918000  0.99927000  1.0
  H  H68  1  0.57165000  0.08773000  0.46090000  1.0
  H  H69  1  0.42835000  0.41226000  0.96090000  1.0
  H  H70  1  0.42835000  0.91227000  0.53910000  1.0
  H  H71  1  0.57165000  0.58774000  0.03910000  1.0
  H  H72  1  0.67789000  0.20687000  0.56458000  1.0
  H  H73  1  0.32210000  0.29312000  0.06458000  1.0
  H  H74  1  0.32210000  0.79313000  0.43542000  1.0
  H  H75  1  0.67790000  0.70688000  0.93542000  1.0
  H  H76  1  0.02559000  0.06535000  0.67999000  1.0
  H  H77  1  0.97442000  0.43465000  0.17999000  1.0
  H  H78  1  0.97441000  0.93465000  0.32001000  1.0
  H  H79  1  0.02559000  0.56534000  0.82001000  1.0
  H  H80  1  0.16825000  0.20349000  0.61890000  1.0
  H  H81  1  0.83176000  0.29652000  0.11890000  1.0
  H  H82  1  0.83176000  0.79651000  0.38111000  1.0
  H  H83  1  0.16824000  0.70348000  0.88110000  1.0
  H  H84  1  0.03086000  0.33263000  0.55743000  1.0
  H  H85  1  0.96913000  0.16738000  0.05743000  1.0
  H  H86  1  0.96914000  0.66738000  0.44257000  1.0
  H  H87  1  0.03087000  0.83262000  0.94256000  1.0
  H  H88  1  0.82673000  0.04807000  0.69707000  1.0
  H  H89  1  0.17328000  0.45193000  0.19707000  1.0
  H  H90  1  0.17328000  0.95193000  0.30293000  1.0
  H  H91  1  0.82672000  0.54807000  0.80292000  1.0
  C  C92  1  0.93694000  0.37340000  0.85164000  1.0
  C  C93  1  0.06305000  0.12660000  0.35164000  1.0
  C  C94  1  0.06306000  0.62660000  0.14836000  1.0
  C  C95  1  0.93694000  0.87340000  0.64837000  1.0
  C  C96  1  0.00940000  0.36984000  0.79087000  1.0
  C  C97  1  0.99060000  0.13016000  0.29087000  1.0
  C  C98  1  0.99060000  0.63015000  0.20913000  1.0
  C  C99  1  0.00940000  0.86984000  0.70913000  1.0
  C  C100  1  0.12076000  0.39254000  0.80089000  1.0
  C  C101  1  0.87923000  0.10745000  0.30089000  1.0
  C  C102  1  0.87924000  0.60746000  0.19911000  1.0
  C  C103  1  0.12077000  0.89254000  0.69911000  1.0
  C  C104  1  0.16098000  0.41717000  0.87202000  1.0
  C  C105  1  0.83901000  0.08282000  0.37202000  1.0
  C  C106  1  0.83901000  0.58283000  0.12798000  1.0
  C  C107  1  0.16099000  0.91717000  0.62798000  1.0
  C  C108  1  0.08977000  0.41933000  0.93296000  1.0
  C  C109  1  0.91023000  0.08066000  0.43295000  1.0
  C  C110  1  0.91023000  0.58066000  0.06704000  1.0
  C  C111  1  0.08977000  0.91934000  0.56705000  1.0
  C  C112  1  0.97808000  0.39844000  0.92273000  1.0
  C  C113  1  0.02191000  0.10156000  0.42272000  1.0
  C  C114  1  0.02191000  0.60156000  0.07727000  1.0
  C  C115  1  0.97808000  0.89844000  0.57728000  1.0
  C  C116  1  0.67087000  0.26140000  0.91350000  1.0
  C  C117  1  0.32913000  0.23859000  0.41350000  1.0
  C  C118  1  0.32914000  0.73860000  0.08650000  1.0
  C  C119  1  0.67087000  0.76140000  0.58650000  1.0
  C  C120  1  0.55700000  0.25262000  0.90647000  1.0
  C  C121  1  0.44299000  0.24737000  0.40646000  1.0
  C  C122  1  0.44300000  0.74737000  0.09353000  1.0
  C  C123  1  0.55701000  0.75263000  0.59354000  1.0
  C  C124  1  0.49291000  0.21243000  0.96442000  1.0
  C  C125  1  0.50708000  0.28758000  0.46442000  1.0
  C  C126  1  0.50710000  0.78757000  0.03558000  1.0
  C  C127  1  0.49292000  0.71242000  0.53558000  1.0
  C  C128  1  0.54183000  0.18054000  0.02981000  1.0
  C  C129  1  0.45817000  0.31947000  0.52981000  1.0
  C  C130  1  0.45818000  0.81947000  0.97019000  1.0
  C  C131  1  0.54183000  0.68054000  0.47018000  1.0
  C  C132  1  0.65540000  0.18613000  0.03603000  1.0
  C  C133  1  0.34460000  0.31388000  0.53602000  1.0
  C  C134  1  0.34460000  0.81387000  0.96398000  1.0
  C  C135  1  0.65540000  0.68613000  0.46398000  1.0
  C  C136  1  0.71970000  0.22652000  0.97816000  1.0
  C  C137  1  0.28030000  0.27348000  0.47816000  1.0
  C  C138  1  0.28030000  0.77348000  0.02184000  1.0
  C  C139  1  0.71970000  0.72652000  0.52184000  1.0
  C  C140  1  0.69365000  0.41234000  0.74170000  1.0
  C  C141  1  0.30635000  0.08766000  0.24170000  1.0
  C  C142  1  0.30635000  0.58766000  0.25830000  1.0
  C  C143  1  0.69364000  0.91235000  0.75830000  1.0
  C  C144  1  0.59467000  0.45543000  0.75150000  1.0
  C  C145  1  0.40533000  0.04457000  0.25150000  1.0
  C  C146  1  0.40533000  0.54457000  0.24850000  1.0
  C  C147  1  0.59467000  0.95544000  0.74849000  1.0
  C  C148  1  0.54790000  0.50308000  0.69196000  1.0
  C  C149  1  0.45210000  0.99692000  0.19196000  1.0
  C  C150  1  0.45209000  0.49692000  0.30804000  1.0
  C  C151  1  0.54789000  0.00309000  0.80804000  1.0
  C  C152  1  0.60031000  0.50902000  0.62250000  1.0
  C  C153  1  0.39969000  0.99098000  0.12250000  1.0
  C  C154  1  0.39969000  0.49097000  0.37750000  1.0
  C  C155  1  0.60030000  0.00903000  0.87750000  1.0
  C  C156  1  0.69927000  0.46668000  0.61242000  1.0
  C  C157  1  0.30073000  0.03331000  0.11242000  1.0
  C  C158  1  0.30073000  0.53332000  0.38758000  1.0
  C  C159  1  0.69926000  0.96669000  0.88758000  1.0
  C  C160  1  0.74559000  0.41797000  0.67155000  1.0
  C  C161  1  0.25441000  0.08203000  0.17154000  1.0
  C  C162  1  0.25442000  0.58203000  0.32845000  1.0
  C  C163  1  0.74558000  0.91797000  0.82845000  1.0
  C  C164  1  0.65672000  0.97768000  0.52602000  1.0
  C  C165  1  0.34329000  0.52230000  0.02602000  1.0
  C  C166  1  0.34330000  0.02231000  0.47398000  1.0
  C  C167  1  0.65671000  0.47770000  0.97398000  1.0
  C  C168  1  0.62538000  0.06897000  0.50599000  1.0
  C  C169  1  0.37462000  0.43102000  0.00599000  1.0
  C  C170  1  0.37463000  0.93103000  0.49401000  1.0
  C  C171  1  0.62537000  0.56899000  0.99401000  1.0
  C  C172  1  0.67723000  0.13045000  0.55711000  1.0
  C  C173  1  0.32277000  0.36954000  0.05710000  1.0
  C  C174  1  0.32276000  0.86955000  0.44290000  1.0
  C  C175  1  0.67723000  0.63046000  0.94290000  1.0
  C  C176  1  0.01035000  0.13057000  0.65027000  1.0
  C  C177  1  0.98966000  0.36943000  0.15027000  1.0
  C  C178  1  0.98966000  0.86943000  0.34973000  1.0
  C  C179  1  0.01034000  0.63056000  0.84973000  1.0
  C  C180  1  0.07988000  0.20116000  0.61923000  1.0
  C  C181  1  0.92013000  0.29884000  0.11923000  1.0
  C  C182  1  0.92013000  0.79884000  0.38077000  1.0
  C  C183  1  0.07987000  0.70115000  0.88076000  1.0
  C  C184  1  0.01000000  0.26695000  0.58780000  1.0
  C  C185  1  0.98999000  0.23305000  0.08780000  1.0
  C  C186  1  0.99000000  0.73305000  0.41220000  1.0
  C  C187  1  0.01001000  0.76695000  0.91219000  1.0
  C  C188  1  0.80595000  0.11032000  0.66415000  1.0
  C  C189  1  0.19406000  0.38968000  0.16415000  1.0
  C  C190  1  0.19406000  0.88968000  0.33585000  1.0
  C  C191  1  0.80594000  0.61032000  0.83584000  1.0
  C  C192  1  0.74764000  0.17884000  0.71810000  1.0
  C  C193  1  0.25236000  0.32115000  0.21810000  1.0
  C  C194  1  0.25237000  0.82115000  0.28191000  1.0
  C  C195  1  0.74762000  0.67885000  0.78191000  1.0
  N  N196  1  0.72392000  0.98212000  0.58548000  1.0
  N  N197  1  0.27609000  0.51787000  0.08548000  1.0
  N  N198  1  0.27609000  0.01788000  0.41452000  1.0
  N  N199  1  0.72392000  0.48212000  0.91453000  1.0
  N  N200  1  0.73539000  0.07642000  0.60369000  1.0
  N  N201  1  0.26461000  0.42357000  0.10369000  1.0
  N  N202  1  0.26460000  0.92357000  0.39631000  1.0
  N  N203  1  0.73539000  0.57643000  0.89631000  1.0
  N  N204  1  0.90711000  0.15612000  0.63639000  1.0
  N  N205  1  0.09289000  0.34388000  0.13639000  1.0
  N  N206  1  0.09289000  0.84388000  0.36361000  1.0
  N  N207  1  0.90710000  0.65611000  0.86361000  1.0
  N  N208  1  0.90473000  0.23988000  0.59880000  1.0
  N  N209  1  0.09526000  0.26012000  0.09880000  1.0
  N  N210  1  0.09527000  0.76012000  0.40120000  1.0
  N  N211  1  0.90474000  0.73988000  0.90120000  1.0
  O  O212  1  0.81750000  0.21859000  0.76496000  1.0
  O  O213  1  0.18251000  0.28140000  0.26496000  1.0
  O  O214  1  0.18250000  0.78141000  0.23504000  1.0
  O  O215  1  0.81749000  0.71860000  0.73505000  1.0
  O  O216  1  0.64909000  0.18892000  0.71390000  1.0
  O  O217  1  0.35092000  0.31108000  0.21389000  1.0
  O  O218  1  0.35091000  0.81108000  0.28611000  1.0
  O  O219  1  0.64908000  0.68893000  0.78611000  1.0
