# generated using pymatgen
data_NiH8C12(NO2)2
_symmetry_space_group_name_H-M   'P 1'
_cell_length_a   6.76759000
_cell_length_b   8.29460000
_cell_length_c   10.10810000
_cell_angle_alpha   101.69500000
_cell_angle_beta   95.01870000
_cell_angle_gamma   104.51900000
_symmetry_Int_Tables_number   1
_chemical_formula_structural   NiH8C12(NO2)2
_chemical_formula_sum   'Ni2 H16 C24 N4 O8'
_cell_volume   532.13413226
_cell_formula_units_Z   2
loop_
 _symmetry_equiv_pos_site_id
 _symmetry_equiv_pos_as_xyz
  1  'x, y, z'
loop_
 _atom_site_type_symbol
 _atom_site_label
 _atom_site_symmetry_multiplicity
 _atom_site_fract_x
 _atom_site_fract_y
 _atom_site_fract_z
 _atom_site_occupancy
  Ni  Ni0  1  0.88192000  0.82572000  0.12198000  1.0
  Ni  Ni1  1  0.11771000  0.17164000  0.87445000  1.0
  H  H2  1  0.96425000  0.85274000  0.58235000  1.0
  H  H3  1  0.03675000  0.15403000  0.41477000  1.0
  H  H4  1  0.66638000  0.35217000  0.32958000  1.0
  H  H5  1  0.33521000  0.64617000  0.68133000  1.0
  H  H6  1  0.58282000  0.24230000  0.53781000  1.0
  H  H7  1  0.42196000  0.76593000  0.47815000  1.0
  H  H8  1  0.68652000  0.44339000  0.76731000  1.0
  H  H9  1  0.32299000  0.57370000  0.24470000  1.0
  H  H10  1  0.47800000  0.61824000  0.95484000  1.0
  H  H11  1  0.51918000  0.37408000  0.04200000  1.0
  H  H12  1  0.11154000  0.61457000  0.95747000  1.0
  H  H13  1  0.88889000  0.37867000  0.03668000  1.0
  H  H14  1  0.27994000  0.03052000  0.29433000  1.0
  H  H15  1  0.71826000  0.96690000  0.69806000  1.0
  H  H16  1  0.65510000  0.03219000  0.29112000  1.0
  H  H17  1  0.34123000  0.96390000  0.70379000  1.0
  C  C18  1  0.83574000  0.65838000  0.68971000  1.0
  C  C19  1  0.16936000  0.35375000  0.31441000  1.0
  C  C20  1  0.88061000  0.71908000  0.57279000  1.0
  C  C21  1  0.12195000  0.28797000  0.42804000  1.0
  C  C22  1  0.81534000  0.60843000  0.44350000  1.0
  C  C23  1  0.18539000  0.39241000  0.55981000  1.0
  C  C24  1  0.71236000  0.43566000  0.43159000  1.0
  C  C25  1  0.28933000  0.56597000  0.57805000  1.0
  C  C26  1  0.66701000  0.37564000  0.54745000  1.0
  C  C27  1  0.33714000  0.63186000  0.46477000  1.0
  C  C28  1  0.72529000  0.48711000  0.67603000  1.0
  C  C29  1  0.28141000  0.52561000  0.33381000  1.0
  C  C30  1  0.90709000  0.77729000  0.82808000  1.0
  C  C31  1  0.09555000  0.23891000  0.17420000  1.0
  C  C32  1  0.84460000  0.66802000  0.31482000  1.0
  C  C33  1  0.14922000  0.31369000  0.67821000  1.0
  C  C34  1  0.43577000  0.71080000  0.03161000  1.0
  C  C35  1  0.56348000  0.28395000  0.96445000  1.0
  C  C36  1  0.23006000  0.71036000  0.03251000  1.0
  C  C37  1  0.76831000  0.28471000  0.96218000  1.0
  C  C38  1  0.32526000  0.93897000  0.21811000  1.0
  C  C39  1  0.67165000  0.05648000  0.77516000  1.0
  C  C40  1  0.53119000  0.93939000  0.21748000  1.0
  C  C41  1  0.46660000  0.05534000  0.77721000  1.0
  N  N42  1  0.58763000  0.82556000  0.12339000  1.0
  N  N43  1  0.41320000  0.16873000  0.87267000  1.0
  N  N44  1  0.17311000  0.82533000  0.12452000  1.0
  N  N45  1  0.82210000  0.17010000  0.86888000  1.0
  O  O46  1  0.81213000  0.73333000  0.92564000  1.0
  O  O47  1  0.19178000  0.28405000  0.07765000  1.0
  O  O48  1  0.05652000  0.90872000  0.84078000  1.0
  O  O49  1  0.94330000  0.10940000  0.16025000  1.0
  O  O50  1  0.80120000  0.55977000  0.20208000  1.0
  O  O51  1  0.19034000  0.40621000  0.80061000  1.0
  O  O52  1  0.90685000  0.83149000  0.32127000  1.0
  O  O53  1  0.08349000  0.15065000  0.65758000  1.0
