# generated using pymatgen
data_CoH6(C3N2)2
_symmetry_space_group_name_H-M   'P 1'
_cell_length_a   9.41395000
_cell_length_b   24.17910000
_cell_length_c   24.65350000
_cell_angle_alpha   88.23600000
_cell_angle_beta   89.99990000
_cell_angle_gamma   89.99990000
_symmetry_Int_Tables_number   1
_chemical_formula_structural   CoH6(C3N2)2
_chemical_formula_sum   'Co20 H120 C120 N80'
_cell_volume   5608.99097406
_cell_formula_units_Z   20
loop_
 _symmetry_equiv_pos_site_id
 _symmetry_equiv_pos_as_xyz
  1  'x, y, z'
loop_
 _atom_site_type_symbol
 _atom_site_label
 _atom_site_symmetry_multiplicity
 _atom_site_fract_x
 _atom_site_fract_y
 _atom_site_fract_z
 _atom_site_occupancy
  Co  Co0  1  0.95524000  0.26288000  0.32058000  1.0
  Co  Co1  1  0.74169000  0.48450000  0.28380000  1.0
  Co  Co2  1  0.23679000  0.46952000  0.14083000  1.0
  Co  Co3  1  0.33239000  0.16010000  0.48296000  1.0
  Co  Co4  1  0.53865000  0.71553000  0.31796000  1.0
  Co  Co5  1  0.45524000  0.23712000  0.17942000  1.0
  Co  Co6  1  0.24169000  0.01550000  0.21621000  1.0
  Co  Co7  1  0.73679000  0.03048000  0.35917000  1.0
  Co  Co8  1  0.83239000  0.33990000  0.01703000  1.0
  Co  Co9  1  0.03865000  0.78447000  0.18203000  1.0
  Co  Co10  1  0.04476000  0.73712000  0.67942000  1.0
  Co  Co11  1  0.25831000  0.51550000  0.71621000  1.0
  Co  Co12  1  0.76321000  0.53048000  0.85917000  1.0
  Co  Co13  1  0.66761000  0.83990000  0.51704000  1.0
  Co  Co14  1  0.46135000  0.28447000  0.68203000  1.0
  Co  Co15  1  0.54476000  0.76288000  0.82058000  1.0
  Co  Co16  1  0.75831000  0.98450000  0.78379000  1.0
  Co  Co17  1  0.26321000  0.96952000  0.64083000  1.0
  Co  Co18  1  0.16762000  0.66010000  0.98297000  1.0
  Co  Co19  1  0.96135000  0.21553000  0.81797000  1.0
  H  H20  1  0.20616000  0.35628000  0.32400000  1.0
  H  H21  1  0.44217000  0.34547000  0.25770000  1.0
  H  H22  1  0.15875000  0.21402000  0.23091000  1.0
  H  H23  1  0.70021000  0.30261000  0.39843000  1.0
  H  H24  1  0.59900000  0.41012000  0.38523000  1.0
  H  H25  1  0.95823000  0.39026000  0.28561000  1.0
  H  H26  1  0.99513000  0.57377000  0.29820000  1.0
  H  H27  1  0.22892000  0.56983000  0.22941000  1.0
  H  H28  1  0.93658000  0.44686000  0.18694000  1.0
  H  H29  1  0.72003000  0.53093000  0.40318000  1.0
  H  H30  1  0.63349000  0.63969000  0.41736000  1.0
  H  H31  1  0.60849000  0.60351000  0.25148000  1.0
  H  H32  1  0.66959000  0.15613000  0.31488000  1.0
  H  H33  1  0.47212000  0.21792000  0.37051000  1.0
  H  H34  1  0.53828000  0.06541000  0.45467000  1.0
  H  H35  1  0.12240000  0.96627000  0.52365000  1.0
  H  H36  1  0.16275000  0.05398000  0.44989000  1.0
  H  H37  1  0.37098000  0.08872000  0.59653000  1.0
  H  H38  1  0.49938000  0.38689000  0.12430000  1.0
  H  H39  1  0.73463000  0.39392000  0.19138000  1.0
  H  H40  1  0.42856000  0.51063000  0.23804000  1.0
  H  H41  1  0.60948000  0.23220000  0.48818000  1.0
  H  H42  1  0.67701000  0.28893000  0.58112000  1.0
  H  H43  1  0.28988000  0.20425000  0.60566000  1.0
  H  H44  1  0.99337000  0.15342000  0.50503000  1.0
  H  H45  1  0.80924000  0.19700000  0.42653000  1.0
  H  H46  1  0.23116000  0.22606000  0.37666000  1.0
  H  H47  1  0.56072000  0.83844000  0.26838000  1.0
  H  H48  1  0.78640000  0.86807000  0.20093000  1.0
  H  H49  1  0.84440000  0.70421000  0.25997000  1.0
  H  H50  1  0.70616000  0.14372000  0.17600000  1.0
  H  H51  1  0.94217000  0.15453000  0.24230000  1.0
  H  H52  1  0.65876000  0.28598000  0.26909000  1.0
  H  H53  1  0.20020000  0.19739000  0.10157000  1.0
  H  H54  1  0.09900000  0.08988000  0.11477000  1.0
  H  H55  1  0.45823000  0.10974000  0.21439000  1.0
  H  H56  1  0.49513000  0.92623000  0.20180000  1.0
  H  H57  1  0.72892000  0.93017000  0.27059000  1.0
  H  H58  1  0.43658000  0.05314000  0.31306000  1.0
  H  H59  1  0.22003000  0.96907000  0.09682000  1.0
  H  H60  1  0.13349000  0.86032000  0.08264000  1.0
  H  H61  1  0.10849000  0.89650000  0.24852000  1.0
  H  H62  1  0.16959000  0.34387000  0.18512000  1.0
  H  H63  1  0.97213000  0.28208000  0.12949000  1.0
  H  H64  1  0.03828000  0.43459000  0.04533000  1.0
  H  H65  1  0.62239000  0.53373000  0.97635000  1.0
  H  H66  1  0.66274000  0.44602000  0.05011000  1.0
  H  H67  1  0.87098000  0.41128000  0.90347000  1.0
  H  H68  1  0.99938000  0.11311000  0.37570000  1.0
  H  H69  1  0.23463000  0.10608000  0.30862000  1.0
  H  H70  1  0.92856000  0.98937000  0.26196000  1.0
  H  H71  1  0.10948000  0.26780000  0.01182000  1.0
  H  H72  1  0.17701000  0.21107000  0.91888000  1.0
  H  H73  1  0.78988000  0.29575000  0.89434000  1.0
  H  H74  1  0.49337000  0.34658000  0.99497000  1.0
  H  H75  1  0.30925000  0.30299000  0.07347000  1.0
  H  H76  1  0.73116000  0.27394000  0.12334000  1.0
  H  H77  1  0.06072000  0.66155000  0.23162000  1.0
  H  H78  1  0.28640000  0.63193000  0.29907000  1.0
  H  H79  1  0.34439000  0.79579000  0.24003000  1.0
  H  H80  1  0.79384000  0.64372000  0.67600000  1.0
  H  H81  1  0.55783000  0.65453000  0.74230000  1.0
  H  H82  1  0.84125000  0.78598000  0.76909000  1.0
  H  H83  1  0.29980000  0.69739000  0.60157000  1.0
  H  H84  1  0.40100000  0.58988000  0.61477000  1.0
  H  H85  1  0.04177000  0.60974000  0.71439000  1.0
  H  H86  1  0.00487000  0.42623000  0.70180000  1.0
  H  H87  1  0.77108000  0.43017000  0.77059000  1.0
  H  H88  1  0.06342000  0.55314000  0.81306000  1.0
  H  H89  1  0.27996000  0.46908000  0.59682000  1.0
  H  H90  1  0.36650000  0.36032000  0.58264000  1.0
  H  H91  1  0.39151000  0.39650000  0.74852000  1.0
  H  H92  1  0.33042000  0.84387000  0.68512000  1.0
  H  H93  1  0.52788000  0.78208000  0.62949000  1.0
  H  H94  1  0.46172000  0.93459000  0.54533000  1.0
  H  H95  1  0.87761000  0.03373000  0.47635000  1.0
  H  H96  1  0.83726000  0.94602000  0.55011000  1.0
  H  H97  1  0.62902000  0.91128000  0.40347000  1.0
  H  H98  1  0.50062000  0.61311000  0.87570000  1.0
  H  H99  1  0.26537000  0.60608000  0.80862000  1.0
  H  H100  1  0.57144000  0.48937000  0.76196000  1.0
  H  H101  1  0.39052000  0.76780000  0.51182000  1.0
  H  H102  1  0.32299000  0.71107000  0.41888000  1.0
  H  H103  1  0.71012000  0.79575000  0.39434000  1.0
  H  H104  1  0.00663000  0.84658000  0.49497000  1.0
  H  H105  1  0.19076000  0.80299000  0.57347000  1.0
  H  H106  1  0.76884000  0.77394000  0.62334000  1.0
  H  H107  1  0.43928000  0.16156000  0.73162000  1.0
  H  H108  1  0.21360000  0.13193000  0.79907000  1.0
  H  H109  1  0.15560000  0.29579000  0.74003000  1.0
  H  H110  1  0.29384000  0.85628000  0.82400000  1.0
  H  H111  1  0.05783000  0.84547000  0.75770000  1.0
  H  H112  1  0.34125000  0.71402000  0.73091000  1.0
  H  H113  1  0.79979000  0.80261000  0.89843000  1.0
  H  H114  1  0.90100000  0.91012000  0.88523000  1.0
  H  H115  1  0.54177000  0.89026000  0.78561000  1.0
  H  H116  1  0.50487000  0.07377000  0.79820000  1.0
  H  H117  1  0.27108000  0.06983000  0.72941000  1.0
  H  H118  1  0.56342000  0.94686000  0.68694000  1.0
  H  H119  1  0.77997000  0.03092000  0.90318000  1.0
  H  H120  1  0.86651000  0.13968000  0.91735000  1.0
  H  H121  1  0.89151000  0.10350000  0.75148000  1.0
  H  H122  1  0.83041000  0.65613000  0.81488000  1.0
  H  H123  1  0.02788000  0.71792000  0.87051000  1.0
  H  H124  1  0.96172000  0.56541000  0.95467000  1.0
  H  H125  1  0.37761000  0.46627000  0.02365000  1.0
  H  H126  1  0.33726000  0.55398000  0.94989000  1.0
  H  H127  1  0.12902000  0.58872000  0.09653000  1.0
  H  H128  1  0.00062000  0.88689000  0.62430000  1.0
  H  H129  1  0.76537000  0.89392000  0.69138000  1.0
  H  H130  1  0.07144000  0.01063000  0.73804000  1.0
  H  H131  1  0.89052000  0.73220000  0.98818000  1.0
  H  H132  1  0.82299000  0.78893000  0.08112000  1.0
  H  H133  1  0.21012000  0.70425000  0.10566000  1.0
  H  H134  1  0.50663000  0.65342000  0.00503000  1.0
  H  H135  1  0.69076000  0.69701000  0.92653000  1.0
  H  H136  1  0.26884000  0.72606000  0.87666000  1.0
  H  H137  1  0.93928000  0.33844000  0.76838000  1.0
  H  H138  1  0.71360000  0.36807000  0.70093000  1.0
  H  H139  1  0.65560000  0.20421000  0.75997000  1.0
  C  C140  1  0.23137000  0.32483000  0.29505000  1.0
  C  C141  1  0.34951000  0.31908000  0.26259000  1.0
  C  C142  1  0.20402000  0.25103000  0.24774000  1.0
  C  C143  1  0.73856000  0.33668000  0.37277000  1.0
  C  C144  1  0.68879000  0.39014000  0.36645000  1.0
  C  C145  1  0.87442000  0.38108000  0.31478000  1.0
  C  C146  1  0.01788000  0.54667000  0.26501000  1.0
  C  C147  1  0.13453000  0.54419000  0.23129000  1.0
  C  C148  1  0.98466000  0.48062000  0.20832000  1.0
  C  C149  1  0.68341000  0.56212000  0.37384000  1.0
  C  C150  1  0.64144000  0.61601000  0.38084000  1.0
  C  C151  1  0.62641000  0.59845000  0.29488000  1.0
  C  C152  1  0.61295000  0.14656000  0.35226000  1.0
  C  C153  1  0.51437000  0.17700000  0.38004000  1.0
  C  C154  1  0.54746000  0.09871000  0.42434000  1.0
  C  C155  1  0.18033000  0.00467000  0.52790000  1.0
  C  C156  1  0.19985000  0.04821000  0.49136000  1.0
  C  C157  1  0.30813000  0.06748000  0.56667000  1.0
  C  C158  1  0.52039000  0.41418000  0.15746000  1.0
  C  C159  1  0.63715000  0.41788000  0.19083000  1.0
  C  C160  1  0.48080000  0.47848000  0.21565000  1.0
  C  C161  1  0.55256000  0.23521000  0.52619000  1.0
  C  C162  1  0.58616000  0.26314000  0.57229000  1.0
  C  C163  1  0.38609000  0.21956000  0.58609000  1.0
  C  C164  1  0.01575000  0.17559000  0.46708000  1.0
  C  C165  1  0.92438000  0.19765000  0.42842000  1.0
  C  C166  1  0.14175000  0.21271000  0.40149000  1.0
  C  C167  1  0.65189000  0.81448000  0.25605000  1.0
  C  C168  1  0.76454000  0.82956000  0.22313000  1.0
  C  C169  1  0.79737000  0.74470000  0.25255000  1.0
  C  C170  1  0.73137000  0.17517000  0.20495000  1.0
  C  C171  1  0.84951000  0.18092000  0.23741000  1.0
  C  C172  1  0.70402000  0.24897000  0.25226000  1.0
  C  C173  1  0.23856000  0.16332000  0.12723000  1.0
  C  C174  1  0.18879000  0.10986000  0.13355000  1.0
  C  C175  1  0.37442000  0.11892000  0.18522000  1.0
  C  C176  1  0.51789000  0.95332000  0.23499000  1.0
  C  C177  1  0.63453000  0.95581000  0.26871000  1.0
  C  C178  1  0.48467000  0.01938000  0.29168000  1.0
  C  C179  1  0.18341000  0.93789000  0.12616000  1.0
  C  C180  1  0.14144000  0.88399000  0.11916000  1.0
  C  C181  1  0.12641000  0.90155000  0.20513000  1.0
  C  C182  1  0.11295000  0.35344000  0.14773000  1.0
  C  C183  1  0.01437000  0.32300000  0.11996000  1.0
  C  C184  1  0.04746000  0.40129000  0.07566000  1.0
  C  C185  1  0.68032000  0.49533000  0.97210000  1.0
  C  C186  1  0.69985000  0.45179000  0.00865000  1.0
  C  C187  1  0.80813000  0.43252000  0.93333000  1.0
  C  C188  1  0.02039000  0.08582000  0.34254000  1.0
  C  C189  1  0.13714000  0.08212000  0.30917000  1.0
  C  C190  1  0.98081000  0.02152000  0.28435000  1.0
  C  C191  1  0.05256000  0.26479000  0.97381000  1.0
  C  C192  1  0.08616000  0.23686000  0.92771000  1.0
  C  C193  1  0.88609000  0.28044000  0.91391000  1.0
  C  C194  1  0.51576000  0.32441000  0.03292000  1.0
  C  C195  1  0.42438000  0.30235000  0.07158000  1.0
  C  C196  1  0.64175000  0.28730000  0.09851000  1.0
  C  C197  1  0.15189000  0.68552000  0.24395000  1.0
  C  C198  1  0.26454000  0.67044000  0.27687000  1.0
  C  C199  1  0.29737000  0.75530000  0.24745000  1.0
  C  C200  1  0.76863000  0.67517000  0.70495000  1.0
  C  C201  1  0.65049000  0.68092000  0.73741000  1.0
  C  C202  1  0.79598000  0.74897000  0.75226000  1.0
  C  C203  1  0.26144000  0.66332000  0.62723000  1.0
  C  C204  1  0.31121000  0.60986000  0.63355000  1.0
  C  C205  1  0.12558000  0.61892000  0.68522000  1.0
  C  C206  1  0.98211000  0.45333000  0.73499000  1.0
  C  C207  1  0.86547000  0.45581000  0.76871000  1.0
  C  C208  1  0.01533000  0.51938000  0.79168000  1.0
  C  C209  1  0.31659000  0.43789000  0.62616000  1.0
  C  C210  1  0.35856000  0.38399000  0.61916000  1.0
  C  C211  1  0.37358000  0.40155000  0.70512000  1.0
  C  C212  1  0.38705000  0.85344000  0.64774000  1.0
  C  C213  1  0.48563000  0.82300000  0.61996000  1.0
  C  C214  1  0.45254000  0.90129000  0.57566000  1.0
  C  C215  1  0.81968000  0.99533000  0.47210000  1.0
  C  C216  1  0.80015000  0.95179000  0.50865000  1.0
  C  C217  1  0.69187000  0.93252000  0.43332000  1.0
  C  C218  1  0.47961000  0.58582000  0.84254000  1.0
  C  C219  1  0.36286000  0.58212000  0.80917000  1.0
  C  C220  1  0.51920000  0.52152000  0.78435000  1.0
  C  C221  1  0.44744000  0.76479000  0.47381000  1.0
  C  C222  1  0.41384000  0.73686000  0.42771000  1.0
  C  C223  1  0.61391000  0.78044000  0.41391000  1.0
  C  C224  1  0.98425000  0.82441000  0.53292000  1.0
  C  C225  1  0.07562000  0.80235000  0.57158000  1.0
  C  C226  1  0.85825000  0.78730000  0.59851000  1.0
  C  C227  1  0.34811000  0.18552000  0.74395000  1.0
  C  C228  1  0.23546000  0.17044000  0.77687000  1.0
  C  C229  1  0.20263000  0.25530000  0.74745000  1.0
  C  C230  1  0.26863000  0.82483000  0.79505000  1.0
  C  C231  1  0.15049000  0.81908000  0.76259000  1.0
  C  C232  1  0.29598000  0.75103000  0.74775000  1.0
  C  C233  1  0.76143000  0.83668000  0.87277000  1.0
  C  C234  1  0.81121000  0.89014000  0.86645000  1.0
  C  C235  1  0.62557000  0.88108000  0.81478000  1.0
  C  C236  1  0.48211000  0.04667000  0.76501000  1.0
  C  C237  1  0.36547000  0.04419000  0.73129000  1.0
  C  C238  1  0.51533000  0.98062000  0.70832000  1.0
  C  C239  1  0.81659000  0.06211000  0.87384000  1.0
  C  C240  1  0.85856000  0.11601000  0.88084000  1.0
  C  C241  1  0.87359000  0.09845000  0.79487000  1.0
  C  C242  1  0.88705000  0.64656000  0.85227000  1.0
  C  C243  1  0.98563000  0.67700000  0.88004000  1.0
  C  C244  1  0.95254000  0.59871000  0.92434000  1.0
  C  C245  1  0.31968000  0.50467000  0.02790000  1.0
  C  C246  1  0.30015000  0.54821000  0.99135000  1.0
  C  C247  1  0.19187000  0.56748000  0.06667000  1.0
  C  C248  1  0.97961000  0.91418000  0.65746000  1.0
  C  C249  1  0.86286000  0.91788000  0.69083000  1.0
  C  C250  1  0.01919000  0.97848000  0.71565000  1.0
  C  C251  1  0.94744000  0.73521000  0.02619000  1.0
  C  C252  1  0.91384000  0.76314000  0.07229000  1.0
  C  C253  1  0.11391000  0.71956000  0.08609000  1.0
  C  C254  1  0.48425000  0.67559000  0.96708000  1.0
  C  C255  1  0.57562000  0.69765000  0.92842000  1.0
  C  C256  1  0.35825000  0.71270000  0.90149000  1.0
  C  C257  1  0.84811000  0.31448000  0.75605000  1.0
  C  C258  1  0.73546000  0.32956000  0.72313000  1.0
  C  C259  1  0.70262000  0.24470000  0.75255000  1.0
  N  N260  1  0.13914000  0.28162000  0.28532000  1.0
  N  N261  1  0.33162000  0.27205000  0.23275000  1.0
  N  N262  1  0.85598000  0.33117000  0.33960000  1.0
  N  N263  1  0.77561000  0.41816000  0.32971000  1.0
  N  N264  1  0.92314000  0.50616000  0.25007000  1.0
  N  N265  1  0.11299000  0.50206000  0.19556000  1.0
  N  N266  1  0.67349000  0.55114000  0.31923000  1.0
  N  N267  1  0.60538000  0.63893000  0.33055000  1.0
  N  N268  1  0.63369000  0.09706000  0.38071000  1.0
  N  N269  1  0.47268000  0.14628000  0.42568000  1.0
  N  N270  1  0.24915000  0.01713000  0.57557000  1.0
  N  N271  1  0.28084000  0.08798000  0.51625000  1.0
  N  N272  1  0.42150000  0.45267000  0.17351000  1.0
  N  N273  1  0.61164000  0.45902000  0.22751000  1.0
  N  N274  1  0.42543000  0.20761000  0.53516000  1.0
  N  N275  1  0.48019000  0.25298000  0.61014000  1.0
  N  N276  1  0.15362000  0.18533000  0.44967000  1.0
  N  N277  1  0.00522000  0.22114000  0.38690000  1.0
  N  N278  1  0.67312000  0.76052000  0.27445000  1.0
  N  N279  1  0.85685000  0.78519000  0.22121000  1.0
  N  N280  1  0.63914000  0.21838000  0.21468000  1.0
  N  N281  1  0.83162000  0.22795000  0.26725000  1.0
  N  N282  1  0.35598000  0.16883000  0.16040000  1.0
  N  N283  1  0.27562000  0.08184000  0.17028000  1.0
  N  N284  1  0.42314000  0.99384000  0.24993000  1.0
  N  N285  1  0.61299000  0.99793000  0.30444000  1.0
  N  N286  1  0.17349000  0.94886000  0.18077000  1.0
  N  N287  1  0.10538000  0.86108000  0.16945000  1.0
  N  N288  1  0.13369000  0.40293000  0.11929000  1.0
  N  N289  1  0.97268000  0.35372000  0.07432000  1.0
  N  N290  1  0.74915000  0.48287000  0.92444000  1.0
  N  N291  1  0.78084000  0.41203000  0.98375000  1.0
  N  N292  1  0.92150000  0.04733000  0.32649000  1.0
  N  N293  1  0.11164000  0.04098000  0.27249000  1.0
  N  N294  1  0.92543000  0.29239000  0.96484000  1.0
  N  N295  1  0.98019000  0.24702000  0.88986000  1.0
  N  N296  1  0.65362000  0.31467000  0.05033000  1.0
  N  N297  1  0.50522000  0.27886000  0.11310000  1.0
  N  N298  1  0.17311000  0.73948000  0.22555000  1.0
  N  N299  1  0.35685000  0.71481000  0.27878000  1.0
  N  N300  1  0.86086000  0.71838000  0.71468000  1.0
  N  N301  1  0.66839000  0.72795000  0.76725000  1.0
  N  N302  1  0.14402000  0.66883000  0.66040000  1.0
  N  N303  1  0.22439000  0.58184000  0.67029000  1.0
  N  N304  1  0.07686000  0.49384000  0.74993000  1.0
  N  N305  1  0.88701000  0.49793000  0.80444000  1.0
  N  N306  1  0.32651000  0.44886000  0.68077000  1.0
  N  N307  1  0.39462000  0.36108000  0.66945000  1.0
  N  N308  1  0.36631000  0.90294000  0.61929000  1.0
  N  N309  1  0.52732000  0.85372000  0.57432000  1.0
  N  N310  1  0.75085000  0.98287000  0.42444000  1.0
  N  N311  1  0.71916000  0.91203000  0.48376000  1.0
  N  N312  1  0.57851000  0.54733000  0.82650000  1.0
  N  N313  1  0.38836000  0.54098000  0.77249000  1.0
  N  N314  1  0.57457000  0.79239000  0.46484000  1.0
  N  N315  1  0.51980000  0.74702000  0.38985000  1.0
  N  N316  1  0.84637000  0.81467000  0.55033000  1.0
  N  N317  1  0.99478000  0.77886000  0.61310000  1.0
  N  N318  1  0.32688000  0.23948000  0.72555000  1.0
  N  N319  1  0.14315000  0.21481000  0.77879000  1.0
  N  N320  1  0.36086000  0.78162000  0.78532000  1.0
  N  N321  1  0.16838000  0.77205000  0.73275000  1.0
  N  N322  1  0.64402000  0.83117000  0.83961000  1.0
  N  N323  1  0.72438000  0.91816000  0.82971000  1.0
  N  N324  1  0.57686000  0.00616000  0.75007000  1.0
  N  N325  1  0.38701000  0.00207000  0.69556000  1.0
  N  N326  1  0.82651000  0.05114000  0.81923000  1.0
  N  N327  1  0.89462000  0.13892000  0.83055000  1.0
  N  N328  1  0.86631000  0.59706000  0.88071000  1.0
  N  N329  1  0.02732000  0.64628000  0.92568000  1.0
  N  N330  1  0.25085000  0.51713000  0.07556000  1.0
  N  N331  1  0.21916000  0.58797000  0.01625000  1.0
  N  N332  1  0.07850000  0.95267000  0.67350000  1.0
  N  N333  1  0.88836000  0.95902000  0.72751000  1.0
  N  N334  1  0.07457000  0.70761000  0.03516000  1.0
  N  N335  1  0.01981000  0.75298000  0.11014000  1.0
  N  N336  1  0.34637000  0.68533000  0.94967000  1.0
  N  N337  1  0.49478000  0.72114000  0.88690000  1.0
  N  N338  1  0.82688000  0.26052000  0.77445000  1.0
  N  N339  1  0.64315000  0.28519000  0.72121000  1.0
