# generated using pymatgen
data_Cu2H11C9ClO10
_symmetry_space_group_name_H-M   'P 1'
_cell_length_a   7.20069000
_cell_length_b   10.29690000
_cell_length_c   10.29690000
_cell_angle_alpha   91.57130000
_cell_angle_beta   89.99320000
_cell_angle_gamma   89.99240000
_symmetry_Int_Tables_number   1
_chemical_formula_structural   Cu2H11C9ClO10
_chemical_formula_sum   'Cu4 H22 C18 Cl2 O20'
_cell_volume   763.17434287
_cell_formula_units_Z   2
loop_
 _symmetry_equiv_pos_site_id
 _symmetry_equiv_pos_as_xyz
  1  'x, y, z'
loop_
 _atom_site_type_symbol
 _atom_site_label
 _atom_site_symmetry_multiplicity
 _atom_site_fract_x
 _atom_site_fract_y
 _atom_site_fract_z
 _atom_site_occupancy
  Cu  Cu0  1  0.24999000  0.23460000  0.45528000  1.0
  Cu  Cu1  1  0.75000000  0.76541000  0.54472000  1.0
  Cu  Cu2  1  0.25001000  0.54472000  0.76541000  1.0
  Cu  Cu3  1  0.74999000  0.45529000  0.23460000  1.0
  H  H4  1  0.58205000  0.30274000  0.50095000  1.0
  H  H5  1  0.08211000  0.69732000  0.49905000  1.0
  H  H6  1  0.91795000  0.49904000  0.69727000  1.0
  H  H7  1  0.41788000  0.50096000  0.30268000  1.0
  H  H8  1  0.41795000  0.69727000  0.49905000  1.0
  H  H9  1  0.91789000  0.30267000  0.50095000  1.0
  H  H10  1  0.08205000  0.50096000  0.30273000  1.0
  H  H11  1  0.58212000  0.49904000  0.69734000  1.0
  H  H12  1  0.58466000  0.22307000  0.36974000  1.0
  H  H13  1  0.08463000  0.77695000  0.63028000  1.0
  H  H14  1  0.91535000  0.63025000  0.77693000  1.0
  H  H15  1  0.41537000  0.36973000  0.22305000  1.0
  H  H16  1  0.41533000  0.77693000  0.63027000  1.0
  H  H17  1  0.91537000  0.22305000  0.36972000  1.0
  H  H18  1  0.08466000  0.36974000  0.22307000  1.0
  H  H19  1  0.58463000  0.63028000  0.77695000  1.0
  H  H20  1  0.24999000  0.88022000  0.11976000  1.0
  H  H21  1  0.75001000  0.11977000  0.88024000  1.0
  H  H22  1  0.24993000  0.98527000  0.71645000  1.0
  H  H23  1  0.75007000  0.01473000  0.28355000  1.0
  H  H24  1  0.25007000  0.28354000  0.01471000  1.0
  H  H25  1  0.74992000  0.71646000  0.98529000  1.0
  C  C26  1  0.24997000  0.91671000  0.91445000  1.0
  C  C27  1  0.75002000  0.08329000  0.08555000  1.0
  C  C28  1  0.25002000  0.08554000  0.08328000  1.0
  C  C29  1  0.74998000  0.91445000  0.91671000  1.0
  C  C30  1  0.24999000  0.95398000  0.04601000  1.0
  C  C31  1  0.75000000  0.04601000  0.95398000  1.0
  C  C32  1  0.25000000  0.14300000  0.85700000  1.0
  C  C33  1  0.75000000  0.85701000  0.14301000  1.0
  C  C34  1  0.24997000  0.77496000  0.88148000  1.0
  C  C35  1  0.75004000  0.22504000  0.11851000  1.0
  C  C36  1  0.25003000  0.11852000  0.22503000  1.0
  C  C37  1  0.74997000  0.88148000  0.77497000  1.0
  C  C38  1  0.25001000  0.24481000  0.75520000  1.0
  C  C39  1  0.75000000  0.75521000  0.24481000  1.0
  C  C40  1  0.24996000  0.01144000  0.81963000  1.0
  C  C41  1  0.75004000  0.98856000  0.18036000  1.0
  C  C42  1  0.25004000  0.18035000  0.98854000  1.0
  C  C43  1  0.74996000  0.81964000  0.01145000  1.0
  Cl  Cl44  1  0.24999000  0.53259000  0.46741000  1.0
  Cl  Cl45  1  0.75000000  0.46741000  0.53259000  1.0
  O  O46  1  0.24996000  0.74021000  0.75542000  1.0
  O  O47  1  0.75003000  0.25979000  0.24458000  1.0
  O  O48  1  0.25003000  0.24458000  0.25977000  1.0
  O  O49  1  0.74997000  0.75542000  0.74022000  1.0
  O  O50  1  0.24997000  0.69189000  0.96607000  1.0
  O  O51  1  0.75007000  0.30811000  0.03392000  1.0
  O  O52  1  0.25006000  0.03392000  0.30810000  1.0
  O  O53  1  0.74995000  0.96607000  0.69190000  1.0
  O  O54  1  0.24991000  0.20182000  0.63858000  1.0
  O  O55  1  0.75005000  0.79820000  0.36142000  1.0
  O  O56  1  0.25011000  0.36140000  0.79819000  1.0
  O  O57  1  0.74995000  0.63860000  0.20183000  1.0
  O  O58  1  0.52418000  0.22605000  0.45644000  1.0
  O  O59  1  0.02418000  0.77400000  0.54358000  1.0
  O  O60  1  0.97583000  0.54356000  0.77396000  1.0
  O  O61  1  0.47581000  0.45642000  0.22600000  1.0
  O  O62  1  0.47581000  0.77396000  0.54357000  1.0
  O  O63  1  0.97581000  0.22600000  0.45641000  1.0
  O  O64  1  0.02417000  0.45643000  0.22604000  1.0
  O  O65  1  0.52419000  0.54358000  0.77401000  1.0
