# generated using pymatgen
data_Mn3H52C54(N5O8)2
_symmetry_space_group_name_H-M   'P 1'
_cell_length_a   11.17410000
_cell_length_b   12.19490000
_cell_length_c   12.44000000
_cell_angle_alpha   102.75800000
_cell_angle_beta   91.25660000
_cell_angle_gamma   111.08800000
_symmetry_Int_Tables_number   1
_chemical_formula_structural   Mn3H52C54(N5O8)2
_chemical_formula_sum   'Mn3 H52 C54 N10 O16'
_cell_volume   1532.98277084
_cell_formula_units_Z   1
loop_
 _symmetry_equiv_pos_site_id
 _symmetry_equiv_pos_as_xyz
  1  'x, y, z'
loop_
 _atom_site_type_symbol
 _atom_site_label
 _atom_site_symmetry_multiplicity
 _atom_site_fract_x
 _atom_site_fract_y
 _atom_site_fract_z
 _atom_site_occupancy
  Mn  Mn0  1  0.92187000  0.22267000  0.20706000  1.0
  Mn  Mn1  1  0.07813000  0.77733000  0.79294000  1.0
  Mn  Mn2  1  0.00000000  0.99999000  0.99999000  1.0
  H  H3  1  0.83406000  0.03523000  0.80620000  1.0
  H  H4  1  0.16594000  0.96477000  0.19379000  1.0
  H  H5  1  0.78942000  0.00978000  0.42961000  1.0
  H  H6  1  0.21057000  0.99021000  0.57039000  1.0
  H  H7  1  0.29640000  0.36778000  0.37552000  1.0
  H  H8  1  0.70360000  0.63223000  0.62447000  1.0
  H  H9  1  0.53587000  0.11261000  0.98351000  1.0
  H  H10  1  0.46414000  0.88740000  0.01649000  1.0
  H  H11  1  0.73551000  0.16539000  0.38786000  1.0
  H  H12  1  0.26450000  0.83462000  0.61214000  1.0
  H  H13  1  0.39863000  0.18921000  0.07556000  1.0
  H  H14  1  0.60137000  0.81078000  0.92443000  1.0
  H  H15  1  0.98091000  0.79735000  0.24077000  1.0
  H  H16  1  0.01909000  0.20265000  0.75923000  1.0
  H  H17  1  0.47630000  0.98431000  0.62660000  1.0
  H  H18  1  0.52370000  0.01570000  0.37340000  1.0
  H  H19  1  0.63164000  0.28122000  0.15444000  1.0
  H  H20  1  0.36836000  0.71876000  0.84555000  1.0
  H  H21  1  0.69528000  0.42374000  0.34302000  1.0
  H  H22  1  0.30472000  0.57625000  0.65698000  1.0
  H  H23  1  0.39127000  0.04604000  0.80498000  1.0
  H  H24  1  0.60874000  0.95396000  0.19502000  1.0
  H  H25  1  0.99251000  0.59728000  0.18443000  1.0
  H  H26  1  0.00749000  0.40273000  0.81558000  1.0
  H  H27  1  0.06114000  0.68588000  0.08728000  1.0
  H  H28  1  0.93887000  0.31412000  0.91272000  1.0
  H  H29  1  0.15063000  0.71441000  0.21672000  1.0
  H  H30  1  0.84937000  0.28559000  0.78328000  1.0
  H  H31  1  0.90700000  0.46190000  0.63182000  1.0
  H  H32  1  0.09299000  0.53810000  0.36818000  1.0
  H  H33  1  0.76655000  0.48806000  0.59203000  1.0
  H  H34  1  0.23344000  0.51194000  0.40797000  1.0
  H  H35  1  0.88710000  0.49012000  0.49938000  1.0
  H  H36  1  0.11290000  0.50988000  0.50062000  1.0
  H  H37  1  0.58110000  0.28728000  0.56403000  1.0
  H  H38  1  0.41890000  0.71271000  0.43597000  1.0
  H  H39  1  0.69256000  0.26752000  0.65616000  1.0
  H  H40  1  0.30744000  0.73248000  0.34383000  1.0
  H  H41  1  0.62395000  0.15645000  0.52977000  1.0
  H  H42  1  0.37605000  0.84354000  0.47023000  1.0
  H  H43  1  0.13031000  0.37847000  0.07318000  1.0
  H  H44  1  0.86970000  0.62153000  0.92683000  1.0
  H  H45  1  0.33065000  0.66063000  0.10092000  1.0
  H  H46  1  0.66935000  0.33937000  0.89909000  1.0
  H  H47  1  0.22822000  0.63137000  0.97740000  1.0
  H  H48  1  0.77178000  0.36863000  0.02260000  1.0
  H  H49  1  0.27352000  0.51354000  0.00698000  1.0
  H  H50  1  0.72649000  0.48645000  0.99303000  1.0
  H  H51  1  0.98130000  0.69508000  0.39586000  1.0
  H  H52  1  0.01871000  0.30493000  0.60415000  1.0
  H  H53  1  0.89024000  0.75912000  0.57120000  1.0
  H  H54  1  0.10976000  0.24089000  0.42880000  1.0
  C  C55  1  0.78022000  0.12649000  0.01171000  1.0
  C  C56  1  0.21978000  0.87351000  0.98829000  1.0
  C  C57  1  0.69336000  0.07923000  0.90547000  1.0
  C  C58  1  0.30664000  0.92077000  0.09453000  1.0
  C  C59  1  0.89484000  0.97635000  0.23681000  1.0
  C  C60  1  0.10517000  0.02365000  0.76319000  1.0
  C  C61  1  0.19537000  0.21982000  0.17331000  1.0
  C  C62  1  0.80462000  0.78017000  0.82669000  1.0
  C  C63  1  0.73740000  0.03756000  0.80641000  1.0
  C  C64  1  0.26260000  0.96245000  0.19359000  1.0
  C  C65  1  0.82883000  0.93911000  0.42073000  1.0
  C  C66  1  0.17117000  0.06088000  0.57927000  1.0
  C  C67  1  0.36985000  0.35198000  0.32565000  1.0
  C  C68  1  0.63014000  0.64802000  0.67434000  1.0
  C  C69  1  0.33450000  0.27579000  0.21969000  1.0
  C  C70  1  0.66549000  0.72421000  0.78031000  1.0
  C  C71  1  0.56844000  0.08159000  0.90482000  1.0
  C  C72  1  0.43156000  0.91841000  0.09518000  1.0
  C  C73  1  0.65724000  0.00171000  0.70650000  1.0
  C  C74  1  0.34276000  0.99830000  0.29350000  1.0
  C  C75  1  0.88488000  0.90863000  0.32554000  1.0
  C  C76  1  0.11512000  0.09137000  0.67446000  1.0
  C  C77  1  0.79533000  0.26259000  0.41792000  1.0
  C  C78  1  0.20467000  0.73741000  0.58209000  1.0
  C  C79  1  0.42941000  0.25131000  0.15751000  1.0
  C  C80  1  0.57058000  0.74868000  0.84248000  1.0
  C  C81  1  0.93783000  0.81903000  0.31621000  1.0
  C  C82  1  0.06218000  0.18097000  0.68380000  1.0
  C  C83  1  0.49987000  0.40557000  0.36974000  1.0
  C  C84  1  0.50013000  0.59443000  0.63026000  1.0
  C  C85  1  0.53476000  0.00918000  0.70594000  1.0
  C  C86  1  0.46524000  0.99083000  0.29405000  1.0
  C  C87  1  0.55894000  0.30373000  0.20132000  1.0
  C  C88  1  0.44105000  0.69625000  0.79867000  1.0
  C  C89  1  0.59454000  0.38107000  0.30738000  1.0
  C  C90  1  0.40546000  0.61892000  0.69262000  1.0
  C  C91  1  0.48890000  0.04615000  0.80536000  1.0
  C  C92  1  0.51110000  0.95386000  0.19463000  1.0
  C  C93  1  0.08144000  0.64265000  0.15041000  1.0
  C  C94  1  0.91856000  0.35735000  0.84960000  1.0
  C  C95  1  0.83605000  0.44707000  0.56214000  1.0
  C  C96  1  0.16394000  0.55293000  0.43785000  1.0
  C  C97  1  0.65983000  0.25381000  0.56856000  1.0
  C  C98  1  0.34017000  0.74618000  0.43143000  1.0
  C  C99  1  0.08156000  0.43883000  0.11275000  1.0
  C  C100  1  0.91843000  0.56117000  0.88726000  1.0
  C  C101  1  0.24835000  0.59176000  0.04357000  1.0
  C  C102  1  0.75165000  0.40824000  0.95644000  1.0
  C  C103  1  0.82897000  0.88324000  0.50771000  1.0
  C  C104  1  0.17103000  0.11676000  0.49229000  1.0
  C  C105  1  0.93832000  0.76344000  0.40295000  1.0
  C  C106  1  0.06168000  0.23657000  0.59705000  1.0
  C  C107  1  0.88665000  0.79707000  0.50014000  1.0
  C  C108  1  0.11335000  0.20293000  0.49987000  1.0
  N  N109  1  0.54217000  0.48202000  0.47724000  1.0
  N  N110  1  0.45783000  0.51798000  0.52275000  1.0
  N  N111  1  0.69546000  0.96056000  0.60242000  1.0
  N  N112  1  0.30454000  0.03944000  0.39757000  1.0
  N  N113  1  0.78040000  0.91527000  0.60861000  1.0
  N  N114  1  0.21959000  0.08473000  0.39139000  1.0
  N  N115  1  0.76638000  0.31819000  0.51294000  1.0
  N  N116  1  0.23362000  0.68180000  0.48705000  1.0
  N  N117  1  0.13497000  0.55286000  0.10211000  1.0
  N  N118  1  0.86504000  0.44714000  0.89790000  1.0
  O  O119  1  0.89470000  0.12508000  0.01386000  1.0
  O  O120  1  0.10531000  0.87493000  0.98614000  1.0
  O  O121  1  0.74145000  0.17337000  0.09922000  1.0
  O  O122  1  0.25855000  0.82663000  0.90078000  1.0
  O  O123  1  0.98405000  0.40139000  0.16231000  1.0
  O  O124  1  0.01596000  0.59861000  0.83770000  1.0
  O  O125  1  0.88368000  0.31476000  0.36456000  1.0
  O  O126  1  0.11633000  0.68524000  0.63543000  1.0
  O  O127  1  0.84561000  0.05789000  0.25242000  1.0
  O  O128  1  0.15441000  0.94213000  0.74759000  1.0
  O  O129  1  0.95224000  0.94964000  0.15436000  1.0
  O  O130  1  0.04775000  0.05036000  0.84563000  1.0
  O  O131  1  0.16732000  0.14805000  0.07762000  1.0
  O  O132  1  0.83267000  0.85195000  0.92238000  1.0
  O  O133  1  0.11552000  0.25124000  0.23273000  1.0
  O  O134  1  0.88447000  0.74876000  0.76726000  1.0
