# generated using pymatgen
data_Zn4H8C26S4O17
_symmetry_space_group_name_H-M   'P 1'
_cell_length_a   19.65150000
_cell_length_b   19.66260000
_cell_length_c   33.34040000
_cell_angle_alpha   79.04940000
_cell_angle_beta   79.10700000
_cell_angle_gamma   63.79530000
_symmetry_Int_Tables_number   1
_chemical_formula_structural   Zn4H8C26S4O17
_chemical_formula_sum   'Zn16 H32 C104 S16 O68'
_cell_volume   11267.14146718
_cell_formula_units_Z   4
loop_
 _symmetry_equiv_pos_site_id
 _symmetry_equiv_pos_as_xyz
  1  'x, y, z'
loop_
 _atom_site_type_symbol
 _atom_site_label
 _atom_site_symmetry_multiplicity
 _atom_site_fract_x
 _atom_site_fract_y
 _atom_site_fract_z
 _atom_site_occupancy
  Zn  Zn0  1  0.59863000  0.94479000  0.52181000  1.0
  Zn  Zn1  1  0.51538000  0.01678000  0.43875000  1.0
  Zn  Zn2  1  0.43837000  0.94123000  0.51540000  1.0
  Zn  Zn3  1  0.44697000  0.09986000  0.52062000  1.0
  Zn  Zn4  1  0.65095000  0.30399000  0.72800000  1.0
  Zn  Zn5  1  0.81043000  0.31032000  0.73309000  1.0
  Zn  Zn6  1  0.73552000  0.23260000  0.81001000  1.0
  Zn  Zn7  1  0.80588000  0.15181000  0.72646000  1.0
  Zn  Zn8  1  0.23259000  0.73520000  0.30990000  1.0
  Zn  Zn9  1  0.30306000  0.65219000  0.22762000  1.0
  Zn  Zn10  1  0.15057000  0.80637000  0.22754000  1.0
  Zn  Zn11  1  0.31227000  0.80917000  0.23342000  1.0
  Zn  Zn12  1  0.94034000  0.43943000  0.01600000  1.0
  Zn  Zn13  1  0.94452000  0.59933000  0.02149000  1.0
  Zn  Zn14  1  0.09875000  0.44616000  0.02183000  1.0
  Zn  Zn15  1  0.01646000  0.51662000  0.93922000  1.0
  H  H16  1  0.49583000  0.20138000  0.60237000  1.0
  H  H17  1  0.75116000  0.04395000  0.65075000  1.0
  H  H18  1  0.54372000  0.25054000  0.65003000  1.0
  H  H19  1  0.70410000  0.99569000  0.60222000  1.0
  H  H20  1  0.34270000  0.85217000  0.45026000  1.0
  H  H21  1  0.40227000  0.90328000  0.29866000  1.0
  H  H22  1  0.29453000  0.80422000  0.40208000  1.0
  H  H23  1  0.45278000  0.94880000  0.34683000  1.0
  H  H24  1  0.76040000  0.53462000  0.65696000  1.0
  H  H25  1  0.29335000  0.52170000  0.39757000  1.0
  H  H26  1  0.02044000  0.80347000  0.39749000  1.0
  H  H27  1  0.03042000  0.05349000  0.65036000  1.0
  H  H28  1  0.80445000  0.29455000  0.90207000  1.0
  H  H29  1  0.95030000  0.45150000  0.84697000  1.0
  H  H30  1  0.85033000  0.34465000  0.95030000  1.0
  H  H31  1  0.90361000  0.40219000  0.79876000  1.0
  H  H32  1  0.23043000  0.45529000  0.85143000  1.0
  H  H33  1  0.85542000  0.83798000  0.95875000  1.0
  H  H34  1  0.04377000  0.75501000  0.14797000  1.0
  H  H35  1  0.20280000  0.49883000  0.10142000  1.0
  H  H36  1  0.99646000  0.70632000  0.09972000  1.0
  H  H37  1  0.24945000  0.54687000  0.15027000  1.0
  H  H38  1  0.71926000  0.69836000  0.09734000  1.0
  H  H39  1  0.99169000  0.21320000  0.09020000  1.0
  H  H40  1  0.49379000  0.63543000  0.56876000  1.0
  H  H41  1  0.39579000  0.24754000  0.31339000  1.0
  H  H42  1  0.73899000  0.03026000  0.32033000  1.0
  H  H43  1  0.14093000  0.28508000  0.57916000  1.0
  H  H44  1  0.49831000  0.36202000  0.93641000  1.0
  H  H45  1  0.99319000  0.85008000  0.78791000  1.0
  H  H46  1  0.54169000  0.52598000  0.09962000  1.0
  H  H47  1  0.31559000  0.05035000  0.10882000  1.0
  C  C48  1  0.68260000  0.93956000  0.43849000  1.0
  C  C49  1  0.42871000  0.93189000  0.42991000  1.0
  C  C50  1  0.55922000  0.81664000  0.56056000  1.0
  C  C51  1  0.31836000  0.06325000  0.56095000  1.0
  C  C52  1  0.57002000  0.06787000  0.56989000  1.0
  C  C53  1  0.44044000  0.18410000  0.43748000  1.0
  C  C54  1  0.68694000  0.43494000  0.68964000  1.0
  C  C55  1  0.82358000  0.31629000  0.81898000  1.0
  C  C56  1  0.56816000  0.31141000  0.81184000  1.0
  C  C57  1  0.80978000  0.06651000  0.80968000  1.0
  C  C58  1  0.67941000  0.17994000  0.68073000  1.0
  C  C59  1  0.93480000  0.18995000  0.68764000  1.0
  C  C60  1  0.31381000  0.56783000  0.31104000  1.0
  C  C61  1  0.17772000  0.68256000  0.18044000  1.0
  C  C62  1  0.06474000  0.81070000  0.31058000  1.0
  C  C63  1  0.19093000  0.93302000  0.18834000  1.0
  C  C64  1  0.31697000  0.82256000  0.31911000  1.0
  C  C65  1  0.43360000  0.68644000  0.18887000  1.0
  C  C66  1  0.81665000  0.56043000  0.06162000  1.0
  C  C67  1  0.06914000  0.57122000  0.06884000  1.0
  C  C68  1  0.06159000  0.31694000  0.06177000  1.0
  C  C69  1  0.18408000  0.43749000  0.93825000  1.0
  C  C70  1  0.93071000  0.43033000  0.93003000  1.0
  C  C71  1  0.93657000  0.68471000  0.93826000  1.0
  C  C72  1  0.59772000  0.09616000  0.59917000  1.0
  C  C73  1  0.65049000  0.15039000  0.65275000  1.0
  C  C74  1  0.55190000  0.16778000  0.61283000  1.0
  C  C75  1  0.69575000  0.07821000  0.63965000  1.0
  C  C76  1  0.57835000  0.19486000  0.63936000  1.0
  C  C77  1  0.66954000  0.05140000  0.61286000  1.0
  C  C78  1  0.40012000  0.90343000  0.40123000  1.0
  C  C79  1  0.34571000  0.85105000  0.34768000  1.0
  C  C80  1  0.35556000  0.86273000  0.41704000  1.0
  C  C81  1  0.39001000  0.89201000  0.33187000  1.0
  C  C82  1  0.32879000  0.83631000  0.39037000  1.0
  C  C83  1  0.41757000  0.91768000  0.35856000  1.0
  C  C84  1  0.53978000  0.70018000  0.60190000  1.0
  C  C85  1  0.70204000  0.55351000  0.65067000  1.0
  C  C86  1  0.58173000  0.74307000  0.58729000  1.0
  C  C87  1  0.66075000  0.51039000  0.66501000  1.0
  C  C88  1  0.65833000  0.62244000  0.62759000  1.0
  C  C89  1  0.58422000  0.63059000  0.62477000  1.0
  C  C90  1  0.43372000  0.27428000  0.36985000  1.0
  C  C91  1  0.32642000  0.47700000  0.37784000  1.0
  C  C92  1  0.41886000  0.25900000  0.41223000  1.0
  C  C93  1  0.34054000  0.49244000  0.33564000  1.0
  C  C94  1  0.36001000  0.39768000  0.39035000  1.0
  C  C95  1  0.39924000  0.35408000  0.35729000  1.0
  C  C96  1  0.77131000  0.91912000  0.37024000  1.0
  C  C97  1  0.97503000  0.82919000  0.37777000  1.0
  C  C98  1  0.75711000  0.91282000  0.41292000  1.0
  C  C99  1  0.98948000  0.83559000  0.33531000  1.0
  C  C100  1  0.89576000  0.86003000  0.39058000  1.0
  C  C101  1  0.85109000  0.88938000  0.35749000  1.0
  C  C102  1  0.20484000  0.15574000  0.60532000  1.0
  C  C103  1  0.05186000  0.09692000  0.64697000  1.0
  C  C104  1  0.24530000  0.08763000  0.58807000  1.0
  C  C105  1  0.01082000  0.16494000  0.66370000  1.0
  C  C106  1  0.12245000  0.09338000  0.62571000  1.0
  C  C107  1  0.13390000  0.15909000  0.62665000  1.0
  C  C108  1  0.85146000  0.34554000  0.84769000  1.0
  C  C109  1  0.90294000  0.40090000  0.90137000  1.0
  C  C110  1  0.83634000  0.32903000  0.89038000  1.0
  C  C111  1  0.91821000  0.41723000  0.85868000  1.0
  C  C112  1  0.86179000  0.35675000  0.91709000  1.0
  C  C113  1  0.89242000  0.38985000  0.83198000  1.0
  C  C114  1  0.47819000  0.31936000  0.87987000  1.0
  C  C115  1  0.27510000  0.42374000  0.87140000  1.0
  C  C116  1  0.49345000  0.33278000  0.83737000  1.0
  C  C117  1  0.25954000  0.41127000  0.91367000  1.0
  C  C118  1  0.35455000  0.39069000  0.85904000  1.0
  C  C119  1  0.39827000  0.35334000  0.89225000  1.0
  C  C120  1  0.86934000  0.91928000  0.82035000  1.0
  C  C121  1  0.87127000  0.83047000  0.92630000  1.0
  C  C122  1  0.83122000  0.99081000  0.83414000  1.0
  C  C123  1  0.91025000  0.75926000  0.91279000  1.0
  C  C124  1  0.85649000  0.88887000  0.89277000  1.0
  C  C125  1  0.88446000  0.86084000  0.85418000  1.0
  C  C126  1  0.14935000  0.65380000  0.15173000  1.0
  C  C127  1  0.09709000  0.59997000  0.09772000  1.0
  C  C128  1  0.07802000  0.69905000  0.13759000  1.0
  C  C129  1  0.16846000  0.55475000  0.11184000  1.0
  C  C130  1  0.05188000  0.67213000  0.11082000  1.0
  C  C131  1  0.19435000  0.58141000  0.13885000  1.0
  C  C132  1  0.55290000  0.58881000  0.15016000  1.0
  C  C133  1  0.69997000  0.65304000  0.10275000  1.0
  C  C134  1  0.51040000  0.65865000  0.16545000  1.0
  C  C135  1  0.74224000  0.58398000  0.08719000  1.0
  C  C136  1  0.63104000  0.65503000  0.12559000  1.0
  C  C137  1  0.62199000  0.58719000  0.12700000  1.0
  C  C138  1  0.20509000  0.05601000  0.15367000  1.0
  C  C139  1  0.04788000  0.19677000  0.09900000  1.0
  C  C140  1  0.16575000  0.01003000  0.16513000  1.0
  C  C141  1  0.08702000  0.24238000  0.08724000  1.0
  C  C142  1  0.09074000  0.12886000  0.12306000  1.0
  C  C143  1  0.16200000  0.12401000  0.12922000  1.0
  C  C144  1  0.45755000  0.72410000  0.59737000  1.0
  C  C145  1  0.48456000  0.21657000  0.34116000  1.0
  C  C146  1  0.71291000  0.94498000  0.34082000  1.0
  C  C147  1  0.23192000  0.21637000  0.60439000  1.0
  C  C148  1  0.53582000  0.27154000  0.90915000  1.0
  C  C149  1  0.88824000  0.90344000  0.77641000  1.0
  C  C150  1  0.53304000  0.52167000  0.15871000  1.0
  C  C151  1  0.27988000  0.04064000  0.16688000  1.0
  S  S152  1  0.67321000  0.70020000  0.60181000  1.0
  S  S153  1  0.56862000  0.55319000  0.65096000  1.0
  S  S154  1  0.36539000  0.34033000  0.43665000  1.0
  S  S155  1  0.39520000  0.41139000  0.31086000  1.0
  S  S156  1  0.83936000  0.86998000  0.43726000  1.0
  S  S157  1  0.90736000  0.87852000  0.31062000  1.0
  S  S158  1  0.19887000  0.02783000  0.59848000  1.0
  S  S159  1  0.05766000  0.22472000  0.65426000  1.0
  S  S160  1  0.41199000  0.38441000  0.81277000  1.0
  S  S161  1  0.34081000  0.35881000  0.93870000  1.0
  S  S162  1  0.81224000  0.98709000  0.88729000  1.0
  S  S163  1  0.92849000  0.76236000  0.85945000  1.0
  S  S164  1  0.55435000  0.72069000  0.15264000  1.0
  S  S165  1  0.69931000  0.52071000  0.10045000  1.0
  S  S166  1  0.07722000  0.04951000  0.14718000  1.0
  S  S167  1  0.17547000  0.20391000  0.10555000  1.0
  O  O168  1  0.50024000  0.00017000  0.49942000  1.0
  O  O169  1  0.68375000  0.91661000  0.47708000  1.0
  O  O170  1  0.47317000  0.96391000  0.41385000  1.0
  O  O171  1  0.49815000  0.84006000  0.54410000  1.0
  O  O172  1  0.62470000  0.98348000  0.41993000  1.0
  O  O173  1  0.60452000  0.84905000  0.55616000  1.0
  O  O174  1  0.40617000  0.92209000  0.46826000  1.0
  O  O175  1  0.34793000  0.99380000  0.55360000  1.0
  O  O176  1  0.50330000  0.11054000  0.55965000  1.0
  O  O177  1  0.34395000  0.11343000  0.54689000  1.0
  O  O178  1  0.61539000  0.00355000  0.55731000  1.0
  O  O179  1  0.46382000  0.12594000  0.41851000  1.0
  O  O180  1  0.43221000  0.18528000  0.47637000  1.0
  O  O181  1  0.75037000  0.24989000  0.74951000  1.0
  O  O182  1  0.63885000  0.40525000  0.69923000  1.0
  O  O183  1  0.83452000  0.33770000  0.78063000  1.0
  O  O184  1  0.62685000  0.28707000  0.83055000  1.0
  O  O185  1  0.75498000  0.40625000  0.69904000  1.0
  O  O186  1  0.56612000  0.32081000  0.77299000  1.0
  O  O187  1  0.79094000  0.27233000  0.83517000  1.0
  O  O188  1  0.76704000  0.12353000  0.82947000  1.0
  O  O189  1  0.74493000  0.13606000  0.69233000  1.0
  O  O190  1  0.83669000  0.06819000  0.77185000  1.0
  O  O191  1  0.63662000  0.24694000  0.69070000  1.0
  O  O192  1  0.90824000  0.25530000  0.70052000  1.0
  O  O193  1  0.90250000  0.14454000  0.69331000  1.0
  O  O194  1  0.24930000  0.75118000  0.24949000  1.0
  O  O195  1  0.27437000  0.62564000  0.33059000  1.0
  O  O196  1  0.23983000  0.63585000  0.19484000  1.0
  O  O197  1  0.06459000  0.82386000  0.27148000  1.0
  O  O198  1  0.33264000  0.56799000  0.27215000  1.0
  O  O199  1  0.12294000  0.77842000  0.33031000  1.0
  O  O200  1  0.13772000  0.75140000  0.18816000  1.0
  O  O201  1  0.13916000  0.90829000  0.20002000  1.0
  O  O202  1  0.33194000  0.84007000  0.28062000  1.0
  O  O203  1  0.26109000  0.89824000  0.19389000  1.0
  O  O204  1  0.27982000  0.78275000  0.33542000  1.0
  O  O205  1  0.39514000  0.64803000  0.19041000  1.0
  O  O206  1  0.41276000  0.74790000  0.20481000  1.0
  O  O207  1  0.00001000  0.50046000  0.99961000  1.0
  O  O208  1  0.84498000  0.49341000  0.05064000  1.0
  O  O209  1  0.00259000  0.61395000  0.05824000  1.0
  O  O210  1  0.10736000  0.34926000  0.05495000  1.0
  O  O211  1  0.84586000  0.60872000  0.05275000  1.0
  O  O212  1  0.99661000  0.34226000  0.04885000  1.0
  O  O213  1  0.11401000  0.50618000  0.05702000  1.0
  O  O214  1  0.18400000  0.41999000  0.97724000  1.0
  O  O215  1  0.96945000  0.46854000  0.91374000  1.0
  O  O216  1  0.12609000  0.47511000  0.91859000  1.0
  O  O217  1  0.91360000  0.41490000  0.96853000  1.0
  O  O218  1  0.92095000  0.68529000  0.97717000  1.0
  O  O219  1  0.97287000  0.62615000  0.91880000  1.0
  O  O220  1  0.44492000  0.67494000  0.57881000  1.0
  O  O221  1  0.40466000  0.77913000  0.61071000  1.0
  O  O222  1  0.45042000  0.21420000  0.30968000  1.0
  O  O223  1  0.55194000  0.17744000  0.34340000  1.0
  O  O224  1  0.71010000  0.00597000  0.31270000  1.0
  O  O225  1  0.67464000  0.91136000  0.33949000  1.0
  O  O226  1  0.18264000  0.28814000  0.58962000  1.0
  O  O227  1  0.28950000  0.20651000  0.61736000  1.0
  O  O228  1  0.53402000  0.30823000  0.94067000  1.0
  O  O229  1  0.57842000  0.20482000  0.90761000  1.0
  O  O230  1  0.96381000  0.85866000  0.76537000  1.0
  O  O231  1  0.84196000  0.92354000  0.75235000  1.0
  O  O232  1  0.53374000  0.49292000  0.12417000  1.0
  O  O233  1  0.52108000  0.49107000  0.19265000  1.0
  O  O234  1  0.33422000  0.04406000  0.13509000  1.0
  O  O235  1  0.29231000  0.03012000  0.20224000  1.0
