# generated using pymatgen
data_CaH20C10S2(NO4)2
_symmetry_space_group_name_H-M   'P 1'
_cell_length_a   5.40274000
_cell_length_b   8.09970000
_cell_length_c   9.69465000
_cell_angle_alpha   70.48270000
_cell_angle_beta   84.48950000
_cell_angle_gamma   89.62630000
_symmetry_Int_Tables_number   1
_chemical_formula_structural   CaH20C10S2(NO4)2
_chemical_formula_sum   'Ca1 H20 C10 S2 N2 O8'
_cell_volume   397.87101495
_cell_formula_units_Z   1
loop_
 _symmetry_equiv_pos_site_id
 _symmetry_equiv_pos_as_xyz
  1  'x, y, z'
loop_
 _atom_site_type_symbol
 _atom_site_label
 _atom_site_symmetry_multiplicity
 _atom_site_fract_x
 _atom_site_fract_y
 _atom_site_fract_z
 _atom_site_occupancy
  Ca  Ca0  1  0.00000000  0.50000000  0.99999000  1.0
  H  H1  1  0.88901000  0.17995000  0.69441000  1.0
  H  H2  1  0.11099000  0.82006000  0.30559000  1.0
  H  H3  1  0.53419000  0.23474000  0.33389000  1.0
  H  H4  1  0.46581000  0.76525000  0.66612000  1.0
  H  H5  1  0.60961000  0.34306000  0.45797000  1.0
  H  H6  1  0.39039000  0.65694000  0.54203000  1.0
  H  H7  1  0.16941000  0.38134000  0.52779000  1.0
  H  H8  1  0.83059000  0.61866000  0.47221000  1.0
  H  H9  1  0.07118000  0.28293000  0.40316000  1.0
  H  H10  1  0.92882000  0.71707000  0.59683000  1.0
  H  H11  1  0.23226000  0.99780000  0.54715000  1.0
  H  H12  1  0.76772000  0.00220000  0.45285000  1.0
  H  H13  1  0.38844000  0.09624000  0.65419000  1.0
  H  H14  1  0.61156000  0.90376000  0.34580000  1.0
  H  H15  1  0.75142000  0.87885000  0.02253000  1.0
  H  H16  1  0.24858000  0.12115000  0.97748000  1.0
  H  H17  1  0.57621000  0.82760000  0.89728000  1.0
  H  H18  1  0.42382000  0.17240000  0.10272000  1.0
  H  H19  1  0.62682000  0.05219000  0.87874000  1.0
  H  H20  1  0.37318000  0.94781000  0.12126000  1.0
  C  C21  1  0.46964000  0.32969000  0.38716000  1.0
  C  C22  1  0.53037000  0.67031000  0.61284000  1.0
  C  C23  1  0.21623000  0.28212000  0.47566000  1.0
  C  C24  1  0.78376000  0.71788000  0.52434000  1.0
  C  C25  1  0.22221000  0.10317000  0.59536000  1.0
  C  C26  1  0.77778000  0.89683000  0.40464000  1.0
  C  C27  1  0.94535000  0.92570000  0.81078000  1.0
  C  C28  1  0.05466000  0.07431000  0.18922000  1.0
  C  C29  1  0.71052000  0.92340000  0.90736000  1.0
  C  C30  1  0.28949000  0.07660000  0.09264000  1.0
  S  S31  1  0.47697000  0.53496000  0.24141000  1.0
  S  S32  1  0.52302000  0.46504000  0.75859000  1.0
  N  N33  1  0.00020000  0.07527000  0.69899000  1.0
  N  N34  1  0.99981000  0.92474000  0.30101000  1.0
  O  O35  1  0.37612000  0.66553000  0.30467000  1.0
  O  O36  1  0.62390000  0.33447000  0.69533000  1.0
  O  O37  1  0.74180000  0.57046000  0.18422000  1.0
  O  O38  1  0.25820000  0.42953000  0.81576000  1.0
  O  O39  1  0.32562000  0.51072000  0.13083000  1.0
  O  O40  1  0.67435000  0.48927000  0.86918000  1.0
  O  O41  1  0.08142000  0.79371000  0.83315000  1.0
  O  O42  1  0.91861000  0.20631000  0.16686000  1.0
