# generated using pymatgen
data_AgH12C17S2O2F7
_symmetry_space_group_name_H-M   'P 1'
_cell_length_a   6.86196000
_cell_length_b   11.03510000
_cell_length_c   12.95020000
_cell_angle_alpha   87.42110000
_cell_angle_beta   83.97910000
_cell_angle_gamma   77.19810000
_symmetry_Int_Tables_number   1
_chemical_formula_structural   AgH12C17S2O2F7
_chemical_formula_sum   'Ag2 H24 C34 S4 O4 F14'
_cell_volume   950.72995064
_cell_formula_units_Z   2
loop_
 _symmetry_equiv_pos_site_id
 _symmetry_equiv_pos_as_xyz
  1  'x, y, z'
loop_
 _atom_site_type_symbol
 _atom_site_label
 _atom_site_symmetry_multiplicity
 _atom_site_fract_x
 _atom_site_fract_y
 _atom_site_fract_z
 _atom_site_occupancy
  Ag  Ag0  1  0.45549000  0.37105000  0.50342000  1.0
  Ag  Ag1  1  0.54451000  0.62895000  0.49658000  1.0
  H  H2  1  0.24189000  0.29268000  0.70750000  1.0
  H  H3  1  0.75811000  0.70732000  0.29250000  1.0
  H  H4  1  0.31043000  0.17101000  0.86987000  1.0
  H  H5  1  0.68956000  0.82899000  0.13013000  1.0
  H  H6  1  0.38550000  0.94007000  0.86870000  1.0
  H  H7  1  0.61449000  0.05993000  0.13131000  1.0
  H  H8  1  0.39005000  0.83016000  0.70418000  1.0
  H  H9  1  0.60994000  0.16984000  0.29583000  1.0
  H  H10  1  0.30955000  0.95318000  0.54181000  1.0
  H  H11  1  0.69045000  0.04682000  0.45819000  1.0
  H  H12  1  0.94344000  0.37932000  0.46981000  1.0
  H  H13  1  0.05656000  0.62068000  0.53019000  1.0
  H  H14  1  0.99104000  0.37249000  0.60292000  1.0
  H  H15  1  0.00896000  0.62751000  0.39708000  1.0
  H  H16  1  0.67347000  0.41391000  0.73614000  1.0
  H  H17  1  0.32654000  0.58609000  0.26386000  1.0
  H  H18  1  0.66034000  0.38058000  0.92760000  1.0
  H  H19  1  0.33966000  0.61942000  0.07240000  1.0
  H  H20  1  0.74823000  0.16731000  0.00341000  1.0
  H  H21  1  0.25177000  0.83270000  0.99659000  1.0
  H  H22  1  0.84450000  0.98491000  0.88742000  1.0
  H  H23  1  0.15549000  0.01509000  0.11259000  1.0
  H  H24  1  0.85713000  0.01724000  0.69562000  1.0
  H  H25  1  0.14287000  0.98276000  0.30438000  1.0
  C  C26  1  0.70246000  0.44514000  0.30773000  1.0
  C  C27  1  0.29754000  0.55486000  0.69227000  1.0
  C  C28  1  0.82558000  0.42838000  0.19868000  1.0
  C  C29  1  0.17442000  0.57162000  0.80132000  1.0
  C  C30  1  0.03664000  0.34086000  0.20440000  1.0
  C  C31  1  0.96336000  0.65914000  0.79560000  1.0
  C  C32  1  0.17579000  0.31849000  0.10051000  1.0
  C  C33  1  0.82421000  0.68152000  0.89948000  1.0
  C  C34  1  0.27260000  0.12985000  0.61511000  1.0
  C  C35  1  0.72740000  0.87014000  0.38489000  1.0
  C  C36  1  0.27241000  0.19156000  0.70728000  1.0
  C  C37  1  0.72759000  0.80844000  0.29272000  1.0
  C  C38  1  0.31015000  0.12277000  0.79839000  1.0
  C  C39  1  0.68985000  0.87723000  0.20161000  1.0
  C  C40  1  0.35261000  0.99301000  0.79729000  1.0
  C  C41  1  0.64738000  0.00699000  0.20271000  1.0
  C  C42  1  0.35592000  0.93146000  0.70512000  1.0
  C  C43  1  0.64407000  0.06853000  0.29488000  1.0
  C  C44  1  0.31355000  0.00002000  0.61361000  1.0
  C  C45  1  0.68646000  0.99998000  0.38640000  1.0
  C  C46  1  0.98026000  0.31684000  0.53663000  1.0
  C  C47  1  0.01974000  0.68316000  0.46337000  1.0
  C  C48  1  0.76741000  0.21711000  0.70470000  1.0
  C  C49  1  0.23258000  0.78289000  0.29530000  1.0
  C  C50  1  0.71098000  0.32002000  0.76938000  1.0
  C  C51  1  0.28902000  0.67997000  0.23062000  1.0
  C  C52  1  0.70387000  0.30114000  0.87682000  1.0
  C  C53  1  0.29613000  0.69886000  0.12318000  1.0
  C  C54  1  0.75198000  0.18083000  0.91941000  1.0
  C  C55  1  0.24802000  0.81917000  0.08059000  1.0
  C  C56  1  0.80625000  0.07881000  0.85449000  1.0
  C  C57  1  0.19375000  0.92119000  0.14551000  1.0
  C  C58  1  0.81378000  0.09637000  0.74685000  1.0
  C  C59  1  0.18622000  0.90363000  0.25315000  1.0
  S  S60  1  0.22141000  0.21525000  0.49741000  1.0
  S  S61  1  0.77859000  0.78475000  0.50259000  1.0
  S  S62  1  0.77727000  0.23534000  0.56716000  1.0
  S  S63  1  0.22273000  0.76466000  0.43284000  1.0
  O  O64  1  0.56193000  0.38896000  0.32450000  1.0
  O  O65  1  0.43808000  0.61105000  0.67550000  1.0
  O  O66  1  0.76377000  0.51394000  0.36674000  1.0
  O  O67  1  0.23623000  0.48607000  0.63326000  1.0
  F  F68  1  0.85206000  0.54200000  0.15917000  1.0
  F  F69  1  0.14794000  0.45800000  0.84083000  1.0
  F  F70  1  0.72613000  0.37967000  0.12980000  1.0
  F  F71  1  0.27387000  0.62033000  0.87020000  1.0
  F  F72  1  0.00874000  0.22720000  0.24247000  1.0
  F  F73  1  0.99126000  0.77280000  0.75753000  1.0
  F  F74  1  0.14012000  0.38759000  0.27193000  1.0
  F  F75  1  0.85988000  0.61241000  0.72807000  1.0
  F  F76  1  0.21913000  0.42567000  0.06079000  1.0
  F  F77  1  0.78088000  0.57433000  0.93920000  1.0
  F  F78  1  0.35014000  0.23896000  0.11920000  1.0
  F  F79  1  0.64986000  0.76104000  0.88079000  1.0
  F  F80  1  0.08965000  0.26729000  0.02916000  1.0
  F  F81  1  0.91035000  0.73272000  0.97083000  1.0
