# generated using pymatgen
data_ZnH14(C7O4)2
_symmetry_space_group_name_H-M   'P 1'
_cell_length_a   7.22370000
_cell_length_b   7.51817000
_cell_length_c   12.74330000
_cell_angle_alpha   88.74880000
_cell_angle_beta   84.70490000
_cell_angle_gamma   80.67970000
_symmetry_Int_Tables_number   1
_chemical_formula_structural   ZnH14(C7O4)2
_chemical_formula_sum   'Zn2 H28 C28 O16'
_cell_volume   680.00832998
_cell_formula_units_Z   2
loop_
 _symmetry_equiv_pos_site_id
 _symmetry_equiv_pos_as_xyz
  1  'x, y, z'
loop_
 _atom_site_type_symbol
 _atom_site_label
 _atom_site_symmetry_multiplicity
 _atom_site_fract_x
 _atom_site_fract_y
 _atom_site_fract_z
 _atom_site_occupancy
  Zn  Zn0  1  0.33866000  0.35168000  0.95935000  1.0
  Zn  Zn1  1  0.66134000  0.64831000  0.04065000  1.0
  H  H2  1  0.76323000  0.28579000  0.71144000  1.0
  H  H3  1  0.23678000  0.71420000  0.28856000  1.0
  H  H4  1  0.71777000  0.51212000  0.66261000  1.0
  H  H5  1  0.28223000  0.48787000  0.33740000  1.0
  H  H6  1  0.87269000  0.29035000  0.54703000  1.0
  H  H7  1  0.12731000  0.70966000  0.45297000  1.0
  H  H8  1  0.92659000  0.15820000  0.37397000  1.0
  H  H9  1  0.07341000  0.84180000  0.62603000  1.0
  H  H10  1  0.49292000  0.01549000  0.22665000  1.0
  H  H11  1  0.50708000  0.98450000  0.77335000  1.0
  H  H12  1  0.61786000  0.14623000  0.37757000  1.0
  H  H13  1  0.38215000  0.85376000  0.62244000  1.0
  H  H14  1  0.55855000  0.30673000  0.55109000  1.0
  H  H15  1  0.44145000  0.69327000  0.44891000  1.0
  H  H16  1  0.33565000  0.43202000  0.70195000  1.0
  H  H17  1  0.66435000  0.56799000  0.29804000  1.0
  H  H18  1  0.87096000  0.13872000  0.18601000  1.0
  H  H19  1  0.12904000  0.86129000  0.81398000  1.0
  H  H20  1  0.89374000  0.94842000  0.27372000  1.0
  H  H21  1  0.10625000  0.05159000  0.72628000  1.0
  H  H22  1  0.09647000  0.64944000  0.95992000  1.0
  H  H23  1  0.90354000  0.35056000  0.04008000  1.0
  H  H24  1  0.03224000  0.53551000  0.87151000  1.0
  H  H25  1  0.96776000  0.46449000  0.12849000  1.0
  H  H26  1  0.58393000  0.07106000  0.05309000  1.0
  H  H27  1  0.41607000  0.92895000  0.94691000  1.0
  H  H28  1  0.70283000  0.17119000  0.96800000  1.0
  H  H29  1  0.29717000  0.82882000  0.03200000  1.0
  C  C30  1  0.68206000  0.48324000  0.83024000  1.0
  C  C31  1  0.31794000  0.51677000  0.16976000  1.0
  C  C32  1  0.78410000  0.42502000  0.72408000  1.0
  C  C33  1  0.21590000  0.57497000  0.27591000  1.0
  C  C34  1  0.09071000  0.36701000  0.63370000  1.0
  C  C35  1  0.90929000  0.63301000  0.36630000  1.0
  C  C36  1  0.02223000  0.29328000  0.54962000  1.0
  C  C37  1  0.97777000  0.70672000  0.45038000  1.0
  C  C38  1  0.14674000  0.22239000  0.46258000  1.0
  C  C39  1  0.85326000  0.77761000  0.53742000  1.0
  C  C40  1  0.07800000  0.15222000  0.37418000  1.0
  C  C41  1  0.92200000  0.84778000  0.62582000  1.0
  C  C42  1  0.20120000  0.08244000  0.29011000  1.0
  C  C43  1  0.79880000  0.91755000  0.70989000  1.0
  C  C44  1  0.39828000  0.07808000  0.29185000  1.0
  C  C45  1  0.60172000  0.92191000  0.70816000  1.0
  C  C46  1  0.46662000  0.14885000  0.37635000  1.0
  C  C47  1  0.53338000  0.85114000  0.62365000  1.0
  C  C48  1  0.34447000  0.22484000  0.46332000  1.0
  C  C49  1  0.65552000  0.77516000  0.53668000  1.0
  C  C50  1  0.40826000  0.30340000  0.55081000  1.0
  C  C51  1  0.59174000  0.69661000  0.44919000  1.0
  C  C52  1  0.28583000  0.37398000  0.63430000  1.0
  C  C53  1  0.71417000  0.62603000  0.36570000  1.0
  C  C54  1  0.95172000  0.00354000  0.19912000  1.0
  C  C55  1  0.04827000  0.99645000  0.80088000  1.0
  C  C56  1  0.92484000  0.87776000  0.11217000  1.0
  C  C57  1  0.07515000  0.12224000  0.88784000  1.0
  O  O58  1  0.52332000  0.43390000  0.84716000  1.0
  O  O59  1  0.47667000  0.56609000  0.15284000  1.0
  O  O60  1  0.76011000  0.57477000  0.89110000  1.0
  O  O61  1  0.23988000  0.42521000  0.10890000  1.0
  O  O62  1  0.97973000  0.43583000  0.72154000  1.0
  O  O63  1  0.02027000  0.56418000  0.27846000  1.0
  O  O64  1  0.14736000  0.01131000  0.20169000  1.0
  O  O65  1  0.85264000  0.98869000  0.79831000  1.0
  O  O66  1  0.75292000  0.85722000  0.10648000  1.0
  O  O67  1  0.24708000  0.14278000  0.89352000  1.0
  O  O68  1  0.06420000  0.80193000  0.05434000  1.0
  O  O69  1  0.93580000  0.19807000  0.94566000  1.0
  O  O70  1  0.14511000  0.56137000  0.90234000  1.0
  O  O71  1  0.85489000  0.43864000  0.09766000  1.0
  O  O72  1  0.57475000  0.17471000  0.00492000  1.0
  O  O73  1  0.42525000  0.82528000  0.99508000  1.0
