# generated using pymatgen
data_LiH8C5NO4
_symmetry_space_group_name_H-M   'P 1'
_cell_length_a   5.28688000
_cell_length_b   7.86937000
_cell_length_c   7.95336000
_cell_angle_alpha   90.23860000
_cell_angle_beta   107.14000000
_cell_angle_gamma   96.58600000
_symmetry_Int_Tables_number   1
_chemical_formula_structural   LiH8C5NO4
_chemical_formula_sum   'Li2 H16 C10 N2 O8'
_cell_volume   313.86105037
_cell_formula_units_Z   2
loop_
 _symmetry_equiv_pos_site_id
 _symmetry_equiv_pos_as_xyz
  1  'x, y, z'
loop_
 _atom_site_type_symbol
 _atom_site_label
 _atom_site_symmetry_multiplicity
 _atom_site_fract_x
 _atom_site_fract_y
 _atom_site_fract_z
 _atom_site_occupancy
  Li  Li0  1  0.06327000  0.50447000  0.75485000  1.0
  Li  Li1  1  0.26466000  0.02595000  0.19990000  1.0
  H  H2  1  0.16032000  0.64961000  0.33021000  1.0
  H  H3  1  0.72471000  0.62903000  0.39652000  1.0
  H  H4  1  0.66451000  0.15514000  0.92689000  1.0
  H  H5  1  0.33201000  0.10907000  0.53666000  1.0
  H  H6  1  0.21546000  0.16521000  0.71344000  1.0
  H  H7  1  0.55364000  0.64690000  0.17339000  1.0
  H  H8  1  0.79781000  0.10789000  0.75629000  1.0
  H  H9  1  0.68938000  0.86367000  0.93894000  1.0
  H  H10  1  0.00660000  0.69519000  0.10946000  1.0
  H  H11  1  0.75084000  0.41076000  0.04935000  1.0
  H  H12  1  0.66284000  0.32053000  0.29745000  1.0
  H  H13  1  0.76909000  0.77008000  0.70132000  1.0
  H  H14  1  0.44671000  0.67553000  0.65134000  1.0
  H  H15  1  0.89880000  0.19641000  0.29040000  1.0
  H  H16  1  0.52806000  0.85426000  0.55091000  1.0
  H  H17  1  0.98803000  0.36969000  0.43007000  1.0
  C  C18  1  0.26544000  0.86367000  0.84626000  1.0
  C  C19  1  0.54248000  0.90048000  0.81950000  1.0
  C  C20  1  0.61532000  0.09111000  0.79666000  1.0
  C  C21  1  0.39334000  0.17424000  0.66785000  1.0
  C  C22  1  0.47240000  0.36146000  0.64053000  1.0
  C  C23  1  0.17110000  0.37958000  0.12182000  1.0
  C  C24  1  0.92624000  0.43330000  0.16640000  1.0
  C  C25  1  0.97410000  0.62456000  0.22160000  1.0
  C  C26  1  0.74459000  0.68736000  0.27468000  1.0
  C  C27  1  0.75808000  0.88049000  0.30122000  1.0
  N  N28  1  0.56812000  0.79391000  0.67157000  1.0
  N  N29  1  0.86495000  0.32451000  0.30623000  1.0
  O  O30  1  0.22475000  0.94609000  0.96917000  1.0
  O  O31  1  0.09578000  0.75355000  0.74058000  1.0
  O  O32  1  0.71021000  0.41306000  0.64883000  1.0
  O  O33  1  0.28696000  0.46026000  0.60774000  1.0
  O  O34  1  0.30930000  0.27929000  0.22643000  1.0
  O  O35  1  0.22252000  0.44274000  0.98874000  1.0
  O  O36  1  0.57456000  0.93499000  0.35390000  1.0
  O  O37  1  0.94135000  0.97993000  0.26629000  1.0
