# generated using pymatgen
data_MnH8C8(N3O2)2
_symmetry_space_group_name_H-M   'P 1'
_cell_length_a   4.88364000
_cell_length_b   8.58829000
_cell_length_c   12.13950000
_cell_angle_alpha   88.35300000
_cell_angle_beta   89.99990000
_cell_angle_gamma   89.99990000
_symmetry_Int_Tables_number   1
_chemical_formula_structural   MnH8C8(N3O2)2
_chemical_formula_sum   'Mn2 H16 C16 N12 O8'
_cell_volume   508.94597869
_cell_formula_units_Z   2
loop_
 _symmetry_equiv_pos_site_id
 _symmetry_equiv_pos_as_xyz
  1  'x, y, z'
loop_
 _atom_site_type_symbol
 _atom_site_label
 _atom_site_symmetry_multiplicity
 _atom_site_fract_x
 _atom_site_fract_y
 _atom_site_fract_z
 _atom_site_occupancy
  Mn  Mn0  1  0.50000000  0.50000000  0.50000000  1.0
  Mn  Mn1  1  0.00000000  0.00000000  0.00000000  1.0
  H  H2  1  0.95887000  0.17746000  0.50511000  1.0
  H  H3  1  0.45887000  0.32254000  0.99489000  1.0
  H  H4  1  0.04113000  0.82254000  0.49489000  1.0
  H  H5  1  0.54113000  0.67746000  0.00511000  1.0
  H  H6  1  0.24273000  0.24768000  0.31851000  1.0
  H  H7  1  0.74273000  0.25232000  0.18149000  1.0
  H  H8  1  0.75727000  0.75232000  0.68150000  1.0
  H  H9  1  0.25727000  0.74768000  0.81850000  1.0
  H  H10  1  0.16230000  0.95429000  0.27285000  1.0
  H  H11  1  0.66230000  0.54571000  0.22715000  1.0
  H  H12  1  0.83770000  0.04571000  0.72715000  1.0
  H  H13  1  0.33770000  0.45429000  0.77285000  1.0
  H  H14  1  0.42042000  0.81871000  0.31642000  1.0
  H  H15  1  0.92042000  0.68129000  0.18358000  1.0
  H  H16  1  0.57958000  0.18129000  0.68358000  1.0
  H  H17  1  0.07958000  0.31871000  0.81642000  1.0
  C  C18  1  0.78746000  0.15821000  0.45004000  1.0
  C  C19  1  0.28746000  0.34179000  0.04996000  1.0
  C  C20  1  0.21254000  0.84179000  0.54997000  1.0
  C  C21  1  0.71254000  0.65821000  0.95003000  1.0
  C  C22  1  0.42427000  0.19766000  0.35641000  1.0
  C  C23  1  0.92427000  0.30234000  0.14359000  1.0
  C  C24  1  0.57573000  0.80234000  0.64359000  1.0
  C  C25  1  0.07573000  0.69766000  0.85641000  1.0
  C  C26  1  0.38376000  0.93296000  0.27580000  1.0
  C  C27  1  0.88376000  0.56704000  0.22420000  1.0
  C  C28  1  0.61624000  0.06704000  0.72420000  1.0
  C  C29  1  0.11624000  0.43296000  0.77580000  1.0
  C  C30  1  0.50114000  0.92761000  0.15856000  1.0
  C  C31  1  0.00114000  0.57239000  0.34144000  1.0
  C  C32  1  0.49886000  0.07239000  0.84144000  1.0
  C  C33  1  0.99886000  0.42761000  0.65855000  1.0
  N  N34  1  0.50973000  0.05057000  0.34279000  1.0
  N  N35  1  0.00973000  0.44943000  0.15722000  1.0
  N  N36  1  0.49028000  0.94943000  0.65722000  1.0
  N  N37  1  0.99027000  0.55057000  0.84278000  1.0
  N  N38  1  0.74309000  0.02334000  0.40169000  1.0
  N  N39  1  0.24309000  0.47666000  0.09831000  1.0
  N  N40  1  0.25691000  0.97666000  0.59831000  1.0
  N  N41  1  0.75691000  0.52334000  0.90169000  1.0
  N  N42  1  0.59571000  0.26965000  0.42411000  1.0
  N  N43  1  0.09571000  0.23035000  0.07589000  1.0
  N  N44  1  0.40429000  0.73035000  0.57589000  1.0
  N  N45  1  0.90429000  0.76965000  0.92411000  1.0
  O  O46  1  0.75288000  0.96136000  0.14695000  1.0
  O  O47  1  0.25288000  0.53864000  0.35305000  1.0
  O  O48  1  0.24712000  0.03864000  0.85305000  1.0
  O  O49  1  0.74711000  0.46136000  0.64695000  1.0
  O  O50  1  0.34021000  0.88355000  0.08397000  1.0
  O  O51  1  0.84021000  0.61645000  0.41603000  1.0
  O  O52  1  0.65980000  0.11645000  0.91603000  1.0
  O  O53  1  0.15979000  0.38355000  0.58397000  1.0
