# generated using pymatgen
data_MnH13C16N2O5
_symmetry_space_group_name_H-M   'P 1'
_cell_length_a   7.64806000
_cell_length_b   9.66359000
_cell_length_c   10.86510000
_cell_angle_alpha   84.11890000
_cell_angle_beta   72.05340000
_cell_angle_gamma   67.61140000
_symmetry_Int_Tables_number   1
_chemical_formula_structural   MnH13C16N2O5
_chemical_formula_sum   'Mn2 H26 C32 N4 O10'
_cell_volume   706.25736358
_cell_formula_units_Z   2
loop_
 _symmetry_equiv_pos_site_id
 _symmetry_equiv_pos_as_xyz
  1  'x, y, z'
loop_
 _atom_site_type_symbol
 _atom_site_label
 _atom_site_symmetry_multiplicity
 _atom_site_fract_x
 _atom_site_fract_y
 _atom_site_fract_z
 _atom_site_occupancy
  Mn  Mn0  1  0.91965000  0.14783000  0.80283000  1.0
  Mn  Mn1  1  0.08035000  0.85217000  0.19717000  1.0
  H  H2  1  0.29615000  0.50027000  0.83471000  1.0
  H  H3  1  0.70386000  0.49973000  0.16528000  1.0
  H  H4  1  0.28693000  0.53444000  0.99373000  1.0
  H  H5  1  0.71308000  0.46555000  0.00626000  1.0
  H  H6  1  0.09124000  0.36178000  0.07436000  1.0
  H  H7  1  0.90878000  0.63821000  0.92564000  1.0
  H  H8  1  0.21660000  0.82084000  0.87675000  1.0
  H  H9  1  0.78339000  0.17916000  0.12325000  1.0
  H  H10  1  0.53234000  0.61904000  0.76028000  1.0
  H  H11  1  0.46765000  0.38096000  0.23972000  1.0
  H  H12  1  0.66722000  0.63511000  0.51875000  1.0
  H  H13  1  0.33278000  0.36489000  0.48125000  1.0
  H  H14  1  0.63161000  0.77261000  0.31617000  1.0
  H  H15  1  0.36839000  0.22740000  0.68383000  1.0
  H  H16  1  0.44552000  0.99457000  0.20670000  1.0
  H  H17  1  0.55448000  0.00543000  0.79331000  1.0
  H  H18  1  0.75265000  0.38808000  0.60280000  1.0
  H  H19  1  0.24734000  0.61192000  0.39720000  1.0
  H  H20  1  0.86879000  0.43598000  0.36214000  1.0
  H  H21  1  0.13120000  0.56403000  0.63786000  1.0
  H  H22  1  0.16888000  0.24000000  0.22344000  1.0
  H  H23  1  0.83111000  0.76001000  0.77656000  1.0
  H  H24  1  0.65609000  0.06851000  0.96979000  1.0
  H  H25  1  0.34391000  0.93149000  0.03021000  1.0
  H  H26  1  0.85294000  0.91736000  0.97720000  1.0
  H  H27  1  0.14706000  0.08264000  0.02280000  1.0
  C  C28  1  0.46923000  0.31336000  0.92652000  1.0
  C  C29  1  0.53077000  0.68664000  0.07348000  1.0
  C  C30  1  0.28473000  0.45212000  0.93158000  1.0
  C  C31  1  0.71528000  0.54788000  0.06842000  1.0
  C  C32  1  0.09043000  0.42533000  0.98495000  1.0
  C  C33  1  0.90958000  0.57467000  0.01504000  1.0
  C  C34  1  0.06409000  0.33624000  0.88855000  1.0
  C  C35  1  0.93592000  0.66376000  0.11144000  1.0
  C  C36  1  0.27927000  0.82483000  0.77229000  1.0
  C  C37  1  0.72072000  0.17517000  0.22771000  1.0
  C  C38  1  0.45524000  0.71075000  0.70614000  1.0
  C  C39  1  0.54476000  0.28925000  0.29387000  1.0
  C  C40  1  0.52871000  0.71898000  0.57345000  1.0
  C  C41  1  0.47129000  0.28102000  0.42655000  1.0
  C  C42  1  0.42642000  0.84086000  0.50708000  1.0
  C  C43  1  0.57358000  0.15915000  0.49293000  1.0
  C  C44  1  0.25146000  0.95132000  0.58220000  1.0
  C  C45  1  0.74854000  0.04868000  0.41780000  1.0
  C  C46  1  0.49464000  0.85827000  0.37041000  1.0
  C  C47  1  0.50536000  0.14174000  0.62959000  1.0
  C  C48  1  0.39344000  0.98015000  0.31068000  1.0
  C  C49  1  0.60656000  0.01985000  0.68932000  1.0
  C  C50  1  0.21720000  0.09423000  0.38365000  1.0
  C  C51  1  0.78279000  0.90577000  0.61635000  1.0
  C  C52  1  0.14559000  0.08013000  0.51944000  1.0
  C  C53  1  0.85441000  0.91987000  0.48056000  1.0
  C  C54  1  0.88430000  0.30785000  0.53802000  1.0
  C  C55  1  0.11570000  0.69215000  0.46199000  1.0
  C  C56  1  0.94683000  0.33267000  0.40459000  1.0
  C  C57  1  0.05316000  0.66733000  0.59541000  1.0
  C  C58  1  0.11324000  0.22555000  0.32722000  1.0
  C  C59  1  0.88675000  0.77445000  0.67278000  1.0
  N  N60  1  0.18046000  0.94222000  0.71241000  1.0
  N  N61  1  0.81953000  0.05777000  0.28759000  1.0
  N  N62  1  0.98124000  0.18601000  0.59455000  1.0
  N  N63  1  0.01875000  0.81399000  0.40546000  1.0
  O  O64  1  0.45313000  0.20813000  0.00319000  1.0
  O  O65  1  0.54687000  0.79187000  0.99681000  1.0
  O  O66  1  0.63145000  0.31507000  0.84502000  1.0
  O  O67  1  0.36856000  0.68493000  0.15498000  1.0
  O  O68  1  0.02833000  0.21520000  0.93038000  1.0
  O  O69  1  0.97169000  0.78479000  0.06961000  1.0
  O  O70  1  0.06926000  0.38179000  0.77603000  1.0
  O  O71  1  0.93075000  0.61821000  0.22397000  1.0
  O  O72  1  0.79745000  0.00277000  0.92346000  1.0
  O  O73  1  0.20256000  0.99723000  0.07653000  1.0
