# generated using pymatgen
data_Cd7H32C56(Cl3O10)2
_symmetry_space_group_name_H-M   'P 1'
_cell_length_a   10.41390000
_cell_length_b   10.76100000
_cell_length_c   15.24280000
_cell_angle_alpha   85.86580000
_cell_angle_beta   74.35660000
_cell_angle_gamma   61.93920000
_symmetry_Int_Tables_number   1
_chemical_formula_structural   Cd7H32C56(Cl3O10)2
_chemical_formula_sum   'Cd7 H32 C56 Cl6 O20'
_cell_volume   1448.52031370
_cell_formula_units_Z   1
loop_
 _symmetry_equiv_pos_site_id
 _symmetry_equiv_pos_as_xyz
  1  'x, y, z'
loop_
 _atom_site_type_symbol
 _atom_site_label
 _atom_site_symmetry_multiplicity
 _atom_site_fract_x
 _atom_site_fract_y
 _atom_site_fract_z
 _atom_site_occupancy
  Cd  Cd0  1  0.50000000  0.50000000  0.00000000  1.0
  Cd  Cd1  1  0.79832000  0.66507000  0.98381000  1.0
  Cd  Cd2  1  0.20168000  0.33493000  0.01619000  1.0
  Cd  Cd3  1  0.37088000  0.91456000  0.01245000  1.0
  Cd  Cd4  1  0.62911000  0.08544000  0.98755000  1.0
  Cd  Cd5  1  0.93549000  0.21337000  0.98321000  1.0
  Cd  Cd6  1  0.06451000  0.78663000  0.01679000  1.0
  H  H7  1  0.44971000  0.40325000  0.29877000  1.0
  H  H8  1  0.55029000  0.59675000  0.70123000  1.0
  H  H9  1  0.41448000  0.31388000  0.45484000  1.0
  H  H10  1  0.58552000  0.68612000  0.54516000  1.0
  H  H11  1  0.26872000  0.04388000  0.36276000  1.0
  H  H12  1  0.73128000  0.95612000  0.63724000  1.0
  H  H13  1  0.31358000  0.12721000  0.20596000  1.0
  H  H14  1  0.68642000  0.87279000  0.79404000  1.0
  H  H15  1  0.01416000  0.52862000  0.68303000  1.0
  H  H16  1  0.98584000  0.47138000  0.31697000  1.0
  H  H17  1  0.13722000  0.40282000  0.52854000  1.0
  H  H18  1  0.86278000  0.59718000  0.47146000  1.0
  H  H19  1  0.35681000  0.01077000  0.65112000  1.0
  H  H20  1  0.64319000  0.98923000  0.34888000  1.0
  H  H21  1  0.23592000  0.13824000  0.80487000  1.0
  H  H22  1  0.76408000  0.86175000  0.19513000  1.0
  H  H23  1  0.82624000  0.38039000  0.20522000  1.0
  H  H24  1  0.17376000  0.61962000  0.79478000  1.0
  H  H25  1  0.63827000  0.45419000  0.35833000  1.0
  H  H26  1  0.36173000  0.54581000  0.64167000  1.0
  H  H27  1  0.89602000  0.04968000  0.45523000  1.0
  H  H28  1  0.10398000  0.95032000  0.54477000  1.0
  H  H29  1  0.08587000  0.97902000  0.30339000  1.0
  H  H30  1  0.91413000  0.02098000  0.69661000  1.0
  H  H31  1  0.50842000  0.27799000  0.80229000  1.0
  H  H32  1  0.49158000  0.72201000  0.19771000  1.0
  H  H33  1  0.46997000  0.28359000  0.64719000  1.0
  H  H34  1  0.53003000  0.71641000  0.35281000  1.0
  H  H35  1  0.89197000  0.29184000  0.52934000  1.0
  H  H36  1  0.10803000  0.70816000  0.47066000  1.0
  H  H37  1  0.93247000  0.27818000  0.68419000  1.0
  H  H38  1  0.06753000  0.72182000  0.31581000  1.0
  C  C39  1  0.40735000  0.32190000  0.15015000  1.0
  C  C40  1  0.59265000  0.67810000  0.84985000  1.0
  C  C41  1  0.38094000  0.27281000  0.24338000  1.0
  C  C42  1  0.61906000  0.72719000  0.75662000  1.0
  C  C43  1  0.40883000  0.32560000  0.31380000  1.0
  C  C44  1  0.59117000  0.67440000  0.68620000  1.0
  C  C45  1  0.38791000  0.27692000  0.40084000  1.0
  C  C46  1  0.61209000  0.72308000  0.59916000  1.0
  C  C47  1  0.33477000  0.17720000  0.41744000  1.0
  C  C48  1  0.66523000  0.82280000  0.58256000  1.0
  C  C49  1  0.30709000  0.12333000  0.34803000  1.0
  C  C50  1  0.69291000  0.87667000  0.65197000  1.0
  C  C51  1  0.33182000  0.17035000  0.26096000  1.0
  C  C52  1  0.66819000  0.82965000  0.73904000  1.0
  C  C53  1  0.03618000  0.41523000  0.84547000  1.0
  C  C54  1  0.96382000  0.58477000  0.15453000  1.0
  C  C55  1  0.11813000  0.34171000  0.75364000  1.0
  C  C56  1  0.88186000  0.65829000  0.24636000  1.0
  C  C57  1  0.09145000  0.41570000  0.67526000  1.0
  C  C58  1  0.90855000  0.58430000  0.32474000  1.0
  C  C59  1  0.15951000  0.34553000  0.58908000  1.0
  C  C60  1  0.84049000  0.65447000  0.41092000  1.0
  C  C61  1  0.25473000  0.19925000  0.58150000  1.0
  C  C62  1  0.74527000  0.80075000  0.41850000  1.0
  C  C63  1  0.28344000  0.12440000  0.65896000  1.0
  C  C64  1  0.71656000  0.87560000  0.34104000  1.0
  C  C65  1  0.21557000  0.19588000  0.74430000  1.0
  C  C66  1  0.78443000  0.80412000  0.25570000  1.0
  C  C67  1  0.08451000  0.13052000  0.15490000  1.0
  C  C68  1  0.91549000  0.86948000  0.84510000  1.0
  C  C69  1  0.96916000  0.17545000  0.24478000  1.0
  C  C70  1  0.03084000  0.82455000  0.75522000  1.0
  C  C71  1  0.84183000  0.30888000  0.26018000  1.0
  C  C72  1  0.15817000  0.69112000  0.73982000  1.0
  C  C73  1  0.73680000  0.35022000  0.34531000  1.0
  C  C74  1  0.26320000  0.64978000  0.65469000  1.0
  C  C75  1  0.75791000  0.25742000  0.41526000  1.0
  C  C76  1  0.24208000  0.74258000  0.58474000  1.0
  C  C77  1  0.88304000  0.12274000  0.40090000  1.0
  C  C78  1  0.11695000  0.87726000  0.59910000  1.0
  C  C79  1  0.98825000  0.08334000  0.31599000  1.0
  C  C80  1  0.01175000  0.91666000  0.68401000  1.0
  C  C81  1  0.75227000  0.26360000  0.84463000  1.0
  C  C82  1  0.24773000  0.73640000  0.15537000  1.0
  C  C83  1  0.72355000  0.27677000  0.75321000  1.0
  C  C84  1  0.27645000  0.72323000  0.24679000  1.0
  C  C85  1  0.59213000  0.28066000  0.74246000  1.0
  C  C86  1  0.40787000  0.71934000  0.25754000  1.0
  C  C87  1  0.57002000  0.28443000  0.65610000  1.0
  C  C88  1  0.42998000  0.71557000  0.34390000  1.0
  C  C89  1  0.67849000  0.28791000  0.57939000  1.0
  C  C90  1  0.32151000  0.71209000  0.42061000  1.0
  C  C91  1  0.80897000  0.28715000  0.58900000  1.0
  C  C92  1  0.19103000  0.71285000  0.41100000  1.0
  C  C93  1  0.83098000  0.28044000  0.67570000  1.0
  C  C94  1  0.16902000  0.71956000  0.32430000  1.0
  Cl  Cl95  1  0.72808000  0.47163000  0.06151000  1.0
  Cl  Cl96  1  0.27192000  0.52837000  0.93848000  1.0
  Cl  Cl97  1  0.41322000  0.10930000  0.91297000  1.0
  Cl  Cl98  1  0.58678000  0.89070000  0.08703000  1.0
  Cl  Cl99  1  0.82030000  0.06116000  0.07979000  1.0
  Cl  Cl100  1  0.17971000  0.93883000  0.92021000  1.0
  O  O101  1  0.43172000  0.42711000  0.13851000  1.0
  O  O102  1  0.56827000  0.57289000  0.86149000  1.0
  O  O103  1  0.40655000  0.25281000  0.08388000  1.0
  O  O104  1  0.59345000  0.74719000  0.91612000  1.0
  O  O105  1  0.93929000  0.54415000  0.85047000  1.0
  O  O106  1  0.06071000  0.45585000  0.14953000  1.0
  O  O107  1  0.31749000  0.11826000  0.50060000  1.0
  O  O108  1  0.68251000  0.88174000  0.49940000  1.0
  O  O109  1  0.06442000  0.34460000  0.91665000  1.0
  O  O110  1  0.93558000  0.65540000  0.08335000  1.0
  O  O111  1  0.64430000  0.30053000  0.49668000  1.0
  O  O112  1  0.35570000  0.69947000  0.50332000  1.0
  O  O113  1  0.20586000  0.01607000  0.14897000  1.0
  O  O114  1  0.79414000  0.98393000  0.85103000  1.0
  O  O115  1  0.64423000  0.27944000  0.91670000  1.0
  O  O116  1  0.35577000  0.72056000  0.08330000  1.0
  O  O117  1  0.06057000  0.20910000  0.08665000  1.0
  O  O118  1  0.93944000  0.79090000  0.91334000  1.0
  O  O119  1  0.88316000  0.23624000  0.84854000  1.0
  O  O120  1  0.11684000  0.76376000  0.15146000  1.0
