# generated using pymatgen
data_CoH32C32(N4O3)2
_symmetry_space_group_name_H-M   'P 1'
_cell_length_a   8.40759000
_cell_length_b   8.76591000
_cell_length_c   11.01320000
_cell_angle_alpha   108.96240000
_cell_angle_beta   91.10990000
_cell_angle_gamma   105.07860000
_symmetry_Int_Tables_number   1
_chemical_formula_structural   CoH32C32(N4O3)2
_chemical_formula_sum   'Co1 H32 C32 N8 O6'
_cell_volume   736.38372700
_cell_formula_units_Z   1
loop_
 _symmetry_equiv_pos_site_id
 _symmetry_equiv_pos_as_xyz
  1  'x, y, z'
loop_
 _atom_site_type_symbol
 _atom_site_label
 _atom_site_symmetry_multiplicity
 _atom_site_fract_x
 _atom_site_fract_y
 _atom_site_fract_z
 _atom_site_occupancy
  Co  Co0  1  0.50000000  0.00000000  0.50000000  1.0
  H  H1  1  0.20936000  0.03502000  0.47249000  1.0
  H  H2  1  0.79063000  0.96498000  0.52752000  1.0
  H  H3  1  0.10279000  0.78473000  0.30867000  1.0
  H  H4  1  0.89721000  0.21527000  0.69133000  1.0
  H  H5  1  0.70460000  0.20799000  0.37434000  1.0
  H  H6  1  0.29540000  0.79201000  0.62567000  1.0
  H  H7  1  0.44900000  0.29141000  0.69611000  1.0
  H  H8  1  0.55100000  0.70861000  0.30389000  1.0
  H  H9  1  0.68743000  0.87898000  0.86644000  1.0
  H  H10  1  0.31257000  0.12102000  0.13357000  1.0
  H  H11  1  0.75771000  0.09645000  0.93450000  1.0
  H  H12  1  0.24228000  0.90355000  0.06550000  1.0
  H  H13  1  0.76556000  0.71945000  0.62097000  1.0
  H  H14  1  0.23445000  0.28055000  0.37903000  1.0
  H  H15  1  0.39066000  0.88977000  0.87151000  1.0
  H  H16  1  0.60933000  0.11021000  0.12848000  1.0
  H  H17  1  0.45763000  0.11047000  0.92733000  1.0
  H  H18  1  0.54236000  0.88953000  0.07267000  1.0
  H  H19  1  0.56160000  0.60318000  0.75596000  1.0
  H  H20  1  0.43841000  0.39683000  0.24403000  1.0
  H  H21  1  0.95318000  0.19341000  0.09646000  1.0
  H  H22  1  0.04682000  0.80659000  0.90354000  1.0
  H  H23  1  0.24954000  0.69127000  0.13853000  1.0
  H  H24  1  0.75046000  0.30874000  0.86147000  1.0
  H  H25  1  0.29255000  0.26777000  0.81925000  1.0
  H  H26  1  0.70745000  0.73224000  0.18075000  1.0
  H  H27  1  0.08041000  0.07722000  0.89497000  1.0
  H  H28  1  0.91958000  0.92278000  0.10502000  1.0
  H  H29  1  0.37989000  0.57773000  0.94347000  1.0
  H  H30  1  0.62011000  0.42227000  0.05653000  1.0
  H  H31  1  0.15171000  0.93661000  0.56505000  1.0
  H  H32  1  0.84829000  0.06339000  0.43496000  1.0
  C  C33  1  0.66565000  0.00834000  0.73741000  1.0
  C  C34  1  0.33435000  0.99166000  0.26260000  1.0
  C  C35  1  0.74962000  0.47088000  0.48662000  1.0
  C  C36  1  0.25038000  0.52911000  0.51338000  1.0
  C  C37  1  0.86410000  0.52385000  0.40057000  1.0
  C  C38  1  0.13590000  0.47614000  0.59942000  1.0
  C  C39  1  0.00849000  0.51061000  0.24287000  1.0
  C  C40  1  0.99152000  0.48939000  0.75713000  1.0
  C  C41  1  0.67813000  0.29908000  0.45945000  1.0
  C  C42  1  0.32188000  0.70092000  0.54055000  1.0
  C  C43  1  0.53447000  0.34748000  0.63956000  1.0
  C  C44  1  0.46554000  0.65253000  0.36044000  1.0
  C  C45  1  0.08942000  0.44932000  0.12839000  1.0
  C  C46  1  0.91058000  0.55068000  0.87161000  1.0
  C  C47  1  0.65409000  0.99422000  0.87111000  1.0
  C  C48  1  0.34590000  0.00577000  0.12889000  1.0
  C  C49  1  0.70977000  0.58465000  0.59603000  1.0
  C  C50  1  0.29024000  0.41536000  0.40396000  1.0
  C  C51  1  0.49255000  0.99886000  0.93020000  1.0
  C  C52  1  0.50744000  0.00113000  0.06980000  1.0
  C  C53  1  0.59836000  0.52035000  0.67104000  1.0
  C  C54  1  0.40165000  0.47967000  0.32896000  1.0
  C  C55  1  0.04555000  0.27553000  0.06035000  1.0
  C  C56  1  0.95445000  0.72447000  0.93965000  1.0
  C  C57  1  0.21126000  0.55684000  0.08549000  1.0
  C  C58  1  0.78874000  0.44316000  0.91451000  1.0
  C  C59  1  0.23864000  0.31973000  0.90699000  1.0
  C  C60  1  0.76136000  0.68027000  0.09301000  1.0
  C  C61  1  0.11861000  0.21153000  0.94987000  1.0
  C  C62  1  0.88138000  0.78847000  0.05013000  1.0
  C  C63  1  0.28556000  0.49241000  0.97566000  1.0
  C  C64  1  0.71445000  0.50760000  0.02434000  1.0
  N  N65  1  0.57556000  0.23775000  0.53578000  1.0
  N  N66  1  0.42444000  0.76225000  0.46423000  1.0
  N  N67  1  0.89845000  0.41287000  0.29211000  1.0
  N  N68  1  0.10155000  0.58713000  0.70788000  1.0
  N  N69  1  0.03602000  0.67380000  0.31998000  1.0
  N  N70  1  0.96398000  0.32620000  0.68002000  1.0
  N  N71  1  0.94646000  0.68506000  0.42138000  1.0
  N  N72  1  0.05354000  0.31493000  0.57861000  1.0
  O  O73  1  0.53907000  0.02524000  0.68178000  1.0
  O  O74  1  0.46094000  0.97476000  0.31822000  1.0
  O  O75  1  0.80262000  0.00544000  0.69070000  1.0
  O  O76  1  0.19738000  0.99455000  0.30930000  1.0
  O  O77  1  0.23971000  0.03135000  0.55938000  1.0
  O  O78  1  0.76029000  0.96865000  0.44063000  1.0
