# generated using pymatgen
data_ZnH13C11I(NO)4
_symmetry_space_group_name_H-M   'P 1'
_cell_length_a   9.95343000
_cell_length_b   10.97710000
_cell_length_c   13.58440000
_cell_angle_alpha   94.92500000
_cell_angle_beta   92.65760000
_cell_angle_gamma   91.63850000
_symmetry_Int_Tables_number   1
_chemical_formula_structural   ZnH13C11I(NO)4
_chemical_formula_sum   'Zn2 H26 C22 I2 N8 O8'
_cell_volume   1476.36703800
_cell_formula_units_Z   2
loop_
 _symmetry_equiv_pos_site_id
 _symmetry_equiv_pos_as_xyz
  1  'x, y, z'
loop_
 _atom_site_type_symbol
 _atom_site_label
 _atom_site_symmetry_multiplicity
 _atom_site_fract_x
 _atom_site_fract_y
 _atom_site_fract_z
 _atom_site_occupancy
  Zn  Zn0  1  0.35236000  0.50273000  0.53270000  1.0
  Zn  Zn1  1  0.64353000  0.51007000  0.50587000  1.0
  H  H2  1  0.44018000  0.93310000  0.57701000  1.0
  H  H3  1  0.86394000  0.32049000  0.38335000  1.0
  H  H4  1  0.64941000  0.53495000  0.13517000  1.0
  H  H5  1  0.87785000  0.52563000  0.08491000  1.0
  H  H6  1  0.81717000  0.49647000  0.95964000  1.0
  H  H7  1  0.80024000  0.38007000  0.04229000  1.0
  H  H8  1  0.71485000  0.78520000  0.45834000  1.0
  H  H9  1  0.84510000  0.84375000  0.33366000  1.0
  H  H10  1  0.86539000  0.99364000  0.39599000  1.0
  H  H11  1  0.72533000  0.95718000  0.31129000  1.0
  H  H12  1  0.31987000  0.14530000  0.39205000  1.0
  H  H13  1  0.10098000  0.43929000  0.57051000  1.0
  H  H14  1  0.30011000  0.96918000  0.28773000  1.0
  H  H15  1  0.35683000  0.89028000  0.39150000  1.0
  H  H16  1  0.47459000  0.94411000  0.31018000  1.0
  H  H17  1  0.24270000  0.72947000  0.55136000  1.0
  H  H18  1  0.09309000  0.87704000  0.46954000  1.0
  H  H19  1  0.09093000  0.90229000  0.60096000  1.0
  H  H20  1  0.95630000  0.81846000  0.53327000  1.0
  H  H21  1  0.33039000  0.48147000  0.89875000  1.0
  H  H22  1  0.10262000  0.48688000  0.94753000  1.0
  H  H23  1  0.17612000  0.63210000  0.99472000  1.0
  H  H24  1  0.16092000  0.51119000  0.07375000  1.0
  H  H25  1  0.01161000  0.51819000  0.40833000  1.0
  H  H26  1  0.90521000  0.39860000  0.27721000  1.0
  H  H27  1  0.74477000  0.41711000  0.32866000  1.0
  C  C28  1  0.49750000  0.27177000  0.46993000  1.0
  C  C29  1  0.51236000  0.74773000  0.55091000  1.0
  C  C30  1  0.53762000  0.46518000  0.70151000  1.0
  C  C31  1  0.55850000  0.46964000  0.80701000  1.0
  C  C32  1  0.55542000  0.50761000  0.99959000  1.0
  C  C33  1  0.42442000  0.50745000  0.03450000  1.0
  C  C34  1  0.41275000  0.52597000  0.13698000  1.0
  C  C35  1  0.56781000  0.48754000  0.89735000  1.0
  C  C36  1  0.18164000  0.53197000  0.99811000  1.0
  C  C37  1  0.85185000  0.40519000  0.34626000  1.0
  C  C38  1  0.79707000  0.47989000  0.03628000  1.0
  C  C39  1  0.42419000  0.54108000  0.22747000  1.0
  C  C40  1  0.79133000  0.92070000  0.36835000  1.0
  C  C41  1  0.37994000  0.96574000  0.34582000  1.0
  C  C42  1  0.06545000  0.83582000  0.53709000  1.0
  C  C43  1  0.61446000  0.93661000  0.49197000  1.0
  C  C44  1  0.51756000  0.87807000  0.54307000  1.0
  C  C45  1  0.61117000  0.07000000  0.48815000  1.0
  C  C46  1  0.50426000  0.13360000  0.45499000  1.0
  C  C47  1  0.08282000  0.61352000  0.55556000  1.0
  C  C48  1  0.93461000  0.59772000  0.56603000  1.0
  C  C49  1  0.45023000  0.54175000  0.33242000  1.0
  I  I50  1  0.78457000  0.15434000  0.56729000  1.0
  I  I51  1  0.87433000  0.66581000  0.70480000  1.0
  N  N52  1  0.15529000  0.51468000  0.55478000  1.0
  N  N53  1  0.85640000  0.54139000  0.49621000  1.0
  N  N54  1  0.31075000  0.48404000  0.97177000  1.0
  N  N55  1  0.90857000  0.51325000  0.40566000  1.0
  N  N56  1  0.66945000  0.53174000  0.06218000  1.0
  N  N57  1  0.71581000  0.87630000  0.44730000  1.0
  N  N58  1  0.39231000  0.08374000  0.40191000  1.0
  N  N59  1  0.13730000  0.72387000  0.54589000  1.0
  O  O60  1  0.38227000  0.31558000  0.48323000  1.0
  O  O61  1  0.60746000  0.33107000  0.46427000  1.0
  O  O62  1  0.34958000  0.54295000  0.38759000  1.0
  O  O63  1  0.57446000  0.53920000  0.36004000  1.0
  O  O64  1  0.40355000  0.69299000  0.57435000  1.0
  O  O65  1  0.62074000  0.68888000  0.53359000  1.0
  O  O66  1  0.41448000  0.46352000  0.67015000  1.0
  O  O67  1  0.64077000  0.46575000  0.64944000  1.0
