# generated using pymatgen
data_HgH9C11Br2N3O
_symmetry_space_group_name_H-M   'P 1'
_cell_length_a   8.00268000
_cell_length_b   12.24920000
_cell_length_c   13.79100000
_cell_angle_alpha   90.00000000
_cell_angle_beta   90.00000000
_cell_angle_gamma   93.97370000
_symmetry_Int_Tables_number   1
_chemical_formula_structural   HgH9C11Br2N3O
_chemical_formula_sum   'Hg4 H36 C44 Br8 N12 O4'
_cell_volume   1348.63249365
_cell_formula_units_Z   4
loop_
 _symmetry_equiv_pos_site_id
 _symmetry_equiv_pos_as_xyz
  1  'x, y, z'
loop_
 _atom_site_type_symbol
 _atom_site_label
 _atom_site_symmetry_multiplicity
 _atom_site_fract_x
 _atom_site_fract_y
 _atom_site_fract_z
 _atom_site_occupancy
  Hg  Hg0  1  0.82532000  0.68266000  0.37578000  1.0
  Hg  Hg1  1  0.67468000  0.81735000  0.87579000  1.0
  Hg  Hg2  1  0.17468000  0.31735000  0.62421000  1.0
  Hg  Hg3  1  0.32532000  0.18265000  0.12421000  1.0
  H  H4  1  0.47344000  0.70968000  0.49556000  1.0
  H  H5  1  0.02656000  0.79032000  0.99556000  1.0
  H  H6  1  0.52656000  0.29032000  0.50444000  1.0
  H  H7  1  0.97344000  0.20968000  0.00444000  1.0
  H  H8  1  0.50091000  0.00306000  0.67053000  1.0
  H  H9  1  0.99909000  0.49694000  0.17054000  1.0
  H  H10  1  0.49909000  0.99694000  0.32946000  1.0
  H  H11  1  0.00091000  0.50306000  0.82947000  1.0
  H  H12  1  0.80665000  0.03018000  0.62474000  1.0
  H  H13  1  0.69335000  0.46982000  0.12474000  1.0
  H  H14  1  0.19335000  0.96982000  0.37526000  1.0
  H  H15  1  0.30665000  0.53018000  0.87526000  1.0
  H  H16  1  0.92504000  0.89459000  0.51188000  1.0
  H  H17  1  0.57496000  0.60541000  0.01188000  1.0
  H  H18  1  0.07497000  0.10541000  0.48812000  1.0
  H  H19  1  0.42503000  0.39459000  0.98812000  1.0
  H  H20  1  0.04732000  0.55509000  0.56346000  1.0
  H  H21  1  0.45268000  0.94491000  0.06346000  1.0
  H  H22  1  0.95268000  0.44491000  0.43654000  1.0
  H  H23  1  0.54732000  0.05509000  0.93654000  1.0
  H  H24  1  0.76169000  0.48653000  0.62280000  1.0
  H  H25  1  0.73831000  0.01347000  0.12279000  1.0
  H  H26  1  0.23831000  0.51347000  0.37721000  1.0
  H  H27  1  0.26169000  0.98653000  0.87720000  1.0
  H  H28  1  0.61628000  0.59991000  0.74385000  1.0
  H  H29  1  0.88372000  0.90010000  0.24385000  1.0
  H  H30  1  0.38372000  0.40010000  0.25615000  1.0
  H  H31  1  0.11628000  0.09991000  0.75615000  1.0
  H  H32  1  0.01060000  0.83903000  0.74535000  1.0
  H  H33  1  0.48940000  0.66098000  0.24535000  1.0
  H  H34  1  0.98941000  0.16098000  0.25465000  1.0
  H  H35  1  0.51060000  0.33902000  0.75465000  1.0
  H  H36  1  0.28536000  0.67344000  0.60058000  1.0
  H  H37  1  0.21464000  0.82656000  0.10058000  1.0
  H  H38  1  0.71464000  0.32656000  0.39942000  1.0
  H  H39  1  0.78536000  0.17344000  0.89943000  1.0
  C  C40  1  0.54092000  0.78208000  0.52667000  1.0
  C  C41  1  0.95908000  0.71792000  0.02667000  1.0
  C  C42  1  0.45908000  0.21792000  0.47333000  1.0
  C  C43  1  0.04091000  0.28208000  0.97334000  1.0
  C  C44  1  0.46382000  0.85390000  0.58855000  1.0
  C  C45  1  0.03618000  0.64610000  0.08855000  1.0
  C  C46  1  0.53618000  0.14610000  0.41145000  1.0
  C  C47  1  0.96382000  0.35390000  0.91145000  1.0
  C  C48  1  0.56007000  0.94569000  0.62327000  1.0
  C  C49  1  0.93993000  0.55431000  0.12327000  1.0
  C  C50  1  0.43994000  0.05431000  0.37673000  1.0
  C  C51  1  0.06006000  0.44569000  0.87673000  1.0
  C  C52  1  0.72788000  0.96077000  0.59752000  1.0
  C  C53  1  0.77211000  0.53923000  0.09752000  1.0
  C  C54  1  0.27212000  0.03923000  0.40248000  1.0
  C  C55  1  0.22788000  0.46077000  0.90248000  1.0
  C  C56  1  0.79432000  0.88570000  0.53482000  1.0
  C  C57  1  0.70568000  0.61430000  0.03482000  1.0
  C  C58  1  0.20568000  0.11430000  0.46518000  1.0
  C  C59  1  0.29432000  0.38570000  0.96518000  1.0
  C  C60  1  0.28319000  0.84102000  0.61802000  1.0
  C  C61  1  0.21680000  0.65898000  0.11801000  1.0
  C  C62  1  0.71681000  0.15898000  0.38198000  1.0
  C  C63  1  0.78319000  0.34102000  0.88199000  1.0
  C  C64  1  0.05161000  0.70170000  0.64998000  1.0
  C  C65  1  0.44839000  0.79830000  0.14998000  1.0
  C  C66  1  0.94839000  0.29830000  0.35002000  1.0
  C  C67  1  0.55161000  0.20170000  0.85002000  1.0
  C  C68  1  0.97845000  0.60182000  0.61529000  1.0
  C  C69  1  0.52155000  0.89818000  0.11528000  1.0
  C  C70  1  0.02155000  0.39818000  0.38472000  1.0
  C  C71  1  0.47845000  0.10181000  0.88471000  1.0
  C  C72  1  0.82089000  0.56397000  0.64814000  1.0
  C  C73  1  0.67911000  0.93603000  0.14813000  1.0
  C  C74  1  0.17911000  0.43603000  0.35187000  1.0
  C  C75  1  0.32090000  0.06396000  0.85186000  1.0
  C  C76  1  0.73919000  0.62661000  0.71515000  1.0
  C  C77  1  0.76081000  0.87339000  0.21514000  1.0
  C  C78  1  0.26081000  0.37339000  0.28485000  1.0
  C  C79  1  0.23919000  0.12661000  0.78485000  1.0
  C  C80  1  0.96098000  0.76065000  0.71667000  1.0
  C  C81  1  0.53902000  0.73936000  0.21667000  1.0
  C  C82  1  0.03902000  0.23935000  0.28333000  1.0
  C  C83  1  0.46098000  0.26065000  0.78333000  1.0
  Br  Br84  1  0.61902000  0.51416000  0.38515000  1.0
  Br  Br85  1  0.88099000  0.98584000  0.88515000  1.0
  Br  Br86  1  0.38099000  0.48584000  0.61485000  1.0
  Br  Br87  1  0.11901000  0.01416000  0.11485000  1.0
  Br  Br88  1  0.13350000  0.74427000  0.36770000  1.0
  Br  Br89  1  0.36651000  0.75573000  0.86771000  1.0
  Br  Br90  1  0.86651000  0.25572000  0.63230000  1.0
  Br  Br91  1  0.63349000  0.24427000  0.13229000  1.0
  N  N92  1  0.70211000  0.79877000  0.49977000  1.0
  N  N93  1  0.79789000  0.70123000  0.99976000  1.0
  N  N94  1  0.29789000  0.20123000  0.50024000  1.0
  N  N95  1  0.20210000  0.29877000  0.00024000  1.0
  N  N96  1  0.80915000  0.72240000  0.74771000  1.0
  N  N97  1  0.69085000  0.77760000  0.24771000  1.0
  N  N98  1  0.19086000  0.27760000  0.25229000  1.0
  N  N99  1  0.30915000  0.22240000  0.75229000  1.0
  N  N100  1  0.21350000  0.73588000  0.61990000  1.0
  N  N101  1  0.28650000  0.76411000  0.11990000  1.0
  N  N102  1  0.78650000  0.26411000  0.38010000  1.0
  N  N103  1  0.71350000  0.23588000  0.88010000  1.0
  O  O104  1  0.20590000  0.92185000  0.63934000  1.0
  O  O105  1  0.29411000  0.57814000  0.13934000  1.0
  O  O106  1  0.79411000  0.07814000  0.36066000  1.0
  O  O107  1  0.70589000  0.42185000  0.86066000  1.0
