# generated using pymatgen
data_CdH12C14S2(N3O)2
_symmetry_space_group_name_H-M   'P 1'
_cell_length_a   7.87263000
_cell_length_b   9.54045000
_cell_length_c   12.38204176
_cell_angle_alpha   67.33699520
_cell_angle_beta   84.86187105
_cell_angle_gamma   90.00510000
_symmetry_Int_Tables_number   1
_chemical_formula_structural   CdH12C14S2(N3O)2
_chemical_formula_sum   'Cd2 H24 C28 S4 N12 O4'
_cell_volume   854.13381502
_cell_formula_units_Z   2
loop_
 _symmetry_equiv_pos_site_id
 _symmetry_equiv_pos_as_xyz
  1  'x, y, z'
loop_
 _atom_site_type_symbol
 _atom_site_label
 _atom_site_symmetry_multiplicity
 _atom_site_fract_x
 _atom_site_fract_y
 _atom_site_fract_z
 _atom_site_occupancy
  Cd  Cd0  1  0.00000000  0.00000000  0.50000000  1.0
  Cd  Cd1  1  0.50000000  0.50000000  0.50000000  1.0
  H  H2  1  0.92233000  0.80966000  0.34819000  1.0
  H  H3  1  0.42274000  0.84176000  0.34831000  1.0
  H  H4  1  0.07766000  0.19034000  0.65182000  1.0
  H  H5  1  0.57726000  0.15823000  0.65169000  1.0
  H  H6  1  0.76714000  0.81745000  0.17695000  1.0
  H  H7  1  0.26742000  0.00542000  0.17721000  1.0
  H  H8  1  0.23285000  0.18255000  0.82306000  1.0
  H  H9  1  0.73259000  0.99457000  0.82280000  1.0
  H  H10  1  0.60761000  0.05432000  0.07053000  1.0
  H  H11  1  0.10782000  0.87522000  0.07072000  1.0
  H  H12  1  0.39239000  0.94567000  0.92948000  1.0
  H  H13  1  0.89217000  0.12477000  0.92929000  1.0
  H  H14  1  0.78363000  0.24321000  0.30664000  1.0
  H  H15  1  0.28361000  0.44993000  0.30661000  1.0
  H  H16  1  0.21637000  0.75678000  0.69337000  1.0
  H  H17  1  0.71640000  0.55007000  0.69338000  1.0
  H  H18  1  0.68809000  0.43703000  0.19428000  1.0
  H  H19  1  0.18806000  0.36873000  0.19422000  1.0
  H  H20  1  0.31192000  0.56297000  0.80572000  1.0
  H  H21  1  0.81193000  0.63127000  0.80578000  1.0
  H  H22  1  0.56655000  0.53294000  0.07566000  1.0
  H  H23  1  0.06642000  0.39144000  0.07568000  1.0
  H  H24  1  0.43346000  0.46706000  0.92434000  1.0
  H  H25  1  0.93358000  0.60857000  0.92431000  1.0
  C  C26  1  0.62361000  0.79204000  0.57002000  1.0
  C  C27  1  0.12348000  0.63796000  0.57004000  1.0
  C  C28  1  0.37639000  0.20795000  0.42997000  1.0
  C  C29  1  0.87652000  0.36204000  0.42995000  1.0
  C  C30  1  0.85454000  0.90947000  0.29729000  1.0
  C  C31  1  0.35479000  0.79293000  0.29744000  1.0
  C  C32  1  0.14546000  0.09053000  0.70272000  1.0
  C  C33  1  0.64520000  0.20706000  0.70256000  1.0
  C  C34  1  0.76695000  0.91431000  0.20306000  1.0
  C  C35  1  0.26716000  0.88246000  0.20329000  1.0
  C  C36  1  0.23305000  0.08570000  0.79694000  1.0
  C  C37  1  0.73283000  0.11753000  0.79672000  1.0
  C  C38  1  0.68013000  0.04415000  0.14391000  1.0
  C  C39  1  0.18031000  0.81189000  0.14408000  1.0
  C  C40  1  0.31988000  0.95585000  0.85609000  1.0
  C  C41  1  0.81969000  0.18811000  0.85592000  1.0
  C  C42  1  0.68485000  0.16699000  0.17886000  1.0
  C  C43  1  0.18498000  0.65410000  0.17890000  1.0
  C  C44  1  0.31516000  0.83301000  0.82114000  1.0
  C  C45  1  0.81501000  0.34589000  0.82111000  1.0
  C  C46  1  0.77598000  0.15272000  0.27394000  1.0
  C  C47  1  0.27612000  0.57316000  0.27392000  1.0
  C  C48  1  0.22403000  0.84728000  0.72607000  1.0
  C  C49  1  0.72388000  0.42684000  0.72608000  1.0
  C  C50  1  0.59542000  0.30730000  0.10946000  1.0
  C  C51  1  0.09544000  0.58335000  0.10946000  1.0
  C  C52  1  0.40459000  0.69270000  0.89054000  1.0
  C  C53  1  0.90456000  0.41666000  0.89053000  1.0
  S  S54  1  0.70354000  0.87894000  0.64539000  1.0
  S  S55  1  0.20358000  0.47579000  0.64540000  1.0
  S  S56  1  0.29646000  0.12106000  0.35460000  1.0
  S  S57  1  0.79643000  0.52421000  0.35459000  1.0
  N  N58  1  0.06476000  0.75594000  0.51626000  1.0
  N  N59  1  0.56500000  0.72781000  0.51624000  1.0
  N  N60  1  0.93524000  0.24406000  0.48374000  1.0
  N  N61  1  0.43502000  0.27220000  0.48375000  1.0
  N  N62  1  0.85874000  0.02674000  0.33196000  1.0
  N  N63  1  0.35887000  0.64100000  0.33202000  1.0
  N  N64  1  0.14125000  0.97325000  0.66805000  1.0
  N  N65  1  0.64112000  0.35900000  0.66797000  1.0
  N  N66  1  0.61289000  0.43211000  0.13298000  1.0
  N  N67  1  0.11283000  0.43499000  0.13296000  1.0
  N  N68  1  0.38711000  0.56790000  0.86702000  1.0
  N  N69  1  0.88717000  0.56502000  0.86703000  1.0
  O  O70  1  0.50921000  0.30353000  0.02998000  1.0
  O  O71  1  0.00931000  0.66667000  0.02997000  1.0
  O  O72  1  0.49080000  0.69647000  0.97002000  1.0
  O  O73  1  0.99069000  0.33334000  0.97002000  1.0
