# generated using pymatgen
data_CuH10(C9O2)2
_symmetry_space_group_name_H-M   'P 1'
_cell_length_a   23.42980298
_cell_length_b   23.42980000
_cell_length_c   23.43000000
_cell_angle_alpha   109.47100000
_cell_angle_beta   109.47100516
_cell_angle_gamma   109.47131349
_symmetry_Int_Tables_number   1
_chemical_formula_structural   CuH10(C9O2)2
_chemical_formula_sum   'Cu12 H120 C216 O48'
_cell_volume   9901.23699101
_cell_formula_units_Z   12
loop_
 _symmetry_equiv_pos_site_id
 _symmetry_equiv_pos_as_xyz
  1  'x, y, z'
loop_
 _atom_site_type_symbol
 _atom_site_label
 _atom_site_symmetry_multiplicity
 _atom_site_fract_x
 _atom_site_fract_y
 _atom_site_fract_z
 _atom_site_occupancy
  Cu  Cu0  1  0.50000000  0.14612000  0.64613000  1.0
  Cu  Cu1  1  0.50000000  0.23627000  0.73627000  1.0
  Cu  Cu2  1  0.50000000  0.85388000  0.35387000  1.0
  Cu  Cu3  1  0.50000000  0.76373000  0.26373000  1.0
  Cu  Cu4  1  0.35387000  0.50000000  0.85387000  1.0
  Cu  Cu5  1  0.26373000  0.50000000  0.76373000  1.0
  Cu  Cu6  1  0.64613000  0.50001000  0.14613000  1.0
  Cu  Cu7  1  0.73627000  0.50000000  0.23627000  1.0
  Cu  Cu8  1  0.85387000  0.35387000  0.50000000  1.0
  Cu  Cu9  1  0.76373000  0.26373000  0.50000000  1.0
  Cu  Cu10  1  0.14613000  0.64613000  0.50000000  1.0
  Cu  Cu11  1  0.23627000  0.73627000  0.50000000  1.0
  H  H12  1  0.52456000  0.01539000  0.73769000  1.0
  H  H13  1  0.55571000  0.97229000  0.82084000  1.0
  H  H14  1  0.55630000  0.13801000  0.97408000  1.0
  H  H15  1  0.52574000  0.18048000  0.89095000  1.0
  H  H16  1  0.50823000  0.91722000  0.87211000  1.0
  H  H17  1  0.27770000  0.78687000  0.26231000  1.0
  H  H18  1  0.15145000  0.73487000  0.17916000  1.0
  H  H19  1  0.16393000  0.58222000  0.02592000  1.0
  H  H20  1  0.28953000  0.63479000  0.10905000  1.0
  H  H21  1  0.04511000  0.63612000  0.12789000  1.0
  H  H22  1  0.72229000  0.98461000  0.50917000  1.0
  H  H23  1  0.84855000  0.02771000  0.58342000  1.0
  H  H24  1  0.83607000  0.86200000  0.41829000  1.0
  H  H25  1  0.71047000  0.81952000  0.34526000  1.0
  H  H26  1  0.95488000  0.08278000  0.59100000  1.0
  H  H27  1  0.47544000  0.21312000  0.49083000  1.0
  H  H28  1  0.44429000  0.26513000  0.41658000  1.0
  H  H29  1  0.44370000  0.41777000  0.58170000  1.0
  H  H30  1  0.47426000  0.36521000  0.65474000  1.0
  H  H31  1  0.49178000  0.36388000  0.40900000  1.0
  H  H32  1  0.50917000  0.72229000  0.98461000  1.0
  H  H33  1  0.58342000  0.84855000  0.02771000  1.0
  H  H34  1  0.41829000  0.83607000  0.86199000  1.0
  H  H35  1  0.34526000  0.71047000  0.81952000  1.0
  H  H36  1  0.59101000  0.95489000  0.08279000  1.0
  H  H37  1  0.49083000  0.47544000  0.21312000  1.0
  H  H38  1  0.41658000  0.44429000  0.26513000  1.0
  H  H39  1  0.58171000  0.44371000  0.41778000  1.0
  H  H40  1  0.65474000  0.47426000  0.36521000  1.0
  H  H41  1  0.40899000  0.49177000  0.36388000  1.0
  H  H42  1  0.73768000  0.52456000  0.01539000  1.0
  H  H43  1  0.82084000  0.55571000  0.97229000  1.0
  H  H44  1  0.97407000  0.55629000  0.13800000  1.0
  H  H45  1  0.89095000  0.52574000  0.18048000  1.0
  H  H46  1  0.87210000  0.50822000  0.91721000  1.0
  H  H47  1  0.26232000  0.27771000  0.78688000  1.0
  H  H48  1  0.17915000  0.15144000  0.73486000  1.0
  H  H49  1  0.02593000  0.16394000  0.58223000  1.0
  H  H50  1  0.10905000  0.28953000  0.63479000  1.0
  H  H51  1  0.12790000  0.04512000  0.63613000  1.0
  H  H52  1  0.78688000  0.26232000  0.27771000  1.0
  H  H53  1  0.73487000  0.17916000  0.15145000  1.0
  H  H54  1  0.58223000  0.02593000  0.16394000  1.0
  H  H55  1  0.63479000  0.10905000  0.28953000  1.0
  H  H56  1  0.63612000  0.12790000  0.04511000  1.0
  H  H57  1  0.01539000  0.73768000  0.52456000  1.0
  H  H58  1  0.97229000  0.82084000  0.55571000  1.0
  H  H59  1  0.13800000  0.97407000  0.55629000  1.0
  H  H60  1  0.18048000  0.89095000  0.52574000  1.0
  H  H61  1  0.91722000  0.87211000  0.50823000  1.0
  H  H62  1  0.21312000  0.49083000  0.47544000  1.0
  H  H63  1  0.26513000  0.41658000  0.44428000  1.0
  H  H64  1  0.41778000  0.58171000  0.44371000  1.0
  H  H65  1  0.36521000  0.65474000  0.47426000  1.0
  H  H66  1  0.36388000  0.40899000  0.49178000  1.0
  H  H67  1  0.98461000  0.50917000  0.72229000  1.0
  H  H68  1  0.02771000  0.58342000  0.84855000  1.0
  H  H69  1  0.86200000  0.41830000  0.83607000  1.0
  H  H70  1  0.81952000  0.34526000  0.71047000  1.0
  H  H71  1  0.08278000  0.59100000  0.95488000  1.0
  H  H72  1  0.47544000  0.98461000  0.26231000  1.0
  H  H73  1  0.44429000  0.02771000  0.17916000  1.0
  H  H74  1  0.44370000  0.86199000  0.02592000  1.0
  H  H75  1  0.47426000  0.81952000  0.10905000  1.0
  H  H76  1  0.49177000  0.08278000  0.12789000  1.0
  H  H77  1  0.72230000  0.21313000  0.73769000  1.0
  H  H78  1  0.84855000  0.26513000  0.82084000  1.0
  H  H79  1  0.83607000  0.41778000  0.97408000  1.0
  H  H80  1  0.71047000  0.36521000  0.89095000  1.0
  H  H81  1  0.95489000  0.36388000  0.87211000  1.0
  H  H82  1  0.27771000  0.01539000  0.49083000  1.0
  H  H83  1  0.15145000  0.97229000  0.41658000  1.0
  H  H84  1  0.16393000  0.13800000  0.58171000  1.0
  H  H85  1  0.28953000  0.18048000  0.65474000  1.0
  H  H86  1  0.04512000  0.91722000  0.40900000  1.0
  H  H87  1  0.52456000  0.78688000  0.50917000  1.0
  H  H88  1  0.55571000  0.73487000  0.58342000  1.0
  H  H89  1  0.55630000  0.58223000  0.41830000  1.0
  H  H90  1  0.52574000  0.63479000  0.34526000  1.0
  H  H91  1  0.50822000  0.63612000  0.59100000  1.0
  H  H92  1  0.49083000  0.27771000  0.01539000  1.0
  H  H93  1  0.41658000  0.15145000  0.97229000  1.0
  H  H94  1  0.58171000  0.16393000  0.13801000  1.0
  H  H95  1  0.65474000  0.28953000  0.18048000  1.0
  H  H96  1  0.40899000  0.04511000  0.91721000  1.0
  H  H97  1  0.50917000  0.52456000  0.78687000  1.0
  H  H98  1  0.58342000  0.55571000  0.73487000  1.0
  H  H99  1  0.41829000  0.55629000  0.58222000  1.0
  H  H100  1  0.34526000  0.52574000  0.63479000  1.0
  H  H101  1  0.59101000  0.50823000  0.63613000  1.0
  H  H102  1  0.26232000  0.47544000  0.98461000  1.0
  H  H103  1  0.17916000  0.44429000  0.02771000  1.0
  H  H104  1  0.02593000  0.44371000  0.86200000  1.0
  H  H105  1  0.10905000  0.47426000  0.81952000  1.0
  H  H106  1  0.12790000  0.49178000  0.08279000  1.0
  H  H107  1  0.73768000  0.72229000  0.21312000  1.0
  H  H108  1  0.82085000  0.84856000  0.26514000  1.0
  H  H109  1  0.97407000  0.83607000  0.41777000  1.0
  H  H110  1  0.89095000  0.71047000  0.36521000  1.0
  H  H111  1  0.87210000  0.95488000  0.36387000  1.0
  H  H112  1  0.21312000  0.73768000  0.72229000  1.0
  H  H113  1  0.26513000  0.82084000  0.84855000  1.0
  H  H114  1  0.41778000  0.97408000  0.83607000  1.0
  H  H115  1  0.36521000  0.89095000  0.71047000  1.0
  H  H116  1  0.36388000  0.87210000  0.95489000  1.0
  H  H117  1  0.98461000  0.26232000  0.47544000  1.0
  H  H118  1  0.02771000  0.17916000  0.44429000  1.0
  H  H119  1  0.86200000  0.02593000  0.44371000  1.0
  H  H120  1  0.81952000  0.10905000  0.47426000  1.0
  H  H121  1  0.08278000  0.12789000  0.49177000  1.0
  H  H122  1  0.78688000  0.50917000  0.52456000  1.0
  H  H123  1  0.73487000  0.58342000  0.55572000  1.0
  H  H124  1  0.58222000  0.41829000  0.55629000  1.0
  H  H125  1  0.63479000  0.34526000  0.52574000  1.0
  H  H126  1  0.63612000  0.59101000  0.50822000  1.0
  H  H127  1  0.01539000  0.49083000  0.27771000  1.0
  H  H128  1  0.97229000  0.41658000  0.15145000  1.0
  H  H129  1  0.13800000  0.58170000  0.16393000  1.0
  H  H130  1  0.18048000  0.65474000  0.28953000  1.0
  H  H131  1  0.91722000  0.40900000  0.04512000  1.0
  C  C132  1  0.50691000  0.12871000  0.76137000  1.0
  C  C133  1  0.52277000  0.10024000  0.80908000  1.0
  C  C134  1  0.53126000  0.04149000  0.78953000  1.0
  C  C135  1  0.54874000  0.01773000  0.83631000  1.0
  C  C136  1  0.55855000  0.05214000  0.90371000  1.0
  C  C137  1  0.55047000  0.11139000  0.92278000  1.0
  C  C138  1  0.53253000  0.13497000  0.87615000  1.0
  C  C139  1  0.57269000  0.02559000  0.95288000  1.0
  C  C140  1  0.54084000  0.95353000  0.92820000  1.0
  C  C141  1  0.36733000  0.74553000  0.23862000  1.0
  C  C142  1  0.29117000  0.71370000  0.19093000  1.0
  C  C143  1  0.25196000  0.74173000  0.21047000  1.0
  C  C144  1  0.18141000  0.71242000  0.16369000  1.0
  C  C145  1  0.14843000  0.65484000  0.09630000  1.0
  C  C146  1  0.18861000  0.62769000  0.07722000  1.0
  C  C147  1  0.25882000  0.65638000  0.12385000  1.0
  C  C148  1  0.07271000  0.61981000  0.04712000  1.0
  C  C149  1  0.02532000  0.61263000  0.07179000  1.0
  C  C150  1  0.63266000  0.87129000  0.37820000  1.0
  C  C151  1  0.70883000  0.89975000  0.42252000  1.0
  C  C152  1  0.74804000  0.95851000  0.48977000  1.0
  C  C153  1  0.81859000  0.98228000  0.53102000  1.0
  C  C154  1  0.85157000  0.94787000  0.50641000  1.0
  C  C155  1  0.81139000  0.88861000  0.43908000  1.0
  C  C156  1  0.74118000  0.86503000  0.39756000  1.0
  C  C157  1  0.92729000  0.97441000  0.54710000  1.0
  C  C158  1  0.97468000  0.04648000  0.58732000  1.0
  C  C159  1  0.49309000  0.25446000  0.62180000  1.0
  C  C160  1  0.47723000  0.28631000  0.57747000  1.0
  C  C161  1  0.46874000  0.25827000  0.51023000  1.0
  C  C162  1  0.45126000  0.28757000  0.46898000  1.0
  C  C163  1  0.44146000  0.34517000  0.49359000  1.0
  C  C164  1  0.44953000  0.37231000  0.56092000  1.0
  C  C165  1  0.46747000  0.34362000  0.60244000  1.0
  C  C166  1  0.42731000  0.38019000  0.45290000  1.0
  C  C167  1  0.45916000  0.38737000  0.41269000  1.0
  C  C168  1  0.37820000  0.63266000  0.87129000  1.0
  C  C169  1  0.42253000  0.70884000  0.89976000  1.0
  C  C170  1  0.48977000  0.74804000  0.95851000  1.0
  C  C171  1  0.53101000  0.81858000  0.98227000  1.0
  C  C172  1  0.50641000  0.85157000  0.94787000  1.0
  C  C173  1  0.43908000  0.81139000  0.88861000  1.0
  C  C174  1  0.39756000  0.74118000  0.86503000  1.0
  C  C175  1  0.54710000  0.92729000  0.97441000  1.0
  C  C176  1  0.58731000  0.97468000  0.04647000  1.0
  C  C177  1  0.62180000  0.49309000  0.25446000  1.0
  C  C178  1  0.57747000  0.47723000  0.28630000  1.0
  C  C179  1  0.51023000  0.46874000  0.25827000  1.0
  C  C180  1  0.46899000  0.45127000  0.28758000  1.0
  C  C181  1  0.49359000  0.44146000  0.34516000  1.0
  C  C182  1  0.56092000  0.44953000  0.37231000  1.0
  C  C183  1  0.60244000  0.46747000  0.34362000  1.0
  C  C184  1  0.45290000  0.42731000  0.38019000  1.0
  C  C185  1  0.41269000  0.45916000  0.38737000  1.0
  C  C186  1  0.76137000  0.50691000  0.12870000  1.0
  C  C187  1  0.80908000  0.52277000  0.10025000  1.0
  C  C188  1  0.78953000  0.53126000  0.04149000  1.0
  C  C189  1  0.83631000  0.54874000  0.01772000  1.0
  C  C190  1  0.90370000  0.55854000  0.05213000  1.0
  C  C191  1  0.92278000  0.55047000  0.11139000  1.0
  C  C192  1  0.87615000  0.53253000  0.13497000  1.0
  C  C193  1  0.95288000  0.57269000  0.02559000  1.0
  C  C194  1  0.92821000  0.54085000  0.95353000  1.0
  C  C195  1  0.23863000  0.36734000  0.74554000  1.0
  C  C196  1  0.19092000  0.29116000  0.71369000  1.0
  C  C197  1  0.21047000  0.25196000  0.74173000  1.0
  C  C198  1  0.16369000  0.18141000  0.71243000  1.0
  C  C199  1  0.09629000  0.14842000  0.65484000  1.0
  C  C200  1  0.07722000  0.18861000  0.62769000  1.0
  C  C201  1  0.12385000  0.25882000  0.65638000  1.0
  C  C202  1  0.04712000  0.07271000  0.61981000  1.0
  C  C203  1  0.07179000  0.02532000  0.61263000  1.0
  C  C204  1  0.74554000  0.23863000  0.36734000  1.0
  C  C205  1  0.71369000  0.19092000  0.29116000  1.0
  C  C206  1  0.74173000  0.21047000  0.25196000  1.0
  C  C207  1  0.71243000  0.16369000  0.18142000  1.0
  C  C208  1  0.65484000  0.09630000  0.14843000  1.0
  C  C209  1  0.62769000  0.07722000  0.18861000  1.0
  C  C210  1  0.65638000  0.12385000  0.25882000  1.0
  C  C211  1  0.61981000  0.04712000  0.07271000  1.0
  C  C212  1  0.61264000  0.07180000  0.02533000  1.0
  C  C213  1  0.12871000  0.76137000  0.50691000  1.0
  C  C214  1  0.10024000  0.80907000  0.52277000  1.0
  C  C215  1  0.04149000  0.78953000  0.53126000  1.0
  C  C216  1  0.01772000  0.83631000  0.54873000  1.0
  C  C217  1  0.05213000  0.90370000  0.55854000  1.0
  C  C218  1  0.11139000  0.92278000  0.55047000  1.0
  C  C219  1  0.13497000  0.87615000  0.53253000  1.0
  C  C220  1  0.02559000  0.95288000  0.57269000  1.0
  C  C221  1  0.95353000  0.92821000  0.54084000  1.0
  C  C222  1  0.25446000  0.62179000  0.49309000  1.0
  C  C223  1  0.28631000  0.57748000  0.47723000  1.0
  C  C224  1  0.25827000  0.51023000  0.46874000  1.0
  C  C225  1  0.28757000  0.46898000  0.45126000  1.0
  C  C226  1  0.34516000  0.49359000  0.44145000  1.0
  C  C227  1  0.37231000  0.56092000  0.44953000  1.0
  C  C228  1  0.34362000  0.60244000  0.46747000  1.0
  C  C229  1  0.38019000  0.45290000  0.42731000  1.0
  C  C230  1  0.38736000  0.41268000  0.45915000  1.0
  C  C231  1  0.87129000  0.37820000  0.63266000  1.0
  C  C232  1  0.89976000  0.42253000  0.70884000  1.0
  C  C233  1  0.95851000  0.48977000  0.74804000  1.0
  C  C234  1  0.98228000  0.53102000  0.81859000  1.0
  C  C235  1  0.94787000  0.50641000  0.85157000  1.0
  C  C236  1  0.88861000  0.43908000  0.81139000  1.0
  C  C237  1  0.86503000  0.39756000  0.74118000  1.0
  C  C238  1  0.97441000  0.54710000  0.92729000  1.0
  C  C239  1  0.04647000  0.58731000  0.97467000  1.0
  C  C240  1  0.49309000  0.87129000  0.23863000  1.0
  C  C241  1  0.47723000  0.89976000  0.19092000  1.0
  C  C242  1  0.46874000  0.95851000  0.21047000  1.0
  C  C243  1  0.45126000  0.98227000  0.16369000  1.0
  C  C244  1  0.44145000  0.94786000  0.09629000  1.0
  C  C245  1  0.44953000  0.88861000  0.07722000  1.0
  C  C246  1  0.46747000  0.86503000  0.12385000  1.0
  C  C247  1  0.42731000  0.97441000  0.04712000  1.0
  C  C248  1  0.45916000  0.04647000  0.07180000  1.0
  C  C249  1  0.63267000  0.25447000  0.76138000  1.0
  C  C250  1  0.70883000  0.28630000  0.80907000  1.0
  C  C251  1  0.74804000  0.25827000  0.78953000  1.0
  C  C252  1  0.81859000  0.28757000  0.83631000  1.0
  C  C253  1  0.85157000  0.34516000  0.90370000  1.0
  C  C254  1  0.81139000  0.37231000  0.92278000  1.0
  C  C255  1  0.74118000  0.34362000  0.87615000  1.0
  C  C256  1  0.92729000  0.38019000  0.95288000  1.0
  C  C257  1  0.97468000  0.38737000  0.92821000  1.0
  C  C258  1  0.36734000  0.12871000  0.62180000  1.0
  C  C259  1  0.29117000  0.10025000  0.57748000  1.0
  C  C260  1  0.25196000  0.04149000  0.51023000  1.0
  C  C261  1  0.18141000  0.01772000  0.46898000  1.0
  C  C262  1  0.14843000  0.05214000  0.49359000  1.0
  C  C263  1  0.18861000  0.11139000  0.56092000  1.0
  C  C264  1  0.25882000  0.13497000  0.60244000  1.0
  C  C265  1  0.07271000  0.02559000  0.45290000  1.0
  C  C266  1  0.02532000  0.95352000  0.41268000  1.0
  C  C267  1  0.50691000  0.74554000  0.37820000  1.0
  C  C268  1  0.52277000  0.71369000  0.42253000  1.0
  C  C269  1  0.53126000  0.74173000  0.48977000  1.0
  C  C270  1  0.54874000  0.71243000  0.53102000  1.0
  C  C271  1  0.55854000  0.65483000  0.50641000  1.0
  C  C272  1  0.55047000  0.62769000  0.43908000  1.0
  C  C273  1  0.53253000  0.65638000  0.39756000  1.0
  C  C274  1  0.57269000  0.61981000  0.54710000  1.0
  C  C275  1  0.54084000  0.61263000  0.58731000  1.0
  C  C276  1  0.62180000  0.36734000  0.12871000  1.0
  C  C277  1  0.57747000  0.29116000  0.10024000  1.0
  C  C278  1  0.51023000  0.25196000  0.04149000  1.0
  C  C279  1  0.46899000  0.18142000  0.01773000  1.0
  C  C280  1  0.49359000  0.14843000  0.05213000  1.0
  C  C281  1  0.56092000  0.18861000  0.11139000  1.0
  C  C282  1  0.60244000  0.25882000  0.13497000  1.0
  C  C283  1  0.45290000  0.07271000  0.02559000  1.0
  C  C284  1  0.41269000  0.02532000  0.95353000  1.0
  C  C285  1  0.37820000  0.50691000  0.74553000  1.0
  C  C286  1  0.42253000  0.52277000  0.71370000  1.0
  C  C287  1  0.48977000  0.53126000  0.74173000  1.0
  C  C288  1  0.53101000  0.54873000  0.71242000  1.0
  C  C289  1  0.50641000  0.55854000  0.65484000  1.0
  C  C290  1  0.43908000  0.55047000  0.62769000  1.0
  C  C291  1  0.39756000  0.53253000  0.65638000  1.0
  C  C292  1  0.54710000  0.57269000  0.61981000  1.0
  C  C293  1  0.58731000  0.54084000  0.61263000  1.0
  C  C294  1  0.23863000  0.49309000  0.87130000  1.0
  C  C295  1  0.19092000  0.47723000  0.89975000  1.0
  C  C296  1  0.21047000  0.46874000  0.95851000  1.0
  C  C297  1  0.16369000  0.45126000  0.98228000  1.0
  C  C298  1  0.09629000  0.44145000  0.94786000  1.0
  C  C299  1  0.07722000  0.44953000  0.88861000  1.0
  C  C300  1  0.12385000  0.46747000  0.86503000  1.0
  C  C301  1  0.04712000  0.42731000  0.97441000  1.0
  C  C302  1  0.07179000  0.45915000  0.04647000  1.0
  C  C303  1  0.76137000  0.63266000  0.25446000  1.0
  C  C304  1  0.80908000  0.70884000  0.28631000  1.0
  C  C305  1  0.78953000  0.74804000  0.25827000  1.0
  C  C306  1  0.83631000  0.81859000  0.28757000  1.0
  C  C307  1  0.90371000  0.85158000  0.34516000  1.0
  C  C308  1  0.92278000  0.81139000  0.37231000  1.0
  C  C309  1  0.87615000  0.74118000  0.34362000  1.0
  C  C310  1  0.95288000  0.92729000  0.38019000  1.0
  C  C311  1  0.92821000  0.97468000  0.38737000  1.0
  C  C312  1  0.25446000  0.76137000  0.63266000  1.0
  C  C313  1  0.28631000  0.80908000  0.70884000  1.0
  C  C314  1  0.25827000  0.78953000  0.74804000  1.0
  C  C315  1  0.28757000  0.83631000  0.81858000  1.0
  C  C316  1  0.34516000  0.90370000  0.85157000  1.0
  C  C317  1  0.37231000  0.92278000  0.81139000  1.0
  C  C318  1  0.34362000  0.87615000  0.74118000  1.0
  C  C319  1  0.38019000  0.95288000  0.92729000  1.0
  C  C320  1  0.38736000  0.92820000  0.97467000  1.0
  C  C321  1  0.87129000  0.23863000  0.49309000  1.0
  C  C322  1  0.89976000  0.19093000  0.47723000  1.0
  C  C323  1  0.95851000  0.21047000  0.46874000  1.0
  C  C324  1  0.98228000  0.16369000  0.45127000  1.0
  C  C325  1  0.94787000  0.09630000  0.44146000  1.0
  C  C326  1  0.88861000  0.07722000  0.44953000  1.0
  C  C327  1  0.86503000  0.12385000  0.46747000  1.0
  C  C328  1  0.97441000  0.04712000  0.42731000  1.0
  C  C329  1  0.04647000  0.07179000  0.45915000  1.0
  C  C330  1  0.74554000  0.37821000  0.50691000  1.0
  C  C331  1  0.71369000  0.42252000  0.52277000  1.0
  C  C332  1  0.74173000  0.48977000  0.53126000  1.0
  C  C333  1  0.71243000  0.53102000  0.54874000  1.0
  C  C334  1  0.65484000  0.50641000  0.55855000  1.0
  C  C335  1  0.62769000  0.43908000  0.55047000  1.0
  C  C336  1  0.65638000  0.39756000  0.53253000  1.0
  C  C337  1  0.61981000  0.54710000  0.57269000  1.0
  C  C338  1  0.61264000  0.58732000  0.54085000  1.0
  C  C339  1  0.12871000  0.62180000  0.36734000  1.0
  C  C340  1  0.10024000  0.57747000  0.29116000  1.0
  C  C341  1  0.04149000  0.51023000  0.25196000  1.0
  C  C342  1  0.01772000  0.46898000  0.18141000  1.0
  C  C343  1  0.05213000  0.49359000  0.14842000  1.0
  C  C344  1  0.11139000  0.56092000  0.18861000  1.0
  C  C345  1  0.13497000  0.60244000  0.25882000  1.0
  C  C346  1  0.02559000  0.45290000  0.07271000  1.0
  C  C347  1  0.95353000  0.41269000  0.02533000  1.0
  O  O348  1  0.50197000  0.09853000  0.70179000  1.0
  O  O349  1  0.50112000  0.18305000  0.78494000  1.0
  O  O350  1  0.39674000  0.80018000  0.29821000  1.0
  O  O351  1  0.39810000  0.71618000  0.21505000  1.0
  O  O352  1  0.60326000  0.90147000  0.40344000  1.0
  O  O353  1  0.60190000  0.81695000  0.31807000  1.0
  O  O354  1  0.49803000  0.19982000  0.59656000  1.0
  O  O355  1  0.49888000  0.28383000  0.68193000  1.0
  O  O356  1  0.40344000  0.60326000  0.90147000  1.0
  O  O357  1  0.31807000  0.60190000  0.81695000  1.0
  O  O358  1  0.59656000  0.49803000  0.19982000  1.0
  O  O359  1  0.68192000  0.49887000  0.28382000  1.0
  O  O360  1  0.70179000  0.50197000  0.09853000  1.0
  O  O361  1  0.78495000  0.50112000  0.18305000  1.0
  O  O362  1  0.29821000  0.39674000  0.80018000  1.0
  O  O363  1  0.21505000  0.39810000  0.71617000  1.0
  O  O364  1  0.80018000  0.29821000  0.39674000  1.0
  O  O365  1  0.71618000  0.21505000  0.39810000  1.0
  O  O366  1  0.09853000  0.70179000  0.50197000  1.0
  O  O367  1  0.18305000  0.78495000  0.50112000  1.0
  O  O368  1  0.19982000  0.59656000  0.49803000  1.0
  O  O369  1  0.28383000  0.68193000  0.49888000  1.0
  O  O370  1  0.90147000  0.40344000  0.60326000  1.0
  O  O371  1  0.81695000  0.31808000  0.60190000  1.0
  O  O372  1  0.49803000  0.90147000  0.29821000  1.0
  O  O373  1  0.49888000  0.81695000  0.21505000  1.0
  O  O374  1  0.60326000  0.19982000  0.70179000  1.0
  O  O375  1  0.60190000  0.28382000  0.78495000  1.0
  O  O376  1  0.39674000  0.09853000  0.59656000  1.0
  O  O377  1  0.39810000  0.18305000  0.68192000  1.0
  O  O378  1  0.50197000  0.80018000  0.40344000  1.0
  O  O379  1  0.50112000  0.71617000  0.31807000  1.0
  O  O380  1  0.59656000  0.39674000  0.09853000  1.0
  O  O381  1  0.68193000  0.39810000  0.18305000  1.0
  O  O382  1  0.40344000  0.50197000  0.80018000  1.0
  O  O383  1  0.31808000  0.50113000  0.71618000  1.0
  O  O384  1  0.29821000  0.49803000  0.90147000  1.0
  O  O385  1  0.21505000  0.49888000  0.81695000  1.0
  O  O386  1  0.70179000  0.60326000  0.19982000  1.0
  O  O387  1  0.78495000  0.60190000  0.28382000  1.0
  O  O388  1  0.19982000  0.70179000  0.60326000  1.0
  O  O389  1  0.28382000  0.78495000  0.60190000  1.0
  O  O390  1  0.90147000  0.29821000  0.49803000  1.0
  O  O391  1  0.81695000  0.21505000  0.49888000  1.0
  O  O392  1  0.80018000  0.40344000  0.50197000  1.0
  O  O393  1  0.71617000  0.31807000  0.50112000  1.0
  O  O394  1  0.09853000  0.59656000  0.39674000  1.0
  O  O395  1  0.18305000  0.68193000  0.39810000  1.0
