# generated using pymatgen
data_Zn2H19C22NO8
_symmetry_space_group_name_H-M   'P 1'
_cell_length_a   10.56120000
_cell_length_b   11.14250000
_cell_length_c   11.39650000
_cell_angle_alpha   93.26360000
_cell_angle_beta   109.67900000
_cell_angle_gamma   107.79100000
_symmetry_Int_Tables_number   1
_chemical_formula_structural   Zn2H19C22NO8
_chemical_formula_sum   'Zn4 H38 C44 N2 O16'
_cell_volume   1183.14149352
_cell_formula_units_Z   2
loop_
 _symmetry_equiv_pos_site_id
 _symmetry_equiv_pos_as_xyz
  1  'x, y, z'
loop_
 _atom_site_type_symbol
 _atom_site_label
 _atom_site_symmetry_multiplicity
 _atom_site_fract_x
 _atom_site_fract_y
 _atom_site_fract_z
 _atom_site_occupancy
  Zn  Zn0  1  0.32920000  0.21536000  0.43226000  1.0
  Zn  Zn1  1  0.67080000  0.78464000  0.56774000  1.0
  Zn  Zn2  1  0.32758000  0.06733000  0.20343000  1.0
  Zn  Zn3  1  0.67242000  0.93267000  0.79657000  1.0
  H  H4  1  0.20137000  0.31014000  0.93991000  1.0
  H  H5  1  0.79863000  0.68986000  0.06010000  1.0
  H  H6  1  0.07468000  0.42634000  0.23632000  1.0
  H  H7  1  0.92533000  0.57367000  0.76368000  1.0
  H  H8  1  0.91933000  0.56053000  0.19875000  1.0
  H  H9  1  0.08067000  0.43947000  0.80125000  1.0
  H  H10  1  0.79603000  0.17551000  0.33349000  1.0
  H  H11  1  0.20397000  0.82449000  0.66650000  1.0
  H  H12  1  0.05778000  0.29908000  0.39741000  1.0
  H  H13  1  0.94223000  0.70092000  0.60259000  1.0
  H  H14  1  0.73804000  0.49722000  0.50787000  1.0
  H  H15  1  0.26196000  0.50277000  0.49213000  1.0
  H  H16  1  0.41638000  0.50706000  0.74112000  1.0
  H  H17  1  0.58362000  0.49294000  0.25888000  1.0
  H  H18  1  0.43690000  0.16878000  0.89655000  1.0
  H  H19  1  0.56310000  0.83122000  0.10345000  1.0
  H  H20  1  0.52070000  0.28857000  0.11483000  1.0
  H  H21  1  0.47930000  0.71143000  0.88518000  1.0
  H  H22  1  0.21228000  0.90198000  0.45299000  1.0
  H  H23  1  0.78772000  0.09801000  0.54702000  1.0
  H  H24  1  0.39079000  0.96724000  0.45921000  1.0
  H  H25  1  0.60921000  0.03276000  0.54079000  1.0
  H  H26  1  0.27353000  0.74899000  0.32867000  1.0
  H  H27  1  0.72646000  0.25101000  0.67133000  1.0
  H  H28  1  0.12710000  0.79294000  0.23456000  1.0
  H  H29  1  0.87290000  0.20707000  0.76544000  1.0
  H  H30  1  0.12792000  0.77987000  0.04650000  1.0
  H  H31  1  0.87208000  0.22014000  0.95350000  1.0
  H  H32  1  0.26294000  0.71087000  0.06604000  1.0
  H  H33  1  0.73706000  0.28913000  0.93396000  1.0
  H  H34  1  0.40426000  0.89231000  0.99457000  1.0
  H  H35  1  0.59574000  0.10768000  0.00543000  1.0
  H  H36  1  0.22657000  0.82723000  0.88130000  1.0
  H  H37  1  0.77343000  0.17277000  0.11870000  1.0
  H  H38  1  0.41960000  0.87371000  0.23992000  1.0
  H  H39  1  0.58040000  0.12629000  0.76008000  1.0
  H  H40  1  0.19178000  0.00759000  0.94739000  1.0
  H  H41  1  0.80822000  0.99241000  0.05261000  1.0
  C  C42  1  0.20866000  0.27792000  0.17734000  1.0
  C  C43  1  0.79135000  0.72207000  0.82265000  1.0
  C  C44  1  0.14516000  0.36385000  0.97227000  1.0
  C  C45  1  0.85484000  0.63615000  0.02773000  1.0
  C  C46  1  0.14263000  0.36015000  0.09589000  1.0
  C  C47  1  0.85738000  0.63985000  0.90411000  1.0
  C  C48  1  0.07359000  0.42861000  0.14059000  1.0
  C  C49  1  0.92641000  0.57139000  0.85941000  1.0
  C  C50  1  0.99907000  0.49851000  0.06264000  1.0
  C  C51  1  0.00092000  0.50149000  0.93735000  1.0
  C  C52  1  0.92230000  0.56523000  0.10425000  1.0
  C  C53  1  0.07770000  0.43477000  0.89575000  1.0
  C  C54  1  0.59687000  0.25650000  0.37945000  1.0
  C  C55  1  0.40313000  0.74350000  0.62055000  1.0
  C  C56  1  0.75271000  0.33044000  0.41687000  1.0
  C  C57  1  0.24730000  0.66956000  0.58312000  1.0
  C  C58  1  0.84287000  0.27417000  0.38406000  1.0
  C  C59  1  0.15713000  0.72584000  0.61594000  1.0
  C  C60  1  0.98667000  0.34226000  0.41907000  1.0
  C  C61  1  0.01334000  0.65774000  0.58093000  1.0
  C  C62  1  0.04577000  0.47130000  0.48409000  1.0
  C  C63  1  0.95424000  0.52870000  0.51591000  1.0
  C  C64  1  0.80791000  0.45481000  0.48294000  1.0
  C  C65  1  0.19209000  0.54519000  0.51706000  1.0
  C  C66  1  0.38747000  0.25898000  0.67859000  1.0
  C  C67  1  0.61253000  0.74102000  0.32141000  1.0
  C  C68  1  0.42485000  0.33222000  0.80668000  1.0
  C  C69  1  0.57515000  0.66779000  0.19332000  1.0
  C  C70  1  0.43861000  0.46030000  0.82339000  1.0
  C  C71  1  0.56140000  0.53971000  0.17662000  1.0
  C  C72  1  0.45374000  0.27059000  0.91309000  1.0
  C  C73  1  0.54626000  0.72941000  0.08691000  1.0
  C  C74  1  0.49886000  0.33692000  0.03367000  1.0
  C  C75  1  0.50114000  0.66308000  0.96634000  1.0
  C  C76  1  0.51598000  0.46878000  0.05384000  1.0
  C  C77  1  0.48403000  0.53122000  0.94616000  1.0
  C  C78  1  0.27700000  0.93691000  0.39564000  1.0
  C  C79  1  0.72300000  0.06309000  0.60436000  1.0
  C  C80  1  0.24298000  0.82856000  0.28956000  1.0
  C  C81  1  0.75702000  0.17144000  0.71044000  1.0
  C  C82  1  0.24372000  0.80232000  0.07242000  1.0
  C  C83  1  0.75628000  0.19768000  0.92757000  1.0
  C  C84  1  0.29202000  0.87822000  0.97887000  1.0
  C  C85  1  0.70798000  0.12178000  0.02113000  1.0
  N  N86  1  0.31654000  0.87696000  0.20221000  1.0
  N  N87  1  0.68347000  0.12304000  0.79779000  1.0
  O  O88  1  0.23012000  0.18769000  0.12094000  1.0
  O  O89  1  0.76987000  0.81230000  0.87905000  1.0
  O  O90  1  0.23529000  0.30262000  0.29531000  1.0
  O  O91  1  0.76472000  0.69738000  0.70469000  1.0
  O  O92  1  0.53763000  0.17024000  0.27921000  1.0
  O  O93  1  0.46238000  0.82976000  0.72080000  1.0
  O  O94  1  0.53526000  0.28616000  0.44920000  1.0
  O  O95  1  0.46474000  0.71385000  0.55080000  1.0
  O  O96  1  0.32682000  0.30571000  0.58241000  1.0
  O  O97  1  0.67318000  0.69430000  0.41760000  1.0
  O  O98  1  0.41759000  0.15878000  0.66757000  1.0
  O  O99  1  0.58241000  0.84123000  0.33244000  1.0
  O  O100  1  0.24356000  0.04050000  0.34067000  1.0
  O  O101  1  0.75644000  0.95950000  0.65933000  1.0
  O  O102  1  0.28706000  0.00625000  0.99505000  1.0
  O  O103  1  0.71294000  0.99374000  0.00495000  1.0
