# generated using pymatgen
data_H2RhC8N(O2F3)2
_symmetry_space_group_name_H-M   'P 1'
_cell_length_a   8.29041000
_cell_length_b   12.85800000
_cell_length_c   12.85800000
_cell_angle_alpha   81.85520000
_cell_angle_beta   71.48910000
_cell_angle_gamma   71.48970000
_symmetry_Int_Tables_number   1
_chemical_formula_structural   H2RhC8N(O2F3)2
_chemical_formula_sum   'H8 Rh4 C32 N4 O16 F24'
_cell_volume   1231.21225503
_cell_formula_units_Z   4
loop_
 _symmetry_equiv_pos_site_id
 _symmetry_equiv_pos_as_xyz
  1  'x, y, z'
loop_
 _atom_site_type_symbol
 _atom_site_label
 _atom_site_symmetry_multiplicity
 _atom_site_fract_x
 _atom_site_fract_y
 _atom_site_fract_z
 _atom_site_occupancy
  H  H0  1  0.75000000  0.15608000  0.84393000  1.0
  H  H1  1  0.25000000  0.84393000  0.15608000  1.0
  H  H2  1  0.70835000  0.83149000  0.96381000  1.0
  H  H3  1  0.79165000  0.03619000  0.16852000  1.0
  H  H4  1  0.29165000  0.16852000  0.03619000  1.0
  H  H5  1  0.20834000  0.96381000  0.83149000  1.0
  H  H6  1  0.75000000  0.85996000  0.14004000  1.0
  H  H7  1  0.25000000  0.14004000  0.85996000  1.0
  Rh  Rh8  1  0.44997000  0.01041000  0.41809000  1.0
  Rh  Rh9  1  0.05002000  0.58190000  0.98960000  1.0
  Rh  Rh10  1  0.55003000  0.98959000  0.58191000  1.0
  Rh  Rh11  1  0.94996000  0.41809000  0.01041000  1.0
  C  C12  1  0.21759000  0.15334000  0.59024000  1.0
  C  C13  1  0.28241000  0.40976000  0.84667000  1.0
  C  C14  1  0.78241000  0.84666000  0.40977000  1.0
  C  C15  1  0.71758000  0.59024000  0.15334000  1.0
  C  C16  1  0.32441000  0.85887000  0.58563000  1.0
  C  C17  1  0.17559000  0.41437000  0.14114000  1.0
  C  C18  1  0.67560000  0.14114000  0.41438000  1.0
  C  C19  1  0.82441000  0.58561000  0.85887000  1.0
  C  C20  1  0.04253000  0.24145000  0.64344000  1.0
  C  C21  1  0.45746000  0.35657000  0.75855000  1.0
  C  C22  1  0.95746000  0.75855000  0.35656000  1.0
  C  C23  1  0.54253000  0.64344000  0.24145000  1.0
  C  C24  1  0.21286000  0.77881000  0.64161000  1.0
  C  C25  1  0.28715000  0.35839000  0.22119000  1.0
  C  C26  1  0.78715000  0.22119000  0.35838000  1.0
  C  C27  1  0.71288000  0.64161000  0.77881000  1.0
  C  C28  1  0.68299000  0.98134000  0.79789000  1.0
  C  C29  1  0.81701000  0.20211000  0.01866000  1.0
  C  C30  1  0.31700000  0.01866000  0.20211000  1.0
  C  C31  1  0.18300000  0.79789000  0.98134000  1.0
  C  C32  1  0.75000000  0.09152000  0.90848000  1.0
  C  C33  1  0.25000000  0.90848000  0.09152000  1.0
  C  C34  1  0.72241000  0.99285000  0.89460000  1.0
  C  C35  1  0.77759000  0.10540000  0.00715000  1.0
  C  C36  1  0.27759000  0.00715000  0.10540000  1.0
  C  C37  1  0.22241000  0.89460000  0.99285000  1.0
  C  C38  1  0.77468000  0.02263000  0.09150000  1.0
  C  C39  1  0.72532000  0.90850000  0.97737000  1.0
  C  C40  1  0.22532000  0.97737000  0.90850000  1.0
  C  C41  1  0.27468000  0.09150000  0.02263000  1.0
  C  C42  1  0.75000000  0.92453000  0.07547000  1.0
  C  C43  1  0.25000000  0.07547000  0.92453000  1.0
  N  N44  1  0.64094000  0.97590000  0.72102000  1.0
  N  N45  1  0.85906000  0.27898000  0.02409000  1.0
  N  N46  1  0.35905000  0.02408000  0.27899000  1.0
  N  N47  1  0.14095000  0.72101000  0.97590000  1.0
  O  O48  1  0.23262000  0.13184000  0.49394000  1.0
  O  O49  1  0.26738000  0.50606000  0.86816000  1.0
  O  O50  1  0.76737000  0.86817000  0.50606000  1.0
  O  O51  1  0.73263000  0.49394000  0.13183000  1.0
  O  O52  1  0.67762000  0.88814000  0.35129000  1.0
  O  O53  1  0.82237000  0.64871000  0.11187000  1.0
  O  O54  1  0.32238000  0.11187000  0.64870000  1.0
  O  O55  1  0.17762000  0.35130000  0.88815000  1.0
  O  O56  1  0.31731000  0.89672000  0.49026000  1.0
  O  O57  1  0.18269000  0.50974000  0.10328000  1.0
  O  O58  1  0.68267000  0.10329000  0.50974000  1.0
  O  O59  1  0.81733000  0.49025000  0.89672000  1.0
  O  O60  1  0.59184000  0.12160000  0.35551000  1.0
  O  O61  1  0.90817000  0.64448000  0.87840000  1.0
  O  O62  1  0.40817000  0.87841000  0.64448000  1.0
  O  O63  1  0.09182000  0.35552000  0.12160000  1.0
  F  F64  1  0.03094000  0.26106000  0.74677000  1.0
  F  F65  1  0.46905000  0.25323000  0.73895000  1.0
  F  F66  1  0.96906000  0.73895000  0.25322000  1.0
  F  F67  1  0.53093000  0.74678000  0.26106000  1.0
  F  F68  1  0.90207000  0.20523000  0.64919000  1.0
  F  F69  1  0.59792000  0.35082000  0.79477000  1.0
  F  F70  1  0.09791000  0.79476000  0.35082000  1.0
  F  F71  1  0.40208000  0.64919000  0.20523000  1.0
  F  F72  1  0.02807000  0.33747000  0.58328000  1.0
  F  F73  1  0.47191000  0.41672000  0.66254000  1.0
  F  F74  1  0.97191000  0.66254000  0.41671000  1.0
  F  F75  1  0.52805000  0.58329000  0.33746000  1.0
  F  F76  1  0.12793000  0.75931000  0.57648000  1.0
  F  F77  1  0.37209000  0.42350000  0.24069000  1.0
  F  F78  1  0.87208000  0.24070000  0.42350000  1.0
  F  F79  1  0.62794000  0.57650000  0.75930000  1.0
  F  F80  1  0.08822000  0.82420000  0.73492000  1.0
  F  F81  1  0.41179000  0.26507000  0.17578000  1.0
  F  F82  1  0.91180000  0.17579000  0.26507000  1.0
  F  F83  1  0.58822000  0.73492000  0.82420000  1.0
  F  F84  1  0.31713000  0.68188000  0.67106000  1.0
  F  F85  1  0.18289000  0.32891000  0.31811000  1.0
  F  F86  1  0.68289000  0.31813000  0.32892000  1.0
  F  F87  1  0.81714000  0.67107000  0.68187000  1.0
