# generated using pymatgen
data_MnH28C46(N2O)4
_symmetry_space_group_name_H-M   'P 1'
_cell_length_a   9.23913000
_cell_length_b   10.35450000
_cell_length_c   10.51570000
_cell_angle_alpha   91.82410000
_cell_angle_beta   110.28500000
_cell_angle_gamma   113.04300000
_symmetry_Int_Tables_number   1
_chemical_formula_structural   MnH28C46(N2O)4
_chemical_formula_sum   'Mn1 H28 C46 N8 O4'
_cell_volume   851.80578106
_cell_formula_units_Z   1
loop_
 _symmetry_equiv_pos_site_id
 _symmetry_equiv_pos_as_xyz
  1  'x, y, z'
loop_
 _atom_site_type_symbol
 _atom_site_label
 _atom_site_symmetry_multiplicity
 _atom_site_fract_x
 _atom_site_fract_y
 _atom_site_fract_z
 _atom_site_occupancy
  Mn  Mn0  1  0.00000000  0.00000000  0.00000000  1.0
  H  H1  1  0.41516000  0.54737000  0.09846000  1.0
  H  H2  1  0.58484000  0.45262000  0.90153000  1.0
  H  H3  1  0.21513000  0.30967000  0.94554000  1.0
  H  H4  1  0.78487000  0.69033000  0.05446000  1.0
  H  H5  1  0.68508000  0.81881000  0.07591000  1.0
  H  H6  1  0.31492000  0.18119000  0.92410000  1.0
  H  H7  1  0.61913000  0.82980000  0.28462000  1.0
  H  H8  1  0.38087000  0.17021000  0.71538000  1.0
  H  H9  1  0.80883000  0.04010000  0.47945000  1.0
  H  H10  1  0.19117000  0.95990000  0.52055000  1.0
  H  H11  1  0.42779000  0.59055000  0.34098000  1.0
  H  H12  1  0.57221000  0.40945000  0.65902000  1.0
  H  H13  1  0.45534000  0.73378000  0.73204000  1.0
  H  H14  1  0.54466000  0.26622000  0.26796000  1.0
  H  H15  1  0.50645000  0.91258000  0.92203000  1.0
  H  H16  1  0.49355000  0.08742000  0.07797000  1.0
  H  H17  1  0.30888000  0.85259000  0.04836000  1.0
  H  H18  1  0.69112000  0.14741000  0.95164000  1.0
  H  H19  1  0.06354000  0.61392000  0.97892000  1.0
  H  H20  1  0.93646000  0.38608000  0.02108000  1.0
  H  H21  1  0.00799000  0.43694000  0.78430000  1.0
  H  H22  1  0.99201000  0.56306000  0.21570000  1.0
  H  H23  1  0.58073000  0.81908000  0.61603000  1.0
  H  H24  1  0.41927000  0.18092000  0.38397000  1.0
  H  H25  1  0.68208000  0.25980000  0.59675000  1.0
  H  H26  1  0.31792000  0.74020000  0.40325000  1.0
  H  H27  1  0.00835000  0.27901000  0.64033000  1.0
  H  H28  1  0.99165000  0.72099000  0.35968000  1.0
  C  C29  1  0.33858000  0.46318000  0.13854000  1.0
  C  C30  1  0.66141000  0.53682000  0.86146000  1.0
  C  C31  1  0.22967000  0.32879000  0.05233000  1.0
  C  C32  1  0.77033000  0.67121000  0.94767000  1.0
  C  C33  1  0.12991000  0.24315000  0.22106000  1.0
  C  C34  1  0.87009000  0.75685000  0.77894000  1.0
  C  C35  1  0.76743000  0.90871000  0.16193000  1.0
  C  C36  1  0.23257000  0.09129000  0.83807000  1.0
  C  C37  1  0.73056000  0.91627000  0.27929000  1.0
  C  C38  1  0.26944000  0.08373000  0.72071000  1.0
  C  C39  1  0.83547000  0.03317000  0.38718000  1.0
  C  C40  1  0.16453000  0.96683000  0.61282000  1.0
  C  C41  1  0.97314000  0.14531000  0.37270000  1.0
  C  C42  1  0.02686000  0.85469000  0.62729000  1.0
  C  C43  1  0.00298000  0.12937000  0.25038000  1.0
  C  C44  1  0.99702000  0.87063000  0.74963000  1.0
  C  C45  1  0.23363000  0.37749000  0.31319000  1.0
  C  C46  1  0.76637000  0.62251000  0.68681000  1.0
  C  C47  1  0.34421000  0.48762000  0.27094000  1.0
  C  C48  1  0.65579000  0.51238000  0.72905000  1.0
  C  C49  1  0.20664000  0.39259000  0.43796000  1.0
  C  C50  1  0.79336000  0.60741000  0.56204000  1.0
  C  C51  1  0.08142000  0.27975000  0.46533000  1.0
  C  C52  1  0.91858000  0.72025000  0.53468000  1.0
  C  C53  1  0.19859000  0.47572000  0.62474000  1.0
  C  C54  1  0.80141000  0.52428000  0.37526000  1.0
  C  C55  1  0.22889000  0.57346000  0.74415000  1.0
  C  C56  1  0.77111000  0.42654000  0.25585000  1.0
  C  C57  1  0.36990000  0.70816000  0.78628000  1.0
  C  C58  1  0.63010000  0.29185000  0.21371000  1.0
  C  C59  1  0.39832000  0.80801000  0.89424000  1.0
  C  C60  1  0.60168000  0.19200000  0.10576000  1.0
  C  C61  1  0.28910000  0.77431000  0.96495000  1.0
  C  C62  1  0.71090000  0.22569000  0.03505000  1.0
  C  C63  1  0.15004000  0.63999000  0.92499000  1.0
  C  C64  1  0.84996000  0.36001000  0.07501000  1.0
  C  C65  1  0.11858000  0.54035000  0.81499000  1.0
  C  C66  1  0.88142000  0.45965000  0.18501000  1.0
  C  C67  1  0.80599000  0.09067000  0.75006000  1.0
  C  C68  1  0.19401000  0.90934000  0.24994000  1.0
  C  C69  1  0.64561000  0.04397000  0.62278000  1.0
  C  C70  1  0.35439000  0.95603000  0.37722000  1.0
  C  C71  1  0.54374000  0.89800000  0.56578000  1.0
  C  C72  1  0.45625000  0.10200000  0.43422000  1.0
  C  C73  1  0.60153000  0.14596000  0.55561000  1.0
  C  C74  1  0.39847000  0.85404000  0.44439000  1.0
  N  N75  1  0.13239000  0.21827000  0.09323000  1.0
  N  N76  1  0.86761000  0.78172000  0.90677000  1.0
  N  N77  1  0.90342000  0.00953000  0.14788000  1.0
  N  N78  1  0.09658000  0.99046000  0.85212000  1.0
  N  N79  1  0.07919000  0.33486000  0.58478000  1.0
  N  N80  1  0.92081000  0.66514000  0.41522000  1.0
  N  N81  1  0.27802000  0.51316000  0.53740000  1.0
  N  N82  1  0.72198000  0.48684000  0.46260000  1.0
  O  O83  1  0.79659000  0.01166000  0.84181000  1.0
  O  O84  1  0.20341000  0.98834000  0.15819000  1.0
  O  O85  1  0.93679000  0.19961000  0.75873000  1.0
  O  O86  1  0.06321000  0.80039000  0.24127000  1.0
