# generated using pymatgen
data_CuH14C16(N2O)5
_symmetry_space_group_name_H-M   'P 1'
_cell_length_a   7.67962000
_cell_length_b   9.12555000
_cell_length_c   14.60530000
_cell_angle_alpha   90.00030000
_cell_angle_beta   90.00030000
_cell_angle_gamma   72.51300000
_symmetry_Int_Tables_number   1
_chemical_formula_structural   CuH14C16(N2O)5
_chemical_formula_sum   'Cu2 H28 C32 N20 O10'
_cell_volume   976.24724268
_cell_formula_units_Z   2
loop_
 _symmetry_equiv_pos_site_id
 _symmetry_equiv_pos_as_xyz
  1  'x, y, z'
loop_
 _atom_site_type_symbol
 _atom_site_label
 _atom_site_symmetry_multiplicity
 _atom_site_fract_x
 _atom_site_fract_y
 _atom_site_fract_z
 _atom_site_occupancy
  Cu  Cu0  1  0.18286000  0.53064000  0.33342000  1.0
  Cu  Cu1  1  0.81715000  0.46936000  0.83342000  1.0
  H  H2  1  0.95602000  0.34195000  0.65705000  1.0
  H  H3  1  0.04398000  0.65805000  0.15706000  1.0
  H  H4  1  0.88566000  0.40830000  0.49066000  1.0
  H  H5  1  0.11435000  0.59170000  0.99066000  1.0
  H  H6  1  0.63555000  0.64558000  0.45232000  1.0
  H  H7  1  0.36445000  0.35442000  0.95232000  1.0
  H  H8  1  0.55995000  0.73620000  0.74294000  1.0
  H  H9  1  0.44005000  0.26379000  0.24294000  1.0
  H  H10  1  0.75414000  0.64785000  0.30954000  1.0
  H  H11  1  0.24586000  0.35215000  0.80953000  1.0
  H  H12  1  0.02846000  0.20940000  0.93913000  1.0
  H  H13  1  0.97155000  0.79060000  0.43913000  1.0
  H  H14  1  0.88021000  0.30636000  0.22291000  1.0
  H  H15  1  0.11978000  0.69364000  0.72291000  1.0
  H  H16  1  0.64555000  0.54533000  0.17073000  1.0
  H  H17  1  0.35444000  0.45467000  0.67073000  1.0
  H  H18  1  0.61818000  0.60955000  0.00259000  1.0
  H  H19  1  0.38182000  0.39045000  0.50259000  1.0
  H  H20  1  0.44750000  0.94450000  0.30358000  1.0
  H  H21  1  0.55250000  0.05551000  0.80357000  1.0
  H  H22  1  0.57871000  0.82332000  0.21646000  1.0
  H  H23  1  0.42129000  0.17669000  0.71646000  1.0
  H  H24  1  0.98827000  0.15680000  0.45340000  1.0
  H  H25  1  0.01173000  0.84320000  0.95339000  1.0
  H  H26  1  0.12176000  0.02656000  0.37120000  1.0
  H  H27  1  0.87824000  0.97343000  0.87120000  1.0
  H  H28  1  0.83720000  0.78245000  0.28600000  1.0
  H  H29  1  0.16280000  0.21755000  0.78600000  1.0
  C  C30  1  0.84998000  0.44536000  0.63636000  1.0
  C  C31  1  0.15002000  0.55464000  0.13636000  1.0
  C  C32  1  0.80916000  0.48175000  0.54492000  1.0
  C  C33  1  0.19084000  0.51824000  0.04492000  1.0
  C  C34  1  0.67243000  0.61593000  0.52334000  1.0
  C  C35  1  0.32758000  0.38407000  0.02334000  1.0
  C  C36  1  0.62725000  0.66751000  0.68464000  1.0
  C  C37  1  0.37276000  0.33248000  0.18465000  1.0
  C  C38  1  0.57894000  0.71117000  0.59400000  1.0
  C  C39  1  0.42107000  0.28882000  0.09400000  1.0
  C  C40  1  0.43192000  0.85067000  0.57261000  1.0
  C  C41  1  0.56808000  0.14932000  0.07261000  1.0
  C  C42  1  0.94493000  0.28004000  0.99239000  1.0
  C  C43  1  0.05508000  0.71996000  0.49238000  1.0
  C  C44  1  0.97008000  0.23697000  0.08453000  1.0
  C  C45  1  0.02992000  0.76304000  0.58453000  1.0
  C  C46  1  0.86209000  0.33475000  0.15034000  1.0
  C  C47  1  0.13791000  0.66526000  0.65034000  1.0
  C  C48  1  0.73322000  0.46909000  0.12114000  1.0
  C  C49  1  0.26677000  0.53091000  0.62114000  1.0
  C  C50  1  0.71636000  0.50479000  0.02826000  1.0
  C  C51  1  0.28364000  0.49521000  0.52826000  1.0
  C  C52  1  0.11301000  0.09700000  0.10907000  1.0
  C  C53  1  0.88699000  0.90301000  0.60907000  1.0
  C  C54  1  0.44528000  0.86014000  0.25011000  1.0
  C  C55  1  0.55472000  0.13987000  0.75010000  1.0
  C  C56  1  0.40500000  0.72027000  0.29286000  1.0
  C  C57  1  0.59499000  0.27974000  0.79285000  1.0
  C  C58  1  0.12657000  0.10595000  0.42693000  1.0
  C  C59  1  0.87343000  0.89406000  0.92693000  1.0
  C  C60  1  0.21196000  0.22732000  0.38970000  1.0
  C  C61  1  0.78805000  0.77268000  0.88970000  1.0
  N  N62  1  0.76018000  0.53748000  0.70443000  1.0
  N  N63  1  0.23983000  0.46252000  0.20443000  1.0
  N  N64  1  0.82236000  0.41118000  0.96535000  1.0
  N  N65  1  0.17765000  0.58882000  0.46535000  1.0
  N  N66  1  0.33540000  0.95520000  0.63486000  1.0
  N  N67  1  0.66460000  0.04480000  0.13486000  1.0
  N  N68  1  0.21226000  0.06071000  0.58819000  1.0
  N  N69  1  0.78775000  0.93929000  0.08819000  1.0
  N  N70  1  0.23582000  0.01700000  0.50029000  1.0
  N  N71  1  0.76418000  0.98300000  0.00029000  1.0
  N  N72  1  0.37088000  0.88874000  0.48700000  1.0
  N  N73  1  0.62912000  0.11126000  0.98700000  1.0
  N  N74  1  0.18383000  0.06727000  0.19350000  1.0
  N  N75  1  0.81617000  0.93274000  0.69350000  1.0
  N  N76  1  0.20026000  0.98589000  0.04809000  1.0
  N  N77  1  0.79974000  0.01411000  0.54808000  1.0
  N  N78  1  0.32872000  0.88476000  0.09420000  1.0
  N  N79  1  0.67128000  0.11525000  0.59419000  1.0
  N  N80  1  0.31597000  0.93670000  0.18050000  1.0
  N  N81  1  0.68403000  0.06330000  0.68049000  1.0
  O  O82  1  0.54024000  0.61189000  0.31854000  1.0
  O  O83  1  0.45976000  0.38812000  0.81854000  1.0
  O  O84  1  0.23692000  0.72629000  0.29795000  1.0
  O  O85  1  0.76307000  0.27371000  0.79795000  1.0
  O  O86  1  0.38071000  0.19593000  0.38491000  1.0
  O  O87  1  0.61929000  0.80407000  0.88490000  1.0
  O  O88  1  0.09129000  0.35413000  0.36658000  1.0
  O  O89  1  0.90870000  0.64587000  0.86659000  1.0
  O  O90  1  0.87031000  0.67495000  0.30374000  1.0
  O  O91  1  0.12969000  0.32505000  0.80374000  1.0
