# generated using pymatgen
data_CuH4C4(NCl)2
_symmetry_space_group_name_H-M   'P 1'
_cell_length_a   6.71110000
_cell_length_b   7.34166000
_cell_length_c   7.69455000
_cell_angle_alpha   114.13100000
_cell_angle_beta   111.18100000
_cell_angle_gamma   98.97150000
_symmetry_Int_Tables_number   1
_chemical_formula_structural   CuH4C4(NCl)2
_chemical_formula_sum   'Cu2 H8 C8 N4 Cl4'
_cell_volume   301.37286309
_cell_formula_units_Z   2
loop_
 _symmetry_equiv_pos_site_id
 _symmetry_equiv_pos_as_xyz
  1  'x, y, z'
loop_
 _atom_site_type_symbol
 _atom_site_label
 _atom_site_symmetry_multiplicity
 _atom_site_fract_x
 _atom_site_fract_y
 _atom_site_fract_z
 _atom_site_occupancy
  Cu  Cu0  1  0.99999000  0.00000000  0.00000000  1.0
  Cu  Cu1  1  0.50000000  0.00001000  0.00000000  1.0
  H  H2  1  0.68650000  0.85090000  0.54998000  1.0
  H  H3  1  0.36401000  0.69909000  0.54989000  1.0
  H  H4  1  0.31350000  0.14909000  0.45001000  1.0
  H  H5  1  0.63598000  0.30092000  0.45012000  1.0
  H  H6  1  0.66804000  0.63966000  0.18652000  1.0
  H  H7  1  0.01889000  0.54643000  0.18646000  1.0
  H  H8  1  0.33196000  0.36034000  0.81347000  1.0
  H  H9  1  0.98112000  0.45357000  0.81354000  1.0
  C  C10  1  0.82944000  0.80780000  0.53382000  1.0
  C  C11  1  0.20491000  0.72600000  0.53378000  1.0
  C  C12  1  0.17057000  0.19219000  0.46618000  1.0
  C  C13  1  0.79509000  0.27400000  0.46622000  1.0
  C  C14  1  0.82156000  0.69075000  0.33453000  1.0
  C  C15  1  0.01344000  0.64350000  0.33452000  1.0
  C  C16  1  0.17844000  0.30924000  0.66546000  1.0
  C  C17  1  0.98656000  0.35649000  0.66548000  1.0
  N  N18  1  0.01651000  0.87726000  0.72012000  1.0
  N  N19  1  0.20395000  0.84289000  0.72007000  1.0
  N  N20  1  0.98348000  0.12274000  0.27987000  1.0
  N  N21  1  0.79605000  0.15712000  0.27994000  1.0
  Cl  Cl22  1  0.70161000  0.69209000  0.85659000  1.0
  Cl  Cl23  1  0.65502000  0.16449000  0.85641000  1.0
  Cl  Cl24  1  0.29839000  0.30791000  0.14341000  1.0
  Cl  Cl25  1  0.34498000  0.83551000  0.14359000  1.0
