# generated using pymatgen
data_CdH18C18N4O5
_symmetry_space_group_name_H-M   'P 1'
_cell_length_a   8.40806000
_cell_length_b   10.36240000
_cell_length_c   10.77680000
_cell_angle_alpha   98.65720000
_cell_angle_beta   99.45400000
_cell_angle_gamma   94.92610000
_symmetry_Int_Tables_number   1
_chemical_formula_structural   CdH18C18N4O5
_chemical_formula_sum   'Cd2 H36 C36 N8 O10'
_cell_volume   909.74433800
_cell_formula_units_Z   2
loop_
 _symmetry_equiv_pos_site_id
 _symmetry_equiv_pos_as_xyz
  1  'x, y, z'
loop_
 _atom_site_type_symbol
 _atom_site_label
 _atom_site_symmetry_multiplicity
 _atom_site_fract_x
 _atom_site_fract_y
 _atom_site_fract_z
 _atom_site_occupancy
  Cd  Cd0  1  0.51378000  0.32144000  0.38212000  1.0
  Cd  Cd1  1  0.48622000  0.67856000  0.61788000  1.0
  H  H2  1  0.63341000  0.75659000  0.94075000  1.0
  H  H3  1  0.36659000  0.24341000  0.05925000  1.0
  H  H4  1  0.61230000  0.98225000  0.05042000  1.0
  H  H5  1  0.38770000  0.01775000  0.94958000  1.0
  H  H6  1  0.54082000  0.83165000  0.38942000  1.0
  H  H7  1  0.45919000  0.16834000  0.61058000  1.0
  H  H8  1  0.70262000  0.10420000  0.54771000  1.0
  H  H9  1  0.29739000  0.89580000  0.45229000  1.0
  H  H10  1  0.86694000  0.50215000  0.55220000  1.0
  H  H11  1  0.13307000  0.49785000  0.44780000  1.0
  H  H12  1  0.10078000  0.39257000  0.70769000  1.0
  H  H13  1  0.89922000  0.60743000  0.29231000  1.0
  H  H14  1  0.12964000  0.16591000  0.75244000  1.0
  H  H15  1  0.87036000  0.83409000  0.24756000  1.0
  H  H16  1  0.99633000  0.03326000  0.65567000  1.0
  H  H17  1  0.00367000  0.96674000  0.34433000  1.0
  H  H18  1  0.78740000  0.07867000  0.79430000  1.0
  H  H19  1  0.21260000  0.92134000  0.20570000  1.0
  H  H20  1  0.96861000  0.02718000  0.87423000  1.0
  H  H21  1  0.03139000  0.97283000  0.12577000  1.0
  H  H22  1  0.78719000  0.15015000  0.02836000  1.0
  H  H23  1  0.21281000  0.84985000  0.97164000  1.0
  H  H24  1  0.70692000  0.26287000  0.93137000  1.0
  H  H25  1  0.29308000  0.73713000  0.06863000  1.0
  H  H26  1  0.61302000  0.56766000  0.05959000  1.0
  H  H27  1  0.38699000  0.43234000  0.94041000  1.0
  H  H28  1  0.85427000  0.20717000  0.29753000  1.0
  H  H29  1  0.14572000  0.79283000  0.70247000  1.0
  H  H30  1  0.91794000  0.44166000  0.06964000  1.0
  H  H31  1  0.08205000  0.55835000  0.93036000  1.0
  H  H32  1  0.76794000  0.37492000  0.14892000  1.0
  H  H33  1  0.23206000  0.62508000  0.85108000  1.0
  H  H34  1  0.21679000  0.41087000  0.14792000  1.0
  H  H35  1  0.78320000  0.58912000  0.85208000  1.0
  H  H36  1  0.16390000  0.18407000  0.43451000  1.0
  H  H37  1  0.83609000  0.81593000  0.56549000  1.0
  C  C38  1  0.61632000  0.77258000  0.03953000  1.0
  C  C39  1  0.38368000  0.22742000  0.96048000  1.0
  C  C40  1  0.60179000  0.89864000  0.09983000  1.0
  C  C41  1  0.39821000  0.10136000  0.90017000  1.0
  C  C42  1  0.56887000  0.91986000  0.22428000  1.0
  C  C43  1  0.43113000  0.08013000  0.77572000  1.0
  C  C44  1  0.56113000  0.81437000  0.29130000  1.0
  C  C45  1  0.43887000  0.18562000  0.70870000  1.0
  C  C46  1  0.53950000  0.05494000  0.28321000  1.0
  C  C47  1  0.46050000  0.94506000  0.71679000  1.0
  C  C48  1  0.77914000  0.19768000  0.56648000  1.0
  C  C49  1  0.22086000  0.80232000  0.43352000  1.0
  C  C50  1  0.86819000  0.40356000  0.57431000  1.0
  C  C51  1  0.13181000  0.59644000  0.42569000  1.0
  C  C52  1  0.98400000  0.35132000  0.65119000  1.0
  C  C53  1  0.01601000  0.64868000  0.34881000  1.0
  C  C54  1  0.00181000  0.12801000  0.71836000  1.0
  C  C55  1  0.99819000  0.87199000  0.28164000  1.0
  C  C56  1  0.91822000  0.10785000  0.82968000  1.0
  C  C57  1  0.08178000  0.89215000  0.17032000  1.0
  C  C58  1  0.81760000  0.24123000  0.99142000  1.0
  C  C59  1  0.18240000  0.75877000  0.00858000  1.0
  C  C60  1  0.58042000  0.68791000  0.23259000  1.0
  C  C61  1  0.41958000  0.31209000  0.76741000  1.0
  C  C62  1  0.57480000  0.57367000  0.30319000  1.0
  C  C63  1  0.42520000  0.42633000  0.69681000  1.0
  C  C64  1  0.60416000  0.66727000  0.10535000  1.0
  C  C65  1  0.39584000  0.33273000  0.89465000  1.0
  C  C66  1  0.97628000  0.24414000  0.28932000  1.0
  C  C67  1  0.02371000  0.75585000  0.71068000  1.0
  C  C68  1  0.87199000  0.35275000  0.10271000  1.0
  C  C69  1  0.12801000  0.64725000  0.89729000  1.0
  C  C70  1  0.16289000  0.35080000  0.20754000  1.0
  C  C71  1  0.83711000  0.64920000  0.79246000  1.0
  C  C72  1  0.12828000  0.23270000  0.35373000  1.0
  C  C73  1  0.87171000  0.76730000  0.64627000  1.0
  N  N74  1  0.92630000  0.22112000  0.64477000  1.0
  N  N75  1  0.07370000  0.77888000  0.35523000  1.0
  N  N76  1  0.74153000  0.30688000  0.52241000  1.0
  N  N77  1  0.25847000  0.69312000  0.47759000  1.0
  N  N78  1  0.00061000  0.31986000  0.19733000  1.0
  N  N79  1  0.99939000  0.68014000  0.80267000  1.0
  N  N80  1  0.24326000  0.29931000  0.30171000  1.0
  N  N81  1  0.75674000  0.70068000  0.69829000  1.0
  O  O82  1  0.59622000  0.15200000  0.23652000  1.0
  O  O83  1  0.40377000  0.84800000  0.76348000  1.0
  O  O84  1  0.46049000  0.06647000  0.37433000  1.0
  O  O85  1  0.53951000  0.93353000  0.62567000  1.0
  O  O86  1  0.94498000  0.22736000  0.91936000  1.0
  O  O87  1  0.05503000  0.77265000  0.08064000  1.0
  O  O88  1  0.55624000  0.45855000  0.23576000  1.0
  O  O89  1  0.44376000  0.54145000  0.76424000  1.0
  O  O90  1  0.59110000  0.59328000  0.42382000  1.0
  O  O91  1  0.40890000  0.40672000  0.57618000  1.0
