# generated using pymatgen
data_Cu3H34C48(N6O7)2
_symmetry_space_group_name_H-M   'P 1'
_cell_length_a   11.64260000
_cell_length_b   11.80498116
_cell_length_c   12.69160000
_cell_angle_alpha   78.77793975
_cell_angle_beta   75.21410000
_cell_angle_gamma   61.63427667
_symmetry_Int_Tables_number   1
_chemical_formula_structural   Cu3H34C48(N6O7)2
_chemical_formula_sum   'Cu3 H34 C48 N12 O14'
_cell_volume   1478.54988513
_cell_formula_units_Z   1
loop_
 _symmetry_equiv_pos_site_id
 _symmetry_equiv_pos_as_xyz
  1  'x, y, z'
loop_
 _atom_site_type_symbol
 _atom_site_label
 _atom_site_symmetry_multiplicity
 _atom_site_fract_x
 _atom_site_fract_y
 _atom_site_fract_z
 _atom_site_occupancy
  Cu  Cu0  1  0.35457000  0.03639000  0.25548000  1.0
  Cu  Cu1  1  0.84377000  0.07313000  0.79989000  1.0
  Cu  Cu2  1  0.32000000  0.58789000  0.27431000  1.0
  H  H3  1  0.57165000  0.09242000  0.52599000  1.0
  H  H4  1  0.99368000  0.85376000  0.50400000  1.0
  H  H5  1  0.79571000  0.84560000  0.26436000  1.0
  H  H6  1  0.83501000  0.40728000  0.29050000  1.0
  H  H7  1  0.08595000  0.12348000  0.05941000  1.0
  H  H8  1  0.66583667  0.33333333  0.06270000  1.0
  H  H9  1  0.22144000  0.89977000  0.78128000  1.0
  H  H10  1  0.53910000  0.54313000  0.88406000  1.0
  H  H11  1  0.50580000  0.63201000  0.54359000  1.0
  H  H12  1  0.48523000  0.83259000  0.44500000  1.0
  H  H13  1  0.08427000  0.07845000  0.42634000  1.0
  H  H14  1  0.09397000  0.94871000  0.63325000  1.0
  H  H15  1  0.40428000  0.54762000  0.03440000  1.0
  H  H16  1  0.20273000  0.95342000  0.95161000  1.0
  H  H17  1  0.17597000  0.90193000  0.17646000  1.0
  H  H18  1  0.62692000  0.34342000  0.84682000  1.0
  H  H19  1  0.90614000  0.22636000  0.55568000  1.0
  H  H20  1  0.72940000  0.48341000  0.51907000  1.0
  H  H21  1  0.20160000  0.47944000  0.02006000  1.0
  H  H22  1  0.45238000  0.25181000  0.74767000  1.0
  H  H23  1  0.17792000  0.65037000  0.68768000  1.0
  H  H24  1  0.00618000  0.79484000  0.73935000  1.0
  H  H25  1  0.87293000  0.93035000  0.05162000  1.0
  H  H26  1  0.06137000  0.67764000  0.07037000  1.0
  H  H27  1  0.24105000  0.29879000  0.11064000  1.0
  H  H28  1  0.57312000  0.12259000  0.85838000  1.0
  H  H29  1  0.59541000  0.95586000  0.04742000  1.0
  H  H30  1  0.20076000  0.61062000  0.52502000  1.0
  H  H31  1  0.54586000  0.26490000  0.58648000  1.0
  H  H32  1  0.54465000  0.31572000  0.36418000  1.0
  H  H33  1  0.56422000  0.82439000  0.20935000  1.0
  H  H34  1  0.52475000  0.71523000  0.22024000  1.0
  H  H35  1  0.15095000  0.53838000  0.22446000  1.0
  H  H36  1  0.22936000  0.38938000  0.25504000  1.0
  C  C37  1  0.67155000  0.97990000  0.38768000  1.0
  C  C38  1  0.66664000  0.02301000  0.48440000  1.0
  C  C39  1  0.78132000  0.97685000  0.52804000  1.0
  C  C40  1  0.90277000  0.88733000  0.47304000  1.0
  C  C41  1  0.90756000  0.83942000  0.37857000  1.0
  C  C42  1  0.79138000  0.88521000  0.33672000  1.0
  C  C43  1  0.54516000  0.03515000  0.34408000  1.0
  C  C44  1  0.76934000  0.02434000  0.63347000  1.0
  C  C45  1  0.03390000  0.73585000  0.32198000  1.0
  C  C46  1  0.73655000  0.38194000  0.18032000  1.0
  C  C47  1  0.84698000  0.35417000  0.22401000  1.0
  C  C48  1  0.97177000  0.25692000  0.18346000  1.0
  C  C49  1  0.98780000  0.19536000  0.09344000  1.0
  C  C50  1  0.87899000  0.22483000  0.04733000  1.0
  C  C51  1  0.75256000  0.31488000  0.09372000  1.0
  C  C52  1  0.60119000  0.48193000  0.22771000  1.0
  C  C53  1  0.08992000  0.21655000  0.23492000  1.0
  C  C54  1  0.90002000  0.15728000  0.95058000  1.0
  C  C55  1  0.36297000  0.77638000  0.65417000  1.0
  C  C56  1  0.30860000  0.80820000  0.76245000  1.0
  C  C57  1  0.37054000  0.72004000  0.84546000  1.0
  C  C58  1  0.48560000  0.60543000  0.82000000  1.0
  C  C59  1  0.53371000  0.57369000  0.71190000  1.0
  C  C60  1  0.47257000  0.65823000  0.62766000  1.0
  C  C61  1  0.37784000  0.88107000  0.46682000  1.0
  C  C62  1  0.16879000  0.00865000  0.46243000  1.0
  C  C63  1  0.17293000  0.94545000  0.56507000  1.0
  C  C64  1  0.34831000  0.65036000  0.04222000  1.0
  C  C65  1  0.24222000  0.86280000  0.00172000  1.0
  C  C66  1  0.22670000  0.83549000  0.11299000  1.0
  C  C67  1  0.67982000  0.34665000  0.76366000  1.0
  C  C68  1  0.82105000  0.28931000  0.61081000  1.0
  C  C69  1  0.73404000  0.41652000  0.59149000  1.0
  C  C70  1  0.17254000  0.57591000  0.85768000  1.0
  C  C71  1  0.23138000  0.47158000  0.93201000  1.0
  C  C72  1  0.33298000  0.35589000  0.89033000  1.0
  C  C73  1  0.37637000  0.34368000  0.77803000  1.0
  C  C74  1  0.31803000  0.45087000  0.70605000  1.0
  C  C75  1  0.21743000  0.56691000  0.74509000  1.0
  C  C76  1  0.99815000  0.79669000  0.82575000  1.0
  C  C77  1  0.92963000  0.86322000  0.98913000  1.0
  C  C78  1  0.02386000  0.73720000  0.99867000  1.0
  C  C79  1  0.33369000  0.22776000  0.06880000  1.0
  C  C80  1  0.50928000  0.13456000  0.93861000  1.0
  C  C81  1  0.51906000  0.05275000  0.03202000  1.0
  C  C82  1  0.29514000  0.52525000  0.51205000  1.0
  C  C83  1  0.47611000  0.34386000  0.54070000  1.0
  C  C84  1  0.47510000  0.37104000  0.43121000  1.0
  N  N85  1  0.29682000  0.96850000  0.40306000  1.0
  N  N86  1  0.30648000  0.86387000  0.56695000  1.0
  N  N87  1  0.32087000  0.74432000  0.95693000  1.0
  N  N88  1  0.29310000  0.70298000  0.13636000  1.0
  N  N89  1  0.64438000  0.45239000  0.68949000  1.0
  N  N90  1  0.78578000  0.24761000  0.71824000  1.0
  N  N91  1  0.06827000  0.69574000  0.89377000  1.0
  N  N92  1  0.91497000  0.89893000  0.88086000  1.0
  N  N93  1  0.39104000  0.24645000  0.96301000  1.0
  N  N94  1  0.40867000  0.11190000  0.11153000  1.0
  N  N95  1  0.36091000  0.44208000  0.59201000  1.0
  N  N96  1  0.36267000  0.48444000  0.41465000  1.0
  O  O97  1  0.54115000  0.96122000  0.28223000  1.0
  O  O98  1  0.45199000  0.14146000  0.37025000  1.0
  O  O99  1  0.65702000  0.09115000  0.68752000  1.0
  O  O100  1  0.88042000  0.99269000  0.66353000  1.0
  O  O101  1  0.14169000  0.70892000  0.35395000  1.0
  O  O102  1  0.02576000  0.68254000  0.24924000  1.0
  O  O103  1  0.50352000  0.47930000  0.19885000  1.0
  O  O104  1  0.58936000  0.55784000  0.29120000  1.0
  O  O105  1  0.09885000  0.29379000  0.28347000  1.0
  O  O106  1  0.17733000  0.09715000  0.22152000  1.0
  O  O107  1  0.01239000  0.10430000  0.89142000  1.0
  O  O108  1  0.79348000  0.15766000  0.93460000  1.0
  O  O109  1  0.51188000  0.79897000  0.17845000  1.0
  O  O110  1  0.23886000  0.46112000  0.20664000  1.0
