# generated using pymatgen
data_Nd2H16C28N4O17
_symmetry_space_group_name_H-M   'P 1'
_cell_length_a   10.50830000
_cell_length_b   12.13170000
_cell_length_c   12.68900000
_cell_angle_alpha   109.94300000
_cell_angle_beta   100.71700000
_cell_angle_gamma   90.66090000
_symmetry_Int_Tables_number   1
_chemical_formula_structural   Nd2H16C28N4O17
_chemical_formula_sum   'Nd4 H32 C56 N8 O34'
_cell_volume   1489.18047565
_cell_formula_units_Z   2
loop_
 _symmetry_equiv_pos_site_id
 _symmetry_equiv_pos_as_xyz
  1  'x, y, z'
loop_
 _atom_site_type_symbol
 _atom_site_label
 _atom_site_symmetry_multiplicity
 _atom_site_fract_x
 _atom_site_fract_y
 _atom_site_fract_z
 _atom_site_occupancy
  Nd  Nd0  1  0.99135000  0.32205000  0.89006000  1.0
  Nd  Nd1  1  0.00864000  0.67795000  0.10994000  1.0
  Nd  Nd2  1  0.14388000  0.05989000  0.64381000  1.0
  Nd  Nd3  1  0.85612000  0.94011000  0.35619000  1.0
  H  H4  1  0.66055000  0.22704000  0.89047000  1.0
  H  H5  1  0.33945000  0.77296000  0.10953000  1.0
  H  H6  1  0.86826000  0.86307000  0.87250000  1.0
  H  H7  1  0.13175000  0.13693000  0.12750000  1.0
  H  H8  1  0.62811000  0.86655000  0.87482000  1.0
  H  H9  1  0.37189000  0.13345000  0.12518000  1.0
  H  H10  1  0.52273000  0.05308000  0.88604000  1.0
  H  H11  1  0.47727000  0.94692000  0.11397000  1.0
  H  H12  1  0.28054000  0.87366000  0.72569000  1.0
  H  H13  1  0.71946000  0.12633000  0.27432000  1.0
  H  H14  1  0.21537000  0.95581000  0.82237000  1.0
  H  H15  1  0.78463000  0.04419000  0.17764000  1.0
  H  H16  1  0.21370000  0.51445000  0.79913000  1.0
  H  H17  1  0.78630000  0.48556000  0.20087000  1.0
  H  H18  1  0.54115000  0.31391000  0.83947000  1.0
  H  H19  1  0.45885000  0.68609000  0.16053000  1.0
  H  H20  1  0.60030000  0.68929000  0.93047000  1.0
  H  H21  1  0.39970000  0.31071000  0.06953000  1.0
  H  H22  1  0.63964000  0.29386000  0.67043000  1.0
  H  H23  1  0.36036000  0.70614000  0.32957000  1.0
  H  H24  1  0.40604000  0.26097000  0.56028000  1.0
  H  H25  1  0.59396000  0.73902000  0.43972000  1.0
  H  H26  1  0.52106000  0.95898000  0.30901000  1.0
  H  H27  1  0.47894000  0.04102000  0.69099000  1.0
  H  H28  1  0.34787000  0.09076000  0.37570000  1.0
  H  H29  1  0.65213000  0.90924000  0.62429000  1.0
  H  H30  1  0.22191000  0.39343000  0.57618000  1.0
  H  H31  1  0.77809000  0.60657000  0.42382000  1.0
  H  H32  1  0.13360000  0.58489000  0.34328000  1.0
  H  H33  1  0.86640000  0.41511000  0.65672000  1.0
  H  H34  1  0.99556000  0.21912000  0.23650000  1.0
  H  H35  1  0.00444000  0.78088000  0.76350000  1.0
  C  C36  1  0.70016000  0.14278000  0.88257000  1.0
  C  C37  1  0.29984000  0.85722000  0.11743000  1.0
  C  C38  1  0.88200000  0.03919000  0.87009000  1.0
  C  C39  1  0.11800000  0.96081000  0.12991000  1.0
  C  C40  1  0.81560000  0.93969000  0.87172000  1.0
  C  C41  1  0.18441000  0.06031000  0.12828000  1.0
  C  C42  1  0.68411000  0.94280000  0.87523000  1.0
  C  C43  1  0.31589000  0.05720000  0.12477000  1.0
  C  C44  1  0.62517000  0.04665000  0.88173000  1.0
  C  C45  1  0.37483000  0.95335000  0.11827000  1.0
  C  C46  1  0.28427000  0.29016000  0.77516000  1.0
  C  C47  1  0.71573000  0.70984000  0.22484000  1.0
  C  C48  1  0.83691000  0.16147000  0.60531000  1.0
  C  C49  1  0.16309000  0.83853000  0.39469000  1.0
  C  C50  1  0.69739000  0.14453000  0.54487000  1.0
  C  C51  1  0.30261000  0.85547000  0.45514000  1.0
  C  C52  1  0.31777000  0.50958000  0.82317000  1.0
  C  C53  1  0.68222000  0.49042000  0.17683000  1.0
  C  C54  1  0.36923000  0.40262000  0.81686000  1.0
  C  C55  1  0.63077000  0.59738000  0.18314000  1.0
  C  C56  1  0.50373000  0.39892000  0.84813000  1.0
  C  C57  1  0.49627000  0.60108000  0.15187000  1.0
  C  C58  1  0.58781000  0.50108000  0.89133000  1.0
  C  C59  1  0.41219000  0.49892000  0.10868000  1.0
  C  C60  1  0.40376000  0.60990000  0.86074000  1.0
  C  C61  1  0.59624000  0.39010000  0.13926000  1.0
  C  C62  1  0.73138000  0.49796000  0.93365000  1.0
  C  C63  1  0.26862000  0.50204000  0.06636000  1.0
  C  C64  1  0.53676000  0.60850000  0.89758000  1.0
  C  C65  1  0.46324000  0.39150000  0.10242000  1.0
  C  C66  1  0.60748000  0.22173000  0.58950000  1.0
  C  C67  1  0.39251000  0.77827000  0.41050000  1.0
  C  C68  1  0.47976000  0.20362000  0.52833000  1.0
  C  C69  1  0.52024000  0.79638000  0.47167000  1.0
  C  C70  1  0.54228000  0.03480000  0.38797000  1.0
  C  C71  1  0.45772000  0.96520000  0.61203000  1.0
  C  C72  1  0.44676000  0.10857000  0.42571000  1.0
  C  C73  1  0.55325000  0.89143000  0.57429000  1.0
  C  C74  1  0.08715000  0.18424000  0.43621000  1.0
  C  C75  1  0.91285000  0.81576000  0.56379000  1.0
  C  C76  1  0.10436000  0.29494000  0.40981000  1.0
  C  C77  1  0.89564000  0.70505000  0.59019000  1.0
  C  C78  1  0.17576000  0.39492000  0.49253000  1.0
  C  C79  1  0.82424000  0.60508000  0.50747000  1.0
  C  C80  1  0.06378000  0.39996000  0.27566000  1.0
  C  C81  1  0.93622000  0.60004000  0.72434000  1.0
  C  C82  1  0.12581000  0.50332000  0.36071000  1.0
  C  C83  1  0.87419000  0.49668000  0.63929000  1.0
  C  C84  1  0.04968000  0.29760000  0.30153000  1.0
  C  C85  1  0.95032000  0.70240000  0.69847000  1.0
  C  C86  1  0.18260000  0.49745000  0.46688000  1.0
  C  C87  1  0.81740000  0.50255000  0.53312000  1.0
  C  C88  1  0.02230000  0.03908000  0.86248000  1.0
  C  C89  1  0.97770000  0.96092000  0.13752000  1.0
  C  C90  1  0.01922000  0.39518000  0.15471000  1.0
  C  C91  1  0.98078000  0.60482000  0.84529000  1.0
  N  N92  1  0.82558000  0.13935000  0.87440000  1.0
  N  N93  1  0.17443000  0.86065000  0.12560000  1.0
  N  N94  1  0.66575000  0.05245000  0.44599000  1.0
  N  N95  1  0.33425000  0.94755000  0.55401000  1.0
  N  N96  1  0.35288000  0.72103000  0.85773000  1.0
  N  N97  1  0.64712000  0.27897000  0.14227000  1.0
  N  N98  1  0.25654000  0.60230000  0.55454000  1.0
  N  N99  1  0.74346000  0.39770000  0.44546000  1.0
  O  O100  1  0.16032000  0.29157000  0.76092000  1.0
  O  O101  1  0.83968000  0.70843000  0.23908000  1.0
  O  O102  1  0.33954000  0.19448000  0.75085000  1.0
  O  O103  1  0.66046000  0.80553000  0.24915000  1.0
  O  O104  1  0.91278000  0.08509000  0.56064000  1.0
  O  O105  1  0.08722000  0.91491000  0.43937000  1.0
  O  O106  1  0.87137000  0.24910000  0.69584000  1.0
  O  O107  1  0.12863000  0.75090000  0.30416000  1.0
  O  O108  1  0.23491000  0.72104000  0.82181000  1.0
  O  O109  1  0.76509000  0.27896000  0.17819000  1.0
  O  O110  1  0.79447000  0.59616000  0.99247000  1.0
  O  O111  1  0.20553000  0.40384000  0.00753000  1.0
  O  O112  1  0.77739000  0.39776000  0.90803000  1.0
  O  O113  1  0.22260000  0.60224000  0.09197000  1.0
  O  O114  1  0.43121000  0.80904000  0.88987000  1.0
  O  O115  1  0.56879000  0.19096000  0.11013000  1.0
  O  O116  1  0.06594000  0.12155000  0.83001000  1.0
  O  O117  1  0.93406000  0.87845000  0.16999000  1.0
  O  O118  1  0.16452000  0.17535000  0.52246000  1.0
  O  O119  1  0.83547000  0.82465000  0.47754000  1.0
  O  O120  1  0.99681000  0.10855000  0.37022000  1.0
  O  O121  1  0.00319000  0.89145000  0.62978000  1.0
  O  O122  1  0.35601000  0.58733000  0.61657000  1.0
  O  O123  1  0.64399000  0.41267000  0.38343000  1.0
  O  O124  1  0.21599000  0.69998000  0.56166000  1.0
  O  O125  1  0.78401000  0.30002000  0.43834000  1.0
  O  O126  1  0.08938000  0.96281000  0.88427000  1.0
  O  O127  1  0.91062000  0.03719000  0.11573000  1.0
  O  O128  1  0.27003000  0.95653000  0.76502000  1.0
  O  O129  1  0.72998000  0.04347000  0.23498000  1.0
  O  O130  1  0.00804000  0.29551000  0.07583000  1.0
  O  O131  1  0.99196000  0.70449000  0.92417000  1.0
  O  O132  1  0.99825000  0.49077000  0.13506000  1.0
  O  O133  1  0.00175000  0.50923000  0.86494000  1.0
