# generated using pymatgen
data_CoH3C6(NO2)2
_symmetry_space_group_name_H-M   'P 1'
_cell_length_a   5.69954000
_cell_length_b   8.11389000
_cell_length_c   9.55273000
_cell_angle_alpha   64.96530000
_cell_angle_beta   89.82220000
_cell_angle_gamma   89.50860000
_symmetry_Int_Tables_number   1
_chemical_formula_structural   CoH3C6(NO2)2
_chemical_formula_sum   'Co2 H6 C12 N4 O8'
_cell_volume   400.25184637
_cell_formula_units_Z   2
loop_
 _symmetry_equiv_pos_site_id
 _symmetry_equiv_pos_as_xyz
  1  'x, y, z'
loop_
 _atom_site_type_symbol
 _atom_site_label
 _atom_site_symmetry_multiplicity
 _atom_site_fract_x
 _atom_site_fract_y
 _atom_site_fract_z
 _atom_site_occupancy
  Co  Co0  1  0.50028000  0.15099000  0.69832000  1.0
  Co  Co1  1  0.49946000  0.84879000  0.30165000  1.0
  H  H2  1  0.94558000  0.89072000  0.74838000  1.0
  H  H3  1  0.05573000  0.36191000  0.74859000  1.0
  H  H4  1  0.05459000  0.10957000  0.25166000  1.0
  H  H5  1  0.94457000  0.63865000  0.25150000  1.0
  H  H6  1  0.11784000  0.66418000  0.99988000  1.0
  H  H7  1  0.88287000  0.33660000  0.00020000  1.0
  C  C8  1  0.59911000  0.94714000  0.99997000  1.0
  C  C9  1  0.40055000  0.05276000  0.00003000  1.0
  C  C10  1  0.87062000  0.87012000  0.85955000  1.0
  C  C11  1  0.13013000  0.27103000  0.85977000  1.0
  C  C12  1  0.12950000  0.13015000  0.14043000  1.0
  C  C13  1  0.87011000  0.72942000  0.14024000  1.0
  C  C14  1  0.96583000  0.74645000  0.99992000  1.0
  C  C15  1  0.03457000  0.25409000  0.00015000  1.0
  C  C16  1  0.38996000  0.94234000  0.53563000  1.0
  C  C17  1  0.60988000  0.52184000  0.53554000  1.0
  C  C18  1  0.60968000  0.05716000  0.46442000  1.0
  C  C19  1  0.39013000  0.47776000  0.46433000  1.0
  N  N20  1  0.68318000  0.97348000  0.85985000  1.0
  N  N21  1  0.31737000  0.16718000  0.85993000  1.0
  N  N22  1  0.31661000  0.02650000  0.14014000  1.0
  N  N23  1  0.68249000  0.83293000  0.14002000  1.0
  O  O24  1  0.31218000  0.93835000  0.66025000  1.0
  O  O25  1  0.68810000  0.40167000  0.66011000  1.0
  O  O26  1  0.68753000  0.06113000  0.33982000  1.0
  O  O27  1  0.31201000  0.59786000  0.33971000  1.0
  O  O28  1  0.30096000  0.85856000  0.46146000  1.0
  O  O29  1  0.69835000  0.67970000  0.46142000  1.0
  O  O30  1  0.69871000  0.14097000  0.53858000  1.0
  O  O31  1  0.30151000  0.32000000  0.53855000  1.0
