# generated using pymatgen
data_GdH24C27NO10
_symmetry_space_group_name_H-M   'P 1'
_cell_length_a   10.62860000
_cell_length_b   11.39000000
_cell_length_c   11.73900000
_cell_angle_alpha   104.86900000
_cell_angle_beta   106.89800000
_cell_angle_gamma   95.96930000
_symmetry_Int_Tables_number   1
_chemical_formula_structural   GdH24C27NO10
_chemical_formula_sum   'Gd2 H48 C54 N2 O20'
_cell_volume   1289.49292935
_cell_formula_units_Z   2
loop_
 _symmetry_equiv_pos_site_id
 _symmetry_equiv_pos_as_xyz
  1  'x, y, z'
loop_
 _atom_site_type_symbol
 _atom_site_label
 _atom_site_symmetry_multiplicity
 _atom_site_fract_x
 _atom_site_fract_y
 _atom_site_fract_z
 _atom_site_occupancy
  Gd  Gd0  1  0.09895000  0.55913000  0.37540000  1.0
  Gd  Gd1  1  0.90105000  0.44087000  0.62460000  1.0
  H  H2  1  0.04960000  0.47144000  0.10723000  1.0
  H  H3  1  0.95040000  0.52856000  0.89277000  1.0
  H  H4  1  0.90210000  0.49551000  0.09304000  1.0
  H  H5  1  0.09790000  0.50448000  0.90696000  1.0
  H  H6  1  0.92586000  0.90396000  0.55035000  1.0
  H  H7  1  0.07415000  0.09605000  0.44965000  1.0
  H  H8  1  0.76222000  0.14878000  0.52139000  1.0
  H  H9  1  0.23778000  0.85122000  0.47862000  1.0
  H  H10  1  0.08198000  0.21087000  0.88814000  1.0
  H  H11  1  0.91802000  0.78913000  0.11186000  1.0
  H  H12  1  0.19958000  0.07355000  0.99831000  1.0
  H  H13  1  0.80043000  0.92645000  0.00169000  1.0
  H  H14  1  0.28890000  0.75601000  0.76583000  1.0
  H  H15  1  0.71110000  0.24399000  0.23417000  1.0
  H  H16  1  0.43236000  0.64732000  0.89231000  1.0
  H  H17  1  0.56764000  0.35268000  0.10769000  1.0
  H  H18  1  0.26644000  0.77018000  0.18588000  1.0
  H  H19  1  0.73355000  0.22982000  0.81412000  1.0
  H  H20  1  0.12988000  0.88739000  0.06334000  1.0
  H  H21  1  0.87011000  0.11261000  0.93666000  1.0
  H  H22  1  0.62273000  0.74114000  0.09068000  1.0
  H  H23  1  0.37727000  0.25886000  0.90932000  1.0
  H  H24  1  0.79922000  0.66717000  0.23103000  1.0
  H  H25  1  0.20078000  0.33283000  0.76897000  1.0
  H  H26  1  0.49659000  0.47827000  0.33188000  1.0
  H  H27  1  0.50341000  0.52173000  0.66812000  1.0
  H  H28  1  0.44140000  0.62108000  0.48691000  1.0
  H  H29  1  0.55860000  0.37891000  0.51310000  1.0
  H  H30  1  0.72876000  0.81600000  0.59092000  1.0
  H  H31  1  0.27123000  0.18400000  0.40908000  1.0
  H  H32  1  0.64994000  0.66712000  0.57991000  1.0
  H  H33  1  0.35006000  0.33288000  0.42009000  1.0
  H  H34  1  0.74552000  0.89475000  0.81423000  1.0
  H  H35  1  0.25448000  0.10524000  0.18577000  1.0
  H  H36  1  0.81879000  0.76066000  0.78798000  1.0
  H  H37  1  0.18121000  0.23934000  0.21202000  1.0
  H  H38  1  0.65753000  0.74868000  0.80581000  1.0
  H  H39  1  0.34247000  0.25132000  0.19419000  1.0
  H  H40  1  0.45771000  0.95393000  0.54961000  1.0
  H  H41  1  0.54229000  0.04607000  0.45039000  1.0
  H  H42  1  0.62110000  0.98732000  0.65940000  1.0
  H  H43  1  0.37890000  0.01268000  0.34060000  1.0
  H  H44  1  0.35788000  0.91041000  0.70676000  1.0
  H  H45  1  0.64212000  0.08959000  0.29323000  1.0
  H  H46  1  0.45448000  0.06239000  0.75972000  1.0
  H  H47  1  0.54552000  0.93761000  0.24028000  1.0
  H  H48  1  0.52063000  0.94596000  0.82067000  1.0
  H  H49  1  0.47937000  0.05404000  0.17933000  1.0
  C  C50  1  0.03546000  0.73064000  0.63648000  1.0
  C  C51  1  0.96455000  0.26936000  0.36352000  1.0
  C  C52  1  0.05302000  0.86412000  0.71015000  1.0
  C  C53  1  0.94698000  0.13588000  0.28985000  1.0
  C  C54  1  0.98583000  0.94081000  0.64894000  1.0
  C  C55  1  0.01417000  0.05919000  0.35106000  1.0
  C  C56  1  0.99413000  0.06479000  0.71290000  1.0
  C  C57  1  0.00587000  0.93521000  0.28710000  1.0
  C  C58  1  0.07345000  0.11353000  0.83915000  1.0
  C  C59  1  0.92654000  0.88647000  0.16085000  1.0
  C  C60  1  0.13821000  0.03625000  0.90037000  1.0
  C  C61  1  0.86179000  0.96375000  0.09963000  1.0
  C  C62  1  0.12877000  0.91062000  0.83830000  1.0
  C  C63  1  0.87123000  0.08938000  0.16170000  1.0
  C  C64  1  0.91805000  0.14474000  0.65063000  1.0
  C  C65  1  0.08195000  0.85526000  0.34937000  1.0
  C  C66  1  0.20248000  0.83339000  0.90731000  1.0
  C  C67  1  0.79752000  0.16661000  0.09269000  1.0
  C  C68  1  0.28511000  0.76143000  0.85871000  1.0
  C  C69  1  0.71489000  0.23857000  0.14129000  1.0
  C  C70  1  0.36576000  0.69987000  0.92973000  1.0
  C  C71  1  0.63424000  0.30013000  0.07027000  1.0
  C  C72  1  0.36176000  0.70286000  0.04872000  1.0
  C  C73  1  0.63823000  0.29714000  0.95128000  1.0
  C  C74  1  0.27313000  0.76877000  0.09450000  1.0
  C  C75  1  0.72687000  0.23123000  0.90550000  1.0
  C  C76  1  0.19678000  0.83505000  0.02584000  1.0
  C  C77  1  0.80322000  0.16495000  0.97416000  1.0
  C  C78  1  0.45853000  0.64753000  0.12715000  1.0
  C  C79  1  0.54147000  0.35247000  0.87285000  1.0
  C  C80  1  0.59485000  0.68083000  0.14169000  1.0
  C  C81  1  0.40515000  0.31918000  0.85831000  1.0
  C  C82  1  0.69415000  0.64156000  0.22152000  1.0
  C  C83  1  0.30585000  0.35844000  0.77847000  1.0
  C  C84  1  0.65933000  0.57031000  0.29285000  1.0
  C  C85  1  0.34067000  0.42969000  0.70715000  1.0
  C  C86  1  0.52419000  0.53594000  0.27858000  1.0
  C  C87  1  0.47581000  0.46406000  0.72142000  1.0
  C  C88  1  0.42294000  0.57028000  0.19418000  1.0
  C  C89  1  0.57706000  0.42972000  0.80582000  1.0
  C  C90  1  0.27975000  0.51895000  0.17693000  1.0
  C  C91  1  0.72025000  0.48105000  0.82307000  1.0
  C  C92  1  0.76568000  0.52967000  0.38095000  1.0
  C  C93  1  0.23432000  0.47033000  0.61905000  1.0
  C  C94  1  0.42407000  0.71591000  0.51428000  1.0
  C  C95  1  0.57593000  0.28408000  0.48572000  1.0
  C  C96  1  0.66244000  0.76631000  0.62707000  1.0
  C  C97  1  0.33756000  0.23369000  0.37293000  1.0
  C  C98  1  0.72436000  0.79462000  0.76757000  1.0
  C  C99  1  0.27564000  0.20538000  0.23244000  1.0
  C  C100  1  0.51996000  0.93213000  0.63122000  1.0
  C  C101  1  0.48003000  0.06787000  0.36877000  1.0
  C  C102  1  0.45988000  0.96374000  0.73600000  1.0
  C  C103  1  0.54012000  0.03626000  0.26400000  1.0
  N  N104  1  0.53086000  0.80146000  0.58966000  1.0
  N  N105  1  0.46914000  0.19854000  0.41034000  1.0
  O  O106  1  0.98235000  0.48262000  0.15182000  1.0
  O  O107  1  0.01765000  0.51738000  0.84818000  1.0
  O  O108  1  0.09584000  0.70906000  0.55710000  1.0
  O  O109  1  0.90416000  0.29094000  0.44290000  1.0
  O  O110  1  0.95885000  0.65296000  0.65833000  1.0
  O  O111  1  0.04115000  0.34704000  0.34167000  1.0
  O  O112  1  0.81443000  0.08467000  0.54912000  1.0
  O  O113  1  0.18557000  0.91533000  0.45088000  1.0
  O  O114  1  0.94811000  0.25980000  0.69348000  1.0
  O  O115  1  0.05189000  0.74020000  0.30652000  1.0
  O  O116  1  0.19268000  0.48280000  0.06916000  1.0
  O  O117  1  0.80732000  0.51720000  0.93085000  1.0
  O  O118  1  0.25648000  0.51236000  0.27669000  1.0
  O  O119  1  0.74352000  0.48764000  0.72331000  1.0
  O  O120  1  0.73540000  0.48789000  0.46236000  1.0
  O  O121  1  0.26460000  0.51211000  0.53764000  1.0
  O  O122  1  0.88141000  0.53956000  0.37020000  1.0
  O  O123  1  0.11859000  0.46044000  0.62980000  1.0
  O  O124  1  0.30764000  0.73679000  0.47347000  1.0
  O  O125  1  0.69236000  0.26321000  0.52653000  1.0
