# generated using pymatgen
data_ZnH9C13(NO)5
_symmetry_space_group_name_H-M   'P 1'
_cell_length_a   7.68581000
_cell_length_b   9.22124000
_cell_length_c   9.22123000
_cell_angle_alpha   96.37440000
_cell_angle_beta   92.68420000
_cell_angle_gamma   92.68410000
_symmetry_Int_Tables_number   1
_chemical_formula_structural   ZnH9C13(NO)5
_chemical_formula_sum   'Zn2 H18 C26 N10 O10'
_cell_volume   647.88881504
_cell_formula_units_Z   2
loop_
 _symmetry_equiv_pos_site_id
 _symmetry_equiv_pos_as_xyz
  1  'x, y, z'
loop_
 _atom_site_type_symbol
 _atom_site_label
 _atom_site_symmetry_multiplicity
 _atom_site_fract_x
 _atom_site_fract_y
 _atom_site_fract_z
 _atom_site_occupancy
  Zn  Zn0  1  0.50000000  0.00000000  0.00000000  1.0
  Zn  Zn1  1  0.00000000  0.00000000  0.00000000  1.0
  H  H2  1  0.99206000  0.63908000  0.99083000  1.0
  H  H3  1  0.50794000  0.00917000  0.36092000  1.0
  H  H4  1  0.00794000  0.36092000  0.00917000  1.0
  H  H5  1  0.49206000  0.99083000  0.63908000  1.0
  H  H6  1  0.09805000  0.91822000  0.67075000  1.0
  H  H7  1  0.40195000  0.32925000  0.08179000  1.0
  H  H8  1  0.90195000  0.08178000  0.32925000  1.0
  H  H9  1  0.59805000  0.67075000  0.91822000  1.0
  H  H10  1  0.25000000  0.43149000  0.56852000  1.0
  H  H11  1  0.75000000  0.56851000  0.43149000  1.0
  H  H12  1  0.10070000  0.84537000  0.43583000  1.0
  H  H13  1  0.39930000  0.56416000  0.15463000  1.0
  H  H14  1  0.89930000  0.15463000  0.56417000  1.0
  H  H15  1  0.60070000  0.43583000  0.84537000  1.0
  H  H16  1  0.10207000  0.47148000  0.74851000  1.0
  H  H17  1  0.39793000  0.25149000  0.52852000  1.0
  H  H18  1  0.89792000  0.52852000  0.25149000  1.0
  H  H19  1  0.60207000  0.74851000  0.47148000  1.0
  C  C20  1  0.25000000  0.71373000  0.28627000  1.0
  C  C21  1  0.75000000  0.28627000  0.71373000  1.0
  C  C22  1  0.03093000  0.67135000  0.88718000  1.0
  C  C23  1  0.46908000  0.11282000  0.32865000  1.0
  C  C24  1  0.96907000  0.32865000  0.11282000  1.0
  C  C25  1  0.53093000  0.88718000  0.67135000  1.0
  C  C26  1  0.07736000  0.81947000  0.72262000  1.0
  C  C27  1  0.42264000  0.27738000  0.18053000  1.0
  C  C28  1  0.92265000  0.18053000  0.27738000  1.0
  C  C29  1  0.57735000  0.72261000  0.81947000  1.0
  C  C30  1  0.25000000  0.51060000  0.48940000  1.0
  C  C31  1  0.75000000  0.48940000  0.51061000  1.0
  C  C32  1  0.17620000  0.64549000  0.52160000  1.0
  C  C33  1  0.32380000  0.47840000  0.35451000  1.0
  C  C34  1  0.82380000  0.35451000  0.47840000  1.0
  C  C35  1  0.67620000  0.52160000  0.64549000  1.0
  C  C36  1  0.16782000  0.74428000  0.41733000  1.0
  C  C37  1  0.33218000  0.58267000  0.25572000  1.0
  C  C38  1  0.83218000  0.25572000  0.58267000  1.0
  C  C39  1  0.66782000  0.41733000  0.74428000  1.0
  C  C40  1  0.08288000  0.58740000  0.76695000  1.0
  C  C41  1  0.41712000  0.23305000  0.41260000  1.0
  C  C42  1  0.91712000  0.41260000  0.23305000  1.0
  C  C43  1  0.58287000  0.76695000  0.58740000  1.0
  C  C44  1  0.25000000  0.82352000  0.17648000  1.0
  C  C45  1  0.75000000  0.17647000  0.82352000  1.0
  N  N46  1  0.02841000  0.81538000  0.85817000  1.0
  N  N47  1  0.47159000  0.14183000  0.18462000  1.0
  N  N48  1  0.97159000  0.18462000  0.14183000  1.0
  N  N49  1  0.52841000  0.85817000  0.81538000  1.0
  N  N50  1  0.11173000  0.68211000  0.66214000  1.0
  N  N51  1  0.38827000  0.33786000  0.31789000  1.0
  N  N52  1  0.88827000  0.31789000  0.33786000  1.0
  N  N53  1  0.61173000  0.66214000  0.68211000  1.0
  N  N54  1  0.25000000  0.18477000  0.81523000  1.0
  N  N55  1  0.75000000  0.81523000  0.18477000  1.0
  O  O56  1  0.25000000  0.09008000  0.90992000  1.0
  O  O57  1  0.75000000  0.90992000  0.09008000  1.0
  O  O58  1  0.37930000  0.82545000  0.09589000  1.0
  O  O59  1  0.12070000  0.90411000  0.17455000  1.0
  O  O60  1  0.62070000  0.17455000  0.90411000  1.0
  O  O61  1  0.87930000  0.09589000  0.82545000  1.0
  O  O62  1  0.25366000  0.31832000  0.85995000  1.0
  O  O63  1  0.24634000  0.14005000  0.68168000  1.0
  O  O64  1  0.74634000  0.68168000  0.14005000  1.0
  O  O65  1  0.75366000  0.85995000  0.31832000  1.0
