# generated using pymatgen
data_Sm2CuH16C32(N2O13)2
_symmetry_space_group_name_H-M   'P 1'
_cell_length_a   9.85530000
_cell_length_b   10.42070000
_cell_length_c   11.07120000
_cell_angle_alpha   69.63830000
_cell_angle_beta   84.84440000
_cell_angle_gamma   70.73420000
_symmetry_Int_Tables_number   1
_chemical_formula_structural   Sm2CuH16C32(N2O13)2
_chemical_formula_sum   'Sm2 Cu1 H16 C32 N4 O26'
_cell_volume   1005.86130342
_cell_formula_units_Z   1
loop_
 _symmetry_equiv_pos_site_id
 _symmetry_equiv_pos_as_xyz
  1  'x, y, z'
loop_
 _atom_site_type_symbol
 _atom_site_label
 _atom_site_symmetry_multiplicity
 _atom_site_fract_x
 _atom_site_fract_y
 _atom_site_fract_z
 _atom_site_occupancy
  Sm  Sm0  1  0.40375000  0.40745000  0.41597000  1.0
  Sm  Sm1  1  0.59625000  0.59255000  0.58404000  1.0
  Cu  Cu2  1  0.50000000  0.00000000  0.50000000  1.0
  H  H3  1  0.92048000  0.35876000  0.48330000  1.0
  H  H4  1  0.07953000  0.64124000  0.51671000  1.0
  H  H5  1  0.81309000  0.96606000  0.66498000  1.0
  H  H6  1  0.18690000  0.03395000  0.33501000  1.0
  H  H7  1  0.25422000  0.95331000  0.65412000  1.0
  H  H8  1  0.74578000  0.04669000  0.34588000  1.0
  H  H9  1  0.45135000  0.37259000  0.97840000  1.0
  H  H10  1  0.54865000  0.62741000  0.02160000  1.0
  H  H11  1  0.34978000  0.98705000  0.20325000  1.0
  H  H12  1  0.65022000  0.01295000  0.79675000  1.0
  H  H13  1  0.29157000  0.15080000  0.78983000  1.0
  H  H14  1  0.70845000  0.84920000  0.21017000  1.0
  H  H15  1  0.22842000  0.67718000  0.18224000  1.0
  H  H16  1  0.77158000  0.32282000  0.81776000  1.0
  H  H17  1  0.15272000  0.55664000  0.21893000  1.0
  H  H18  1  0.84729000  0.44336000  0.78107000  1.0
  C  C19  1  0.09821000  0.16395000  0.56031000  1.0
  C  C20  1  0.90179000  0.83605000  0.43970000  1.0
  C  C21  1  0.95174000  0.24285000  0.53541000  1.0
  C  C22  1  0.04827000  0.75715000  0.46458000  1.0
  C  C23  1  0.84899000  0.17183000  0.57121000  1.0
  C  C24  1  0.15101000  0.82817000  0.42878000  1.0
  C  C25  1  0.89125000  0.02356000  0.63913000  1.0
  C  C26  1  0.10875000  0.97645000  0.36086000  1.0
  C  C27  1  0.03575000  0.94973000  0.67269000  1.0
  C  C28  1  0.96424000  0.05027000  0.32731000  1.0
  C  C29  1  0.14151000  0.01626000  0.63171000  1.0
  C  C30  1  0.85849000  0.98374000  0.36829000  1.0
  C  C31  1  0.20358000  0.24210000  0.50409000  1.0
  C  C32  1  0.79642000  0.75790000  0.49591000  1.0
  C  C33  1  0.69565000  0.25173000  0.52950000  1.0
  C  C34  1  0.30435000  0.74828000  0.47049000  1.0
  C  C35  1  0.37633000  0.26985000  0.87161000  1.0
  C  C36  1  0.62367000  0.73015000  0.12839000  1.0
  C  C37  1  0.41092000  0.28483000  0.98518000  1.0
  C  C38  1  0.58909000  0.71516000  0.01483000  1.0
  C  C39  1  0.39972000  0.18398000  0.10500000  1.0
  C  C40  1  0.60028000  0.81601000  0.89501000  1.0
  C  C41  1  0.35098000  0.07029000  0.11147000  1.0
  C  C42  1  0.64903000  0.92971000  0.88853000  1.0
  C  C43  1  0.30614000  0.06422000  0.99871000  1.0
  C  C44  1  0.69386000  0.93578000  0.00129000  1.0
  C  C45  1  0.31941000  0.16133000  0.87795000  1.0
  C  C46  1  0.68059000  0.83867000  0.12205000  1.0
  C  C47  1  0.40980000  0.36290000  0.74153000  1.0
  C  C48  1  0.59021000  0.63709000  0.25848000  1.0
  C  C49  1  0.44105000  0.18884000  0.23047000  1.0
  C  C50  1  0.55894000  0.81116000  0.76953000  1.0
  N  N51  1  0.07740000  0.79447000  0.74928000  1.0
  N  N52  1  0.92259000  0.20553000  0.25071000  1.0
  N  N53  1  0.24801000  0.94854000  0.00906000  1.0
  N  N54  1  0.75200000  0.05146000  0.99094000  1.0
  O  O55  1  0.33873000  0.17372000  0.50066000  1.0
  O  O56  1  0.66127000  0.82628000  0.49934000  1.0
  O  O57  1  0.16068000  0.37851000  0.45770000  1.0
  O  O58  1  0.83932000  0.62149000  0.54231000  1.0
  O  O59  1  0.64275000  0.38377000  0.52314000  1.0
  O  O60  1  0.35725000  0.61624000  0.47686000  1.0
  O  O61  1  0.62121000  0.18993000  0.49654000  1.0
  O  O62  1  0.37880000  0.81007000  0.50345000  1.0
  O  O63  1  0.97891000  0.74142000  0.78905000  1.0
  O  O64  1  0.02108000  0.25860000  0.21094000  1.0
  O  O65  1  0.20716000  0.72597000  0.76878000  1.0
  O  O66  1  0.79284000  0.27402000  0.23121000  1.0
  O  O67  1  0.37636000  0.34034000  0.64448000  1.0
  O  O68  1  0.62366000  0.65964000  0.35553000  1.0
  O  O69  1  0.47357000  0.45127000  0.74025000  1.0
  O  O70  1  0.52644000  0.54873000  0.25975000  1.0
  O  O71  1  0.42453000  0.30830000  0.24332000  1.0
  O  O72  1  0.57546000  0.69170000  0.75667000  1.0
  O  O73  1  0.48950000  0.06229000  0.31524000  1.0
  O  O74  1  0.51049000  0.93772000  0.68477000  1.0
  O  O75  1  0.25534000  0.85429000  0.11781000  1.0
  O  O76  1  0.74466000  0.14571000  0.88219000  1.0
  O  O77  1  0.19451000  0.94932000  0.91191000  1.0
  O  O78  1  0.80550000  0.05068000  0.08808000  1.0
  O  O79  1  0.21621000  0.59214000  0.25142000  1.0
  O  O80  1  0.78379000  0.40786000  0.74858000  1.0
