# generated using pymatgen
data_Li3PuH12C14N2O13
_symmetry_space_group_name_H-M   'P 1'
_cell_length_a   8.61105000
_cell_length_b   9.63062000
_cell_length_c   12.72080000
_cell_angle_alpha   109.39400000
_cell_angle_beta   97.10580000
_cell_angle_gamma   106.17200000
_symmetry_Int_Tables_number   1
_chemical_formula_structural   Li3PuH12C14N2O13
_chemical_formula_sum   'Li6 Pu2 H24 C28 N4 O26'
_cell_volume   928.08695712
_cell_formula_units_Z   2
loop_
 _symmetry_equiv_pos_site_id
 _symmetry_equiv_pos_as_xyz
  1  'x, y, z'
loop_
 _atom_site_type_symbol
 _atom_site_label
 _atom_site_symmetry_multiplicity
 _atom_site_fract_x
 _atom_site_fract_y
 _atom_site_fract_z
 _atom_site_occupancy
  Li  Li0  1  0.37454000  0.59751000  0.45925000  1.0
  Li  Li1  1  0.62545000  0.40249000  0.54075000  1.0
  Li  Li2  1  0.16385000  0.29078000  0.29158000  1.0
  Li  Li3  1  0.83615000  0.70922000  0.70842000  1.0
  Li  Li4  1  0.34233000  0.97922000  0.88798000  1.0
  Li  Li5  1  0.65767000  0.02077000  0.11201000  1.0
  Pu  Pu6  1  0.50752000  0.74751000  0.25248000  1.0
  Pu  Pu7  1  0.49249000  0.25249000  0.74753000  1.0
  H  H8  1  0.37108000  0.75712000  0.66987000  1.0
  H  H9  1  0.62892000  0.24288000  0.33013000  1.0
  H  H10  1  0.44840000  0.87824000  0.61630000  1.0
  H  H11  1  0.55161000  0.12176000  0.38370000  1.0
  H  H12  1  0.19148000  0.68278000  0.78165000  1.0
  H  H13  1  0.80852000  0.31722000  0.21835000  1.0
  H  H14  1  0.38429000  0.70502000  0.82240000  1.0
  H  H15  1  0.61571000  0.29498000  0.17760000  1.0
  H  H16  1  0.37402000  0.37202000  0.16708000  1.0
  H  H17  1  0.62598000  0.62798000  0.83292000  1.0
  H  H18  1  0.30557000  0.18452000  0.12535000  1.0
  H  H19  1  0.69443000  0.81548000  0.87465000  1.0
  H  H20  1  0.04658000  0.69585000  0.52756000  1.0
  H  H21  1  0.95340000  0.30414000  0.47245000  1.0
  H  H22  1  0.28326000  0.87257000  0.48130000  1.0
  H  H23  1  0.71673000  0.12742000  0.51871000  1.0
  H  H24  1  0.21423000  0.01142000  0.35781000  1.0
  H  H25  1  0.78577000  0.98858000  0.64219000  1.0
  H  H26  1  0.79902000  0.48482000  0.13344000  1.0
  H  H27  1  0.20099000  0.51518000  0.86656000  1.0
  H  H28  1  0.73479000  0.63000000  0.01577000  1.0
  H  H29  1  0.26521000  0.37001000  0.98424000  1.0
  H  H30  1  0.97697000  0.83311000  0.99252000  1.0
  H  H31  1  0.02303000  0.16690000  0.00749000  1.0
  C  C32  1  0.71438000  0.65184000  0.45765000  1.0
  C  C33  1  0.28561000  0.34815000  0.54235000  1.0
  C  C34  1  0.86107000  0.73854000  0.42493000  1.0
  C  C35  1  0.13892000  0.26145000  0.57507000  1.0
  C  C36  1  0.02419000  0.75624000  0.47163000  1.0
  C  C37  1  0.97580000  0.24375000  0.52837000  1.0
  C  C38  1  0.15431000  0.85368000  0.44647000  1.0
  C  C39  1  0.84569000  0.14632000  0.55354000  1.0
  C  C40  1  0.11666000  0.93116000  0.37741000  1.0
  C  C41  1  0.88334000  0.06884000  0.62260000  1.0
  C  C42  1  0.95009000  0.90266000  0.33126000  1.0
  C  C43  1  0.04990000  0.09734000  0.66874000  1.0
  C  C44  1  0.90038000  0.97967000  0.25446000  1.0
  C  C45  1  0.09961000  0.02032000  0.74554000  1.0
  C  C46  1  0.11488000  0.52548000  0.24936000  1.0
  C  C47  1  0.88512000  0.47452000  0.75064000  1.0
  C  C48  1  0.06500000  0.60074000  0.17122000  1.0
  C  C49  1  0.93501000  0.39927000  0.82878000  1.0
  C  C50  1  0.89940000  0.57005000  0.12042000  1.0
  C  C51  1  0.10060000  0.42995000  0.87958000  1.0
  C  C52  1  0.86391000  0.65279000  0.05475000  1.0
  C  C53  1  0.13609000  0.34721000  0.94525000  1.0
  C  C54  1  0.99596000  0.76326000  0.04164000  1.0
  C  C55  1  0.00404000  0.23676000  0.95837000  1.0
  C  C56  1  0.15818000  0.78361000  0.09278000  1.0
  C  C57  1  0.84182000  0.21639000  0.90722000  1.0
  C  C58  1  0.30732000  0.89345000  0.07752000  1.0
  C  C59  1  0.69269000  0.10655000  0.92248000  1.0
  N  N60  1  0.82378000  0.80599000  0.35276000  1.0
  N  N61  1  0.17622000  0.19401000  0.64724000  1.0
  N  N62  1  0.19277000  0.70410000  0.15629000  1.0
  N  N63  1  0.80724000  0.29590000  0.84371000  1.0
  O  O64  1  0.50203000  0.56254000  0.14453000  1.0
  O  O65  1  0.49797000  0.43745000  0.85546000  1.0
  O  O66  1  0.40835000  0.76484000  0.60099000  1.0
  O  O67  1  0.59166000  0.23516000  0.39901000  1.0
  O  O68  1  0.50577000  0.92595000  0.36343000  1.0
  O  O69  1  0.49423000  0.07405000  0.63657000  1.0
  O  O70  1  0.30960000  0.75447000  0.79885000  1.0
  O  O71  1  0.69040000  0.24553000  0.20114000  1.0
  O  O72  1  0.57225000  0.63751000  0.40408000  1.0
  O  O73  1  0.42774000  0.36248000  0.59591000  1.0
  O  O74  1  0.31785000  0.28410000  0.18747000  1.0
  O  O75  1  0.68215000  0.71590000  0.81253000  1.0
  O  O76  1  0.74543000  0.92560000  0.20413000  1.0
  O  O77  1  0.25456000  0.07441000  0.79587000  1.0
  O  O78  1  0.73906000  0.60269000  0.53699000  1.0
  O  O79  1  0.26093000  0.39731000  0.46301000  1.0
  O  O80  1  0.00856000  0.08837000  0.24332000  1.0
  O  O81  1  0.99145000  0.91163000  0.75669000  1.0
  O  O82  1  0.26704000  0.58429000  0.30554000  1.0
  O  O83  1  0.73296000  0.41572000  0.69446000  1.0
  O  O84  1  0.44614000  0.87936000  0.10940000  1.0
  O  O85  1  0.55386000  0.12063000  0.89059000  1.0
  O  O86  1  0.01074000  0.40941000  0.25712000  1.0
  O  O87  1  0.98926000  0.59058000  0.74288000  1.0
  O  O88  1  0.28781000  0.98931000  0.03295000  1.0
  O  O89  1  0.71219000  0.01070000  0.96705000  1.0
