# generated using pymatgen
data_CuSiH16C24(N2F3)2
_symmetry_space_group_name_H-M   'P 1'
_cell_length_a   8.14635000
_cell_length_b   13.72100000
_cell_length_c   13.72110000
_cell_angle_alpha   89.99930000
_cell_angle_beta   89.99960000
_cell_angle_gamma   89.99840000
_symmetry_Int_Tables_number   1
_chemical_formula_structural   CuSiH16C24(N2F3)2
_chemical_formula_sum   'Cu1 Si1 H16 C24 N4 F6'
_cell_volume   1533.69061069
_cell_formula_units_Z   1
loop_
 _symmetry_equiv_pos_site_id
 _symmetry_equiv_pos_as_xyz
  1  'x, y, z'
loop_
 _atom_site_type_symbol
 _atom_site_label
 _atom_site_symmetry_multiplicity
 _atom_site_fract_x
 _atom_site_fract_y
 _atom_site_fract_z
 _atom_site_occupancy
  Cu  Cu0  1  0.50002000  0.49999000  0.50001000  1.0
  Si  Si1  1  0.00001000  0.49999000  0.50001000  1.0
  H  H2  1  0.24452000  0.65519000  0.49998000  1.0
  H  H3  1  0.23425000  0.83663000  0.50000000  1.0
  H  H4  1  0.76576000  0.83662000  0.50000000  1.0
  H  H5  1  0.75551000  0.65519000  0.49998000  1.0
  H  H6  1  0.23426000  0.16336000  0.49998000  1.0
  H  H7  1  0.24452000  0.34480000  0.49998000  1.0
  H  H8  1  0.75551000  0.34479000  0.50009000  1.0
  H  H9  1  0.76577000  0.16335000  0.50008000  1.0
  H  H10  1  0.24452000  0.50001000  0.65521000  1.0
  H  H11  1  0.23425000  0.49999000  0.83664000  1.0
  H  H12  1  0.76576000  0.49999000  0.83664000  1.0
  H  H13  1  0.75551000  0.50001000  0.65521000  1.0
  H  H14  1  0.23426000  0.50002000  0.16337000  1.0
  H  H15  1  0.24452000  0.50003000  0.34481000  1.0
  H  H16  1  0.75551000  0.49992000  0.34481000  1.0
  H  H17  1  0.76577000  0.49993000  0.16337000  1.0
  C  C18  1  0.35691000  0.69821000  0.49999000  1.0
  C  C19  1  0.35212000  0.79931000  0.50000000  1.0
  C  C20  1  0.50001000  0.85246000  0.50001000  1.0
  C  C21  1  0.64790000  0.79931000  0.50000000  1.0
  C  C22  1  0.64311000  0.69821000  0.49999000  1.0
  C  C23  1  0.50001000  0.95554000  0.50001000  1.0
  C  C24  1  0.50001000  0.04444000  0.50002000  1.0
  C  C25  1  0.50001000  0.14752000  0.50002000  1.0
  C  C26  1  0.35213000  0.20067000  0.50000000  1.0
  C  C27  1  0.35692000  0.30177000  0.50000000  1.0
  C  C28  1  0.64312000  0.30176000  0.50005000  1.0
  C  C29  1  0.64790000  0.20067000  0.50005000  1.0
  C  C30  1  0.35691000  0.50001000  0.69823000  1.0
  C  C31  1  0.35212000  0.49999000  0.79933000  1.0
  C  C32  1  0.50001000  0.49998000  0.85248000  1.0
  C  C33  1  0.64790000  0.49999000  0.79933000  1.0
  C  C34  1  0.64311000  0.50001000  0.69823000  1.0
  C  C35  1  0.50001000  0.49998000  0.95556000  1.0
  C  C36  1  0.50002000  0.49998000  0.04446000  1.0
  C  C37  1  0.50002000  0.49998000  0.14753000  1.0
  C  C38  1  0.35213000  0.50000000  0.20068000  1.0
  C  C39  1  0.35691000  0.50000000  0.30178000  1.0
  C  C40  1  0.64312000  0.49995000  0.30178000  1.0
  C  C41  1  0.64790000  0.49995000  0.20068000  1.0
  N  N42  1  0.50001000  0.64858000  0.49999000  1.0
  N  N43  1  0.50001000  0.35140000  0.50003000  1.0
  N  N44  1  0.50001000  0.50001000  0.64860000  1.0
  N  N45  1  0.50001000  0.49997000  0.35142000  1.0
  F  F46  1  0.21402000  0.49999000  0.50000000  1.0
  F  F47  1  0.78600000  0.50000000  0.50001000  1.0
  F  F48  1  0.00002000  0.58812000  0.41189000  1.0
  F  F49  1  0.00001000  0.41187000  0.58812000  1.0
  F  F50  1  0.00002000  0.58811000  0.58813000  1.0
  F  F51  1  0.00000000  0.41188000  0.41188000  1.0
