# generated using pymatgen
data_CoH12C12(NO)4
_symmetry_space_group_name_H-M   'P 1'
_cell_length_a   5.52015000
_cell_length_b   8.52362835
_cell_length_c   14.65260000
_cell_angle_alpha   89.50356048
_cell_angle_beta   79.43890000
_cell_angle_gamma   72.11554740
_symmetry_Int_Tables_number   1
_chemical_formula_structural   CoH12C12(NO)4
_chemical_formula_sum   'Co2 H24 C24 N8 O8'
_cell_volume   644.16432657
_cell_formula_units_Z   2
loop_
 _symmetry_equiv_pos_site_id
 _symmetry_equiv_pos_as_xyz
  1  'x, y, z'
loop_
 _atom_site_type_symbol
 _atom_site_label
 _atom_site_symmetry_multiplicity
 _atom_site_fract_x
 _atom_site_fract_y
 _atom_site_fract_z
 _atom_site_occupancy
  Co  Co0  1  0.91460000  0.24831000  0.25120000  1.0
  Co  Co1  1  0.09324000  0.75048000  0.74930000  1.0
  H  H2  1  0.32686000  0.92690000  0.22417000  1.0
  H  H3  1  0.01634000  0.41196000  0.72995000  1.0
  H  H4  1  0.66123000  0.08650000  0.76971000  1.0
  H  H5  1  0.96397000  0.58047000  0.28073000  1.0
  H  H6  1  0.44638000  0.67370000  0.30972000  1.0
  H  H7  1  0.05875000  0.15766000  0.81523000  1.0
  H  H8  1  0.53151000  0.33787000  0.68330000  1.0
  H  H9  1  0.92270000  0.83234000  0.19452000  1.0
  H  H10  1  0.74500000  0.88757000  0.51319000  1.0
  H  H11  1  0.36686000  0.37086000  0.01650000  1.0
  H  H12  1  0.24546000  0.13678000  0.48364000  1.0
  H  H13  1  0.66271000  0.60353000  0.98505000  1.0
  H  H14  1  0.65654000  0.13357000  0.41942000  1.0
  H  H15  1  0.31387000  0.61607000  0.92188000  1.0
  H  H16  1  0.34540000  0.89310000  0.57906000  1.0
  H  H17  1  0.72302000  0.35859000  0.07849000  1.0
  H  H18  1  0.31487000  0.51895000  0.44208000  1.0
  H  H19  1  0.21817000  0.00224000  0.94535000  1.0
  H  H20  1  0.65360000  0.49280000  0.54946000  1.0
  H  H21  1  0.80192000  0.97797000  0.05630000  1.0
  H  H22  1  0.06055000  0.61745000  0.53490000  1.0
  H  H23  1  0.29529000  0.09964000  0.03688000  1.0
  H  H24  1  0.91395000  0.39677000  0.45831000  1.0
  H  H25  1  0.73113000  0.87879000  0.96430000  1.0
  C  C26  1  0.35576000  0.30036000  0.29784000  1.0
  C  C27  1  0.54705000  0.79678000  0.79743000  1.0
  C  C28  1  0.63826000  0.70300000  0.70133000  1.0
  C  C29  1  0.47240000  0.20193000  0.20440000  1.0
  C  C30  1  0.20246000  0.91426000  0.28866000  1.0
  C  C31  1  0.09510000  0.39869000  0.79352000  1.0
  C  C32  1  0.78711000  0.10115000  0.70592000  1.0
  C  C33  1  0.89850000  0.58881000  0.21474000  1.0
  C  C34  1  0.26827000  0.77224000  0.33669000  1.0
  C  C35  1  0.11908000  0.25608000  0.84121000  1.0
  C  C36  1  0.71461000  0.24250000  0.65769000  1.0
  C  C37  1  0.87358000  0.73078000  0.16642000  1.0
  C  C38  1  0.10816000  0.75639000  0.42126000  1.0
  C  C39  1  0.21645000  0.23981000  0.92485000  1.0
  C  C40  1  0.87531000  0.26083000  0.57378000  1.0
  C  C41  1  0.79175000  0.74248000  0.07993000  1.0
  C  C42  1  0.87823000  0.88981000  0.44880000  1.0
  C  C43  1  0.29361000  0.37319000  0.95222000  1.0
  C  C44  1  0.11198000  0.13198000  0.54748000  1.0
  C  C45  1  0.72711000  0.60508000  0.05089000  1.0
  C  C46  1  0.82751000  0.02781000  0.39673000  1.0
  C  C47  1  0.26372000  0.51052000  0.89958000  1.0
  C  C48  1  0.16852000  0.99571000  0.60069000  1.0
  C  C49  1  0.75985000  0.46732000  0.10330000  1.0
  N  N50  1  0.98591000  0.04443000  0.31729000  1.0
  N  N51  1  0.16428000  0.52785000  0.82084000  1.0
  N  N52  1  0.01054000  0.97547000  0.67915000  1.0
  N  N53  1  0.84735000  0.45393000  0.18469000  1.0
  N  N54  1  0.17570000  0.62333000  0.47276000  1.0
  N  N55  1  0.22652000  0.10658000  0.97638000  1.0
  N  N56  1  0.80189000  0.39136000  0.52109000  1.0
  N  N57  1  0.78364000  0.87482000  0.02777000  1.0
  O  O58  1  0.50324000  0.34820000  0.33939000  1.0
  O  O59  1  0.30752000  0.83542000  0.83298000  1.0
  O  O60  1  0.46887000  0.66746000  0.66485000  1.0
  O  O61  1  0.71855000  0.16311000  0.17718000  1.0
  O  O62  1  0.11236000  0.32716000  0.32775000  1.0
  O  O63  1  0.71876000  0.82794000  0.83466000  1.0
  O  O64  1  0.87682000  0.66909000  0.66502000  1.0
  O  O65  1  0.31976000  0.16548000  0.16021000  1.0
