# generated using pymatgen
data_CoH26C40(N3O5)2
_symmetry_space_group_name_H-M   'P 1'
_cell_length_a   8.53475000
_cell_length_b   10.02640000
_cell_length_c   10.91490000
_cell_angle_alpha   100.79700000
_cell_angle_beta   94.27390000
_cell_angle_gamma   104.92500000
_symmetry_Int_Tables_number   1
_chemical_formula_structural   CoH26C40(N3O5)2
_chemical_formula_sum   'Co1 H26 C40 N6 O10'
_cell_volume   879.08387166
_cell_formula_units_Z   1
loop_
 _symmetry_equiv_pos_site_id
 _symmetry_equiv_pos_as_xyz
  1  'x, y, z'
loop_
 _atom_site_type_symbol
 _atom_site_label
 _atom_site_symmetry_multiplicity
 _atom_site_fract_x
 _atom_site_fract_y
 _atom_site_fract_z
 _atom_site_occupancy
  Co  Co0  1  0.50000000  0.00000000  0.50000000  1.0
  H  H1  1  0.40150000  0.55759000  0.99677000  1.0
  H  H2  1  0.59851000  0.44239000  0.00323000  1.0
  H  H3  1  0.78390000  0.89794000  0.18423000  1.0
  H  H4  1  0.21610000  0.10207000  0.81576000  1.0
  H  H5  1  0.26957000  0.35174000  0.31044000  1.0
  H  H6  1  0.73044000  0.64825000  0.68959000  1.0
  H  H7  1  0.27800000  0.82256000  0.67586000  1.0
  H  H8  1  0.72199000  0.17746000  0.32413000  1.0
  H  H9  1  0.10352000  0.65265000  0.78389000  1.0
  H  H10  1  0.89649000  0.34738000  0.21611000  1.0
  H  H11  1  0.04074000  0.39402000  0.70025000  1.0
  H  H12  1  0.95926000  0.60600000  0.29976000  1.0
  H  H13  1  0.13713000  0.30245000  0.49956000  1.0
  H  H14  1  0.86287000  0.69755000  0.50046000  1.0
  H  H15  1  0.15872000  0.87125000  0.48819000  1.0
  H  H16  1  0.84128000  0.12873000  0.51180000  1.0
  H  H17  1  0.90382000  0.85221000  0.35227000  1.0
  H  H18  1  0.09617000  0.14778000  0.64772000  1.0
  H  H19  1  0.44035000  0.12949000  0.28391000  1.0
  H  H20  1  0.55965000  0.87052000  0.71609000  1.0
  H  H21  1  0.19481000  0.13256000  0.14818000  1.0
  H  H22  1  0.80519000  0.86745000  0.85182000  1.0
  H  H23  1  0.68151000  0.24521000  0.04810000  1.0
  H  H24  1  0.31851000  0.75481000  0.95191000  1.0
  H  H25  1  0.61236000  0.79955000  0.02185000  1.0
  H  H26  1  0.38764000  0.20046000  0.97816000  1.0
  C  C27  1  0.45085000  0.70574000  0.35973000  1.0
  C  C28  1  0.54914000  0.29425000  0.64025000  1.0
  C  C29  1  0.39949000  0.56144000  0.29515000  1.0
  C  C30  1  0.60051000  0.43855000  0.70485000  1.0
  C  C31  1  0.30983000  0.46386000  0.35514000  1.0
  C  C32  1  0.69017000  0.53613000  0.64486000  1.0
  C  C33  1  0.26298000  0.51005000  0.47403000  1.0
  C  C34  1  0.73703000  0.48996000  0.52598000  1.0
  C  C35  1  0.30651000  0.65927000  0.52634000  1.0
  C  C36  1  0.69350000  0.34074000  0.47366000  1.0
  C  C37  1  0.24685000  0.70879000  0.63878000  1.0
  C  C38  1  0.75316000  0.29123000  0.36121000  1.0
  C  C39  1  0.15118000  0.61388000  0.69837000  1.0
  C  C40  1  0.84881000  0.38614000  0.30162000  1.0
  C  C41  1  0.11381000  0.46669000  0.64990000  1.0
  C  C42  1  0.88619000  0.53333000  0.35011000  1.0
  C  C43  1  0.16813000  0.41565000  0.53963000  1.0
  C  C44  1  0.83189000  0.58436000  0.46038000  1.0
  C  C45  1  0.57571000  0.80967000  0.30942000  1.0
  C  C46  1  0.42427000  0.19032000  0.69057000  1.0
  C  C47  1  0.43782000  0.52056000  0.16372000  1.0
  C  C48  1  0.56218000  0.47943000  0.83628000  1.0
  C  C49  1  0.16205000  0.92478000  0.41006000  1.0
  C  C50  1  0.83794000  0.07520000  0.58993000  1.0
  C  C51  1  0.02080000  0.91597000  0.33548000  1.0
  C  C52  1  0.97920000  0.08401000  0.66450000  1.0
  C  C53  1  0.02735000  0.99036000  0.23761000  1.0
  C  C54  1  0.97265000  0.00964000  0.76239000  1.0
  C  C55  1  0.31891000  0.07109000  0.29788000  1.0
  C  C56  1  0.68108000  0.92891000  0.70212000  1.0
  C  C57  1  0.84551000  0.06335000  0.09152000  1.0
  C  C58  1  0.15450000  0.93665000  0.90847000  1.0
  C  C59  1  0.18199000  0.07193000  0.22120000  1.0
  C  C60  1  0.81801000  0.92807000  0.77880000  1.0
  C  C61  1  0.66732000  0.02692000  0.04205000  1.0
  C  C62  1  0.33269000  0.97309000  0.95796000  1.0
  C  C63  1  0.60145000  0.13799000  0.02702000  1.0
  C  C64  1  0.39855000  0.86203000  0.97300000  1.0
  C  C65  1  0.56416000  0.88829000  0.01360000  1.0
  C  C66  1  0.43584000  0.11172000  0.98641000  1.0
  N  N67  1  0.40428000  0.75351000  0.46873000  1.0
  N  N68  1  0.59571000  0.24650000  0.53126000  1.0
  N  N69  1  0.31142000  0.99987000  0.39188000  1.0
  N  N70  1  0.68857000  0.00012000  0.60811000  1.0
  N  N71  1  0.88122000  0.97597000  0.16601000  1.0
  N  N72  1  0.11878000  0.02403000  0.83398000  1.0
  O  O73  1  0.52618000  0.44169000  0.13528000  1.0
  O  O74  1  0.47384000  0.55829000  0.86474000  1.0
  O  O75  1  0.35889000  0.57098000  0.08235000  1.0
  O  O76  1  0.64111000  0.42898000  0.91765000  1.0
  O  O77  1  0.94779000  0.16739000  0.07200000  1.0
  O  O78  1  0.05222000  0.83262000  0.92799000  1.0
  O  O79  1  0.65252000  0.76006000  0.22665000  1.0
  O  O80  1  0.34747000  0.23993000  0.77333000  1.0
  O  O81  1  0.60362000  0.94241000  0.35659000  1.0
  O  O82  1  0.39635000  0.05756000  0.64339000  1.0
