# generated using pymatgen
data_CdH5C5N2O5
_symmetry_space_group_name_H-M   'P 1'
_cell_length_a   6.96865000
_cell_length_b   9.91118000
_cell_length_c   11.11800000
_cell_angle_alpha   96.47420000
_cell_angle_beta   89.99950000
_cell_angle_gamma   90.00000000
_symmetry_Int_Tables_number   1
_chemical_formula_structural   CdH5C5N2O5
_chemical_formula_sum   'Cd4 H20 C20 N8 O20'
_cell_volume   762.99589889
_cell_formula_units_Z   4
loop_
 _symmetry_equiv_pos_site_id
 _symmetry_equiv_pos_as_xyz
  1  'x, y, z'
loop_
 _atom_site_type_symbol
 _atom_site_label
 _atom_site_symmetry_multiplicity
 _atom_site_fract_x
 _atom_site_fract_y
 _atom_site_fract_z
 _atom_site_occupancy
  Cd  Cd0  1  0.17235000  0.53280000  0.32339000  1.0
  Cd  Cd1  1  0.67234000  0.96719000  0.17662000  1.0
  Cd  Cd2  1  0.82765000  0.46720000  0.67662000  1.0
  Cd  Cd3  1  0.32765000  0.03280000  0.82338000  1.0
  H  H4  1  0.87428000  0.33954000  0.36302000  1.0
  H  H5  1  0.37427000  0.16047000  0.13698000  1.0
  H  H6  1  0.12573000  0.66047000  0.63698000  1.0
  H  H7  1  0.62573000  0.83953000  0.86302000  1.0
  H  H8  1  0.96552000  0.25458000  0.24327000  1.0
  H  H9  1  0.46553000  0.24541000  0.25672000  1.0
  H  H10  1  0.03448000  0.74542000  0.75673000  1.0
  H  H11  1  0.53447000  0.75458000  0.74328000  1.0
  H  H12  1  0.71359000  0.10344000  0.65485000  1.0
  H  H13  1  0.21358000  0.39656000  0.84515000  1.0
  H  H14  1  0.28640000  0.89658000  0.34515000  1.0
  H  H15  1  0.78641000  0.60343000  0.15485000  1.0
  H  H16  1  0.85361000  0.85293000  0.62395000  1.0
  H  H17  1  0.35360000  0.64706000  0.87605000  1.0
  H  H18  1  0.14639000  0.14708000  0.37605000  1.0
  H  H19  1  0.64639000  0.35293000  0.12395000  1.0
  H  H20  1  0.62886000  0.18319000  0.45888000  1.0
  H  H21  1  0.12886000  0.31681000  0.04111000  1.0
  H  H22  1  0.37114000  0.81682000  0.54110000  1.0
  H  H23  1  0.87115000  0.68318000  0.95889000  1.0
  C  C24  1  0.85764000  0.75428000  0.35208000  1.0
  C  C25  1  0.35764000  0.74572000  0.14792000  1.0
  C  C26  1  0.14236000  0.24572000  0.64792000  1.0
  C  C27  1  0.64236000  0.25428000  0.85208000  1.0
  C  C28  1  0.79595000  0.87733000  0.42890000  1.0
  C  C29  1  0.29595000  0.62266000  0.07110000  1.0
  C  C30  1  0.20405000  0.12268000  0.57110000  1.0
  C  C31  1  0.70405000  0.37733000  0.92890000  1.0
  C  C32  1  0.80432000  0.91085000  0.55303000  1.0
  C  C33  1  0.30431000  0.58914000  0.94697000  1.0
  C  C34  1  0.19569000  0.08916000  0.44697000  1.0
  C  C35  1  0.69568000  0.41084000  0.05303000  1.0
  C  C36  1  0.68596000  0.08310000  0.46675000  1.0
  C  C37  1  0.18595000  0.41689000  0.03325000  1.0
  C  C38  1  0.31405000  0.91690000  0.53324000  1.0
  C  C39  1  0.81405000  0.58310000  0.96676000  1.0
  C  C40  1  0.54444000  0.44321000  0.45387000  1.0
  C  C41  1  0.04443000  0.05680000  0.04613000  1.0
  C  C42  1  0.45557000  0.55680000  0.54613000  1.0
  C  C43  1  0.95556000  0.94320000  0.95387000  1.0
  N  N44  1  0.72169000  0.98671000  0.37703000  1.0
  N  N45  1  0.22169000  0.51328000  0.12297000  1.0
  N  N46  1  0.27831000  0.01330000  0.62297000  1.0
  N  N47  1  0.77831000  0.48671000  0.87703000  1.0
  N  N48  1  0.73478000  0.04042000  0.57412000  1.0
  N  N49  1  0.23477000  0.45957000  0.92588000  1.0
  N  N50  1  0.26522000  0.95959000  0.42587000  1.0
  N  N51  1  0.76522000  0.54041000  0.07413000  1.0
  O  O52  1  0.92815000  0.65787000  0.40512000  1.0
  O  O53  1  0.42814000  0.84213000  0.09487000  1.0
  O  O54  1  0.07186000  0.34214000  0.59488000  1.0
  O  O55  1  0.57186000  0.15786000  0.90512000  1.0
  O  O56  1  0.97868000  0.33627000  0.30244000  1.0
  O  O57  1  0.47867000  0.16373000  0.19756000  1.0
  O  O58  1  0.02133000  0.66373000  0.69756000  1.0
  O  O59  1  0.52133000  0.83628000  0.80243000  1.0
  O  O60  1  0.83814000  0.75357000  0.23778000  1.0
  O  O61  1  0.33813000  0.74643000  0.26222000  1.0
  O  O62  1  0.16185000  0.24642000  0.76222000  1.0
  O  O63  1  0.66186000  0.25357000  0.73779000  1.0
  O  O64  1  0.44985000  0.40455000  0.35868000  1.0
  O  O65  1  0.94983000  0.09545000  0.14132000  1.0
  O  O66  1  0.55015000  0.59545000  0.64133000  1.0
  O  O67  1  0.05015000  0.90455000  0.85868000  1.0
  O  O68  1  0.70567000  0.39573000  0.48071000  1.0
  O  O69  1  0.20565000  0.10428000  0.01929000  1.0
  O  O70  1  0.29435000  0.60428000  0.51929000  1.0
  O  O71  1  0.79434000  0.89572000  0.98071000  1.0
