# generated using pymatgen
data_Zn4H12C58O13F24
_symmetry_space_group_name_H-M   'P 1'
_cell_length_a   21.62220000
_cell_length_b   21.62220000
_cell_length_c   34.51710000
_cell_angle_alpha   90.00000000
_cell_angle_beta   90.00000000
_cell_angle_gamma   89.99990000
_symmetry_Int_Tables_number   1
_chemical_formula_structural   Zn4H12C58O13F24
_chemical_formula_sum   'Zn8 H24 C116 O26 F48'
_cell_volume   16137.41846697
_cell_formula_units_Z   2
loop_
 _symmetry_equiv_pos_site_id
 _symmetry_equiv_pos_as_xyz
  1  'x, y, z'
loop_
 _atom_site_type_symbol
 _atom_site_label
 _atom_site_symmetry_multiplicity
 _atom_site_fract_x
 _atom_site_fract_y
 _atom_site_fract_z
 _atom_site_occupancy
  Zn  Zn0  1  0.44885000  0.55225000  0.03357000  1.0
  Zn  Zn1  1  0.44885000  0.44775000  0.96643000  1.0
  Zn  Zn2  1  0.55115000  0.44775000  0.03357000  1.0
  Zn  Zn3  1  0.55116000  0.55225000  0.96643000  1.0
  Zn  Zn4  1  0.55225000  0.44885000  0.46643000  1.0
  Zn  Zn5  1  0.44775000  0.44884000  0.53357000  1.0
  Zn  Zn6  1  0.44775000  0.55115000  0.46643000  1.0
  Zn  Zn7  1  0.55225000  0.55115000  0.53357000  1.0
  H  H8  1  0.56045000  0.42113000  0.15190000  1.0
  H  H9  1  0.43955000  0.57887000  0.15190000  1.0
  H  H10  1  0.42113000  0.56045000  0.34810000  1.0
  H  H11  1  0.57887000  0.43955000  0.34810000  1.0
  H  H12  1  0.53417000  0.36853000  0.23901000  1.0
  H  H13  1  0.60356000  0.38404000  0.21354000  1.0
  H  H14  1  0.46582000  0.63148000  0.23901000  1.0
  H  H15  1  0.39644000  0.61596000  0.21354000  1.0
  H  H16  1  0.36853000  0.53418000  0.26099000  1.0
  H  H17  1  0.38404000  0.60356000  0.28646000  1.0
  H  H18  1  0.63147000  0.46582000  0.26099000  1.0
  H  H19  1  0.61596000  0.39644000  0.28646000  1.0
  H  H20  1  0.56045000  0.57887000  0.84810000  1.0
  H  H21  1  0.43955000  0.42113000  0.84810000  1.0
  H  H22  1  0.42113000  0.43955000  0.65190000  1.0
  H  H23  1  0.57887000  0.56045000  0.65190000  1.0
  H  H24  1  0.53417000  0.63147000  0.76099000  1.0
  H  H25  1  0.60356000  0.61596000  0.78646000  1.0
  H  H26  1  0.46583000  0.36853000  0.76099000  1.0
  H  H27  1  0.39644000  0.38404000  0.78646000  1.0
  H  H28  1  0.36852000  0.46582000  0.73901000  1.0
  H  H29  1  0.38404000  0.39644000  0.71354000  1.0
  H  H30  1  0.63147000  0.53417000  0.73901000  1.0
  H  H31  1  0.61596000  0.60356000  0.71354000  1.0
  C  C32  1  0.33618000  0.50000000  0.00000000  1.0
  C  C33  1  0.50000000  0.33497000  0.00000000  1.0
  C  C34  1  0.50000000  0.50000000  0.10488000  1.0
  C  C35  1  0.66382000  0.50000000  0.00000000  1.0
  C  C36  1  0.50000000  0.66503000  0.99999000  1.0
  C  C37  1  0.50000000  0.50000000  0.89511000  1.0
  C  C38  1  0.50001000  0.33618000  0.50000000  1.0
  C  C39  1  0.33497000  0.50000000  0.50000000  1.0
  C  C40  1  0.50000000  0.50000000  0.39512000  1.0
  C  C41  1  0.50000000  0.66382000  0.50000000  1.0
  C  C42  1  0.66503000  0.50000000  0.50001000  1.0
  C  C43  1  0.50000000  0.50000000  0.60489000  1.0
  C  C44  1  0.50000000  0.26563000  0.00000000  1.0
  C  C45  1  0.54842000  0.23193000  0.01692000  1.0
  C  C46  1  0.54831000  0.16754000  0.01681000  1.0
  C  C47  1  0.45158000  0.23193000  0.98308000  1.0
  C  C48  1  0.45169000  0.16753000  0.98319000  1.0
  C  C49  1  0.50000000  0.13392000  0.00000000  1.0
  C  C50  1  0.50000000  0.06572000  0.00000000  1.0
  C  C51  1  0.49992000  0.03219000  0.96534000  1.0
  C  C52  1  0.50008000  0.03219000  0.03467000  1.0
  C  C53  1  0.50000000  0.73436000  0.00000000  1.0
  C  C54  1  0.45158000  0.76806000  0.01692000  1.0
  C  C55  1  0.45169000  0.83246000  0.01681000  1.0
  C  C56  1  0.54842000  0.76807000  0.98308000  1.0
  C  C57  1  0.54831000  0.83246000  0.98319000  1.0
  C  C58  1  0.50000000  0.86607000  0.00000000  1.0
  C  C59  1  0.50000000  0.93428000  0.00000000  1.0
  C  C60  1  0.49992000  0.96781000  0.03466000  1.0
  C  C61  1  0.50008000  0.96782000  0.96534000  1.0
  C  C62  1  0.56734000  0.40546000  0.23138000  1.0
  C  C63  1  0.43266000  0.59454000  0.23138000  1.0
  C  C64  1  0.40546000  0.56734000  0.26861000  1.0
  C  C65  1  0.59454000  0.43266000  0.26862000  1.0
  C  C66  1  0.53415000  0.45538000  0.16819000  1.0
  C  C67  1  0.53379000  0.45440000  0.20848000  1.0
  C  C68  1  0.46585000  0.54462000  0.16819000  1.0
  C  C69  1  0.46621000  0.54560000  0.20848000  1.0
  C  C70  1  0.45538000  0.53415000  0.33182000  1.0
  C  C71  1  0.45440000  0.53379000  0.29152000  1.0
  C  C72  1  0.54462000  0.46585000  0.33181000  1.0
  C  C73  1  0.54560000  0.46621000  0.29152000  1.0
  C  C74  1  0.50000000  0.50000000  0.14790000  1.0
  C  C75  1  0.50000000  0.50000000  0.22879000  1.0
  C  C76  1  0.50000000  0.50000000  0.35210000  1.0
  C  C77  1  0.50000000  0.50000000  0.27121000  1.0
  C  C78  1  0.56734000  0.59454000  0.76862000  1.0
  C  C79  1  0.43266000  0.40546000  0.76862000  1.0
  C  C80  1  0.40546000  0.43266000  0.73139000  1.0
  C  C81  1  0.59454000  0.56734000  0.73139000  1.0
  C  C82  1  0.53415000  0.54462000  0.83181000  1.0
  C  C83  1  0.53379000  0.54560000  0.79152000  1.0
  C  C84  1  0.46585000  0.45538000  0.83181000  1.0
  C  C85  1  0.46621000  0.45440000  0.79152000  1.0
  C  C86  1  0.45538000  0.46585000  0.66819000  1.0
  C  C87  1  0.45440000  0.46621000  0.70848000  1.0
  C  C88  1  0.54462000  0.53416000  0.66819000  1.0
  C  C89  1  0.54560000  0.53379000  0.70848000  1.0
  C  C90  1  0.50000000  0.50000000  0.85210000  1.0
  C  C91  1  0.50000000  0.50000000  0.77121000  1.0
  C  C92  1  0.50000000  0.50000000  0.64790000  1.0
  C  C93  1  0.50000000  0.50000000  0.72879000  1.0
  C  C94  1  0.73330000  0.50000000  0.00000000  1.0
  C  C95  1  0.76731000  0.47226000  0.03002000  1.0
  C  C96  1  0.83179000  0.47242000  0.02991000  1.0
  C  C97  1  0.76731000  0.52774000  0.96998000  1.0
  C  C98  1  0.83179000  0.52758000  0.97009000  1.0
  C  C99  1  0.86568000  0.50000000  0.00000000  1.0
  C  C100  1  0.93405000  0.50000000  0.00000000  1.0
  C  C101  1  0.96779000  0.55530000  0.99997000  1.0
  C  C102  1  0.96779000  0.44470000  0.00003000  1.0
  C  C103  1  0.26670000  0.50000000  0.00000000  1.0
  C  C104  1  0.23269000  0.47226000  0.96998000  1.0
  C  C105  1  0.16821000  0.47242000  0.97009000  1.0
  C  C106  1  0.23269000  0.52774000  0.03002000  1.0
  C  C107  1  0.16821000  0.52757000  0.02991000  1.0
  C  C108  1  0.13433000  0.50000000  1.00000000  1.0
  C  C109  1  0.06596000  0.50000000  0.00000000  1.0
  C  C110  1  0.03222000  0.44470000  0.99997000  1.0
  C  C111  1  0.03222000  0.55530000  0.00003000  1.0
  C  C112  1  0.26563000  0.50000000  0.50000000  1.0
  C  C113  1  0.23193000  0.54842000  0.48308000  1.0
  C  C114  1  0.16754000  0.54831000  0.48319000  1.0
  C  C115  1  0.23193000  0.45158000  0.51693000  1.0
  C  C116  1  0.16753000  0.45169000  0.51681000  1.0
  C  C117  1  0.13392000  0.50000000  0.50000000  1.0
  C  C118  1  0.06572000  0.50000000  0.50000000  1.0
  C  C119  1  0.03219000  0.49991000  0.53466000  1.0
  C  C120  1  0.03218000  0.50008000  0.46534000  1.0
  C  C121  1  0.73437000  0.50000000  0.50000000  1.0
  C  C122  1  0.76807000  0.45158000  0.48308000  1.0
  C  C123  1  0.83246000  0.45169000  0.48319000  1.0
  C  C124  1  0.76807000  0.54843000  0.51692000  1.0
  C  C125  1  0.83247000  0.54832000  0.51681000  1.0
  C  C126  1  0.86608000  0.50000000  0.50000000  1.0
  C  C127  1  0.93428000  0.50000000  0.50000000  1.0
  C  C128  1  0.96781000  0.49992000  0.46534000  1.0
  C  C129  1  0.96781000  0.50008000  0.53466000  1.0
  C  C130  1  0.50000000  0.73330000  0.50000000  1.0
  C  C131  1  0.47226000  0.76731000  0.46999000  1.0
  C  C132  1  0.47242000  0.83179000  0.47009000  1.0
  C  C133  1  0.52774000  0.76731000  0.53002000  1.0
  C  C134  1  0.52758000  0.83179000  0.52991000  1.0
  C  C135  1  0.50000000  0.86568000  0.50000000  1.0
  C  C136  1  0.50000000  0.93405000  0.50000000  1.0
  C  C137  1  0.55530000  0.96779000  0.50003000  1.0
  C  C138  1  0.44470000  0.96779000  0.49997000  1.0
  C  C139  1  0.50000000  0.26670000  0.50000000  1.0
  C  C140  1  0.47226000  0.23269000  0.53002000  1.0
  C  C141  1  0.47242000  0.16821000  0.52991000  1.0
  C  C142  1  0.52775000  0.23269000  0.46998000  1.0
  C  C143  1  0.52758000  0.16821000  0.47009000  1.0
  C  C144  1  0.50000000  0.13432000  0.50000000  1.0
  C  C145  1  0.50000000  0.06595000  0.50000000  1.0
  C  C146  1  0.44470000  0.03221000  0.50003000  1.0
  C  C147  1  0.55530000  0.03222000  0.49997000  1.0
  O  O148  1  0.50000000  0.50000000  0.00000000  1.0
  O  O149  1  0.36228000  0.54660000  0.01544000  1.0
  O  O150  1  0.47666000  0.36100000  0.97040000  1.0
  O  O151  1  0.54348000  0.47015000  0.08798000  1.0
  O  O152  1  0.36228000  0.45340000  0.98455000  1.0
  O  O153  1  0.45652000  0.52985000  0.08798000  1.0
  O  O154  1  0.52333000  0.36101000  0.02959000  1.0
  O  O155  1  0.63773000  0.45340000  0.01544000  1.0
  O  O156  1  0.52333000  0.63900000  0.97040000  1.0
  O  O157  1  0.63773000  0.54659000  0.98455000  1.0
  O  O158  1  0.47666000  0.63899000  0.02959000  1.0
  O  O159  1  0.45651000  0.47015000  0.91202000  1.0
  O  O160  1  0.54349000  0.52984000  0.91202000  1.0
  O  O161  1  0.50000000  0.50000000  0.50000000  1.0
  O  O162  1  0.54660000  0.36227000  0.48455000  1.0
  O  O163  1  0.36100000  0.47666000  0.52960000  1.0
  O  O164  1  0.47015000  0.54348000  0.41202000  1.0
  O  O165  1  0.45341000  0.36228000  0.51545000  1.0
  O  O166  1  0.52985000  0.45652000  0.41202000  1.0
  O  O167  1  0.36100000  0.52334000  0.47041000  1.0
  O  O168  1  0.45340000  0.63772000  0.48456000  1.0
  O  O169  1  0.63900000  0.52334000  0.52961000  1.0
  O  O170  1  0.54660000  0.63772000  0.51545000  1.0
  O  O171  1  0.63899000  0.47667000  0.47041000  1.0
  O  O172  1  0.47016000  0.45651000  0.58798000  1.0
  O  O173  1  0.52984000  0.54349000  0.58798000  1.0
  F  F174  1  0.40236000  0.26067000  0.96741000  1.0
  F  F175  1  0.40317000  0.13726000  0.96745000  1.0
  F  F176  1  0.59764000  0.26067000  0.03259000  1.0
  F  F177  1  0.59682000  0.13726000  0.03256000  1.0
  F  F178  1  0.50057000  0.06238000  0.93112000  1.0
  F  F179  1  0.49942000  0.93763000  0.93112000  1.0
  F  F180  1  0.49942000  0.06238000  0.06888000  1.0
  F  F181  1  0.50058000  0.93763000  0.06888000  1.0
  F  F182  1  0.59683000  0.86274000  0.96745000  1.0
  F  F183  1  0.59764000  0.73933000  0.96741000  1.0
  F  F184  1  0.40318000  0.86274000  0.03256000  1.0
  F  F185  1  0.40236000  0.73933000  0.03259000  1.0
  F  F186  1  0.73888000  0.55369000  0.93933000  1.0
  F  F187  1  0.86192000  0.55356000  0.93992000  1.0
  F  F188  1  0.73888000  0.44632000  0.06067000  1.0
  F  F189  1  0.86192000  0.44644000  0.06008000  1.0
  F  F190  1  0.93774000  0.61002000  0.00044000  1.0
  F  F191  1  0.06227000  0.61002000  0.99957000  1.0
  F  F192  1  0.93773000  0.38998000  0.99956000  1.0
  F  F193  1  0.06226000  0.38998000  0.00043000  1.0
  F  F194  1  0.13808000  0.55356000  0.06008000  1.0
  F  F195  1  0.26112000  0.55368000  0.06067000  1.0
  F  F196  1  0.13808000  0.44644000  0.93992000  1.0
  F  F197  1  0.26112000  0.44632000  0.93933000  1.0
  F  F198  1  0.26066000  0.40236000  0.53260000  1.0
  F  F199  1  0.13725000  0.40318000  0.53256000  1.0
  F  F200  1  0.26066000  0.59764000  0.46741000  1.0
  F  F201  1  0.13726000  0.59682000  0.46744000  1.0
  F  F202  1  0.06238000  0.50057000  0.56888000  1.0
  F  F203  1  0.93763000  0.49942000  0.56888000  1.0
  F  F204  1  0.06238000  0.49942000  0.43112000  1.0
  F  F205  1  0.93762000  0.50058000  0.43112000  1.0
  F  F206  1  0.86274000  0.59683000  0.53255000  1.0
  F  F207  1  0.73933000  0.59765000  0.53259000  1.0
  F  F208  1  0.86274000  0.40318000  0.46745000  1.0
  F  F209  1  0.73933000  0.40236000  0.46741000  1.0
  F  F210  1  0.55369000  0.73887000  0.56067000  1.0
  F  F211  1  0.55357000  0.86192000  0.56008000  1.0
  F  F212  1  0.44631000  0.73887000  0.43933000  1.0
  F  F213  1  0.44644000  0.86191000  0.43992000  1.0
  F  F214  1  0.61002000  0.93773000  0.49957000  1.0
  F  F215  1  0.61002000  0.06226000  0.50044000  1.0
  F  F216  1  0.38998000  0.93774000  0.50044000  1.0
  F  F217  1  0.38998000  0.06227000  0.49956000  1.0
  F  F218  1  0.55357000  0.13808000  0.43992000  1.0
  F  F219  1  0.55369000  0.26112000  0.43933000  1.0
  F  F220  1  0.44644000  0.13808000  0.56008000  1.0
  F  F221  1  0.44632000  0.26112000  0.56067000  1.0
