# generated using pymatgen
data_AlH27C24(N2O)6
_symmetry_space_group_name_H-M   'P 1'
_cell_length_a   3.74443000
_cell_length_b   28.92750000
_cell_length_c   28.92740000
_cell_angle_alpha   60.00034306
_cell_angle_beta   89.99940000
_cell_angle_gamma   89.99970000
_symmetry_Int_Tables_number   1
_chemical_formula_structural   AlH27C24(N2O)6
_chemical_formula_sum   'Al2 H54 C48 N24 O12'
_cell_volume   2713.55202423
_cell_formula_units_Z   2
loop_
 _symmetry_equiv_pos_site_id
 _symmetry_equiv_pos_as_xyz
  1  'x, y, z'
loop_
 _atom_site_type_symbol
 _atom_site_label
 _atom_site_symmetry_multiplicity
 _atom_site_fract_x
 _atom_site_fract_y
 _atom_site_fract_z
 _atom_site_occupancy
  Al  Al0  1  0.00680000  0.50000000  0.00000000  1.0
  Al  Al1  1  0.00677000  0.16667000  0.66666000  1.0
  H  H2  1  0.50324000  0.27715000  0.34168000  1.0
  H  H3  1  0.50377000  0.38953000  0.32500000  1.0
  H  H4  1  0.50320000  0.38117000  0.77715000  1.0
  H  H5  1  0.50381000  0.28547000  0.88953000  1.0
  H  H6  1  0.50326000  0.84168000  0.88116000  1.0
  H  H7  1  0.50377000  0.82499000  0.78547000  1.0
  H  H8  1  0.36271000  0.13207000  0.56491000  1.0
  H  H9  1  0.66769000  0.12753000  0.52560000  1.0
  H  H10  1  0.65319000  0.20253000  0.39184000  1.0
  H  H11  1  0.42644000  0.15764000  0.44537000  1.0
  H  H12  1  0.64131000  0.29796000  0.55689000  1.0
  H  H13  1  0.32987000  0.33918000  0.51625000  1.0
  H  H14  1  0.33013000  0.38831000  0.38497000  1.0
  H  H15  1  0.56502000  0.38411000  0.43613000  1.0
  H  H16  1  0.33011000  0.27836000  0.28170000  1.0
  H  H17  1  0.56514000  0.28257000  0.23055000  1.0
  H  H18  1  0.64134000  0.36871000  0.10978000  1.0
  H  H19  1  0.32984000  0.32750000  0.15042000  1.0
  H  H20  1  0.65320000  0.46417000  0.27482000  1.0
  H  H21  1  0.42644000  0.50905000  0.22129000  1.0
  H  H22  1  0.36270000  0.53460000  0.10176000  1.0
  H  H23  1  0.66765000  0.53916000  0.14105000  1.0
  H  H24  1  0.36272000  0.30302000  0.63208000  1.0
  H  H25  1  0.66769000  0.34687000  0.62752000  1.0
  H  H26  1  0.65320000  0.40563000  0.70253000  1.0
  H  H27  1  0.42644000  0.39699000  0.65764000  1.0
  H  H28  1  0.64131000  0.14515000  0.79796000  1.0
  H  H29  1  0.32986000  0.14457000  0.83918000  1.0
  H  H30  1  0.33014000  0.22672000  0.88832000  1.0
  H  H31  1  0.56502000  0.17976000  0.88411000  1.0
  H  H32  1  0.33011000  0.43994000  0.77836000  1.0
  H  H33  1  0.56515000  0.48688000  0.78257000  1.0
  H  H34  1  0.64133000  0.52151000  0.86871000  1.0
  H  H35  1  0.32985000  0.52208000  0.82749000  1.0
  H  H36  1  0.65320000  0.26101000  0.96417000  1.0
  H  H37  1  0.42643000  0.26966000  0.00906000  1.0
  H  H38  1  0.36270000  0.36364000  0.03460000  1.0
  H  H39  1  0.66766000  0.31979000  0.03916000  1.0
  H  H40  1  0.36272000  0.06490000  0.80302000  1.0
  H  H41  1  0.66770000  0.02561000  0.84686000  1.0
  H  H42  1  0.65321000  0.89184000  0.90563000  1.0
  H  H43  1  0.42644000  0.94537000  0.89699000  1.0
  H  H44  1  0.64130000  0.05689000  0.64514000  1.0
  H  H45  1  0.32985000  0.01625000  0.64456000  1.0
  H  H46  1  0.33013000  0.88496000  0.72672000  1.0
  H  H47  1  0.56501000  0.93613000  0.67976000  1.0
  H  H48  1  0.33011000  0.78171000  0.93993000  1.0
  H  H49  1  0.56514000  0.73055000  0.98688000  1.0
  H  H50  1  0.64134000  0.60979000  0.02150000  1.0
  H  H51  1  0.32985000  0.65043000  0.02208000  1.0
  H  H52  1  0.65320000  0.77482000  0.76100000  1.0
  H  H53  1  0.42643000  0.72128000  0.76967000  1.0
  H  H54  1  0.36270000  0.60176000  0.86364000  1.0
  H  H55  1  0.66766000  0.64105000  0.81979000  1.0
  C  C56  1  0.50608000  0.58429000  0.95417000  1.0
  C  C57  1  0.50608000  0.46155000  0.08428000  1.0
  C  C58  1  0.50608000  0.45417000  0.96154000  1.0
  C  C59  1  0.50609000  0.20513000  0.58239000  1.0
  C  C60  1  0.50608000  0.21248000  0.70513000  1.0
  C  C61  1  0.50609000  0.08239000  0.71248000  1.0
  C  C62  1  0.50306000  0.23226000  0.52381000  1.0
  C  C63  1  0.53557000  0.28834000  0.49377000  1.0
  C  C64  1  0.52174000  0.31456000  0.43769000  1.0
  C  C65  1  0.50082000  0.28496000  0.41063000  1.0
  C  C66  1  0.47696000  0.22820000  0.44198000  1.0
  C  C67  1  0.46612000  0.20208000  0.49790000  1.0
  C  C68  1  0.50298000  0.30734000  0.35329000  1.0
  C  C69  1  0.50315000  0.35935000  0.31338000  1.0
  C  C70  1  0.47696000  0.43849000  0.22468000  1.0
  C  C71  1  0.50084000  0.38173000  0.25604000  1.0
  C  C72  1  0.52171000  0.35212000  0.22899000  1.0
  C  C73  1  0.53557000  0.37834000  0.17290000  1.0
  C  C74  1  0.50306000  0.43442000  0.14286000  1.0
  C  C75  1  0.46609000  0.46460000  0.16877000  1.0
  C  C76  1  0.50304000  0.24393000  0.73226000  1.0
  C  C77  1  0.53556000  0.21789000  0.78834000  1.0
  C  C78  1  0.52176000  0.24775000  0.81456000  1.0
  C  C79  1  0.50083000  0.30441000  0.78496000  1.0
  C  C80  1  0.47698000  0.32981000  0.72820000  1.0
  C  C81  1  0.46612000  0.30002000  0.70208000  1.0
  C  C82  1  0.50299000  0.33937000  0.80735000  1.0
  C  C83  1  0.50317000  0.32727000  0.85935000  1.0
  C  C84  1  0.47697000  0.33683000  0.93849000  1.0
  C  C85  1  0.50084000  0.36223000  0.88173000  1.0
  C  C86  1  0.52171000  0.41890000  0.85212000  1.0
  C  C87  1  0.53556000  0.44876000  0.87834000  1.0
  C  C88  1  0.50306000  0.42272000  0.93442000  1.0
  C  C89  1  0.46610000  0.36663000  0.96460000  1.0
  C  C90  1  0.50303000  0.02381000  0.74393000  1.0
  C  C91  1  0.53555000  0.99377000  0.71788000  1.0
  C  C92  1  0.52175000  0.93769000  0.74775000  1.0
  C  C93  1  0.50083000  0.91063000  0.80441000  1.0
  C  C94  1  0.47698000  0.94199000  0.82981000  1.0
  C  C95  1  0.46612000  0.99790000  0.80001000  1.0
  C  C96  1  0.50300000  0.85329000  0.83936000  1.0
  C  C97  1  0.50317000  0.81338000  0.82727000  1.0
  C  C98  1  0.47697000  0.72468000  0.83683000  1.0
  C  C99  1  0.50086000  0.75604000  0.86223000  1.0
  C  C100  1  0.52172000  0.72899000  0.91889000  1.0
  C  C101  1  0.53557000  0.67290000  0.94876000  1.0
  C  C102  1  0.50306000  0.64286000  0.92272000  1.0
  C  C103  1  0.46610000  0.66877000  0.86663000  1.0
  N  N104  1  0.43270000  0.14533000  0.52621000  1.0
  N  N105  1  0.44784000  0.19697000  0.41722000  1.0
  N  N106  1  0.56725000  0.32079000  0.51792000  1.0
  N  N107  1  0.54224000  0.37063000  0.40975000  1.0
  N  N108  1  0.54222000  0.29605000  0.25693000  1.0
  N  N109  1  0.56723000  0.34589000  0.14876000  1.0
  N  N110  1  0.44783000  0.46972000  0.24944000  1.0
  N  N111  1  0.43267000  0.52135000  0.14045000  1.0
  N  N112  1  0.43270000  0.32846000  0.64533000  1.0
  N  N113  1  0.44785000  0.38581000  0.69696000  1.0
  N  N114  1  0.56724000  0.16129000  0.82079000  1.0
  N  N115  1  0.54225000  0.21963000  0.87063000  1.0
  N  N116  1  0.54222000  0.44702000  0.79605000  1.0
  N  N117  1  0.56723000  0.50536000  0.84588000  1.0
  N  N118  1  0.44783000  0.28084000  0.96972000  1.0
  N  N119  1  0.43268000  0.33820000  0.02135000  1.0
  N  N120  1  0.43271000  0.02621000  0.82846000  1.0
  N  N121  1  0.44786000  0.91723000  0.88580000  1.0
  N  N122  1  0.56723000  0.01792000  0.66129000  1.0
  N  N123  1  0.54225000  0.90974000  0.71962000  1.0
  N  N124  1  0.54223000  0.75693000  0.94702000  1.0
  N  N125  1  0.56723000  0.64876000  0.00535000  1.0
  N  N126  1  0.44784000  0.74944000  0.78083000  1.0
  N  N127  1  0.43268000  0.64045000  0.83820000  1.0
  O  O128  1  0.27352000  0.44412000  0.99813000  1.0
  O  O129  1  0.27353000  0.55775000  0.94412000  1.0
  O  O130  1  0.27352000  0.49813000  0.05775000  1.0
  O  O131  1  0.74078000  0.49120000  0.94803000  1.0
  O  O132  1  0.74078000  0.44803000  0.06077000  1.0
  O  O133  1  0.74078000  0.56077000  0.99120000  1.0
  O  O134  1  0.27353000  0.10892000  0.72253000  1.0
  O  O135  1  0.27353000  0.16855000  0.60891000  1.0
  O  O136  1  0.27352000  0.22254000  0.66855000  1.0
  O  O137  1  0.74079000  0.10591000  0.67545000  1.0
  O  O138  1  0.74078000  0.17545000  0.71864000  1.0
  O  O139  1  0.74079000  0.21864000  0.60591000  1.0
