# generated using pymatgen
data_Al4H25C37I2NO20
_symmetry_space_group_name_H-M   'P 1'
_cell_length_a   6.66344000
_cell_length_b   16.48050000
_cell_length_c   18.54160000
_cell_angle_alpha   106.79800000
_cell_angle_beta   89.91410000
_cell_angle_gamma   89.95920000
_symmetry_Int_Tables_number   1
_chemical_formula_structural   Al4H25C37I2NO20
_chemical_formula_sum   'Al4 H25 C37 I2 N1 O20'
_cell_volume   1949.29139144
_cell_formula_units_Z   1
loop_
 _symmetry_equiv_pos_site_id
 _symmetry_equiv_pos_as_xyz
  1  'x, y, z'
loop_
 _atom_site_type_symbol
 _atom_site_label
 _atom_site_symmetry_multiplicity
 _atom_site_fract_x
 _atom_site_fract_y
 _atom_site_fract_z
 _atom_site_occupancy
  Al  Al0  1  0.13297000  0.49982000  0.49967000  1.0
  Al  Al1  1  0.63405000  0.49933000  0.50029000  1.0
  Al  Al2  1  0.64354000  0.99924000  0.99967000  1.0
  Al  Al3  1  0.14273000  0.99972000  0.00092000  1.0
  H  H4  1  0.59014000  0.22895000  0.16704000  1.0
  H  H5  1  0.58971000  0.15446000  0.21812000  1.0
  H  H6  1  0.58774000  0.26354000  0.33182000  1.0
  H  H7  1  0.57701000  0.33799000  0.28079000  1.0
  H  H8  1  0.92361000  0.28259000  0.12917000  1.0
  H  H9  1  0.90144000  0.39425000  0.23967000  1.0
  H  H10  1  0.14825000  0.14040000  0.23335000  1.0
  H  H11  1  0.91667000  0.10701000  0.26207000  1.0
  H  H12  1  0.15464000  0.26001000  0.33746000  1.0
  H  H13  1  0.15075000  0.24797000  0.15985000  1.0
  H  H14  1  0.13471000  0.36366000  0.26893000  1.0
  H  H15  1  0.71478000  0.68205000  0.69775000  1.0
  H  H16  1  0.66605000  0.86176000  0.77073000  1.0
  H  H17  1  0.70654000  0.78289000  0.81575000  1.0
  H  H18  1  0.45762000  0.61390000  0.75698000  1.0
  H  H19  1  0.40546000  0.72098000  0.86989000  1.0
  H  H20  1  0.09023000  0.73247000  0.67196000  1.0
  H  H21  1  0.26997000  0.78251000  0.63048000  1.0
  H  H22  1  0.09727000  0.84757000  0.77988000  1.0
  H  H23  1  0.20021000  0.62262000  0.73737000  1.0
  H  H24  1  0.16146000  0.74194000  0.84232000  1.0
  H  H25  1  0.38344000  0.39735000  0.50941000  1.0
  H  H26  1  0.88029000  0.61270000  0.53149000  1.0
  H  H27  1  0.39103000  0.09659000  0.98251000  1.0
  H  H28  1  0.89453000  0.89796000  0.01238000  1.0
  C  C29  1  0.39207000  0.61744000  0.61306000  1.0
  C  C30  1  0.37781000  0.58583000  0.41541000  1.0
  C  C31  1  0.87571000  0.38610000  0.38461000  1.0
  C  C32  1  0.89068000  0.40946000  0.58283000  1.0
  C  C33  1  0.88873000  0.35758000  0.63330000  1.0
  C  C34  1  0.88910000  0.31283000  0.67587000  1.0
  C  C35  1  0.88968000  0.26428000  0.72271000  1.0
  C  C36  1  0.89054000  0.22009000  0.76624000  1.0
  C  C37  1  0.89111000  0.17293000  0.81424000  1.0
  C  C38  1  0.89215000  0.13026000  0.85857000  1.0
  C  C39  1  0.66782000  0.21091000  0.21227000  1.0
  C  C40  1  0.66246000  0.28340000  0.28683000  1.0
  C  C41  1  0.99449000  0.26543000  0.17628000  1.0
  C  C42  1  0.99490000  0.16102000  0.25131000  1.0
  C  C43  1  0.88598000  0.18724000  0.18816000  1.0
  C  C44  1  0.87615000  0.31295000  0.31212000  1.0
  C  C45  1  0.98397000  0.34055000  0.24929000  1.0
  C  C46  1  0.99972000  0.23747000  0.32441000  1.0
  C  C47  1  0.60487000  0.73207000  0.70017000  1.0
  C  C48  1  0.60713000  0.80167000  0.77611000  1.0
  C  C49  1  0.34076000  0.65861000  0.75098000  1.0
  C  C50  1  0.24023000  0.76090000  0.68016000  1.0
  C  C51  1  0.39530000  0.69312000  0.68363000  1.0
  C  C52  1  0.39414000  0.81624000  0.80945000  1.0
  C  C53  1  0.31862000  0.73289000  0.82360000  1.0
  C  C54  1  0.24513000  0.83491000  0.75327000  1.0
  C  C55  1  0.38298000  0.63649000  0.36377000  1.0
  C  C56  1  0.38664000  0.68052000  0.32061000  1.0
  C  C57  1  0.38987000  0.72879000  0.27352000  1.0
  C  C58  1  0.39220000  0.77333000  0.23031000  1.0
  C  C59  1  0.39449000  0.82159000  0.18321000  1.0
  C  C60  1  0.39661000  0.86553000  0.13993000  1.0
  C  C61  1  0.39837000  0.91590000  0.08828000  1.0
  C  C62  1  0.38936000  0.88453000  0.88509000  1.0
  C  C63  1  0.88880000  0.08178000  0.91164000  1.0
  C  C64  1  0.89615000  0.11583000  0.11458000  1.0
  C  C65  1  0.92535000  0.21500000  0.39018000  1.0
  I  I66  1  0.71168000  0.77882000  0.60668000  1.0
  I  I67  1  0.30865000  0.95718000  0.73312000  1.0
  N  N68  1  0.86203000  0.19936000  0.44334000  1.0
  O  O69  1  0.54412000  0.57496000  0.44474000  1.0
  O  O70  1  0.22389000  0.59669000  0.58058000  1.0
  O  O71  1  0.06132000  0.43792000  0.57061000  1.0
  O  O72  1  0.20691000  0.55772000  0.42705000  1.0
  O  O73  1  0.04361000  0.40675000  0.41735000  1.0
  O  O74  1  0.55814000  0.57940000  0.59362000  1.0
  O  O75  1  0.38309000  0.44795000  0.49263000  1.0
  O  O76  1  0.70798000  0.42045000  0.40733000  1.0
  O  O77  1  0.72243000  0.42195000  0.55536000  1.0
  O  O78  1  0.88345000  0.55126000  0.51036000  1.0
  O  O79  1  0.21785000  0.91328000  0.90999000  1.0
  O  O80  1  0.56857000  0.94240000  0.07356000  1.0
  O  O81  1  0.73219000  0.09428000  0.07917000  1.0
  O  O82  1  0.55576000  0.90395000  0.91921000  1.0
  O  O83  1  0.71803000  0.05512000  0.92569000  1.0
  O  O84  1  0.22943000  0.92865000  0.06141000  1.0
  O  O85  1  0.39290000  0.05059000  0.00547000  1.0
  O  O86  1  0.05592000  0.07073000  0.94078000  1.0
  O  O87  1  0.06825000  0.08465000  0.09261000  1.0
  O  O88  1  0.89346000  0.94761000  0.99433000  1.0
