# generated using pymatgen
data_CdH10(C2O3)2
_symmetry_space_group_name_H-M   'P 1'
_cell_length_a   8.07413000
_cell_length_b   8.55449000
_cell_length_c   11.80390000
_cell_angle_alpha   90.00020000
_cell_angle_beta   89.99970000
_cell_angle_gamma   89.99990000
_symmetry_Int_Tables_number   1
_chemical_formula_structural   CdH10(C2O3)2
_chemical_formula_sum   'Cd4 H40 C16 O24'
_cell_volume   815.29613249
_cell_formula_units_Z   4
loop_
 _symmetry_equiv_pos_site_id
 _symmetry_equiv_pos_as_xyz
  1  'x, y, z'
loop_
 _atom_site_type_symbol
 _atom_site_label
 _atom_site_symmetry_multiplicity
 _atom_site_fract_x
 _atom_site_fract_y
 _atom_site_fract_z
 _atom_site_occupancy
  Cd  Cd0  1  0.56324000  0.30213000  0.57233000  1.0
  Cd  Cd1  1  0.93676000  0.69786000  0.07233000  1.0
  Cd  Cd2  1  0.43676000  0.80214000  0.92766000  1.0
  Cd  Cd3  1  0.06324000  0.19787000  0.42766000  1.0
  H  H4  1  0.31811000  0.79299000  0.45900000  1.0
  H  H5  1  0.18189000  0.20701000  0.95900000  1.0
  H  H6  1  0.68189000  0.29299000  0.04100000  1.0
  H  H7  1  0.81811000  0.70701000  0.54100000  1.0
  H  H8  1  0.52151000  0.85653000  0.49668000  1.0
  H  H9  1  0.97849000  0.14347000  0.99668000  1.0
  H  H10  1  0.47849000  0.35652000  0.00332000  1.0
  H  H11  1  0.02151000  0.64348000  0.50332000  1.0
  H  H12  1  0.36815000  0.84565000  0.60168000  1.0
  H  H13  1  0.13186000  0.15434000  0.10169000  1.0
  H  H14  1  0.63186000  0.34565000  0.89832000  1.0
  H  H15  1  0.86814000  0.65435000  0.39832000  1.0
  H  H16  1  0.39269000  0.16580000  0.20086000  1.0
  H  H17  1  0.10731000  0.83419000  0.70086000  1.0
  H  H18  1  0.60731000  0.66581000  0.29913000  1.0
  H  H19  1  0.89269000  0.33420000  0.79913000  1.0
  H  H20  1  0.29226000  0.00334000  0.26670000  1.0
  H  H21  1  0.20774000  0.99665000  0.76670000  1.0
  H  H22  1  0.70773000  0.50334000  0.23330000  1.0
  H  H23  1  0.79226000  0.49666000  0.73330000  1.0
  H  H24  1  0.50833000  0.99574000  0.23104000  1.0
  H  H25  1  0.99167000  0.00426000  0.73104000  1.0
  H  H26  1  0.49167000  0.49574000  0.26895000  1.0
  H  H27  1  0.00833000  0.50426000  0.76896000  1.0
  H  H28  1  0.26551000  0.31160000  0.68644000  1.0
  H  H29  1  0.23449000  0.68840000  0.18644000  1.0
  H  H30  1  0.73449000  0.81160000  0.81356000  1.0
  H  H31  1  0.76551000  0.18840000  0.31356000  1.0
  H  H32  1  0.39303000  0.23300000  0.77969000  1.0
  H  H33  1  0.10697000  0.76700000  0.27969000  1.0
  H  H34  1  0.60697000  0.73300000  0.72031000  1.0
  H  H35  1  0.89303000  0.26700000  0.22031000  1.0
  H  H36  1  0.63992000  0.00109000  0.70504000  1.0
  H  H37  1  0.86008000  0.99891000  0.20503000  1.0
  H  H38  1  0.36008000  0.50109000  0.79497000  1.0
  H  H39  1  0.13992000  0.49891000  0.29497000  1.0
  H  H40  1  0.76614000  0.04052000  0.60573000  1.0
  H  H41  1  0.73386000  0.95948000  0.10573000  1.0
  H  H42  1  0.23386000  0.54052000  0.89428000  1.0
  H  H43  1  0.26614000  0.45948000  0.39428000  1.0
  C  C44  1  0.46854000  0.62399000  0.55013000  1.0
  C  C45  1  0.03146000  0.37601000  0.05014000  1.0
  C  C46  1  0.53147000  0.12399000  0.94987000  1.0
  C  C47  1  0.96853000  0.87601000  0.44987000  1.0
  C  C48  1  0.41352000  0.78831000  0.52456000  1.0
  C  C49  1  0.08648000  0.21168000  0.02457000  1.0
  C  C50  1  0.58649000  0.28831000  0.97544000  1.0
  C  C51  1  0.91351000  0.71169000  0.47544000  1.0
  C  C52  1  0.45118000  0.14005000  0.37489000  1.0
  C  C53  1  0.04882000  0.85994000  0.87489000  1.0
  C  C54  1  0.54882000  0.64006000  0.12511000  1.0
  C  C55  1  0.95118000  0.35995000  0.62511000  1.0
  C  C56  1  0.40752000  0.07000000  0.26207000  1.0
  C  C57  1  0.09248000  0.92999000  0.76207000  1.0
  C  C58  1  0.59247000  0.57001000  0.23793000  1.0
  C  C59  1  0.90753000  0.43000000  0.73793000  1.0
  O  O60  1  0.57068000  0.59967000  0.63066000  1.0
  O  O61  1  0.92932000  0.40033000  0.13066000  1.0
  O  O62  1  0.42933000  0.09966000  0.86934000  1.0
  O  O63  1  0.07067000  0.90033000  0.36934000  1.0
  O  O64  1  0.41638000  0.51037000  0.48948000  1.0
  O  O65  1  0.08362000  0.48963000  0.98948000  1.0
  O  O66  1  0.58363000  0.01037000  0.01052000  1.0
  O  O67  1  0.91637000  0.98964000  0.51053000  1.0
  O  O68  1  0.59807000  0.19211000  0.39055000  1.0
  O  O69  1  0.90193000  0.80789000  0.89055000  1.0
  O  O70  1  0.40193000  0.69212000  0.10945000  1.0
  O  O71  1  0.09808000  0.30789000  0.60944000  1.0
  O  O72  1  0.34485000  0.14979000  0.45470000  1.0
  O  O73  1  0.15515000  0.85021000  0.95470000  1.0
  O  O74  1  0.65515000  0.64979000  0.04530000  1.0
  O  O75  1  0.84485000  0.35021000  0.54530000  1.0
  O  O76  1  0.37888000  0.32003000  0.72182000  1.0
  O  O77  1  0.12113000  0.67997000  0.22182000  1.0
  O  O78  1  0.62112000  0.82003000  0.77818000  1.0
  O  O79  1  0.87887000  0.17997000  0.27818000  1.0
  O  O80  1  0.68759000  0.08892000  0.66054000  1.0
  O  O81  1  0.81241000  0.91108000  0.16054000  1.0
  O  O82  1  0.31241000  0.58892000  0.83946000  1.0
  O  O83  1  0.18759000  0.41109000  0.33946000  1.0
