# generated using pymatgen
data_Na2H40C24N8O19
_symmetry_space_group_name_H-M   'P 1'
_cell_length_a   7.68191000
_cell_length_b   9.91208000
_cell_length_c   11.51270000
_cell_angle_alpha   96.54580000
_cell_angle_beta   93.17920000
_cell_angle_gamma   96.48730000
_symmetry_Int_Tables_number   1
_chemical_formula_structural   Na2H40C24N8O19
_chemical_formula_sum   'Na2 H40 C24 N8 O19'
_cell_volume   863.25234505
_cell_formula_units_Z   1
loop_
 _symmetry_equiv_pos_site_id
 _symmetry_equiv_pos_as_xyz
  1  'x, y, z'
loop_
 _atom_site_type_symbol
 _atom_site_label
 _atom_site_symmetry_multiplicity
 _atom_site_fract_x
 _atom_site_fract_y
 _atom_site_fract_z
 _atom_site_occupancy
  Na  Na0  1  0.88959000  0.32475000  0.47871000  1.0
  Na  Na1  1  0.70710000  0.23281000  0.73956000  1.0
  H  H2  1  0.45255000  0.39261000  0.89092000  1.0
  H  H3  1  0.35706000  0.26615000  0.81305000  1.0
  H  H4  1  0.59545000  0.42111000  0.60984000  1.0
  H  H5  1  0.74991000  0.50631000  0.69096000  1.0
  H  H6  1  0.97978000  0.40640000  0.91032000  1.0
  H  H7  1  0.94458000  0.25897000  0.95926000  1.0
  H  H8  1  0.46878000  0.20380000  0.43350000  1.0
  H  H9  1  0.35287000  0.08743000  0.49601000  1.0
  H  H10  1  0.23799000  0.29196000  0.56160000  1.0
  H  H11  1  0.13762000  0.26499000  0.67028000  1.0
  H  H12  1  0.11608000  0.32810000  0.32082000  1.0
  H  H13  1  0.19644000  0.20829000  0.37430000  1.0
  H  H14  1  0.61879000  0.30529000  0.28544000  1.0
  H  H15  1  0.58218000  0.14775000  0.28255000  1.0
  H  H16  1  0.90253000  0.55695000  0.24362000  1.0
  H  H17  1  0.55599000  0.58702000  0.26110000  1.0
  H  H18  1  0.52109000  0.37328000  0.11699000  1.0
  H  H19  1  0.52467000  0.69894000  0.08291000  1.0
  H  H20  1  0.30383000  0.53891000  0.05217000  1.0
  H  H21  1  0.70952000  0.47585000  0.95281000  1.0
  H  H22  1  0.56269000  0.65460000  0.85313000  1.0
  H  H23  1  0.72866000  0.78037000  0.92658000  1.0
  H  H24  1  0.91934000  0.61573000  0.83956000  1.0
  H  H25  1  0.69363000  0.93425000  0.67739000  1.0
  H  H26  1  0.64656000  0.69972000  0.62580000  1.0
  H  H27  1  0.93344000  0.08931000  0.31108000  1.0
  H  H28  1  0.93202000  0.90798000  0.14148000  1.0
  H  H29  1  0.38242000  0.04906000  0.72634000  1.0
  H  H30  1  0.02623000  0.97724000  0.75115000  1.0
  H  H31  1  0.06199000  0.22265000  0.83279000  1.0
  H  H32  1  0.07155000  0.90114000  0.93880000  1.0
  H  H33  1  0.88407000  0.05330000  0.99374000  1.0
  H  H34  1  0.34493000  0.14945000  0.01261000  1.0
  H  H35  1  0.21944000  0.01122000  0.15919000  1.0
  H  H36  1  0.29347000  0.86079000  0.08632000  1.0
  H  H37  1  0.57760000  0.00688000  0.11606000  1.0
  H  H38  1  0.18938000  0.67621000  0.26834000  1.0
  H  H39  1  0.30173000  0.90638000  0.32033000  1.0
  H  H40  1  0.18764000  0.50758000  0.65536000  1.0
  H  H41  1  0.25006000  0.68478000  0.83666000  1.0
  C  C42  1  0.81876000  0.62019000  0.19780000  1.0
  C  C43  1  0.62868000  0.55233000  0.18599000  1.0
  C  C44  1  0.55806000  0.59315000  0.06938000  1.0
  C  C45  1  0.71214000  0.58336000  0.99084000  1.0
  C  C46  1  0.69900000  0.67160000  0.89127000  1.0
  C  C47  1  0.03165000  0.60168000  0.04430000  1.0
  C  C48  1  0.69515000  0.76040000  0.55872000  1.0
  C  C49  1  0.78683000  0.79026000  0.38071000  1.0
  C  C50  1  0.81942000  0.93414000  0.41017000  1.0
  C  C51  1  0.78543000  0.99596000  0.52297000  1.0
  C  C52  1  0.88759000  0.88539000  0.22561000  1.0
  C  C53  1  0.83135000  0.76061000  0.26297000  1.0
  C  C54  1  0.31252000  0.97781000  0.77948000  1.0
  C  C55  1  0.13750000  0.03212000  0.80795000  1.0
  C  C56  1  0.11972000  0.01062000  0.93774000  1.0
  C  C57  1  0.30958000  0.03753000  0.99231000  1.0
  C  C58  1  0.32280000  0.97323000  0.10639000  1.0
  C  C59  1  0.59206000  0.00659000  0.90020000  1.0
  C  C60  1  0.27438000  0.84500000  0.39140000  1.0
  C  C61  1  0.27066000  0.81522000  0.58370000  1.0
  C  C62  1  0.22009000  0.67307000  0.55333000  1.0
  C  C63  1  0.17542000  0.61530000  0.43539000  1.0
  C  C64  1  0.25216000  0.71210000  0.74804000  1.0
  C  C65  1  0.28706000  0.83967000  0.70879000  1.0
  N  N66  1  0.86627000  0.62016000  0.07525000  1.0
  N  N67  1  0.72426000  0.89772000  0.59307000  1.0
  N  N68  1  0.72313000  0.70098000  0.45530000  1.0
  N  N69  1  0.87989000  0.98927000  0.31387000  1.0
  N  N70  1  0.41042000  0.98437000  0.89524000  1.0
  N  N71  1  0.21716000  0.71033000  0.35773000  1.0
  N  N72  1  0.29866000  0.90311000  0.50030000  1.0
  N  N73  1  0.21085000  0.61294000  0.65445000  1.0
  O  O74  1  0.47250000  0.32322000  0.82611000  1.0
  O  O75  1  0.72090000  0.42498000  0.62961000  1.0
  O  O76  1  0.92297000  0.30935000  0.89159000  1.0
  O  O77  1  0.36441000  0.18539000  0.48038000  1.0
  O  O78  1  0.14836000  0.32955000  0.61088000  1.0
  O  O79  1  0.09853000  0.22834000  0.32120000  1.0
  O  O80  1  0.62527000  0.23168000  0.33714000  1.0
  O  O81  1  0.62284000  0.40595000  0.17300000  1.0
  O  O82  1  0.41108000  0.50149000  0.01958000  1.0
  O  O83  1  0.80961000  0.63858000  0.79804000  1.0
  O  O84  1  0.15898000  0.61508000  0.12295000  1.0
  O  O85  1  0.05472000  0.56863000  0.93468000  1.0
  O  O86  1  0.80343000  0.12131000  0.56238000  1.0
  O  O87  1  0.15535000  0.17412000  0.79238000  1.0
  O  O88  1  0.01201000  0.09479000  0.00119000  1.0
  O  O89  1  0.67788000  0.01631000  0.00073000  1.0
  O  O90  1  0.66804000  0.01570000  0.80540000  1.0
  O  O91  1  0.48563000  0.00830000  0.17545000  1.0
  O  O92  1  0.10332000  0.49650000  0.39901000  1.0
