# generated using pymatgen
data_Zn2H28C57N4(O5F4)3
_symmetry_space_group_name_H-M   'P 1'
_cell_length_a   9.54318000
_cell_length_b   10.78990000
_cell_length_c   28.04300000
_cell_angle_alpha   90.72710000
_cell_angle_beta   90.29760000
_cell_angle_gamma   90.50340000
_symmetry_Int_Tables_number   1
_chemical_formula_structural   Zn2H28C57N4(O5F4)3
_chemical_formula_sum   'Zn2 H28 C57 N4 O15 F12'
_cell_volume   2887.20193015
_cell_formula_units_Z   1
loop_
 _symmetry_equiv_pos_site_id
 _symmetry_equiv_pos_as_xyz
  1  'x, y, z'
loop_
 _atom_site_type_symbol
 _atom_site_label
 _atom_site_symmetry_multiplicity
 _atom_site_fract_x
 _atom_site_fract_y
 _atom_site_fract_z
 _atom_site_occupancy
  Zn  Zn0  1  0.64829000  0.50534000  0.50027000  1.0
  Zn  Zn1  1  0.35609000  0.49679000  0.50000000  1.0
  H  H2  1  0.71249000  0.53378000  0.65192000  1.0
  H  H3  1  0.49272000  0.19713000  0.87121000  1.0
  H  H4  1  0.25434000  0.42179000  0.26188000  1.0
  H  H5  1  0.50219000  0.18366000  0.95796000  1.0
  H  H6  1  0.26567000  0.51029000  0.74083000  1.0
  H  H7  1  0.70478000  0.51866000  0.34472000  1.0
  H  H8  1  0.50193000  0.81365000  0.97206000  1.0
  H  H9  1  0.71582000  0.11920000  0.53459000  1.0
  H  H10  1  0.33021000  0.09282000  0.45543000  1.0
  H  H11  1  0.73107000  0.88532000  0.48881000  1.0
  H  H12  1  0.54766000  0.90914000  0.42531000  1.0
  H  H13  1  0.68387000  0.90664000  0.54896000  1.0
  H  H14  1  0.36785000  0.88047000  0.43791000  1.0
  H  H15  1  0.48961000  0.09537000  0.57515000  1.0
  H  H16  1  0.32980000  0.12201000  0.54422000  1.0
  H  H17  1  0.13702000  0.41528000  0.56915000  1.0
  H  H18  1  0.89618000  0.47043000  0.57470000  1.0
  H  H19  1  0.10566000  0.31366000  0.51986000  1.0
  H  H20  1  0.86311000  0.33556000  0.53930000  1.0
  H  H21  1  0.11205000  0.54466000  0.42900000  1.0
  H  H22  1  0.86622000  0.50107000  0.42621000  1.0
  H  H23  1  0.13237000  0.38545000  0.43945000  1.0
  H  H24  1  0.88658000  0.35524000  0.45310000  1.0
  H  H25  1  0.14418000  0.69306000  0.49408000  1.0
  H  H26  1  0.89901000  0.68190000  0.47577000  1.0
  H  H27  1  0.61034000  0.85889000  0.85009000  1.0
  H  H28  1  0.84633000  0.54241000  0.71929000  1.0
  H  H29  1  0.69146000  0.15406000  0.14467000  1.0
  C  C30  1  0.50973000  0.26329000  0.49882000  1.0
  C  C31  1  0.49607000  0.50746000  0.59249000  1.0
  C  C32  1  0.50571000  0.73818000  0.49914000  1.0
  C  C33  1  0.49401000  0.48957000  0.40703000  1.0
  C  C34  1  0.49397000  0.39911000  0.81773000  1.0
  C  C35  1  0.49189000  0.63097000  0.82268000  1.0
  C  C36  1  0.36489000  0.51528000  0.72189000  1.0
  C  C37  1  0.36567000  0.51222000  0.67220000  1.0
  C  C38  1  0.61499000  0.52783000  0.67199000  1.0
  C  C39  1  0.61894000  0.53066000  0.72184000  1.0
  C  C40  1  0.49082000  0.52277000  0.74647000  1.0
  C  C41  1  0.49671000  0.50719000  0.89787000  1.0
  C  C42  1  0.49472000  0.39596000  0.87030000  1.0
  C  C43  1  0.49478000  0.28208000  0.89269000  1.0
  C  C44  1  0.50221000  0.62397000  0.87513000  1.0
  C  C45  1  0.49023000  0.51663000  0.64585000  1.0
  C  C46  1  0.48522000  0.47731000  0.35373000  1.0
  C  C47  1  0.51325000  0.37943000  0.02341000  1.0
  C  C48  1  0.46040000  0.60455000  0.02719000  1.0
  C  C49  1  0.48334000  0.48913000  0.05075000  1.0
  C  C50  1  0.54996000  0.27385000  0.04926000  1.0
  C  C51  1  0.55089000  0.26767000  0.09907000  1.0
  C  C52  1  0.51135000  0.37267000  0.12498000  1.0
  C  C53  1  0.47642000  0.48404000  0.10162000  1.0
  C  C54  1  0.43436000  0.58902000  0.12926000  1.0
  C  C55  1  0.42846000  0.58489000  0.18183000  1.0
  C  C56  1  0.50741000  0.36369000  0.17727000  1.0
  C  C57  1  0.35333000  0.44357000  0.27967000  1.0
  C  C58  1  0.36056000  0.44878000  0.32910000  1.0
  C  C59  1  0.60600000  0.49795000  0.32663000  1.0
  C  C60  1  0.59896000  0.49396000  0.27736000  1.0
  C  C61  1  0.47337000  0.46791000  0.25338000  1.0
  C  C62  1  0.50331000  0.38233000  0.97130000  1.0
  C  C63  1  0.49497000  0.50055000  0.94882000  1.0
  C  C64  1  0.48405000  0.61317000  0.97591000  1.0
  C  C65  1  0.50060000  0.27517000  0.94240000  1.0
  C  C66  1  0.51282000  0.73271000  0.90274000  1.0
  C  C67  1  0.41483000  0.70370000  0.05536000  1.0
  C  C68  1  0.39974000  0.69647000  0.10517000  1.0
  C  C69  1  0.49884000  0.72610000  0.95247000  1.0
  C  C70  1  0.66312000  0.07071000  0.50474000  1.0
  C  C71  1  0.44170000  0.06850000  0.45376000  1.0
  C  C72  1  0.65515000  0.93058000  0.51227000  1.0
  C  C73  1  0.46305000  0.92806000  0.45073000  1.0
  C  C74  1  0.43110000  0.07518000  0.54206000  1.0
  C  C75  1  0.51509000  0.12214000  0.49862000  1.0
  C  C76  1  0.50757000  0.87963000  0.50026000  1.0
  C  C77  1  0.40704000  0.93517000  0.53744000  1.0
  C  C78  1  0.08062000  0.40476000  0.53526000  1.0
  C  C79  1  0.92167000  0.42332000  0.54104000  1.0
  C  C80  1  0.08799000  0.62367000  0.51520000  1.0
  C  C81  1  0.92658000  0.62931000  0.50779000  1.0
  C  C82  1  0.08047000  0.46924000  0.45265000  1.0
  C  C83  1  0.91988000  0.45279000  0.45512000  1.0
  C  C84  1  0.54566000  0.85790000  0.88273000  1.0
  C  C85  1  0.75766000  0.54029000  0.74525000  1.0
  C  C86  1  0.59420000  0.14829000  0.12278000  1.0
  N  N87  1  0.48863000  0.51800000  0.79765000  1.0
  N  N88  1  0.46888000  0.47069000  0.20229000  1.0
  N  N89  1  0.13733000  0.49828000  0.50126000  1.0
  N  N90  1  0.86825000  0.50294000  0.50175000  1.0
  O  O91  1  0.62152000  0.32125000  0.51029000  1.0
  O  O92  1  0.39208000  0.31042000  0.48884000  1.0
  O  O93  1  0.61169000  0.53619000  0.57302000  1.0
  O  O94  1  0.38597000  0.46945000  0.57100000  1.0
  O  O95  1  0.61931000  0.68654000  0.48671000  1.0
  O  O96  1  0.39217000  0.68360000  0.50936000  1.0
  O  O97  1  0.61248000  0.47129000  0.42648000  1.0
  O  O98  1  0.38197000  0.52020000  0.42839000  1.0
  O  O99  1  0.49551000  0.30631000  0.79187000  1.0
  O  O100  1  0.53664000  0.26754000  0.19842000  1.0
  O  O101  1  0.48308000  0.72936000  0.80096000  1.0
  O  O102  1  0.39289000  0.67108000  0.20775000  1.0
  O  O103  1  0.51009000  0.95423000  0.90277000  1.0
  O  O104  1  0.78082000  0.54600000  0.78826000  1.0
  O  O105  1  0.53152000  0.05098000  0.11546000  1.0
  F  F106  1  0.38008000  0.81327000  0.03612000  1.0
  F  F107  1  0.35249000  0.79762000  0.12742000  1.0
  F  F108  1  0.71607000  0.51707000  0.25138000  1.0
  F  F109  1  0.74591000  0.09581000  0.46394000  1.0
  F  F110  1  0.49362000  0.12467000  0.41214000  1.0
  F  F111  1  0.42530000  0.87998000  0.58145000  1.0
  F  F112  1  0.26716000  0.91315000  0.52459000  1.0
  F  F113  1  0.12146000  0.64386000  0.56263000  1.0
  F  F114  1  0.86570000  0.68672000  0.54675000  1.0
  F  F115  1  0.24022000  0.42309000  0.35300000  1.0
  F  F116  1  0.59240000  0.17036000  0.02563000  1.0
  F  F117  1  0.23899000  0.50487000  0.65051000  1.0
