# generated using pymatgen
data_K2H12C11N3O5F6
_symmetry_space_group_name_H-M   'P 1'
_cell_length_a   7.26638000
_cell_length_b   11.04690000
_cell_length_c   11.14760000
_cell_angle_alpha   84.80030000
_cell_angle_beta   84.58750000
_cell_angle_gamma   80.87030000
_symmetry_Int_Tables_number   1
_chemical_formula_structural   K2H12C11N3O5F6
_chemical_formula_sum   'K4 H24 C22 N6 O10 F12'
_cell_volume   876.94400489
_cell_formula_units_Z   2
loop_
 _symmetry_equiv_pos_site_id
 _symmetry_equiv_pos_as_xyz
  1  'x, y, z'
loop_
 _atom_site_type_symbol
 _atom_site_label
 _atom_site_symmetry_multiplicity
 _atom_site_fract_x
 _atom_site_fract_y
 _atom_site_fract_z
 _atom_site_occupancy
  K  K0  1  0.63674000  0.65746000  0.00277000  1.0
  K  K1  1  0.36324000  0.34256000  0.99709000  1.0
  K  K2  1  0.22795000  0.97807000  0.10647000  1.0
  K  K3  1  0.77209000  0.02192000  0.89348000  1.0
  H  H4  1  0.47483000  0.44269000  0.37234000  1.0
  H  H5  1  0.52518000  0.55731000  0.62767000  1.0
  H  H6  1  0.69071000  0.48638000  0.40010000  1.0
  H  H7  1  0.30929000  0.51361000  0.59990000  1.0
  H  H8  1  0.59868000  0.36815000  0.49571000  1.0
  H  H9  1  0.40132000  0.63187000  0.50429000  1.0
  H  H10  1  0.45208000  0.25146000  0.28659000  1.0
  H  H11  1  0.54790000  0.74854000  0.71343000  1.0
  H  H12  1  0.56531000  0.16376000  0.40762000  1.0
  H  H13  1  0.43468000  0.83625000  0.59240000  1.0
  H  H14  1  0.65317000  0.14117000  0.25526000  1.0
  H  H15  1  0.34682000  0.85883000  0.74475000  1.0
  H  H16  1  0.09715000  0.09924000  0.41986000  1.0
  H  H17  1  0.90285000  0.90078000  0.58015000  1.0
  H  H18  1  0.89971000  0.06143000  0.35643000  1.0
  H  H19  1  0.10030000  0.93859000  0.64358000  1.0
  H  H20  1  0.87252000  0.12739000  0.49850000  1.0
  H  H21  1  0.12748000  0.87262000  0.50151000  1.0
  H  H22  1  0.16415000  0.30839000  0.41328000  1.0
  H  H23  1  0.83585000  0.69162000  0.58675000  1.0
  H  H24  1  0.95829000  0.33842000  0.51166000  1.0
  H  H25  1  0.04169000  0.66158000  0.48835000  1.0
  H  H26  1  0.99197000  0.43729000  0.37846000  1.0
  H  H27  1  0.00803000  0.56273000  0.62156000  1.0
  C  C28  1  0.71129000  0.90329000  0.17522000  1.0
  C  C29  1  0.28871000  0.09671000  0.82478000  1.0
  C  C30  1  0.61824000  0.86583000  0.30358000  1.0
  C  C31  1  0.38177000  0.13417000  0.69642000  1.0
  C  C32  1  0.71140000  0.31002000  0.32101000  1.0
  C  C33  1  0.28859000  0.68997000  0.67901000  1.0
  C  C34  1  0.61431000  0.40828000  0.40230000  1.0
  C  C35  1  0.38569000  0.59173000  0.59770000  1.0
  C  C36  1  0.58857000  0.21002000  0.31751000  1.0
  C  C37  1  0.41142000  0.78998000  0.68251000  1.0
  C  C38  1  0.91983000  0.25788000  0.34737000  1.0
  C  C39  1  0.08015000  0.74213000  0.65266000  1.0
  C  C40  1  0.94801000  0.12799000  0.40852000  1.0
  C  C41  1  0.05199000  0.87202000  0.59149000  1.0
  C  C42  1  0.01339000  0.34192000  0.41671000  1.0
  C  C43  1  0.98659000  0.65810000  0.58330000  1.0
  C  C44  1  0.90515000  0.32045000  0.13866000  1.0
  C  C45  1  0.09485000  0.67954000  0.86134000  1.0
  C  C46  1  0.86071000  0.31733000  0.93991000  1.0
  C  C47  1  0.13928000  0.68265000  0.06009000  1.0
  C  C48  1  0.90983000  0.37509000  0.81188000  1.0
  C  C49  1  0.09017000  0.62488000  0.18813000  1.0
  N  N50  1  0.73647000  0.36479000  0.19344000  1.0
  N  N51  1  0.26352000  0.63520000  0.80655000  1.0
  N  N52  1  0.01335000  0.25595000  0.22179000  1.0
  N  N53  1  0.98667000  0.74406000  0.77820000  1.0
  N  N54  1  0.96556000  0.34457000  0.02177000  1.0
  N  N55  1  0.03444000  0.65542000  0.97822000  1.0
  O  O56  1  0.86461000  0.94249000  0.17055000  1.0
  O  O57  1  0.13538000  0.05753000  0.82946000  1.0
  O  O58  1  0.61371000  0.89022000  0.09074000  1.0
  O  O59  1  0.38630000  0.10978000  0.90926000  1.0
  O  O60  1  0.60417000  0.43546000  0.14035000  1.0
  O  O61  1  0.39584000  0.56455000  0.85965000  1.0
  O  O62  1  0.18426000  0.20392000  0.19806000  1.0
  O  O63  1  0.81574000  0.79607000  0.80194000  1.0
  O  O64  1  0.72793000  0.25613000  0.95090000  1.0
  O  O65  1  0.27209000  0.74386000  0.04910000  1.0
  F  F66  1  0.57634000  0.74885000  0.31100000  1.0
  F  F67  1  0.42368000  0.25115000  0.68900000  1.0
  F  F68  1  0.72351000  0.87257000  0.39635000  1.0
  F  F69  1  0.27648000  0.12744000  0.60365000  1.0
  F  F70  1  0.45045000  0.94179000  0.32654000  1.0
  F  F71  1  0.54952000  0.05819000  0.67345000  1.0
  F  F72  1  0.86667000  0.30947000  0.72397000  1.0
  F  F73  1  0.13335000  0.69048000  0.27604000  1.0
  F  F74  1  0.80778000  0.49058000  0.79734000  1.0
  F  F75  1  0.19225000  0.50938000  0.20266000  1.0
  F  F76  1  0.09398000  0.38846000  0.78885000  1.0
  F  F77  1  0.90602000  0.61151000  0.21115000  1.0
