# generated using pymatgen
data_CoH6(C5N2)2
_symmetry_space_group_name_H-M   'P 1'
_cell_length_a   15.47490000
_cell_length_b   15.47490000
_cell_length_c   20.09230000
_cell_angle_alpha   90.00000000
_cell_angle_beta   90.00000000
_cell_angle_gamma   90.00000000
_symmetry_Int_Tables_number   1
_chemical_formula_structural   CoH6(C5N2)2
_chemical_formula_sum   'Co12 H72 C120 N48'
_cell_volume   4811.55391472
_cell_formula_units_Z   12
loop_
 _symmetry_equiv_pos_site_id
 _symmetry_equiv_pos_as_xyz
  1  'x, y, z'
loop_
 _atom_site_type_symbol
 _atom_site_label
 _atom_site_symmetry_multiplicity
 _atom_site_fract_x
 _atom_site_fract_y
 _atom_site_fract_z
 _atom_site_occupancy
  Co  Co0  1  0.08364000  0.91636000  0.00000000  1.0
  Co  Co1  1  0.41637000  0.58363000  0.00000000  1.0
  Co  Co2  1  0.58364000  0.08364000  0.50000000  1.0
  Co  Co3  1  0.91636000  0.41636000  0.50000000  1.0
  Co  Co4  1  0.91636000  0.08364000  0.00000000  1.0
  Co  Co5  1  0.58364000  0.41636000  0.00000000  1.0
  Co  Co6  1  0.41637000  0.91637000  0.50000000  1.0
  Co  Co7  1  0.08364000  0.58364000  0.50000000  1.0
  Co  Co8  1  0.25000000  0.75000000  0.50000000  1.0
  Co  Co9  1  0.75000000  0.25000000  0.00000000  1.0
  Co  Co10  1  0.75000000  0.25000000  0.50000000  1.0
  Co  Co11  1  0.25000000  0.75000000  0.00000000  1.0
  H  H12  1  0.15989000  0.96252000  0.74065000  1.0
  H  H13  1  0.14065000  0.94267000  0.85369000  1.0
  H  H14  1  0.29464000  0.05797000  0.56553000  1.0
  H  H15  1  0.14125000  0.83344000  0.61554000  1.0
  H  H16  1  0.34011000  0.53748000  0.74065000  1.0
  H  H17  1  0.35935000  0.55733000  0.85369000  1.0
  H  H18  1  0.20536000  0.44203000  0.56553000  1.0
  H  H19  1  0.35875000  0.66656000  0.61554000  1.0
  H  H20  1  0.53748000  0.15989000  0.24065000  1.0
  H  H21  1  0.55733000  0.14065000  0.35369000  1.0
  H  H22  1  0.44203000  0.29464000  0.06553000  1.0
  H  H23  1  0.66656000  0.14125000  0.11554000  1.0
  H  H24  1  0.96252000  0.34011000  0.24065000  1.0
  H  H25  1  0.94267000  0.35935000  0.35369000  1.0
  H  H26  1  0.05797000  0.20536000  0.06553000  1.0
  H  H27  1  0.83344000  0.35875000  0.11554000  1.0
  H  H28  1  0.84011000  0.46252000  0.75935000  1.0
  H  H29  1  0.85935000  0.44267000  0.64631000  1.0
  H  H30  1  0.70536000  0.55797000  0.93447000  1.0
  H  H31  1  0.85875000  0.33344000  0.88446000  1.0
  H  H32  1  0.65989000  0.03748000  0.75935000  1.0
  H  H33  1  0.64065000  0.05733000  0.64631000  1.0
  H  H34  1  0.79464000  0.94203000  0.93447000  1.0
  H  H35  1  0.64125000  0.16656000  0.88446000  1.0
  H  H36  1  0.46252000  0.65989000  0.25935000  1.0
  H  H37  1  0.44267000  0.64065000  0.14631000  1.0
  H  H38  1  0.55797000  0.79464000  0.43447000  1.0
  H  H39  1  0.33344000  0.64125000  0.38446000  1.0
  H  H40  1  0.03748000  0.84011000  0.25935000  1.0
  H  H41  1  0.05733000  0.85935000  0.14631000  1.0
  H  H42  1  0.94203000  0.70536000  0.43447000  1.0
  H  H43  1  0.16656000  0.85875000  0.38446000  1.0
  H  H44  1  0.84011000  0.03748000  0.25935000  1.0
  H  H45  1  0.85935000  0.05733000  0.14631000  1.0
  H  H46  1  0.70536000  0.94203000  0.43447000  1.0
  H  H47  1  0.85875000  0.16656000  0.38446000  1.0
  H  H48  1  0.65989000  0.46252000  0.25935000  1.0
  H  H49  1  0.64065000  0.44267000  0.14631000  1.0
  H  H50  1  0.79464000  0.55797000  0.43447000  1.0
  H  H51  1  0.64125000  0.33344000  0.38446000  1.0
  H  H52  1  0.46252000  0.84011000  0.75935000  1.0
  H  H53  1  0.44267000  0.85935000  0.64631000  1.0
  H  H54  1  0.55797000  0.70536000  0.93447000  1.0
  H  H55  1  0.33344000  0.85875000  0.88446000  1.0
  H  H56  1  0.03748000  0.65989000  0.75935000  1.0
  H  H57  1  0.05733000  0.64065000  0.64631000  1.0
  H  H58  1  0.94203000  0.79464000  0.93447000  1.0
  H  H59  1  0.16656000  0.64125000  0.88446000  1.0
  H  H60  1  0.15989000  0.53748000  0.24065000  1.0
  H  H61  1  0.14065000  0.55733000  0.35369000  1.0
  H  H62  1  0.29464000  0.44203000  0.06553000  1.0
  H  H63  1  0.14125000  0.66656000  0.11554000  1.0
  H  H64  1  0.34011000  0.96252000  0.24065000  1.0
  H  H65  1  0.35935000  0.94267000  0.35369000  1.0
  H  H66  1  0.20536000  0.05797000  0.06553000  1.0
  H  H67  1  0.35875000  0.83344000  0.11554000  1.0
  H  H68  1  0.53748000  0.34011000  0.74065000  1.0
  H  H69  1  0.55733000  0.35935000  0.85369000  1.0
  H  H70  1  0.44203000  0.20536000  0.56553000  1.0
  H  H71  1  0.66656000  0.35875000  0.61554000  1.0
  H  H72  1  0.96252000  0.15989000  0.74065000  1.0
  H  H73  1  0.94267000  0.14065000  0.85369000  1.0
  H  H74  1  0.05797000  0.29464000  0.56553000  1.0
  H  H75  1  0.83344000  0.14125000  0.61554000  1.0
  H  H76  1  0.09321000  0.09321000  0.55915000  1.0
  H  H77  1  0.40679000  0.40679000  0.55915000  1.0
  H  H78  1  0.40679000  0.09321000  0.05915000  1.0
  H  H79  1  0.09321000  0.40679000  0.05915000  1.0
  H  H80  1  0.90679000  0.59321000  0.94085000  1.0
  H  H81  1  0.59321000  0.90679000  0.94085000  1.0
  H  H82  1  0.59321000  0.59321000  0.44085000  1.0
  H  H83  1  0.90679000  0.90679000  0.44085000  1.0
  C  C84  1  0.12119000  0.01098000  0.71490000  1.0
  C  C85  1  0.13413000  0.02300000  0.64658000  1.0
  C  C86  1  0.09042000  0.98964000  0.86441000  1.0
  C  C87  1  0.19432000  0.96858000  0.60863000  1.0
  C  C88  1  0.26573000  0.99433000  0.57052000  1.0
  C  C89  1  0.18905000  0.87932000  0.59765000  1.0
  C  C90  1  0.37881000  0.48902000  0.71490000  1.0
  C  C91  1  0.36587000  0.47700000  0.64658000  1.0
  C  C92  1  0.40958000  0.51036000  0.86441000  1.0
  C  C93  1  0.30568000  0.53142000  0.60863000  1.0
  C  C94  1  0.23427000  0.50567000  0.57052000  1.0
  C  C95  1  0.31095000  0.62068000  0.59765000  1.0
  C  C96  1  0.48902000  0.12119000  0.21490000  1.0
  C  C97  1  0.47700000  0.13413000  0.14658000  1.0
  C  C98  1  0.51036000  0.09042000  0.36441000  1.0
  C  C99  1  0.53143000  0.19432000  0.10863000  1.0
  C  C100  1  0.50567000  0.26573000  0.07052000  1.0
  C  C101  1  0.62068000  0.18905000  0.09765000  1.0
  C  C102  1  0.01098000  0.37881000  0.21490000  1.0
  C  C103  1  0.02300000  0.36587000  0.14658000  1.0
  C  C104  1  0.98964000  0.40958000  0.36441000  1.0
  C  C105  1  0.96858000  0.30568000  0.10863000  1.0
  C  C106  1  0.99433000  0.23427000  0.07052000  1.0
  C  C107  1  0.87932000  0.31095000  0.09765000  1.0
  C  C108  1  0.87881000  0.51098000  0.78510000  1.0
  C  C109  1  0.86587000  0.52300000  0.85342000  1.0
  C  C110  1  0.90958000  0.48964000  0.63559000  1.0
  C  C111  1  0.80568000  0.46858000  0.89137000  1.0
  C  C112  1  0.73427000  0.49433000  0.92948000  1.0
  C  C113  1  0.81095000  0.37932000  0.90235000  1.0
  C  C114  1  0.62119000  0.98902000  0.78510000  1.0
  C  C115  1  0.63413000  0.97700000  0.85342000  1.0
  C  C116  1  0.59042000  0.01036000  0.63559000  1.0
  C  C117  1  0.69432000  0.03142000  0.89137000  1.0
  C  C118  1  0.76573000  0.00567000  0.92948000  1.0
  C  C119  1  0.68905000  0.12068000  0.90235000  1.0
  C  C120  1  0.51098000  0.62119000  0.28510000  1.0
  C  C121  1  0.52300000  0.63413000  0.35342000  1.0
  C  C122  1  0.48964000  0.59042000  0.13559000  1.0
  C  C123  1  0.46858000  0.69432000  0.39137000  1.0
  C  C124  1  0.49433000  0.76573000  0.42948000  1.0
  C  C125  1  0.37932000  0.68905000  0.40235000  1.0
  C  C126  1  0.98902000  0.87881000  0.28510000  1.0
  C  C127  1  0.97700000  0.86587000  0.35342000  1.0
  C  C128  1  0.01036000  0.90958000  0.13559000  1.0
  C  C129  1  0.03142000  0.80568000  0.39137000  1.0
  C  C130  1  0.00567000  0.73427000  0.42948000  1.0
  C  C131  1  0.12068000  0.81095000  0.40235000  1.0
  C  C132  1  0.87881000  0.98902000  0.28510000  1.0
  C  C133  1  0.86587000  0.97700000  0.35342000  1.0
  C  C134  1  0.90958000  0.01036000  0.13559000  1.0
  C  C135  1  0.80568000  0.03142000  0.39137000  1.0
  C  C136  1  0.73427000  0.00567000  0.42948000  1.0
  C  C137  1  0.81095000  0.12068000  0.40235000  1.0
  C  C138  1  0.62119000  0.51098000  0.28510000  1.0
  C  C139  1  0.63413000  0.52300000  0.35342000  1.0
  C  C140  1  0.59042000  0.48963000  0.13559000  1.0
  C  C141  1  0.69432000  0.46858000  0.39137000  1.0
  C  C142  1  0.76573000  0.49433000  0.42948000  1.0
  C  C143  1  0.68905000  0.37932000  0.40235000  1.0
  C  C144  1  0.51098000  0.87881000  0.78510000  1.0
  C  C145  1  0.52300000  0.86587000  0.85342000  1.0
  C  C146  1  0.48964000  0.90958000  0.63559000  1.0
  C  C147  1  0.46858000  0.80568000  0.89137000  1.0
  C  C148  1  0.49433000  0.73427000  0.92948000  1.0
  C  C149  1  0.37932000  0.81095000  0.90235000  1.0
  C  C150  1  0.98902000  0.62119000  0.78510000  1.0
  C  C151  1  0.97700000  0.63413000  0.85342000  1.0
  C  C152  1  0.01036000  0.59042000  0.63559000  1.0
  C  C153  1  0.03142000  0.69432000  0.89137000  1.0
  C  C154  1  0.00567000  0.76573000  0.92948000  1.0
  C  C155  1  0.12068000  0.68905000  0.90235000  1.0
  C  C156  1  0.12119000  0.48902000  0.21490000  1.0
  C  C157  1  0.13413000  0.47700000  0.14658000  1.0
  C  C158  1  0.09042000  0.51036000  0.36441000  1.0
  C  C159  1  0.19432000  0.53142000  0.10863000  1.0
  C  C160  1  0.26573000  0.50567000  0.07052000  1.0
  C  C161  1  0.18905000  0.62068000  0.09765000  1.0
  C  C162  1  0.37881000  0.01098000  0.21490000  1.0
  C  C163  1  0.36587000  0.02300000  0.14658000  1.0
  C  C164  1  0.40958000  0.98964000  0.36441000  1.0
  C  C165  1  0.30568000  0.96858000  0.10863000  1.0
  C  C166  1  0.23427000  0.99433000  0.07052000  1.0
  C  C167  1  0.31095000  0.87932000  0.09765000  1.0
  C  C168  1  0.48902000  0.37881000  0.71490000  1.0
  C  C169  1  0.47700000  0.36587000  0.64658000  1.0
  C  C170  1  0.51036000  0.40958000  0.86441000  1.0
  C  C171  1  0.53142000  0.30568000  0.60863000  1.0
  C  C172  1  0.50567000  0.23427000  0.57052000  1.0
  C  C173  1  0.62068000  0.31095000  0.59765000  1.0
  C  C174  1  0.01098000  0.12119000  0.71490000  1.0
  C  C175  1  0.02300000  0.13413000  0.64658000  1.0
  C  C176  1  0.98964000  0.09042000  0.86441000  1.0
  C  C177  1  0.96858000  0.19432000  0.60863000  1.0
  C  C178  1  0.99433000  0.26573000  0.57052000  1.0
  C  C179  1  0.87932000  0.18905000  0.59765000  1.0
  C  C180  1  0.06035000  0.06035000  0.75032000  1.0
  C  C181  1  0.08563000  0.08563000  0.61282000  1.0
  C  C182  1  0.04820000  0.04820000  0.82190000  1.0
  C  C183  1  0.43965000  0.43965000  0.75032000  1.0
  C  C184  1  0.41437000  0.41437000  0.61282000  1.0
  C  C185  1  0.45180000  0.45180000  0.82190000  1.0
  C  C186  1  0.43965000  0.06035000  0.25032000  1.0
  C  C187  1  0.41437000  0.08563000  0.11282000  1.0
  C  C188  1  0.45180000  0.04820000  0.32190000  1.0
  C  C189  1  0.06035000  0.43965000  0.25032000  1.0
  C  C190  1  0.08563000  0.41437000  0.11282000  1.0
  C  C191  1  0.04820000  0.45180000  0.32190000  1.0
  C  C192  1  0.93965000  0.56035000  0.74968000  1.0
  C  C193  1  0.91437000  0.58563000  0.88718000  1.0
  C  C194  1  0.95180000  0.54820000  0.67810000  1.0
  C  C195  1  0.56035000  0.93965000  0.74968000  1.0
  C  C196  1  0.58563000  0.91437000  0.88718000  1.0
  C  C197  1  0.54820000  0.95180000  0.67810000  1.0
  C  C198  1  0.56035000  0.56035000  0.24968000  1.0
  C  C199  1  0.58563000  0.58563000  0.38718000  1.0
  C  C200  1  0.54820000  0.54819000  0.17810000  1.0
  C  C201  1  0.93965000  0.93965000  0.24968000  1.0
  C  C202  1  0.91437000  0.91437000  0.38718000  1.0
  C  C203  1  0.95180000  0.95180000  0.17810000  1.0
  N  N204  1  0.05911000  0.99652000  0.92687000  1.0
  N  N205  1  0.30049000  0.92525000  0.53928000  1.0
  N  N206  1  0.25260000  0.85396000  0.55574000  1.0
  N  N207  1  0.44089000  0.50348000  0.92687000  1.0
  N  N208  1  0.19951000  0.57475000  0.53928000  1.0
  N  N209  1  0.24740000  0.64604000  0.55574000  1.0
  N  N210  1  0.50348000  0.05911000  0.42687000  1.0
  N  N211  1  0.57475000  0.30049000  0.03928000  1.0
  N  N212  1  0.64604000  0.25260000  0.05574000  1.0
  N  N213  1  0.99652000  0.44089000  0.42687000  1.0
  N  N214  1  0.92525000  0.19951000  0.03928000  1.0
  N  N215  1  0.85396000  0.24740000  0.05574000  1.0
  N  N216  1  0.94089000  0.49652000  0.57313000  1.0
  N  N217  1  0.69951000  0.42525000  0.96072000  1.0
  N  N218  1  0.74740000  0.35396000  0.94426000  1.0
  N  N219  1  0.55911000  0.00348000  0.57313000  1.0
  N  N220  1  0.80049000  0.07475000  0.96072000  1.0
  N  N221  1  0.75260000  0.14604000  0.94426000  1.0
  N  N222  1  0.49652000  0.55911000  0.07313000  1.0
  N  N223  1  0.42525000  0.80049000  0.46072000  1.0
  N  N224  1  0.35396000  0.75260000  0.44426000  1.0
  N  N225  1  0.00348000  0.94089000  0.07313000  1.0
  N  N226  1  0.07475000  0.69951000  0.46072000  1.0
  N  N227  1  0.14604000  0.74740000  0.44426000  1.0
  N  N228  1  0.94089000  0.00348000  0.07313000  1.0
  N  N229  1  0.69951000  0.07475000  0.46072000  1.0
  N  N230  1  0.74740000  0.14604000  0.44426000  1.0
  N  N231  1  0.55911000  0.49652000  0.07313000  1.0
  N  N232  1  0.80049000  0.42525000  0.46072000  1.0
  N  N233  1  0.75260000  0.35396000  0.44426000  1.0
  N  N234  1  0.49652000  0.94089000  0.57313000  1.0
  N  N235  1  0.42525000  0.69951000  0.96072000  1.0
  N  N236  1  0.35396000  0.74740000  0.94426000  1.0
  N  N237  1  0.00348000  0.55911000  0.57313000  1.0
  N  N238  1  0.07475000  0.80049000  0.96072000  1.0
  N  N239  1  0.14604000  0.75260000  0.94426000  1.0
  N  N240  1  0.05911000  0.50348000  0.42687000  1.0
  N  N241  1  0.30049000  0.57475000  0.03928000  1.0
  N  N242  1  0.25260000  0.64604000  0.05574000  1.0
  N  N243  1  0.44089000  0.99652000  0.42687000  1.0
  N  N244  1  0.19951000  0.92525000  0.03928000  1.0
  N  N245  1  0.24740000  0.85396000  0.05574000  1.0
  N  N246  1  0.50348000  0.44089000  0.92687000  1.0
  N  N247  1  0.57475000  0.19951000  0.53928000  1.0
  N  N248  1  0.64604000  0.24740000  0.55574000  1.0
  N  N249  1  0.99652000  0.05911000  0.92687000  1.0
  N  N250  1  0.92525000  0.30049000  0.53928000  1.0
  N  N251  1  0.85396000  0.25260000  0.55574000  1.0
