# generated using pymatgen
data_NiH46C44(N2O5)2
_symmetry_space_group_name_H-M   'P 1'
_cell_length_a   7.65336000
_cell_length_b   10.08750000
_cell_length_c   12.86000000
_cell_angle_alpha   92.71160000
_cell_angle_beta   100.02800000
_cell_angle_gamma   93.82000000
_symmetry_Int_Tables_number   1
_chemical_formula_structural   NiH46C44(N2O5)2
_chemical_formula_sum   'Ni1 H46 C44 N4 O10'
_cell_volume   973.73924778
_cell_formula_units_Z   1
loop_
 _symmetry_equiv_pos_site_id
 _symmetry_equiv_pos_as_xyz
  1  'x, y, z'
loop_
 _atom_site_type_symbol
 _atom_site_label
 _atom_site_symmetry_multiplicity
 _atom_site_fract_x
 _atom_site_fract_y
 _atom_site_fract_z
 _atom_site_occupancy
  Ni  Ni0  1  0.00000000  0.00000000  0.00000000  1.0
  H  H1  1  0.28202000  0.75027000  0.41416000  1.0
  H  H2  1  0.71798000  0.24973000  0.58584000  1.0
  H  H3  1  0.10578000  0.11366000  0.80587000  1.0
  H  H4  1  0.89422000  0.88634000  0.19414000  1.0
  H  H5  1  0.11315000  0.96177000  0.82388000  1.0
  H  H6  1  0.88684000  0.03822000  0.17612000  1.0
  H  H7  1  0.17768000  0.40932000  0.29834000  1.0
  H  H8  1  0.82232000  0.59069000  0.70166000  1.0
  H  H9  1  0.44369000  0.55302000  0.38286000  1.0
  H  H10  1  0.55631000  0.44698000  0.61714000  1.0
  H  H11  1  0.78125000  0.28518000  0.25603000  1.0
  H  H12  1  0.21874000  0.71481000  0.74397000  1.0
  H  H13  1  0.51377000  0.14576000  0.16683000  1.0
  H  H14  1  0.48622000  0.85424000  0.83317000  1.0
  H  H15  1  0.76763000  0.58003000  0.44121000  1.0
  H  H16  1  0.23237000  0.41996000  0.55878000  1.0
  H  H17  1  0.90541000  0.46148000  0.40164000  1.0
  H  H18  1  0.09458000  0.53851000  0.59836000  1.0
  H  H19  1  0.86405000  0.55276000  0.21920000  1.0
  H  H20  1  0.13596000  0.44724000  0.78080000  1.0
  H  H21  1  0.73777000  0.67688000  0.26230000  1.0
  H  H22  1  0.26223000  0.32312000  0.73771000  1.0
  H  H23  1  0.37386000  0.98568000  0.02902000  1.0
  H  H24  1  0.62614000  0.01432000  0.97098000  1.0
  H  H25  1  0.59075000  0.81134000  0.04836000  1.0
  H  H26  1  0.40925000  0.18866000  0.95165000  1.0
  H  H27  1  0.14744000  0.52511000  0.05557000  1.0
  H  H28  1  0.85257000  0.47489000  0.94443000  1.0
  H  H29  1  0.94997000  0.71326000  0.03584000  1.0
  H  H30  1  0.05003000  0.28674000  0.96417000  1.0
  H  H31  1  0.64832000  0.58362000  0.07553000  1.0
  H  H32  1  0.35169000  0.41639000  0.92446000  1.0
  H  H33  1  0.48633000  0.47308000  0.11500000  1.0
  H  H34  1  0.51368000  0.52692000  0.88500000  1.0
  H  H35  1  0.36252000  0.86390000  0.26878000  1.0
  H  H36  1  0.63748000  0.13611000  0.73122000  1.0
  H  H37  1  0.66861000  0.98192000  0.27955000  1.0
  H  H38  1  0.33139000  0.01809000  0.72045000  1.0
  H  H39  1  0.78868000  0.87042000  0.60406000  1.0
  H  H40  1  0.21132000  0.12958000  0.39594000  1.0
  H  H41  1  0.48263000  0.75701000  0.57724000  1.0
  H  H42  1  0.51737000  0.24299000  0.42276000  1.0
  H  H43  1  0.97625000  0.00154000  0.37814000  1.0
  H  H44  1  0.02375000  0.99846000  0.62186000  1.0
  H  H45  1  0.90851000  0.12427000  0.46109000  1.0
  H  H46  1  0.09150000  0.87574000  0.53891000  1.0
  C  C47  1  0.16474000  0.18336000  0.17437000  1.0
  C  C48  1  0.83525000  0.81664000  0.82563000  1.0
  C  C49  1  0.32759000  0.26945000  0.22496000  1.0
  C  C50  1  0.67241000  0.73056000  0.77505000  1.0
  C  C51  1  0.30968000  0.38405000  0.28709000  1.0
  C  C52  1  0.69032000  0.61596000  0.71291000  1.0
  C  C53  1  0.46017000  0.46418000  0.33513000  1.0
  C  C54  1  0.53983000  0.53582000  0.66487000  1.0
  C  C55  1  0.63176000  0.43082000  0.32473000  1.0
  C  C56  1  0.36824000  0.56918000  0.67526000  1.0
  C  C57  1  0.64901000  0.31428000  0.26416000  1.0
  C  C58  1  0.35098000  0.68572000  0.73584000  1.0
  C  C59  1  0.49863000  0.23549000  0.21391000  1.0
  C  C60  1  0.50136000  0.76452000  0.78609000  1.0
  C  C61  1  0.79357000  0.52051000  0.37242000  1.0
  C  C62  1  0.20644000  0.47949000  0.62757000  1.0
  C  C63  1  0.84556000  0.61307000  0.28984000  1.0
  C  C64  1  0.15445000  0.38693000  0.71016000  1.0
  C  C65  1  0.01696000  0.70123000  0.32425000  1.0
  C  C66  1  0.98305000  0.29877000  0.67575000  1.0
  C  C67  1  0.33083000  0.88179000  0.03407000  1.0
  C  C68  1  0.66916000  0.11821000  0.96593000  1.0
  C  C69  1  0.44953000  0.78303000  0.04418000  1.0
  C  C70  1  0.55047000  0.21697000  0.95582000  1.0
  C  C71  1  0.38673000  0.65045000  0.04903000  1.0
  C  C72  1  0.61327000  0.34955000  0.95097000  1.0
  C  C73  1  0.20380000  0.62553000  0.04765000  1.0
  C  C74  1  0.79621000  0.37447000  0.95235000  1.0
  C  C75  1  0.09248000  0.72923000  0.03745000  1.0
  C  C76  1  0.90752000  0.27076000  0.96255000  1.0
  C  C77  1  0.51049000  0.54054000  0.05355000  1.0
  C  C78  1  0.48952000  0.45947000  0.94645000  1.0
  C  C79  1  0.46455000  0.87009000  0.33981000  1.0
  C  C80  1  0.53545000  0.12991000  0.66019000  1.0
  C  C81  1  0.63045000  0.93702000  0.34856000  1.0
  C  C82  1  0.36955000  0.06298000  0.65143000  1.0
  C  C83  1  0.70033000  0.87352000  0.52819000  1.0
  C  C84  1  0.29967000  0.12647000  0.47181000  1.0
  C  C85  1  0.53156000  0.80920000  0.51480000  1.0
  C  C86  1  0.46844000  0.19080000  0.48520000  1.0
  C  C87  1  0.75248000  0.94061000  0.44434000  1.0
  C  C88  1  0.24752000  0.05939000  0.55566000  1.0
  C  C89  1  0.93007000  0.01720000  0.45374000  1.0
  C  C90  1  0.06993000  0.98280000  0.54626000  1.0
  N  N91  1  0.15417000  0.85597000  0.02857000  1.0
  N  N92  1  0.84583000  0.14402000  0.97144000  1.0
  N  N93  1  0.41818000  0.80836000  0.42258000  1.0
  N  N94  1  0.58183000  0.19164000  0.57743000  1.0
  O  O95  1  0.18092000  0.11964000  0.08692000  1.0
  O  O96  1  0.81907000  0.88036000  0.91308000  1.0
  O  O97  1  0.02920000  0.17875000  0.21738000  1.0
  O  O98  1  0.97079000  0.82125000  0.78262000  1.0
  O  O99  1  0.04766000  0.79841000  0.26984000  1.0
  O  O100  1  0.95235000  0.20159000  0.73017000  1.0
  O  O101  1  0.12479000  0.66915000  0.40583000  1.0
  O  O102  1  0.87521000  0.33085000  0.59417000  1.0
  O  O103  1  0.18305000  0.04886000  0.84378000  1.0
  O  O104  1  0.81695000  0.95113000  0.15622000  1.0
