# generated using pymatgen
data_Zn2H18C23N8O
_symmetry_space_group_name_H-M   'P 1'
_cell_length_a   12.83430000
_cell_length_b   12.84200000
_cell_length_c   13.52785635
_cell_angle_alpha   111.39256371
_cell_angle_beta   111.33415182
_cell_angle_gamma   69.91300000
_symmetry_Int_Tables_number   1
_chemical_formula_structural   Zn2H18C23N8O
_chemical_formula_sum   'Zn4 H36 C46 N16 O2'
_cell_volume   1875.80252063
_cell_formula_units_Z   2
loop_
 _symmetry_equiv_pos_site_id
 _symmetry_equiv_pos_as_xyz
  1  'x, y, z'
loop_
 _atom_site_type_symbol
 _atom_site_label
 _atom_site_symmetry_multiplicity
 _atom_site_fract_x
 _atom_site_fract_y
 _atom_site_fract_z
 _atom_site_occupancy
  Zn  Zn0  1  0.65913000  0.34070000  0.00001000  1.0
  Zn  Zn1  1  0.33953000  0.66037000  0.99997000  1.0
  Zn  Zn2  1  0.51639000  0.51864000  0.84536000  1.0
  Zn  Zn3  1  0.48093000  0.48359000  0.15481000  1.0
  H  H4  1  0.86307000  0.46538000  0.16026000  1.0
  H  H5  1  0.35895000  0.03862000  0.31820000  1.0
  H  H6  1  0.96169000  0.64173000  0.68204000  1.0
  H  H7  1  0.75444000  0.53596000  0.60366000  1.0
  H  H8  1  0.46543000  0.24530000  0.39626000  1.0
  H  H9  1  0.78304000  0.60989000  0.52994000  1.0
  H  H10  1  0.39126000  0.21736000  0.47023000  1.0
  H  H11  1  0.53449000  0.13700000  0.83960000  1.0
  H  H12  1  0.27234000  0.09873000  0.91637000  1.0
  H  H13  1  0.90078000  0.72768000  0.08351000  1.0
  H  H14  1  0.48022000  0.96607000  0.82144000  1.0
  H  H15  1  0.03351000  0.52038000  0.17881000  1.0
  H  H16  1  0.46680000  0.87090000  0.14129000  1.0
  H  H17  1  0.12857000  0.53349000  0.85852000  1.0
  H  H18  1  0.50689000  0.73040000  0.75393000  1.0
  H  H19  1  0.26895000  0.49354000  0.24597000  1.0
  H  H20  1  0.65521000  0.44055000  0.39229000  1.0
  H  H21  1  0.56010000  0.34432000  0.60785000  1.0
  H  H22  1  0.27093000  0.91842000  0.95660000  1.0
  H  H23  1  0.08142000  0.72937000  0.04356000  1.0
  H  H24  1  0.89167000  0.24897000  0.19066000  1.0
  H  H25  1  0.75124000  0.10803000  0.80921000  1.0
  H  H26  1  0.65721000  0.63598000  0.34546000  1.0
  H  H27  1  0.19912000  0.22505000  0.53272000  1.0
  H  H28  1  0.36401000  0.34217000  0.65452000  1.0
  H  H29  1  0.67416000  0.70745000  0.96316000  1.0
  H  H30  1  0.29224000  0.32546000  0.03700000  1.0
  H  H31  1  0.03446000  0.19564000  0.37190000  1.0
  H  H32  1  0.80439000  0.96471000  0.62801000  1.0
  H  H33  1  0.77445000  0.80009000  0.46711000  1.0
  H  H34  1  0.77192000  0.71230000  0.77577000  1.0
  H  H35  1  0.90304000  0.75997000  0.84272000  1.0
  H  H36  1  0.85577000  0.69285000  0.90926000  1.0
  H  H37  1  0.28875000  0.22785000  0.22411000  1.0
  H  H38  1  0.24096000  0.09676000  0.15739000  1.0
  H  H39  1  0.30829000  0.14355000  0.09063000  1.0
  C  C40  1  0.80290000  0.51512000  0.10364000  1.0
  C  C41  1  0.12774000  0.61209000  0.15146000  1.0
  C  C42  1  0.38835000  0.87185000  0.84859000  1.0
  C  C43  1  0.81540000  0.34163000  0.33516000  1.0
  C  C44  1  0.65893000  0.18419000  0.66485000  1.0
  C  C45  1  0.90235000  0.43530000  0.53217000  1.0
  C  C46  1  0.56563000  0.09746000  0.46771000  1.0
  C  C47  1  0.48473000  0.19707000  0.89635000  1.0
  C  C48  1  0.91077000  0.34663000  0.43534000  1.0
  C  C49  1  0.65405000  0.08883000  0.56458000  1.0
  C  C50  1  0.02163000  0.27042000  0.44221000  1.0
  C  C51  1  0.72980000  0.97773000  0.55769000  1.0
  C  C52  1  0.11617000  0.28720000  0.53466000  1.0
  C  C53  1  0.71273000  0.88323000  0.46521000  1.0
  C  C54  1  0.10854000  0.38256000  0.62897000  1.0
  C  C55  1  0.61754000  0.89115000  0.37090000  1.0
  C  C56  1  0.99659000  0.45219000  0.62355000  1.0
  C  C57  1  0.54848000  0.00325000  0.37632000  1.0
  C  C58  1  0.93155000  0.56913000  0.67911000  1.0
  C  C59  1  0.43170000  0.06845000  0.32093000  1.0
  C  C60  1  0.50367000  0.79887000  0.17749000  1.0
  C  C61  1  0.20075000  0.49637000  0.82239000  1.0
  C  C62  1  0.82174000  0.54668000  0.57850000  1.0
  C  C63  1  0.58291000  0.79362000  0.28106000  1.0
  C  C64  1  0.45444000  0.17826000  0.42151000  1.0
  C  C65  1  0.34839000  0.08612000  0.89070000  1.0
  C  C66  1  0.91343000  0.65183000  0.10936000  1.0
  C  C67  1  0.40531000  0.97741000  0.84834000  1.0
  C  C68  1  0.02219000  0.59512000  0.15179000  1.0
  C  C69  1  0.20618000  0.41689000  0.71888000  1.0
  C  C70  1  0.44800000  0.75895000  0.80475000  1.0
  C  C71  1  0.24055000  0.55240000  0.19525000  1.0
  C  C72  1  0.69793000  0.39506000  0.32694000  1.0
  C  C73  1  0.60540000  0.30161000  0.67314000  1.0
  C  C74  1  0.32686000  0.85502000  0.90694000  1.0
  C  C75  1  0.14477000  0.67344000  0.09316000  1.0
  C  C76  1  0.81830000  0.29622000  0.22435000  1.0
  C  C77  1  0.70401000  0.18135000  0.77562000  1.0
  C  C78  1  0.60259000  0.67913000  0.28195000  1.0
  C  C79  1  0.32079000  0.39700000  0.71802000  1.0
  C  C80  1  0.70595000  0.63891000  0.00347000  1.0
  C  C81  1  0.36085000  0.29378000  0.99668000  1.0
  C  C82  1  0.81206000  0.60969000  0.08063000  1.0
  C  C83  1  0.39029000  0.18766000  0.91948000  1.0
  C  C84  1  0.86035000  0.69255000  0.82993000  1.0
  C  C85  1  0.30844000  0.13933000  0.17004000  1.0
  N  N86  1  0.70114000  0.48957000  0.04262000  1.0
  N  N87  1  0.31761000  0.57585000  0.16548000  1.0
  N  N88  1  0.42442000  0.68206000  0.83458000  1.0
  N  N89  1  0.63660000  0.38280000  0.22053000  1.0
  N  N90  1  0.61724000  0.36294000  0.77955000  1.0
  N  N91  1  0.34890000  0.74230000  0.89869000  1.0
  N  N92  1  0.25756000  0.65129000  0.10142000  1.0
  N  N93  1  0.51002000  0.29894000  0.95730000  1.0
  N  N94  1  0.71180000  0.32141000  0.15638000  1.0
  N  N95  1  0.67851000  0.28781000  0.84362000  1.0
  N  N96  1  0.53810000  0.62256000  0.18726000  1.0
  N  N97  1  0.37726000  0.46165000  0.81266000  1.0
  N  N98  1  0.64151000  0.56496000  0.98052000  1.0
  N  N99  1  0.43458000  0.35843000  0.01952000  1.0
  N  N100  1  0.47785000  0.69609000  0.12312000  1.0
  N  N101  1  0.30355000  0.52218000  0.87674000  1.0
  O  O102  1  0.92448000  0.58099000  0.78503000  1.0
  O  O103  1  0.41994000  0.07524000  0.21495000  1.0
