# generated using pymatgen
data_Al2H18C30N3O11F
_symmetry_space_group_name_H-M   'P 1'
_cell_length_a   6.69220000
_cell_length_b   22.38580000
_cell_length_c   25.53370000
_cell_angle_alpha   90.65800000
_cell_angle_beta   89.86770000
_cell_angle_gamma   89.95060000
_symmetry_Int_Tables_number   1
_chemical_formula_structural   Al2H18C30N3O11F
_chemical_formula_sum   'Al4 H36 C60 N6 O22 F2'
_cell_volume   3824.94604458
_cell_formula_units_Z   2
loop_
 _symmetry_equiv_pos_site_id
 _symmetry_equiv_pos_as_xyz
  1  'x, y, z'
loop_
 _atom_site_type_symbol
 _atom_site_label
 _atom_site_symmetry_multiplicity
 _atom_site_fract_x
 _atom_site_fract_y
 _atom_site_fract_z
 _atom_site_occupancy
  Al  Al0  1  0.28444000  0.74585000  0.25279000  1.0
  Al  Al1  1  0.71555000  0.25415000  0.74721000  1.0
  Al  Al2  1  0.78388000  0.74745000  0.25302000  1.0
  Al  Al3  1  0.21611000  0.25255000  0.74698000  1.0
  H  H4  1  0.75567000  0.83957000  0.10926000  1.0
  H  H5  1  0.24433000  0.16043000  0.89074000  1.0
  H  H6  1  0.79090000  0.98070000  0.98139000  1.0
  H  H7  1  0.20905000  0.01931000  0.01862000  1.0
  H  H8  1  0.33493000  0.97670000  0.09455000  1.0
  H  H9  1  0.66505000  0.02331000  0.90545000  1.0
  H  H10  1  0.23247000  0.08852000  0.96309000  1.0
  H  H11  1  0.76752000  0.91149000  0.03691000  1.0
  H  H12  1  0.72204000  0.87356000  0.37132000  1.0
  H  H13  1  0.27795000  0.12644000  0.62868000  1.0
  H  H14  1  0.73404000  0.94911000  0.44528000  1.0
  H  H15  1  0.26596000  0.05089000  0.55473000  1.0
  H  H16  1  0.62610000  0.06265000  0.55330000  1.0
  H  H17  1  0.37389000  0.93736000  0.44669000  1.0
  H  H18  1  0.63756000  0.13839000  0.62757000  1.0
  H  H19  1  0.36243000  0.86162000  0.37243000  1.0
  H  H20  1  0.77781000  0.37779000  0.86810000  1.0
  H  H21  1  0.22220000  0.62220000  0.13190000  1.0
  H  H22  1  0.76583000  0.45080000  0.94393000  1.0
  H  H23  1  0.23418000  0.54918000  0.05607000  1.0
  H  H24  1  0.87346000  0.56333000  0.05236000  1.0
  H  H25  1  0.12654000  0.43666000  0.94765000  1.0
  H  H26  1  0.86201000  0.63576000  0.12909000  1.0
  H  H27  1  0.13799000  0.36424000  0.87092000  1.0
  H  H28  1  0.77566000  0.38450000  0.63382000  1.0
  H  H29  1  0.22434000  0.61550000  0.36618000  1.0
  H  H30  1  0.76136000  0.45693000  0.55943000  1.0
  H  H31  1  0.23866000  0.54306000  0.44058000  1.0
  H  H32  1  0.85820000  0.64540000  0.38073000  1.0
  H  H33  1  0.14180000  0.35460000  0.61927000  1.0
  H  H34  1  0.69362000  0.09841000  0.78020000  1.0
  H  H35  1  0.30638000  0.90159000  0.21980000  1.0
  H  H36  1  0.53535000  0.82208000  0.23581000  1.0
  H  H37  1  0.46465000  0.17793000  0.76419000  1.0
  H  H38  1  0.03042000  0.66793000  0.24656000  1.0
  H  H39  1  0.96959000  0.33207000  0.75344000  1.0
  C  C40  1  0.53535000  0.67421000  0.18104000  1.0
  C  C41  1  0.46467000  0.32579000  0.81896000  1.0
  C  C42  1  0.53628000  0.67646000  0.32395000  1.0
  C  C43  1  0.46371000  0.32354000  0.67605000  1.0
  C  C44  1  0.03669000  0.81946000  0.32357000  1.0
  C  C45  1  0.96330000  0.18054000  0.67643000  1.0
  C  C46  1  0.03183000  0.82009000  0.18334000  1.0
  C  C47  1  0.96816000  0.17992000  0.81666000  1.0
  C  C48  1  0.03698000  0.86666000  0.14223000  1.0
  C  C49  1  0.96301000  0.13333000  0.85777000  1.0
  C  C50  1  0.88232000  0.86975000  0.10547000  1.0
  C  C51  1  0.11767000  0.13025000  0.89454000  1.0
  C  C52  1  0.89047000  0.91025000  0.06479000  1.0
  C  C53  1  0.10951000  0.08976000  0.93522000  1.0
  C  C54  1  0.05401000  0.94951000  0.05941000  1.0
  C  C55  1  0.94596000  0.05050000  0.94060000  1.0
  C  C56  1  0.20811000  0.94618000  0.09663000  1.0
  C  C57  1  0.79186000  0.05383000  0.90338000  1.0
  C  C58  1  0.20057000  0.90610000  0.13806000  1.0
  C  C59  1  0.79943000  0.09390000  0.86194000  1.0
  C  C60  1  0.06960000  0.99387000  0.01834000  1.0
  C  C61  1  0.93035000  0.00615000  0.98167000  1.0
  C  C62  1  0.95821000  0.13649000  0.63220000  1.0
  C  C63  1  0.04179000  0.86351000  0.36780000  1.0
  C  C64  1  0.13631000  0.11212000  0.61175000  1.0
  C  C65  1  0.86369000  0.88788000  0.38825000  1.0
  C  C66  1  0.13038000  0.07058000  0.57109000  1.0
  C  C67  1  0.86962000  0.92942000  0.42891000  1.0
  C  C68  1  0.94464000  0.05285000  0.55023000  1.0
  C  C69  1  0.05536000  0.94716000  0.44977000  1.0
  C  C70  1  0.76697000  0.07730000  0.57048000  1.0
  C  C71  1  0.23304000  0.92271000  0.42951000  1.0
  C  C72  1  0.77355000  0.11887000  0.61126000  1.0
  C  C73  1  0.22645000  0.88113000  0.38874000  1.0
  C  C74  1  0.54157000  0.63251000  0.13503000  1.0
  C  C75  1  0.45843000  0.36749000  0.86497000  1.0
  C  C76  1  0.36377000  0.60872000  0.11422000  1.0
  C  C77  1  0.63623000  0.39127000  0.88579000  1.0
  C  C78  1  0.36966000  0.56865000  0.07246000  1.0
  C  C79  1  0.63034000  0.43134000  0.92754000  1.0
  C  C80  1  0.55531000  0.55217000  0.05054000  1.0
  C  C81  1  0.44469000  0.44782000  0.94946000  1.0
  C  C82  1  0.73270000  0.57667000  0.07063000  1.0
  C  C83  1  0.26730000  0.42332000  0.92937000  1.0
  C  C84  1  0.72602000  0.61644000  0.11279000  1.0
  C  C85  1  0.27398000  0.38356000  0.88722000  1.0
  C  C86  1  0.54024000  0.63418000  0.36865000  1.0
  C  C87  1  0.45976000  0.36582000  0.63135000  1.0
  C  C88  1  0.36492000  0.60564000  0.38568000  1.0
  C  C89  1  0.63508000  0.39435000  0.61432000  1.0
  C  C90  1  0.37217000  0.56568000  0.42665000  1.0
  C  C91  1  0.62785000  0.43432000  0.57335000  1.0
  C  C92  1  0.55418000  0.55373000  0.45222000  1.0
  C  C93  1  0.44585000  0.44627000  0.54778000  1.0
  C  C94  1  0.72664000  0.58370000  0.43494000  1.0
  C  C95  1  0.27338000  0.41630000  0.56506000  1.0
  C  C96  1  0.72259000  0.62303000  0.39354000  1.0
  C  C97  1  0.27741000  0.37697000  0.60646000  1.0
  C  C98  1  0.64295000  0.08906000  0.82083000  1.0
  C  C99  1  0.35706000  0.91095000  0.17917000  1.0
  N  N100  1  0.91932000  0.01085000  0.50903000  1.0
  N  N101  1  0.08067000  0.98916000  0.49097000  1.0
  N  N102  1  0.58041000  0.51158000  0.00833000  1.0
  N  N103  1  0.41960000  0.48841000  0.99168000  1.0
  N  N104  1  0.57777000  0.51502000  0.49467000  1.0
  N  N105  1  0.42226000  0.48498000  0.50533000  1.0
  O  O106  1  0.70462000  0.69518000  0.30766000  1.0
  O  O107  1  0.29536000  0.30482000  0.69234000  1.0
  O  O108  1  0.36366000  0.69054000  0.19773000  1.0
  O  O109  1  0.63635000  0.30946000  0.80228000  1.0
  O  O110  1  0.20109000  0.80248000  0.20043000  1.0
  O  O111  1  0.79890000  0.19752000  0.79957000  1.0
  O  O112  1  0.36660000  0.69022000  0.30503000  1.0
  O  O113  1  0.63338000  0.30978000  0.69497000  1.0
  O  O114  1  0.20505000  0.80046000  0.30688000  1.0
  O  O115  1  0.79496000  0.19954000  0.69312000  1.0
  O  O116  1  0.70327000  0.68961000  0.20041000  1.0
  O  O117  1  0.29674000  0.31040000  0.79959000  1.0
  O  O118  1  0.53334000  0.78299000  0.25180000  1.0
  O  O119  1  0.46666000  0.21701000  0.74820000  1.0
  O  O120  1  0.86660000  0.80465000  0.30522000  1.0
  O  O121  1  0.13340000  0.19534000  0.69479000  1.0
  O  O122  1  0.86159000  0.80132000  0.19809000  1.0
  O  O123  1  0.13840000  0.19869000  0.80191000  1.0
  O  O124  1  0.03333000  0.71070000  0.25243000  1.0
  O  O125  1  0.96667000  0.28930000  0.74757000  1.0
  O  O126  1  0.47118000  0.07276000  0.82945000  1.0
  O  O127  1  0.52881000  0.92724000  0.17055000  1.0
  F  F128  1  0.90313000  0.57353000  0.45927000  1.0
  F  F129  1  0.09689000  0.42647000  0.54072000  1.0
