# generated using pymatgen
data_MgH18(C7O3)2
_symmetry_space_group_name_H-M   'P 1'
_cell_length_a   7.93176000
_cell_length_b   8.13825000
_cell_length_c   12.11650000
_cell_angle_alpha   89.99990000
_cell_angle_beta   89.99930000
_cell_angle_gamma   73.47800000
_symmetry_Int_Tables_number   1
_chemical_formula_structural   MgH18(C7O3)2
_chemical_formula_sum   'Mg2 H36 C28 O12'
_cell_volume   749.83431622
_cell_formula_units_Z   2
loop_
 _symmetry_equiv_pos_site_id
 _symmetry_equiv_pos_as_xyz
  1  'x, y, z'
loop_
 _atom_site_type_symbol
 _atom_site_label
 _atom_site_symmetry_multiplicity
 _atom_site_fract_x
 _atom_site_fract_y
 _atom_site_fract_z
 _atom_site_occupancy
  Mg  Mg0  1  0.00000000  0.50000000  0.50000000  1.0
  Mg  Mg1  1  0.00000000  0.00000000  0.00000000  1.0
  H  H2  1  0.58529000  0.15377000  0.63484000  1.0
  H  H3  1  0.41470000  0.34623000  0.13483000  1.0
  H  H4  1  0.41471000  0.84623000  0.36516000  1.0
  H  H5  1  0.58529000  0.65378000  0.86516000  1.0
  H  H6  1  0.48361000  0.36122000  0.57640000  1.0
  H  H7  1  0.51640000  0.13878000  0.07640000  1.0
  H  H8  1  0.51640000  0.63878000  0.42360000  1.0
  H  H9  1  0.48360000  0.86123000  0.92360000  1.0
  H  H10  1  0.59826000  0.19119000  0.49121000  1.0
  H  H11  1  0.40173000  0.30881000  0.99121000  1.0
  H  H12  1  0.40173000  0.80881000  0.50879000  1.0
  H  H13  1  0.59826000  0.69120000  0.00879000  1.0
  H  H14  1  0.18925000  0.92435000  0.69790000  1.0
  H  H15  1  0.81076000  0.57565000  0.19790000  1.0
  H  H16  1  0.81075000  0.07566000  0.30210000  1.0
  H  H17  1  0.18924000  0.42434000  0.80210000  1.0
  H  H18  1  0.24637000  0.08260000  0.77499000  1.0
  H  H19  1  0.75363000  0.41740000  0.27498000  1.0
  H  H20  1  0.75363000  0.91740000  0.22502000  1.0
  H  H21  1  0.24637000  0.58260000  0.72502000  1.0
  H  H22  1  0.34595000  0.02562000  0.64184000  1.0
  H  H23  1  0.65405000  0.47437000  0.14184000  1.0
  H  H24  1  0.65405000  0.97438000  0.35816000  1.0
  H  H25  1  0.34595000  0.52562000  0.85816000  1.0
  H  H26  1  0.58906000  0.35961000  0.76594000  1.0
  H  H27  1  0.41094000  0.14039000  0.26594000  1.0
  H  H28  1  0.41095000  0.64039000  0.23406000  1.0
  H  H29  1  0.58905000  0.85960000  0.73406000  1.0
  H  H30  1  0.59991000  0.16017000  0.83094000  1.0
  H  H31  1  0.40008000  0.33984000  0.33094000  1.0
  H  H32  1  0.40009000  0.83984000  0.16906000  1.0
  H  H33  1  0.59992000  0.66016000  0.66906000  1.0
  H  H34  1  0.68831000  0.30786000  0.89921000  1.0
  H  H35  1  0.31169000  0.19214000  0.39920000  1.0
  H  H36  1  0.31169000  0.69215000  0.10079000  1.0
  H  H37  1  0.68831000  0.80785000  0.60080000  1.0
  C  C38  1  0.59871000  0.24759000  0.57356000  1.0
  C  C39  1  0.40130000  0.25241000  0.07355000  1.0
  C  C40  1  0.40130000  0.75241000  0.42644000  1.0
  C  C41  1  0.59869000  0.74760000  0.92644000  1.0
  C  C42  1  0.76824000  0.29681000  0.58148000  1.0
  C  C43  1  0.23177000  0.20318000  0.08148000  1.0
  C  C44  1  0.23177000  0.70319000  0.41851000  1.0
  C  C45  1  0.76823000  0.79682000  0.91852000  1.0
  C  C46  1  0.90031000  0.21651000  0.66299000  1.0
  C  C47  1  0.09969000  0.28348000  0.16299000  1.0
  C  C48  1  0.09969000  0.78348000  0.33701000  1.0
  C  C49  1  0.90031000  0.71652000  0.83701000  1.0
  C  C50  1  0.08466000  0.18305000  0.63401000  1.0
  C  C51  1  0.91535000  0.31695000  0.13401000  1.0
  C  C52  1  0.91535000  0.81695000  0.36599000  1.0
  C  C53  1  0.08465000  0.68305000  0.86599000  1.0
  C  C54  1  0.22524000  0.04429000  0.69018000  1.0
  C  C55  1  0.77476000  0.45571000  0.19018000  1.0
  C  C56  1  0.77477000  0.95571000  0.30983000  1.0
  C  C57  1  0.22523000  0.54428000  0.80982000  1.0
  C  C58  1  0.85181000  0.17349000  0.77162000  1.0
  C  C59  1  0.14818000  0.32652000  0.27162000  1.0
  C  C60  1  0.14819000  0.82651000  0.22839000  1.0
  C  C61  1  0.85182000  0.67348000  0.72838000  1.0
  C  C62  1  0.67012000  0.25713000  0.81740000  1.0
  C  C63  1  0.32989000  0.24287000  0.31740000  1.0
  C  C64  1  0.32988000  0.74288000  0.18260000  1.0
  C  C65  1  0.67011000  0.75712000  0.68260000  1.0
  O  O66  1  0.79181000  0.39593000  0.50655000  1.0
  O  O67  1  0.20821000  0.10405000  0.00656000  1.0
  O  O68  1  0.20821000  0.60405000  0.49344000  1.0
  O  O69  1  0.79179000  0.89594000  0.99344000  1.0
  O  O70  1  0.13701000  0.26446000  0.55886000  1.0
  O  O71  1  0.86300000  0.23553000  0.05886000  1.0
  O  O72  1  0.86300000  0.73554000  0.44115000  1.0
  O  O73  1  0.13700000  0.76445000  0.94115000  1.0
  O  O74  1  0.96146000  0.08024000  0.83717000  1.0
  O  O75  1  0.03854000  0.41976000  0.33717000  1.0
  O  O76  1  0.03854000  0.91976000  0.16283000  1.0
  O  O77  1  0.96145000  0.58025000  0.66283000  1.0
