# generated using pymatgen
data_ZnH7C8NO6
_symmetry_space_group_name_H-M   'P 1'
_cell_length_a   4.91909000
_cell_length_b   10.89240000
_cell_length_c   17.22470000
_cell_angle_alpha   90.00000000
_cell_angle_beta   90.00000000
_cell_angle_gamma   89.99990000
_symmetry_Int_Tables_number   1
_chemical_formula_structural   ZnH7C8NO6
_chemical_formula_sum   'Zn4 H28 C32 N4 O24'
_cell_volume   922.91141294
_cell_formula_units_Z   4
loop_
 _symmetry_equiv_pos_site_id
 _symmetry_equiv_pos_as_xyz
  1  'x, y, z'
loop_
 _atom_site_type_symbol
 _atom_site_label
 _atom_site_symmetry_multiplicity
 _atom_site_fract_x
 _atom_site_fract_y
 _atom_site_fract_z
 _atom_site_occupancy
  Zn  Zn0  1  0.01932000  0.27343000  0.47812000  1.0
  Zn  Zn1  1  0.51932000  0.72657000  0.52188000  1.0
  Zn  Zn2  1  0.51932000  0.77343000  0.02188000  1.0
  Zn  Zn3  1  0.01932000  0.22657000  0.97812000  1.0
  H  H4  1  0.11491000  0.48455000  0.57473000  1.0
  H  H5  1  0.61491000  0.51545000  0.42527000  1.0
  H  H6  1  0.61491000  0.98456000  0.92527000  1.0
  H  H7  1  0.11491000  0.01545000  0.07473000  1.0
  H  H8  1  0.85636000  0.49535000  0.51696000  1.0
  H  H9  1  0.35636000  0.50465000  0.48304000  1.0
  H  H10  1  0.35636000  0.99535000  0.98304000  1.0
  H  H11  1  0.85636000  0.00465000  0.01696000  1.0
  H  H12  1  0.87658000  0.62284000  0.25676000  1.0
  H  H13  1  0.37658000  0.37716000  0.74324000  1.0
  H  H14  1  0.37658000  0.12284000  0.24324000  1.0
  H  H15  1  0.87658000  0.87716000  0.75676000  1.0
  H  H16  1  0.09637000  0.70673000  0.13643000  1.0
  H  H17  1  0.59637000  0.29327000  0.86357000  1.0
  H  H18  1  0.59637000  0.20673000  0.36357000  1.0
  H  H19  1  0.09637000  0.79327000  0.63643000  1.0
  H  H20  1  0.44291000  0.32375000  0.25382000  1.0
  H  H21  1  0.94291000  0.67625000  0.74618000  1.0
  H  H22  1  0.94290000  0.82375000  0.24618000  1.0
  H  H23  1  0.44290000  0.17626000  0.75382000  1.0
  H  H24  1  0.76463000  0.30962000  0.15917000  1.0
  H  H25  1  0.26463000  0.69038000  0.84083000  1.0
  H  H26  1  0.26462000  0.80962000  0.34083000  1.0
  H  H27  1  0.76463000  0.19038000  0.65917000  1.0
  H  H28  1  0.80486000  0.42742000  0.08862000  1.0
  H  H29  1  0.30486000  0.57258000  0.91138000  1.0
  H  H30  1  0.30486000  0.92742000  0.41138000  1.0
  H  H31  1  0.80486000  0.07258000  0.58862000  1.0
  C  C32  1  0.01461000  0.42039000  0.33732000  1.0
  C  C33  1  0.51460000  0.57960000  0.66268000  1.0
  C  C34  1  0.51460000  0.92039000  0.16268000  1.0
  C  C35  1  0.01461000  0.07961000  0.83732000  1.0
  C  C36  1  0.14796000  0.46875000  0.26566000  1.0
  C  C37  1  0.64796000  0.53125000  0.73434000  1.0
  C  C38  1  0.64796000  0.96875000  0.23434000  1.0
  C  C39  1  0.14796000  0.03126000  0.76566000  1.0
  C  C40  1  0.05144000  0.57768000  0.23026000  1.0
  C  C41  1  0.55144000  0.42232000  0.76974000  1.0
  C  C42  1  0.55144000  0.07768000  0.26973000  1.0
  C  C43  1  0.05144000  0.92232000  0.73027000  1.0
  C  C44  1  0.17164000  0.62379000  0.16457000  1.0
  C  C45  1  0.67164000  0.37621000  0.83543000  1.0
  C  C46  1  0.67164000  0.12379000  0.33543000  1.0
  C  C47  1  0.17164000  0.87621000  0.66457000  1.0
  C  C48  1  0.38989000  0.55966000  0.12777000  1.0
  C  C49  1  0.88989000  0.44034000  0.87223000  1.0
  C  C50  1  0.88989000  0.05966000  0.37223000  1.0
  C  C51  1  0.38990000  0.94034000  0.62777000  1.0
  C  C52  1  0.35926000  0.40811000  0.23023000  1.0
  C  C53  1  0.85926000  0.59189000  0.76977000  1.0
  C  C54  1  0.85925000  0.90811000  0.26977000  1.0
  C  C55  1  0.35925000  0.09189000  0.73023000  1.0
  C  C56  1  0.65557000  0.37083000  0.11929000  1.0
  C  C57  1  0.15556000  0.62917000  0.88071000  1.0
  C  C58  1  0.15556000  0.87083000  0.38071000  1.0
  C  C59  1  0.65556000  0.12917000  0.61929000  1.0
  C  C60  1  0.49567000  0.29482000  0.05983000  1.0
  C  C61  1  0.99567000  0.70518000  0.94016000  1.0
  C  C62  1  0.99566000  0.79482000  0.44016000  1.0
  C  C63  1  0.49567000  0.20518000  0.55984000  1.0
  N  N64  1  0.47249000  0.44989000  0.16350000  1.0
  N  N65  1  0.97249000  0.55011000  0.83650000  1.0
  N  N66  1  0.97248000  0.94989000  0.33650000  1.0
  N  N67  1  0.47249000  0.05011000  0.66350000  1.0
  O  O68  1  0.14132000  0.33512000  0.37443000  1.0
  O  O69  1  0.64131000  0.66488000  0.62557000  1.0
  O  O70  1  0.64132000  0.83512000  0.12557000  1.0
  O  O71  1  0.14132000  0.16488000  0.87443000  1.0
  O  O72  1  0.78715000  0.46587000  0.35451000  1.0
  O  O73  1  0.28715000  0.53413000  0.64549000  1.0
  O  O74  1  0.28714000  0.96587000  0.14549000  1.0
  O  O75  1  0.78715000  0.03414000  0.85451000  1.0
  O  O76  1  0.62137000  0.23641000  0.00749000  1.0
  O  O77  1  0.12137000  0.76359000  0.99251000  1.0
  O  O78  1  0.12137000  0.73642000  0.49251000  1.0
  O  O79  1  0.62137000  0.26358000  0.50749000  1.0
  O  O80  1  0.23881000  0.29434000  0.06696000  1.0
  O  O81  1  0.73881000  0.70566000  0.93304000  1.0
  O  O82  1  0.73881000  0.79434000  0.43304000  1.0
  O  O83  1  0.23881000  0.20566000  0.56696000  1.0
  O  O84  1  0.50929000  0.59090000  0.06589000  1.0
  O  O85  1  0.00929000  0.40910000  0.93411000  1.0
  O  O86  1  0.00930000  0.09090000  0.43411000  1.0
  O  O87  1  0.50930000  0.90910000  0.56589000  1.0
  O  O88  1  0.03459000  0.45476000  0.52430000  1.0
  O  O89  1  0.53459000  0.54524000  0.47570000  1.0
  O  O90  1  0.53459000  0.95476000  0.97570000  1.0
  O  O91  1  0.03459000  0.04524000  0.02430000  1.0
