# generated using pymatgen
data_KH38C26I(NO3)2
_symmetry_space_group_name_H-M   'P 1'
_cell_length_a   10.28180000
_cell_length_b   11.49160000
_cell_length_c   12.75510000
_cell_angle_alpha   84.72930000
_cell_angle_beta   79.82650000
_cell_angle_gamma   70.76790000
_symmetry_Int_Tables_number   1
_chemical_formula_structural   KH38C26I(NO3)2
_chemical_formula_sum   'K2 H76 C52 I2 N4 O12'
_cell_volume   1399.67095850
_cell_formula_units_Z   2
loop_
 _symmetry_equiv_pos_site_id
 _symmetry_equiv_pos_as_xyz
  1  'x, y, z'
loop_
 _atom_site_type_symbol
 _atom_site_label
 _atom_site_symmetry_multiplicity
 _atom_site_fract_x
 _atom_site_fract_y
 _atom_site_fract_z
 _atom_site_occupancy
  K  K0  1  0.84219000  0.39107000  0.95440000  1.0
  K  K1  1  0.15780000  0.60893000  0.04560000  1.0
  H  H2  1  0.02382000  0.10348000  0.06538000  1.0
  H  H3  1  0.97618000  0.89652000  0.93462000  1.0
  H  H4  1  0.97061000  0.87808000  0.41502000  1.0
  H  H5  1  0.02938000  0.12192000  0.58498000  1.0
  H  H6  1  0.87465000  0.10766000  0.40350000  1.0
  H  H7  1  0.12534000  0.89234000  0.59650000  1.0
  H  H8  1  0.24571000  0.97937000  0.99374000  1.0
  H  H9  1  0.75429000  0.02063000  0.00626000  1.0
  H  H10  1  0.26929000  0.84492000  0.92160000  1.0
  H  H11  1  0.73071000  0.15508000  0.07841000  1.0
  H  H12  1  0.47864000  0.82907000  0.00907000  1.0
  H  H13  1  0.52136000  0.17093000  0.99093000  1.0
  H  H14  1  0.36921000  0.84368000  0.13557000  1.0
  H  H15  1  0.63079000  0.15632000  0.86443000  1.0
  H  H16  1  0.47238000  0.66877000  0.20376000  1.0
  H  H17  1  0.52762000  0.33123000  0.79624000  1.0
  H  H18  1  0.60091000  0.59479000  0.09825000  1.0
  H  H19  1  0.39909000  0.40521000  0.90175000  1.0
  H  H20  1  0.48501000  0.43612000  0.09399000  1.0
  H  H21  1  0.51499000  0.56388000  0.90601000  1.0
  H  H22  1  0.52702000  0.44063000  0.22208000  1.0
  H  H23  1  0.47298000  0.55937000  0.77793000  1.0
  H  H24  1  0.35098000  0.50947000  0.36037000  1.0
  H  H25  1  0.64902000  0.49054000  0.63963000  1.0
  H  H26  1  0.18458000  0.50627000  0.34152000  1.0
  H  H27  1  0.81542000  0.49374000  0.65849000  1.0
  H  H28  1  0.15496000  0.70393000  0.40610000  1.0
  H  H29  1  0.84504000  0.29608000  0.59390000  1.0
  H  H30  1  0.28975000  0.73061000  0.30657000  1.0
  H  H31  1  0.71025000  0.26939000  0.69342000  1.0
  H  H32  1  0.78117000  0.48601000  0.23189000  1.0
  H  H33  1  0.21883000  0.51399000  0.76811000  1.0
  H  H34  1  0.75074000  0.42125000  0.47031000  1.0
  H  H35  1  0.24927000  0.57875000  0.52969000  1.0
  H  H36  1  0.64299000  0.40771000  0.38145000  1.0
  H  H37  1  0.35701000  0.59229000  0.61855000  1.0
  H  H38  1  0.55754000  0.63542000  0.35156000  1.0
  H  H39  1  0.44246000  0.36458000  0.64844000  1.0
  H  H40  1  0.53260000  0.60019000  0.48961000  1.0
  H  H41  1  0.46740000  0.39981000  0.51039000  1.0
  H  H42  1  0.63432000  0.77316000  0.44780000  1.0
  H  H43  1  0.36568000  0.22683000  0.55220000  1.0
  H  H44  1  0.74999000  0.64499000  0.50688000  1.0
  H  H45  1  0.25001000  0.35501000  0.49312000  1.0
  H  H46  1  0.87864000  0.72755000  0.35163000  1.0
  H  H47  1  0.12136000  0.27245000  0.64837000  1.0
  H  H48  1  0.76914000  0.70922000  0.26654000  1.0
  H  H49  1  0.23086000  0.29078000  0.73346000  1.0
  H  H50  1  0.98979000  0.53322000  0.25067000  1.0
  H  H51  1  0.01021000  0.46678000  0.74933000  1.0
  H  H52  1  0.96349000  0.50384000  0.39089000  1.0
  H  H53  1  0.03651000  0.49616000  0.60911000  1.0
  H  H54  1  0.25991000  0.16226000  0.41105000  1.0
  H  H55  1  0.74009000  0.83775000  0.58895000  1.0
  H  H56  1  0.32623000  0.02384000  0.20448000  1.0
  H  H57  1  0.67377000  0.97616000  0.79552000  1.0
  H  H58  1  0.23348000  0.98719000  0.32668000  1.0
  H  H59  1  0.76651000  0.01281000  0.67331000  1.0
  H  H60  1  0.44474000  0.94030000  0.41395000  1.0
  H  H61  1  0.55526000  0.05970000  0.58605000  1.0
  H  H62  1  0.48317000  0.84920000  0.30134000  1.0
  H  H63  1  0.51683000  0.15080000  0.69866000  1.0
  H  H64  1  0.67297000  0.94035000  0.30751000  1.0
  H  H65  1  0.32703000  0.05965000  0.69249000  1.0
  H  H66  1  0.59397000  0.99112000  0.19247000  1.0
  H  H67  1  0.40603000  0.00888000  0.80753000  1.0
  H  H68  1  0.62029000  0.16960000  0.27285000  1.0
  H  H69  1  0.37971000  0.83039000  0.72715000  1.0
  H  H70  1  0.53251000  0.13416000  0.39730000  1.0
  H  H71  1  0.46749000  0.86584000  0.60270000  1.0
  H  H72  1  0.37004000  0.30544000  0.30474000  1.0
  H  H73  1  0.62996000  0.69456000  0.69526000  1.0
  H  H74  1  0.40638000  0.21809000  0.19075000  1.0
  H  H75  1  0.59362000  0.78191000  0.80925000  1.0
  H  H76  1  0.15394000  0.24755000  0.20459000  1.0
  H  H77  1  0.84606000  0.75245000  0.79541000  1.0
  C  C78  1  0.94484000  0.11996000  0.23365000  1.0
  C  C79  1  0.05517000  0.88004000  0.76634000  1.0
  C  C80  1  0.01284000  0.05430000  0.14188000  1.0
  C  C81  1  0.98716000  0.94570000  0.85812000  1.0
  C  C82  1  0.06925000  0.92638000  0.14859000  1.0
  C  C83  1  0.93075000  0.07362000  0.85141000  1.0
  C  C84  1  0.05486000  0.86280000  0.24757000  1.0
  C  C85  1  0.94514000  0.13720000  0.75243000  1.0
  C  C86  1  0.98320000  0.92822000  0.33892000  1.0
  C  C87  1  0.01680000  0.07178000  0.66108000  1.0
  C  C88  1  0.92965000  0.05662000  0.33214000  1.0
  C  C89  1  0.07035000  0.94338000  0.66786000  1.0
  C  C90  1  0.25876000  0.87994000  0.00089000  1.0
  C  C91  1  0.74124000  0.12006000  0.99912000  1.0
  C  C92  1  0.38432000  0.81134000  0.05397000  1.0
  C  C93  1  0.61568000  0.18866000  0.94603000  1.0
  C  C94  1  0.49000000  0.61342000  0.13324000  1.0
  C  C95  1  0.51000000  0.38658000  0.86677000  1.0
  C  C96  1  0.45957000  0.49329000  0.16396000  1.0
  C  C97  1  0.54043000  0.50671000  0.83605000  1.0
  C  C98  1  0.26724000  0.54719000  0.31103000  1.0
  C  C99  1  0.73276000  0.45281000  0.68897000  1.0
  C  C100  1  0.20825000  0.68584000  0.32356000  1.0
  C  C101  1  0.79175000  0.31416000  0.67644000  1.0
  C  C102  1  0.87985000  0.25685000  0.22406000  1.0
  C  C103  1  0.12015000  0.74315000  0.77594000  1.0
  C  C104  1  0.82451000  0.45609000  0.30651000  1.0
  C  C105  1  0.17549000  0.54391000  0.69349000  1.0
  C  C106  1  0.70470000  0.46377000  0.39901000  1.0
  C  C107  1  0.29530000  0.53623000  0.60099000  1.0
  C  C108  1  0.61334000  0.59721000  0.41970000  1.0
  C  C109  1  0.38667000  0.40279000  0.58030000  1.0
  C  C110  1  0.70102000  0.67727000  0.43474000  1.0
  C  C111  1  0.29898000  0.32273000  0.56526000  1.0
  C  C112  1  0.81541000  0.67119000  0.33908000  1.0
  C  C113  1  0.18459000  0.32881000  0.66092000  1.0
  C  C114  1  0.90969000  0.53817000  0.32127000  1.0
  C  C115  1  0.09032000  0.46183000  0.67873000  1.0
  C  C116  1  0.02803000  0.27420000  0.34978000  1.0
  C  C117  1  0.97197000  0.72580000  0.65021000  1.0
  C  C118  1  0.28027000  0.15815000  0.32357000  1.0
  C  C119  1  0.71973000  0.84185000  0.67643000  1.0
  C  C120  1  0.31835000  0.02395000  0.29188000  1.0
  C  C121  1  0.68165000  0.97605000  0.70812000  1.0
  C  C122  1  0.45683000  0.94462000  0.32600000  1.0
  C  C123  1  0.54317000  0.05538000  0.67400000  1.0
  C  C124  1  0.57505000  0.99675000  0.28006000  1.0
  C  C125  1  0.42495000  0.00325000  0.71994000  1.0
  C  C126  1  0.53780000  0.13096000  0.31031000  1.0
  C  C127  1  0.46220000  0.86904000  0.68969000  1.0
  C  C128  1  0.39818000  0.21099000  0.27837000  1.0
  C  C129  1  0.60182000  0.78901000  0.72162000  1.0
  I  I130  1  0.18648000  0.29355000  0.00025000  1.0
  I  I131  1  0.81352000  0.70645000  0.99975000  1.0
  N  N132  1  0.91256000  0.32627000  0.29084000  1.0
  N  N133  1  0.08744000  0.67373000  0.70916000  1.0
  N  N134  1  0.15112000  0.23295000  0.28599000  1.0
  N  N135  1  0.84888000  0.76705000  0.71401000  1.0
  O  O136  1  0.79360000  0.30431000  0.16210000  1.0
  O  O137  1  0.20639000  0.69569000  0.83790000  1.0
  O  O138  1  0.00980000  0.27351000  0.44856000  1.0
  O  O139  1  0.99020000  0.72649000  0.55143000  1.0
  O  O140  1  0.13412000  0.85819000  0.05959000  1.0
  O  O141  1  0.86589000  0.14181000  0.94041000  1.0
  O  O142  1  0.40090000  0.68236000  0.05944000  1.0
  O  O143  1  0.59910000  0.31763000  0.94056000  1.0
  O  O144  1  0.31589000  0.50866000  0.20407000  1.0
  O  O145  1  0.68411000  0.49134000  0.79593000  1.0
  O  O146  1  0.11126000  0.73618000  0.24910000  1.0
  O  O147  1  0.88874000  0.26383000  0.75090000  1.0
