# generated using pymatgen
data_Zn2H22C27N7O8F
_symmetry_space_group_name_H-M   'P 1'
_cell_length_a   9.81195000
_cell_length_b   11.13800000
_cell_length_c   22.19440000
_cell_angle_alpha   89.71970000
_cell_angle_beta   89.71130000
_cell_angle_gamma   90.81030000
_symmetry_Int_Tables_number   1
_chemical_formula_structural   Zn2H22C27N7O8F
_chemical_formula_sum   'Zn4 H44 C54 N14 O16 F2'
_cell_volume   2425.22285527
_cell_formula_units_Z   2
loop_
 _symmetry_equiv_pos_site_id
 _symmetry_equiv_pos_as_xyz
  1  'x, y, z'
loop_
 _atom_site_type_symbol
 _atom_site_label
 _atom_site_symmetry_multiplicity
 _atom_site_fract_x
 _atom_site_fract_y
 _atom_site_fract_z
 _atom_site_occupancy
  Zn  Zn0  1  0.64377000  0.50349000  0.49684000  1.0
  Zn  Zn1  1  0.35413000  0.50162000  0.50248000  1.0
  Zn  Zn2  1  0.35474000  0.50546000  0.99289000  1.0
  Zn  Zn3  1  0.64350000  0.51071000  0.99717000  1.0
  H  H4  1  0.12105000  0.60590000  0.63296000  1.0
  H  H5  1  0.12802000  0.72968000  0.58169000  1.0
  H  H6  1  0.87090000  0.73276000  0.57945000  1.0
  H  H7  1  0.86439000  0.60636000  0.62948000  1.0
  H  H8  1  0.18098000  0.87806000  0.46324000  1.0
  H  H9  1  0.18613000  0.89249000  0.54330000  1.0
  H  H10  1  0.18064000  0.11681000  0.53263000  1.0
  H  H11  1  0.18797000  0.10114000  0.45257000  1.0
  H  H12  1  0.67642000  0.32514000  0.85850000  1.0
  H  H13  1  0.81697000  0.18272000  0.80126000  1.0
  H  H14  1  0.67734000  0.33278000  0.63370000  1.0
  H  H15  1  0.81771000  0.18673000  0.68873000  1.0
  H  H16  1  0.81329000  0.44034000  0.18571000  1.0
  H  H17  1  0.80817000  0.59875000  0.19485000  1.0
  H  H18  1  0.81292000  0.56989000  0.30755000  1.0
  H  H19  1  0.80684000  0.41106000  0.29654000  1.0
  H  H20  1  0.86350000  0.60884000  0.86663000  1.0
  H  H21  1  0.87430000  0.73779000  0.91401000  1.0
  H  H22  1  0.13091000  0.73060000  0.90909000  1.0
  H  H23  1  0.11982000  0.60350000  0.86060000  1.0
  H  H24  1  0.81189000  0.88904000  0.03263000  1.0
  H  H25  1  0.81441000  0.90480000  0.95252000  1.0
  H  H26  1  0.81719000  0.12938000  0.96263000  1.0
  H  H27  1  0.80909000  0.11275000  0.04274000  1.0
  H  H28  1  0.76595000  0.39054000  0.40340000  1.0
  H  H29  1  0.92300000  0.34969000  0.37684000  1.0
  H  H30  1  0.23650000  0.31755000  0.44180000  1.0
  H  H31  1  0.08216000  0.26730000  0.41542000  1.0
  H  H32  1  0.74924000  0.20907000  0.51368000  1.0
  H  H33  1  0.82293000  0.07367000  0.53040000  1.0
  H  H34  1  0.74449000  0.79333000  0.48512000  1.0
  H  H35  1  0.82487000  0.92947000  0.47289000  1.0
  H  H36  1  0.24848000  0.52878000  0.35331000  1.0
  H  H37  1  0.17596000  0.57886000  0.28767000  1.0
  H  H38  1  0.24624000  0.52945000  0.14240000  1.0
  H  H39  1  0.16373000  0.48724000  0.20851000  1.0
  H  H40  1  0.23728000  0.33495000  0.06541000  1.0
  H  H41  1  0.08500000  0.31640000  0.10683000  1.0
  H  H42  1  0.75710000  0.38349000  0.08565000  1.0
  H  H43  1  0.88099000  0.27746000  0.08159000  1.0
  H  H44  1  0.24774000  0.21156000  0.98482000  1.0
  H  H45  1  0.17701000  0.07769000  0.96222000  1.0
  H  H46  1  0.24990000  0.79322000  0.99224000  1.0
  H  H47  1  0.17094000  0.92328000  0.01451000  1.0
  C  C48  1  0.49598000  0.73602000  0.49676000  1.0
  C  C49  1  0.50696000  0.50358000  0.61568000  1.0
  C  C50  1  0.50141000  0.26380000  0.50004000  1.0
  C  C51  1  0.49456000  0.49657000  0.37959000  1.0
  C  C52  1  0.49859000  0.74207000  0.99111000  1.0
  C  C53  1  0.50606000  0.49625000  0.87892000  1.0
  C  C54  1  0.49921000  0.26944000  0.99938000  1.0
  C  C55  1  0.49436000  0.51551000  0.11468000  1.0
  C  C56  1  0.06777000  0.55763000  0.53924000  1.0
  C  C57  1  0.92702000  0.43096000  0.45799000  1.0
  C  C58  1  0.92827000  0.56016000  0.53698000  1.0
  C  C59  1  0.07364000  0.41916000  0.46456000  1.0
  C  C60  1  0.07747000  0.64339000  0.59165000  1.0
  C  C61  1  0.91547000  0.64508000  0.58967000  1.0
  C  C62  1  0.50216000  0.86910000  0.49843000  1.0
  C  C63  1  0.50444000  0.13098000  0.49904000  1.0
  C  C64  1  0.38298000  0.93719000  0.49936000  1.0
  C  C65  1  0.62720000  0.06493000  0.50170000  1.0
  C  C66  1  0.38389000  0.06138000  0.49714000  1.0
  C  C67  1  0.62614000  0.93605000  0.49784000  1.0
  C  C68  1  0.22899000  0.92700000  0.50067000  1.0
  C  C69  1  0.22968000  0.06848000  0.49545000  1.0
  C  C70  1  0.51067000  0.49429000  0.81132000  1.0
  C  C71  1  0.59537000  0.41302000  0.77909000  1.0
  C  C72  1  0.43085000  0.57276000  0.77955000  1.0
  C  C73  1  0.67681000  0.32746000  0.80940000  1.0
  C  C74  1  0.75540000  0.24811000  0.77732000  1.0
  C  C75  1  0.51141000  0.49867000  0.68326000  1.0
  C  C76  1  0.43125000  0.57500000  0.71611000  1.0
  C  C77  1  0.59569000  0.41523000  0.71432000  1.0
  C  C78  1  0.67748000  0.33179000  0.68279000  1.0
  C  C79  1  0.75580000  0.25035000  0.71367000  1.0
  C  C80  1  0.49094000  0.51711000  0.18140000  1.0
  C  C81  1  0.49033000  0.50147000  0.31282000  1.0
  C  C82  1  0.61069000  0.50933000  0.21563000  1.0
  C  C83  1  0.36765000  0.51531000  0.28002000  1.0
  C  C84  1  0.61016000  0.49941000  0.27781000  1.0
  C  C85  1  0.36773000  0.52066000  0.21516000  1.0
  C  C86  1  0.76488000  0.51276000  0.21105000  1.0
  C  C87  1  0.76435000  0.49708000  0.28173000  1.0
  C  C88  1  0.92888000  0.56678000  0.95906000  1.0
  C  C89  1  0.07148000  0.42705000  0.03316000  1.0
  C  C90  1  0.06827000  0.56097000  0.95561000  1.0
  C  C91  1  0.92377000  0.43272000  0.03651000  1.0
  C  C92  1  0.91674000  0.64903000  0.90510000  1.0
  C  C93  1  0.07853000  0.64425000  0.90158000  1.0
  C  C94  1  0.49418000  0.87506000  0.99112000  1.0
  C  C95  1  0.49407000  0.13665000  0.99708000  1.0
  C  C96  1  0.61396000  0.94512000  0.99360000  1.0
  C  C97  1  0.37086000  0.06900000  0.99259000  1.0
  C  C98  1  0.61386000  0.06905000  0.99717000  1.0
  C  C99  1  0.37079000  0.93998000  0.99121000  1.0
  C  C100  1  0.76797000  0.93787000  0.99437000  1.0
  C  C101  1  0.76784000  0.07935000  0.99979000  1.0
  N  N102  1  0.14501000  0.48802000  0.50338000  1.0
  N  N103  1  0.85350000  0.49948000  0.49576000  1.0
  N  N104  1  0.85281000  0.50381000  0.99931000  1.0
  N  N105  1  0.14451000  0.49331000  0.99276000  1.0
  N  N106  1  0.86453000  0.36722000  0.41353000  1.0
  N  N107  1  0.13906000  0.33899000  0.42887000  1.0
  N  N108  1  0.75503000  0.11940000  0.50480000  1.0
  N  N109  1  0.75291000  0.88199000  0.49655000  1.0
  N  N110  1  0.24069000  0.52028000  0.30759000  1.0
  N  N111  1  0.24172000  0.53350000  0.18836000  1.0
  N  N112  1  0.13621000  0.35273000  0.07149000  1.0
  N  N113  1  0.85912000  0.36655000  0.08090000  1.0
  N  N114  1  0.24291000  0.12083000  0.99039000  1.0
  N  N115  1  0.24341000  0.88443000  0.98835000  1.0
  O  O116  1  0.60630000  0.68006000  0.48382000  1.0
  O  O117  1  0.38171000  0.68473000  0.50782000  1.0
  O  O118  1  0.39196000  0.48153000  0.59188000  1.0
  O  O119  1  0.61807000  0.52801000  0.58849000  1.0
  O  O120  1  0.38807000  0.31533000  0.48968000  1.0
  O  O121  1  0.61204000  0.32219000  0.51156000  1.0
  O  O122  1  0.60884000  0.47320000  0.40457000  1.0
  O  O123  1  0.38551000  0.51696000  0.40955000  1.0
  O  O124  1  0.38643000  0.68406000  0.98131000  1.0
  O  O125  1  0.61279000  0.69296000  0.00108000  1.0
  O  O126  1  0.61764000  0.51905000  0.90556000  1.0
  O  O127  1  0.39096000  0.47490000  0.90339000  1.0
  O  O128  1  0.61310000  0.32257000  0.99063000  1.0
  O  O129  1  0.38698000  0.32513000  0.01032000  1.0
  O  O130  1  0.38412000  0.53401000  0.08547000  1.0
  O  O131  1  0.60877000  0.49364000  0.08907000  1.0
  F  F132  1  0.35136000  0.65704000  0.68857000  1.0
  F  F133  1  0.35083000  0.65300000  0.80831000  1.0
