# generated using pymatgen
data_ZnH24C17(NO)4
_symmetry_space_group_name_H-M   'P 1'
_cell_length_a   8.04877000
_cell_length_b   8.64275000
_cell_length_c   15.09490000
_cell_angle_alpha   76.64560000
_cell_angle_beta   88.90010000
_cell_angle_gamma   86.53390000
_symmetry_Int_Tables_number   1
_chemical_formula_structural   ZnH24C17(NO)4
_chemical_formula_sum   'Zn2 H48 C34 N8 O8'
_cell_volume   1019.77705274
_cell_formula_units_Z   2
loop_
 _symmetry_equiv_pos_site_id
 _symmetry_equiv_pos_as_xyz
  1  'x, y, z'
loop_
 _atom_site_type_symbol
 _atom_site_label
 _atom_site_symmetry_multiplicity
 _atom_site_fract_x
 _atom_site_fract_y
 _atom_site_fract_z
 _atom_site_occupancy
  Zn  Zn0  1  0.22197000  0.37621000  0.26323000  1.0
  Zn  Zn1  1  0.77802000  0.62379000  0.73677000  1.0
  H  H2  1  0.96035000  0.03088000  0.89744000  1.0
  H  H3  1  0.03965000  0.96910000  0.10257000  1.0
  H  H4  1  0.82032000  0.07066000  0.98187000  1.0
  H  H5  1  0.17968000  0.92932000  0.01813000  1.0
  H  H6  1  0.26891000  0.27458000  0.07310000  1.0
  H  H7  1  0.73109000  0.72542000  0.92690000  1.0
  H  H8  1  0.14525000  0.10533000  0.44493000  1.0
  H  H9  1  0.85475000  0.89467000  0.55507000  1.0
  H  H10  1  0.41319000  0.86107000  0.16423000  1.0
  H  H11  1  0.58681000  0.13893000  0.83576000  1.0
  H  H12  1  0.25420000  0.96129000  0.21731000  1.0
  H  H13  1  0.74581000  0.03871000  0.78269000  1.0
  H  H14  1  0.53834000  0.74642000  0.32164000  1.0
  H  H15  1  0.46166000  0.25357000  0.67836000  1.0
  H  H16  1  0.39076000  0.87046000  0.36605000  1.0
  H  H17  1  0.60924000  0.12954000  0.63395000  1.0
  H  H18  1  0.15491000  0.22311000  0.93052000  1.0
  H  H19  1  0.84510000  0.77688000  0.06948000  1.0
  H  H20  1  0.95780000  0.31259000  0.89387000  1.0
  H  H21  1  0.04220000  0.68740000  0.10613000  1.0
  H  H22  1  0.53527000  0.32383000  0.49740000  1.0
  H  H23  1  0.46474000  0.67617000  0.50260000  1.0
  H  H24  1  0.55396000  0.48665000  0.40340000  1.0
  H  H25  1  0.44604000  0.51336000  0.59660000  1.0
  H  H26  1  0.91157000  0.55852000  0.34209000  1.0
  H  H27  1  0.08843000  0.44149000  0.65791000  1.0
  H  H28  1  0.76448000  0.59811000  0.49046000  1.0
  H  H29  1  0.23552000  0.40191000  0.50954000  1.0
  H  H30  1  0.74889000  0.43188000  0.58273000  1.0
  H  H31  1  0.25112000  0.56814000  0.41727000  1.0
  H  H32  1  0.90863000  0.17061000  0.57245000  1.0
  H  H33  1  0.09136000  0.82940000  0.42755000  1.0
  H  H34  1  0.74276000  0.33293000  0.04287000  1.0
  H  H35  1  0.25724000  0.66706000  0.95713000  1.0
  H  H36  1  0.83336000  0.42003000  0.19920000  1.0
  H  H37  1  0.16663000  0.57997000  0.80080000  1.0
  H  H38  1  0.58528000  0.02381000  0.42320000  1.0
  H  H39  1  0.41472000  0.97620000  0.57680000  1.0
  H  H40  1  0.74475000  0.88821000  0.39701000  1.0
  H  H41  1  0.25524000  0.11179000  0.60299000  1.0
  H  H42  1  0.76317000  0.09658000  0.35837000  1.0
  H  H43  1  0.23682000  0.90342000  0.64163000  1.0
  H  H44  1  0.65158000  0.96203000  0.14744000  1.0
  H  H45  1  0.34842000  0.03796000  0.85256000  1.0
  H  H46  1  0.79562000  0.06688000  0.19417000  1.0
  H  H47  1  0.20439000  0.93312000  0.80583000  1.0
  H  H48  1  0.78791000  0.85791000  0.23661000  1.0
  H  H49  1  0.21208000  0.14208000  0.76340000  1.0
  C  C50  1  0.58400000  0.99677000  0.28286000  1.0
  C  C51  1  0.41600000  0.00323000  0.71714000  1.0
  C  C52  1  0.47777000  0.15337000  0.24893000  1.0
  C  C53  1  0.52223000  0.84663000  0.75107000  1.0
  C  C54  1  0.95346000  0.06308000  0.96379000  1.0
  C  C55  1  0.04653000  0.93690000  0.03621000  1.0
  C  C56  1  0.13874000  0.30423000  0.08528000  1.0
  C  C57  1  0.86126000  0.69576000  0.91472000  1.0
  C  C58  1  0.24594000  0.70710000  0.24741000  1.0
  C  C59  1  0.75406000  0.29290000  0.75259000  1.0
  C  C60  1  0.05735000  0.20638000  0.44181000  1.0
  C  C61  1  0.94264000  0.79363000  0.55820000  1.0
  C  C62  1  0.34288000  0.85714000  0.22786000  1.0
  C  C63  1  0.65712000  0.14286000  0.77214000  1.0
  C  C64  1  0.46329000  0.86000000  0.30489000  1.0
  C  C65  1  0.53671000  0.14000000  0.69511000  1.0
  C  C66  1  0.02258000  0.22773000  0.94947000  1.0
  C  C67  1  0.97742000  0.77226000  0.05053000  1.0
  C  C68  1  0.56299000  0.45045000  0.47814000  1.0
  C  C69  1  0.43700000  0.54956000  0.52185000  1.0
  C  C70  1  0.93732000  0.44062000  0.38514000  1.0
  C  C71  1  0.06269000  0.55939000  0.61487000  1.0
  C  C72  1  0.73733000  0.47153000  0.50863000  1.0
  C  C73  1  0.26267000  0.52848000  0.49137000  1.0
  C  C74  1  0.94109000  0.23632000  0.50474000  1.0
  C  C75  1  0.05891000  0.76369000  0.49526000  1.0
  C  C76  1  0.86471000  0.33632000  0.07132000  1.0
  C  C77  1  0.13529000  0.66367000  0.92868000  1.0
  C  C78  1  0.91121000  0.37791000  0.14929000  1.0
  C  C79  1  0.08878000  0.62209000  0.85071000  1.0
  C  C80  1  0.67427000  0.00212000  0.37076000  1.0
  C  C81  1  0.32573000  0.99788000  0.62924000  1.0
  C  C82  1  0.71183000  0.96869000  0.21100000  1.0
  C  C83  1  0.28818000  0.03130000  0.78900000  1.0
  N  N84  1  0.01010000  0.29042000  0.03164000  1.0
  N  N85  1  0.98989000  0.70958000  0.96836000  1.0
  N  N86  1  0.08260000  0.35768000  0.15713000  1.0
  N  N87  1  0.91740000  0.64232000  0.84287000  1.0
  N  N88  1  0.05396000  0.33518000  0.36792000  1.0
  N  N89  1  0.94604000  0.66482000  0.63209000  1.0
  N  N90  1  0.86688000  0.38503000  0.46752000  1.0
  N  N91  1  0.13312000  0.61498000  0.53249000  1.0
  O  O92  1  0.48722000  0.23249000  0.16866000  1.0
  O  O93  1  0.51279000  0.76750000  0.83134000  1.0
  O  O94  1  0.37546000  0.19008000  0.30983000  1.0
  O  O95  1  0.62453000  0.80991000  0.69017000  1.0
  O  O96  1  0.33561000  0.57614000  0.24877000  1.0
  O  O97  1  0.66439000  0.42386000  0.75122000  1.0
  O  O98  1  0.09184000  0.71482000  0.26130000  1.0
  O  O99  1  0.90816000  0.28518000  0.73869000  1.0
