# generated using pymatgen
data_Zn4H6C15S9O13
_symmetry_space_group_name_H-M   'P 1'
_cell_length_a   13.38340000
_cell_length_b   14.47490000
_cell_length_c   15.11940000
_cell_angle_alpha   69.49050000
_cell_angle_beta   68.01580000
_cell_angle_gamma   66.15970000
_symmetry_Int_Tables_number   1
_chemical_formula_structural   Zn4H6C15S9O13
_chemical_formula_sum   'Zn8 H12 C30 S18 O26'
_cell_volume   2414.88151584
_cell_formula_units_Z   2
loop_
 _symmetry_equiv_pos_site_id
 _symmetry_equiv_pos_as_xyz
  1  'x, y, z'
loop_
 _atom_site_type_symbol
 _atom_site_label
 _atom_site_symmetry_multiplicity
 _atom_site_fract_x
 _atom_site_fract_y
 _atom_site_fract_z
 _atom_site_occupancy
  Zn  Zn0  1  0.94218000  0.97161000  0.98437000  1.0
  Zn  Zn1  1  0.18427000  0.96606000  0.97518000  1.0
  Zn  Zn2  1  0.98628000  0.97724000  0.17817000  1.0
  Zn  Zn3  1  0.97386000  0.17527000  0.99318000  1.0
  Zn  Zn4  1  0.59830000  0.59067000  0.59724000  1.0
  Zn  Zn5  1  0.36532000  0.59204000  0.59018000  1.0
  Zn  Zn6  1  0.56307000  0.37898000  0.60881000  1.0
  Zn  Zn7  1  0.58318000  0.55255000  0.40369000  1.0
  H  H8  1  0.17596000  0.80049000  0.74552000  1.0
  H  H9  1  0.35616000  0.83820000  0.75649000  1.0
  H  H10  1  0.76008000  0.75759000  0.21755000  1.0
  H  H11  1  0.81482000  0.77133000  0.36664000  1.0
  H  H12  1  0.68741000  0.20906000  0.83689000  1.0
  H  H13  1  0.75303000  0.36643000  0.84005000  1.0
  H  H14  1  0.36347000  0.71833000  0.19885000  1.0
  H  H15  1  0.19338000  0.77745000  0.35667000  1.0
  H  H16  1  0.35684000  0.19494000  0.76167000  1.0
  H  H17  1  0.19493000  0.36337000  0.82883000  1.0
  H  H18  1  0.77645000  0.34538000  0.22575000  1.0
  H  H19  1  0.83825000  0.19867000  0.38230000  1.0
  C  C20  1  0.23752000  0.01780000  0.56385000  1.0
  C  C21  1  0.19490000  0.87233000  0.73199000  1.0
  C  C22  1  0.14199000  0.90572000  0.82889000  1.0
  C  C23  1  0.32389000  0.84858000  0.69551000  1.0
  C  C24  1  0.38495000  0.75035000  0.65717000  1.0
  C  C25  1  0.00932000  0.55380000  0.26409000  1.0
  C  C26  1  0.84364000  0.73593000  0.22968000  1.0
  C  C27  1  0.88869000  0.82813000  0.17398000  1.0
  C  C28  1  0.83203000  0.70371000  0.33952000  1.0
  C  C29  1  0.73958000  0.65294000  0.40087000  1.0
  C  C30  1  0.50146000  0.34146000  0.02352000  1.0
  C  C31  1  0.68179000  0.24138000  0.89509000  1.0
  C  C32  1  0.78681000  0.17700000  0.93198000  1.0
  C  C33  1  0.67061000  0.35680000  0.85386000  1.0
  C  C34  1  0.63848000  0.40361000  0.75713000  1.0
  C  C35  1  0.37987000  0.93158000  0.25576000  1.0
  C  C36  1  0.32218000  0.79416000  0.21827000  1.0
  C  C37  1  0.22856000  0.85791000  0.16611000  1.0
  C  C38  1  0.28082000  0.78013000  0.32942000  1.0
  C  C39  1  0.35346000  0.68567000  0.38791000  1.0
  C  C40  1  0.14529000  0.32490000  0.63025000  1.0
  C  C41  1  0.26635000  0.22993000  0.76475000  1.0
  C  C42  1  0.19860000  0.17270000  0.85745000  1.0
  C  C43  1  0.22965000  0.34672000  0.75557000  1.0
  C  C44  1  0.32444000  0.39539000  0.69895000  1.0
  C  C45  1  0.60286000  0.17715000  0.34056000  1.0
  C  C46  1  0.76825000  0.26717000  0.25680000  1.0
  C  C47  1  0.86520000  0.19359000  0.19652000  1.0
  C  C48  1  0.75462000  0.23588000  0.36718000  1.0
  C  C49  1  0.69017000  0.32675000  0.41798000  1.0
  S  S50  1  0.22178000  0.11757000  0.47074000  1.0
  S  S51  1  0.12831000  0.96484000  0.63627000  1.0
  S  S52  1  0.36254000  0.95783000  0.60060000  1.0
  S  S53  1  0.11275000  0.44484000  0.25397000  1.0
  S  S54  1  0.93309000  0.62328000  0.17684000  1.0
  S  S55  1  0.96685000  0.61129000  0.36190000  1.0
  S  S56  1  0.39382000  0.36788000  0.11850000  1.0
  S  S57  1  0.55548000  0.22192000  0.99295000  1.0
  S  S58  1  0.57149000  0.43124000  0.94523000  1.0
  S  S59  1  0.42660000  0.02545000  0.24184000  1.0
  S  S60  1  0.42992000  0.86007000  0.16762000  1.0
  S  S61  1  0.27576000  0.89482000  0.35956000  1.0
  S  S62  1  0.08144000  0.35017000  0.54716000  1.0
  S  S63  1  0.25099000  0.20762000  0.65875000  1.0
  S  S64  1  0.11416000  0.41465000  0.69632000  1.0
  S  S65  1  0.50346000  0.12922000  0.35879000  1.0
  S  S66  1  0.63813000  0.27367000  0.23676000  1.0
  S  S67  1  0.68039000  0.13871000  0.42478000  1.0
  O  O68  1  0.02141000  0.02317000  0.03455000  1.0
  O  O69  1  0.20951000  0.89500000  0.87520000  1.0
  O  O70  1  0.03413000  0.93714000  0.85706000  1.0
  O  O71  1  0.32342000  0.70701000  0.64988000  1.0
  O  O72  1  0.49251000  0.71975000  0.63712000  1.0
  O  O73  1  0.90550000  0.87320000  0.22332000  1.0
  O  O74  1  0.90277000  0.85193000  0.08181000  1.0
  O  O75  1  0.69139000  0.63190000  0.35537000  1.0
  O  O76  1  0.72061000  0.63602000  0.49309000  1.0
  O  O77  1  0.84886000  0.22455000  0.93138000  1.0
  O  O78  1  0.80305000  0.07965000  0.95862000  1.0
  O  O79  1  0.61517000  0.34636000  0.72513000  1.0
  O  O80  1  0.64066000  0.49615000  0.71641000  1.0
  O  O81  1  0.12914000  0.89612000  0.21770000  1.0
  O  O82  1  0.26122000  0.86716000  0.07362000  1.0
  O  O83  1  0.45702000  0.64564000  0.34462000  1.0
  O  O84  1  0.30203000  0.65708000  0.47755000  1.0
  O  O85  1  0.09732000  0.22471000  0.89496000  1.0
  O  O86  1  0.24974000  0.07723000  0.88828000  1.0
  O  O87  1  0.42321000  0.33732000  0.66472000  1.0
  O  O88  1  0.29405000  0.49255000  0.69180000  1.0
  O  O89  1  0.89700000  0.09724000  0.23796000  1.0
  O  O90  1  0.90305000  0.23674000  0.10722000  1.0
  O  O91  1  0.66119000  0.41806000  0.36467000  1.0
  O  O92  1  0.67227000  0.30079000  0.51079000  1.0
  O  O93  1  0.53011000  0.52801000  0.54736000  1.0
