# generated using pymatgen
data_Zn2H29C31N5O9
_symmetry_space_group_name_H-M   'P 1'
_cell_length_a   7.22331000
_cell_length_b   15.92580000
_cell_length_c   16.13850000
_cell_angle_alpha   112.06200000
_cell_angle_beta   92.82990000
_cell_angle_gamma   96.43540000
_symmetry_Int_Tables_number   1
_chemical_formula_structural   Zn2H29C31N5O9
_chemical_formula_sum   'Zn4 H58 C62 N10 O18'
_cell_volume   1701.29000461
_cell_formula_units_Z   2
loop_
 _symmetry_equiv_pos_site_id
 _symmetry_equiv_pos_as_xyz
  1  'x, y, z'
loop_
 _atom_site_type_symbol
 _atom_site_label
 _atom_site_symmetry_multiplicity
 _atom_site_fract_x
 _atom_site_fract_y
 _atom_site_fract_z
 _atom_site_occupancy
  Zn  Zn0  1  0.86284000  0.45216000  0.26887000  1.0
  Zn  Zn1  1  0.13715000  0.54784000  0.73114000  1.0
  Zn  Zn2  1  0.63768000  0.24090000  0.01513000  1.0
  Zn  Zn3  1  0.36235000  0.75910000  0.98486000  1.0
  H  H4  1  0.27867000  0.34759000  0.18566000  1.0
  H  H5  1  0.72132000  0.65241000  0.81435000  1.0
  H  H6  1  0.85931000  0.08696000  0.27380000  1.0
  H  H7  1  0.14068000  0.91304000  0.72620000  1.0
  H  H8  1  0.82282000  0.07766000  0.15994000  1.0
  H  H9  1  0.17717000  0.92235000  0.84006000  1.0
  H  H10  1  0.73745000  0.16658000  0.24660000  1.0
  H  H11  1  0.26254000  0.83341000  0.75341000  1.0
  H  H12  1  0.37806000  0.18812000  0.42888000  1.0
  H  H13  1  0.62194000  0.81187000  0.57112000  1.0
  H  H14  1  0.53863000  0.28695000  0.43746000  1.0
  H  H15  1  0.46137000  0.71305000  0.56254000  1.0
  H  H16  1  0.57085000  0.17772000  0.36286000  1.0
  H  H17  1  0.42915000  0.82227000  0.63714000  1.0
  H  H18  1  0.96241000  0.38588000  0.41597000  1.0
  H  H19  1  0.03758000  0.61413000  0.58404000  1.0
  H  H20  1  0.24058000  0.40526000  0.52084000  1.0
  H  H21  1  0.75941000  0.59475000  0.47917000  1.0
  H  H22  1  0.52917000  0.57920000  0.40072000  1.0
  H  H23  1  0.47083000  0.42080000  0.59928000  1.0
  H  H24  1  0.23440000  0.55571000  0.30597000  1.0
  H  H25  1  0.76559000  0.44430000  0.69403000  1.0
  H  H26  1  0.05092000  0.86732000  0.52652000  1.0
  H  H27  1  0.94906000  0.13268000  0.47347000  1.0
  H  H28  1  0.06605000  0.74735000  0.49142000  1.0
  H  H29  1  0.93394000  0.25265000  0.50857000  1.0
  H  H30  1  0.84925000  0.78254000  0.47822000  1.0
  H  H31  1  0.15073000  0.21746000  0.52178000  1.0
  H  H32  1  0.26367000  0.02496000  0.39084000  1.0
  H  H33  1  0.73632000  0.97504000  0.60916000  1.0
  H  H34  1  0.17835000  0.00642000  0.27897000  1.0
  H  H35  1  0.82165000  0.99358000  0.72103000  1.0
  H  H36  1  0.40236000  0.98111000  0.29825000  1.0
  H  H37  1  0.59763000  0.01890000  0.70175000  1.0
  H  H38  1  0.04936000  0.66488000  0.16451000  1.0
  H  H39  1  0.95065000  0.33513000  0.83548000  1.0
  H  H40  1  0.53662000  0.10450000  0.09574000  1.0
  H  H41  1  0.46340000  0.89551000  0.90426000  1.0
  H  H42  1  0.26377000  0.99454000  0.09284000  1.0
  H  H43  1  0.73624000  0.00546000  0.90717000  1.0
  H  H44  1  0.96005000  0.09082000  0.91465000  1.0
  H  H45  1  0.03995000  0.90918000  0.08534000  1.0
  H  H46  1  0.24799000  0.19586000  0.92542000  1.0
  H  H47  1  0.75203000  0.80413000  0.07456000  1.0
  H  H48  1  0.66400000  0.46024000  0.12030000  1.0
  H  H49  1  0.33600000  0.53974000  0.87970000  1.0
  H  H50  1  0.18953000  0.38844000  0.01261000  1.0
  H  H51  1  0.81046000  0.61156000  0.98738000  1.0
  H  H52  1  0.18587000  0.49973000  0.00937000  1.0
  H  H53  1  0.81415000  0.50027000  0.99063000  1.0
  H  H54  1  0.11270000  0.47787000  0.10433000  1.0
  H  H55  1  0.88731000  0.52213000  0.89566000  1.0
  H  H56  1  0.60764000  0.59884000  0.17391000  1.0
  H  H57  1  0.39237000  0.40115000  0.82609000  1.0
  H  H58  1  0.37587000  0.60777000  0.20769000  1.0
  H  H59  1  0.62413000  0.39221000  0.79231000  1.0
  H  H60  1  0.43243000  0.62839000  0.11045000  1.0
  H  H61  1  0.56758000  0.37160000  0.88955000  1.0
  C  C62  1  0.57725000  0.34175000  0.28687000  1.0
  C  C63  1  0.42274000  0.65825000  0.71314000  1.0
  C  C64  1  0.38659000  0.28904000  0.27473000  1.0
  C  C65  1  0.61341000  0.71096000  0.72527000  1.0
  C  C66  1  0.24675000  0.29954000  0.21802000  1.0
  C  C67  1  0.75326000  0.70046000  0.78199000  1.0
  C  C68  1  0.06852000  0.24967000  0.20256000  1.0
  C  C69  1  0.93148000  0.75033000  0.79744000  1.0
  C  C70  1  0.03495000  0.18645000  0.24441000  1.0
  C  C71  1  0.96505000  0.81354000  0.75559000  1.0
  C  C72  1  0.85271000  0.12545000  0.23022000  1.0
  C  C73  1  0.14729000  0.87455000  0.76978000  1.0
  C  C74  1  0.33711000  0.23037000  0.32021000  1.0
  C  C75  1  0.66289000  0.76963000  0.67979000  1.0
  C  C76  1  0.46307000  0.22064000  0.39189000  1.0
  C  C77  1  0.53692000  0.77936000  0.60812000  1.0
  C  C78  1  0.09082000  0.42937000  0.41711000  1.0
  C  C79  1  0.90918000  0.57063000  0.58289000  1.0
  C  C80  1  0.24935000  0.43987000  0.47416000  1.0
  C  C81  1  0.75065000  0.56013000  0.52584000  1.0
  C  C82  1  0.41341000  0.49454000  0.47097000  1.0
  C  C83  1  0.58659000  0.50546000  0.52903000  1.0
  C  C84  1  0.40709000  0.53763000  0.40942000  1.0
  C  C85  1  0.59291000  0.46237000  0.59058000  1.0
  C  C86  1  0.24303000  0.52421000  0.35513000  1.0
  C  C87  1  0.75698000  0.47580000  0.64486000  1.0
  C  C88  1  0.91085000  0.62820000  0.29990000  1.0
  C  C89  1  0.08914000  0.37180000  0.70010000  1.0
  C  C90  1  0.00378000  0.71857000  0.30437000  1.0
  C  C91  1  0.99622000  0.28143000  0.69563000  1.0
  C  C92  1  0.04119000  0.79774000  0.38507000  1.0
  C  C93  1  0.95879000  0.20227000  0.61493000  1.0
  C  C94  1  0.99981000  0.79919000  0.47569000  1.0
  C  C95  1  0.00017000  0.20081000  0.52430000  1.0
  C  C96  1  0.17839000  0.88532000  0.30932000  1.0
  C  C97  1  0.82161000  0.11468000  0.69068000  1.0
  C  C98  1  0.26091000  0.97978000  0.32015000  1.0
  C  C99  1  0.73908000  0.02023000  0.67985000  1.0
  C  C100  1  0.15849000  0.80781000  0.22728000  1.0
  C  C101  1  0.84151000  0.19219000  0.77272000  1.0
  C  C102  1  0.06802000  0.72538000  0.22668000  1.0
  C  C103  1  0.93197000  0.27463000  0.77331000  1.0
  C  C104  1  0.23582000  0.80892000  0.14357000  1.0
  C  C105  1  0.76419000  0.19107000  0.85643000  1.0
  C  C106  1  0.92263000  0.26829000  0.14579000  1.0
  C  C107  1  0.07738000  0.73172000  0.85422000  1.0
  C  C108  1  0.40531000  0.09864000  0.05654000  1.0
  C  C109  1  0.59470000  0.90135000  0.94346000  1.0
  C  C110  1  0.25038000  0.03769000  0.05470000  1.0
  C  C111  1  0.74963000  0.96231000  0.94531000  1.0
  C  C112  1  0.08428000  0.03226000  0.00274000  1.0
  C  C113  1  0.91573000  0.96774000  0.99725000  1.0
  C  C114  1  0.08421000  0.09060000  0.95555000  1.0
  C  C115  1  0.91580000  0.90939000  0.04444000  1.0
  C  C116  1  0.24472000  0.14964000  0.96103000  1.0
  C  C117  1  0.75530000  0.85035000  0.03895000  1.0
  C  C118  1  0.52273000  0.43021000  0.08609000  1.0
  C  C119  1  0.47727000  0.56978000  0.91392000  1.0
  C  C120  1  0.21121000  0.46204000  0.05265000  1.0
  C  C121  1  0.78881000  0.53796000  0.94735000  1.0
  C  C122  1  0.45885000  0.58696000  0.14979000  1.0
  C  C123  1  0.54117000  0.41304000  0.85021000  1.0
  N  N124  1  0.08692000  0.47090000  0.35824000  1.0
  N  N125  1  0.91308000  0.52911000  0.64177000  1.0
  N  N126  1  0.16612000  0.18070000  0.30324000  1.0
  N  N127  1  0.83388000  0.81930000  0.69676000  1.0
  N  N128  1  0.12344000  0.87766000  0.38495000  1.0
  N  N129  1  0.87655000  0.12235000  0.61505000  1.0
  N  N130  1  0.40379000  0.15362000  0.01041000  1.0
  N  N131  1  0.59622000  0.84637000  0.98958000  1.0
  N  N132  1  0.40341000  0.49019000  0.09475000  1.0
  N  N133  1  0.59660000  0.50980000  0.90525000  1.0
  O  O134  1  0.71452000  0.32321000  0.32429000  1.0
  O  O135  1  0.28546000  0.67680000  0.67574000  1.0
  O  O136  1  0.59301000  0.40635000  0.25556000  1.0
  O  O137  1  0.40699000  0.59365000  0.74445000  1.0
  O  O138  1  0.91896000  0.35015000  0.15101000  1.0
  O  O139  1  0.08103000  0.64985000  0.84900000  1.0
  O  O140  1  0.93134000  0.55665000  0.22877000  1.0
  O  O141  1  0.06867000  0.44336000  0.77123000  1.0
  O  O142  1  0.82195000  0.62077000  0.36238000  1.0
  O  O143  1  0.17803000  0.37923000  0.63761000  1.0
  O  O144  1  0.80600000  0.20127000  0.09174000  1.0
  O  O145  1  0.19402000  0.79873000  0.90826000  1.0
  O  O146  1  0.30700000  0.88194000  0.13730000  1.0
  O  O147  1  0.69300000  0.11806000  0.86271000  1.0
  O  O148  1  0.22845000  0.72982000  0.07738000  1.0
  O  O149  1  0.77156000  0.27019000  0.92262000  1.0
  O  O150  1  0.47922000  0.34540000  0.04161000  1.0
  O  O151  1  0.52077000  0.65459000  0.95839000  1.0
