# generated using pymatgen
data_NdZnH12C15NO11
_symmetry_space_group_name_H-M   'P 1'
_cell_length_a   7.73707000
_cell_length_b   10.59930000
_cell_length_c   11.72550000
_cell_angle_alpha   71.71350000
_cell_angle_beta   74.76560000
_cell_angle_gamma   80.10280000
_symmetry_Int_Tables_number   1
_chemical_formula_structural   NdZnH12C15NO11
_chemical_formula_sum   'Nd2 Zn2 H24 C30 N2 O22'
_cell_volume   876.72695723
_cell_formula_units_Z   2
loop_
 _symmetry_equiv_pos_site_id
 _symmetry_equiv_pos_as_xyz
  1  'x, y, z'
loop_
 _atom_site_type_symbol
 _atom_site_label
 _atom_site_symmetry_multiplicity
 _atom_site_fract_x
 _atom_site_fract_y
 _atom_site_fract_z
 _atom_site_occupancy
  Nd  Nd0  1  0.88734000  0.94961000  0.18504000  1.0
  Nd  Nd1  1  0.11266000  0.05039000  0.81496000  1.0
  Zn  Zn2  1  0.84869000  0.74419000  0.96284000  1.0
  Zn  Zn3  1  0.15131000  0.25581000  0.03716000  1.0
  H  H4  1  0.77508000  0.97116000  0.97496000  1.0
  H  H5  1  0.22492000  0.02884000  0.02504000  1.0
  H  H6  1  0.95960000  0.73637000  0.45228000  1.0
  H  H7  1  0.04040000  0.26363000  0.54772000  1.0
  H  H8  1  0.78093000  0.83697000  0.45990000  1.0
  H  H9  1  0.21907000  0.16303000  0.54010000  1.0
  H  H10  1  0.17415000  0.91794000  0.33654000  1.0
  H  H11  1  0.82584000  0.08206000  0.66347000  1.0
  H  H12  1  0.27664000  0.01134000  0.20986000  1.0
  H  H13  1  0.72336000  0.98866000  0.79014000  1.0
  H  H14  1  0.44760000  0.60905000  0.32483000  1.0
  H  H15  1  0.55240000  0.39095000  0.67517000  1.0
  H  H16  1  0.21257000  0.47056000  0.47909000  1.0
  H  H17  1  0.78743000  0.52945000  0.52090000  1.0
  H  H18  1  0.04412000  0.53997000  0.66602000  1.0
  H  H19  1  0.95588000  0.46004000  0.33397000  1.0
  H  H20  1  0.34580000  0.88242000  0.54397000  1.0
  H  H21  1  0.65420000  0.11758000  0.45603000  1.0
  H  H22  1  0.24215000  0.41783000  0.22481000  1.0
  H  H23  1  0.75785000  0.58216000  0.77519000  1.0
  H  H24  1  0.55656000  0.32460000  0.24720000  1.0
  H  H25  1  0.44345000  0.67539000  0.75279000  1.0
  H  H26  1  0.80739000  0.47419000  0.13990000  1.0
  H  H27  1  0.19261000  0.52580000  0.86010000  1.0
  C  C28  1  0.55500000  0.83461000  0.33315000  1.0
  C  C29  1  0.44500000  0.16539000  0.66684000  1.0
  C  C30  1  0.40951000  0.75421000  0.42412000  1.0
  C  C31  1  0.59049000  0.24579000  0.57588000  1.0
  C  C32  1  0.37112000  0.63840000  0.40610000  1.0
  C  C33  1  0.62887000  0.36160000  0.59390000  1.0
  C  C34  1  0.23896000  0.56228000  0.49226000  1.0
  C  C35  1  0.76104000  0.43773000  0.50773000  1.0
  C  C36  1  0.14334000  0.60151000  0.59662000  1.0
  C  C37  1  0.85666000  0.39849000  0.40338000  1.0
  C  C38  1  0.17996000  0.71828000  0.61462000  1.0
  C  C39  1  0.82004000  0.28173000  0.38538000  1.0
  C  C40  1  0.08431000  0.76246000  0.72685000  1.0
  C  C41  1  0.91568000  0.23754000  0.27315000  1.0
  C  C42  1  0.31417000  0.79354000  0.52854000  1.0
  C  C43  1  0.68583000  0.20646000  0.47146000  1.0
  C  C44  1  0.45972000  0.81908000  0.95355000  1.0
  C  C45  1  0.54027000  0.18092000  0.04646000  1.0
  C  C46  1  0.47174000  0.68354000  0.04733000  1.0
  C  C47  1  0.52826000  0.31646000  0.95267000  1.0
  C  C48  1  0.32291000  0.61134000  0.11086000  1.0
  C  C49  1  0.67708000  0.38866000  0.88915000  1.0
  C  C50  1  0.13095000  0.66766000  0.10697000  1.0
  C  C51  1  0.86905000  0.33234000  0.89304000  1.0
  C  C52  1  0.35431000  0.47948000  0.18217000  1.0
  C  C53  1  0.64569000  0.52052000  0.81783000  1.0
  C  C54  1  0.52813000  0.42725000  0.19409000  1.0
  C  C55  1  0.47187000  0.57275000  0.80592000  1.0
  C  C56  1  0.66842000  0.50803000  0.13398000  1.0
  C  C57  1  0.33159000  0.49196000  0.86602000  1.0
  N  N58  1  0.63965000  0.63129000  0.06090000  1.0
  N  N59  1  0.36035000  0.36871000  0.93910000  1.0
  O  O60  1  0.59439000  0.93520000  0.35655000  1.0
  O  O61  1  0.40561000  0.06480000  0.64345000  1.0
  O  O62  1  0.63979000  0.79824000  0.23808000  1.0
  O  O63  1  0.36021000  0.20176000  0.76192000  1.0
  O  O64  1  0.14631000  0.85501000  0.74553000  1.0
  O  O65  1  0.85369000  0.14500000  0.25447000  1.0
  O  O66  1  0.94939000  0.70153000  0.79836000  1.0
  O  O67  1  0.05061000  0.29847000  0.20164000  1.0
  O  O68  1  0.60867000  0.86565000  0.89455000  1.0
  O  O69  1  0.39133000  0.13435000  0.10546000  1.0
  O  O70  1  0.30538000  0.87404000  0.93949000  1.0
  O  O71  1  0.69462000  0.12596000  0.06052000  1.0
  O  O72  1  0.05454000  0.73480000  0.18164000  1.0
  O  O73  1  0.94547000  0.26520000  0.81837000  1.0
  O  O74  1  0.06041000  0.63388000  0.03596000  1.0
  O  O75  1  0.93959000  0.36612000  0.96404000  1.0
  O  O76  1  0.88805000  0.91582000  0.98488000  1.0
  O  O77  1  0.11196000  0.08418000  0.01512000  1.0
  O  O78  1  0.90557000  0.82490000  0.41501000  1.0
  O  O79  1  0.09443000  0.17511000  0.58499000  1.0
  O  O80  1  0.17968000  0.95055000  0.24857000  1.0
  O  O81  1  0.82032000  0.04945000  0.75144000  1.0
