# generated using pymatgen
data_NdCuH11C15(NO6)2
_symmetry_space_group_name_H-M   'P 1'
_cell_length_a   8.15887000
_cell_length_b   9.65786000
_cell_length_c   14.11717764
_cell_angle_alpha   86.53282472
_cell_angle_beta   74.94331628
_cell_angle_gamma   65.26180000
_symmetry_Int_Tables_number   1
_chemical_formula_structural   NdCuH11C15(NO6)2
_chemical_formula_sum   'Nd2 Cu2 H22 C30 N4 O24'
_cell_volume   974.14826696
_cell_formula_units_Z   2
loop_
 _symmetry_equiv_pos_site_id
 _symmetry_equiv_pos_as_xyz
  1  'x, y, z'
loop_
 _atom_site_type_symbol
 _atom_site_label
 _atom_site_symmetry_multiplicity
 _atom_site_fract_x
 _atom_site_fract_y
 _atom_site_fract_z
 _atom_site_occupancy
  Nd  Nd0  1  0.73342000  0.18140000  0.37572000  1.0
  Nd  Nd1  1  0.26658000  0.81860000  0.62428000  1.0
  Cu  Cu2  1  0.37617000  0.38091000  0.05610000  1.0
  Cu  Cu3  1  0.62384000  0.61908000  0.94390000  1.0
  H  H4  1  0.92883000  0.28865000  0.47108000  1.0
  H  H5  1  0.07117000  0.71135000  0.52893000  1.0
  H  H6  1  0.08966000  0.11870000  0.46778000  1.0
  H  H7  1  0.91034000  0.88130000  0.53222000  1.0
  H  H8  1  0.84926000  0.31586000  0.84392000  1.0
  H  H9  1  0.15076000  0.68414000  0.15608000  1.0
  H  H10  1  0.09733000  0.06863000  0.88165000  1.0
  H  H11  1  0.90269000  0.93138000  0.11835000  1.0
  H  H12  1  0.43406000  0.90622000  0.07368000  1.0
  H  H13  1  0.56595000  0.09378000  0.92631000  1.0
  H  H14  1  0.83241000  0.51432000  0.25351000  1.0
  H  H15  1  0.16757000  0.48569000  0.74649000  1.0
  H  H16  1  0.43450000  0.97617000  0.24350000  1.0
  H  H17  1  0.56550000  0.02382000  0.75649000  1.0
  H  H18  1  0.63599000  0.76862000  0.33398000  1.0
  H  H19  1  0.36398000  0.23138000  0.66602000  1.0
  H  H20  1  0.17376000  0.05704000  0.04182000  1.0
  H  H21  1  0.82626000  0.94296000  0.95818000  1.0
  H  H22  1  0.12723000  0.93582000  0.29351000  1.0
  H  H23  1  0.87277000  0.06418000  0.70649000  1.0
  H  H24  1  0.05617000  0.86612000  0.39118000  1.0
  H  H25  1  0.94383000  0.13387000  0.60882000  1.0
  C  C26  1  0.42616000  0.46988000  0.52707000  1.0
  C  C27  1  0.57382000  0.53014000  0.47294000  1.0
  C  C28  1  0.84748000  0.42403000  0.06263000  1.0
  C  C29  1  0.15253000  0.57597000  0.93737000  1.0
  C  C30  1  0.73958000  0.57212000  0.11969000  1.0
  C  C31  1  0.26041000  0.42789000  0.88031000  1.0
  C  C32  1  0.49796000  0.37305000  0.21752000  1.0
  C  C33  1  0.50204000  0.62695000  0.78247000  1.0
  C  C34  1  0.60714000  0.21121000  0.16700000  1.0
  C  C35  1  0.39285000  0.78880000  0.83299000  1.0
  C  C36  1  0.89126000  0.30223000  0.91235000  1.0
  C  C37  1  0.10874000  0.69778000  0.08765000  1.0
  C  C38  1  0.02543000  0.16685000  0.93429000  1.0
  C  C39  1  0.97457000  0.83316000  0.06570000  1.0
  C  C40  1  0.51916000  0.82348000  0.11680000  1.0
  C  C41  1  0.48083000  0.17652000  0.88320000  1.0
  C  C42  1  0.74549000  0.60220000  0.21395000  1.0
  C  C43  1  0.25450000  0.39779000  0.78605000  1.0
  C  C44  1  0.51920000  0.86068000  0.21055000  1.0
  C  C45  1  0.48081000  0.13932000  0.78944000  1.0
  C  C46  1  0.63372000  0.74719000  0.25965000  1.0
  C  C47  1  0.36628000  0.25281000  0.74035000  1.0
  C  C48  1  0.98252000  0.29076000  0.08921000  1.0
  C  C49  1  0.01748000  0.70923000  0.91079000  1.0
  C  C50  1  0.05357000  0.27164000  0.18051000  1.0
  C  C51  1  0.94643000  0.72837000  0.81949000  1.0
  C  C52  1  0.06897000  0.16225000  0.02336000  1.0
  C  C53  1  0.93102000  0.83773000  0.97665000  1.0
  C  C54  1  0.43408000  0.02787000  0.46517000  1.0
  C  C55  1  0.56591000  0.97212000  0.53485000  1.0
  N  N56  1  0.80593000  0.42438000  0.97527000  1.0
  N  N57  1  0.19406000  0.57562000  0.02474000  1.0
  N  N58  1  0.62504000  0.68365000  0.07329000  1.0
  N  N59  1  0.37495000  0.31634000  0.92671000  1.0
  O  O60  1  0.46921000  0.32946000  0.51410000  1.0
  O  O61  1  0.53079000  0.67054000  0.48590000  1.0
  O  O62  1  0.58586000  0.19349000  0.08232000  1.0
  O  O63  1  0.41415000  0.80651000  0.91767000  1.0
  O  O64  1  0.40294000  0.47644000  0.16824000  1.0
  O  O65  1  0.59705000  0.52356000  0.83177000  1.0
  O  O66  1  0.51572000  0.39396000  0.30036000  1.0
  O  O67  1  0.48428000  0.60604000  0.69965000  1.0
  O  O68  1  0.95080000  0.18215000  0.48412000  1.0
  O  O69  1  0.04920000  0.81785000  0.51589000  1.0
  O  O70  1  0.01879000  0.92185000  0.33318000  1.0
  O  O71  1  0.98122000  0.07814000  0.66681000  1.0
  O  O72  1  0.98196000  0.21138000  0.25251000  1.0
  O  O73  1  0.01803000  0.78862000  0.74749000  1.0
  O  O74  1  0.71292000  0.11029000  0.21069000  1.0
  O  O75  1  0.28708000  0.88971000  0.78931000  1.0
  O  O76  1  0.18762000  0.30587000  0.17590000  1.0
  O  O77  1  0.81237000  0.69414000  0.82410000  1.0
  O  O78  1  0.27394000  0.56670000  0.58050000  1.0
  O  O79  1  0.72606000  0.43330000  0.41950000  1.0
  O  O80  1  0.47765000  0.09524000  0.39069000  1.0
  O  O81  1  0.52234000  0.90476000  0.60931000  1.0
  O  O82  1  0.28988000  0.99896000  0.48986000  1.0
  O  O83  1  0.71014000  0.00103000  0.51015000  1.0
