# generated using pymatgen
data_CoH24C36(NO2)2
_symmetry_space_group_name_H-M   'P 1'
_cell_length_a   16.29410000
_cell_length_b   19.20620000
_cell_length_c   19.20920352
_cell_angle_alpha   79.63915435
_cell_angle_beta   64.89283449
_cell_angle_gamma   64.91250000
_symmetry_Int_Tables_number   1
_chemical_formula_structural   CoH24C36(NO2)2
_chemical_formula_sum   'Co4 H96 C144 N8 O16'
_cell_volume   4929.95558424
_cell_formula_units_Z   4
loop_
 _symmetry_equiv_pos_site_id
 _symmetry_equiv_pos_as_xyz
  1  'x, y, z'
loop_
 _atom_site_type_symbol
 _atom_site_label
 _atom_site_symmetry_multiplicity
 _atom_site_fract_x
 _atom_site_fract_y
 _atom_site_fract_z
 _atom_site_occupancy
  Co  Co0  1  0.12951000  0.49998000  0.49982000  1.0
  Co  Co1  1  0.37935000  0.99979000  0.00002000  1.0
  Co  Co2  1  0.62931000  0.50017000  0.50002000  1.0
  Co  Co3  1  0.87916000  0.99998000  0.00021000  1.0
  H  H4  1  0.10148000  0.70548000  0.60240000  1.0
  H  H5  1  0.40969000  0.29416000  0.39749000  1.0
  H  H6  1  0.55672000  0.10240000  0.79434000  1.0
  H  H7  1  0.45357000  0.89764000  0.20566000  1.0
  H  H8  1  0.60134000  0.60251000  0.70584000  1.0
  H  H9  1  0.90936000  0.39760000  0.29452000  1.0
  H  H10  1  0.05688000  0.79434000  0.10236000  1.0
  H  H11  1  0.95345000  0.20566000  0.89760000  1.0
  H  H12  1  0.14732000  0.77614000  0.66769000  1.0
  H  H13  1  0.59148000  0.22366000  0.33214000  1.0
  H  H14  1  0.67336000  0.16752000  0.72360000  1.0
  H  H15  1  0.56463000  0.83246000  0.27631000  1.0
  H  H16  1  0.64728000  0.66785000  0.77634000  1.0
  H  H17  1  0.09115000  0.33231000  0.22386000  1.0
  H  H18  1  0.17340000  0.72369000  0.16755000  1.0
  H  H19  1  0.06447000  0.27640000  0.83248000  1.0
  H  H20  1  0.33661000  0.56008000  0.72855000  1.0
  H  H21  1  0.62538000  0.43981000  0.27132000  1.0
  H  H22  1  0.64660000  0.22863000  0.93959000  1.0
  H  H23  1  0.81491000  0.77154000  0.06018000  1.0
  H  H24  1  0.83651000  0.72867000  0.56019000  1.0
  H  H25  1  0.12524000  0.27145000  0.43992000  1.0
  H  H26  1  0.14664000  0.93982000  0.22846000  1.0
  H  H27  1  0.31482000  0.06042000  0.77137000  1.0
  H  H28  1  0.28856000  0.49045000  0.66429000  1.0
  H  H29  1  0.44346000  0.50931000  0.33558000  1.0
  H  H30  1  0.52900000  0.16436000  0.00929000  1.0
  H  H31  1  0.70258000  0.83551000  0.99062000  1.0
  H  H32  1  0.78836000  0.66442000  0.49068000  1.0
  H  H33  1  0.94331000  0.33570000  0.50955000  1.0
  H  H34  1  0.02871000  0.00938000  0.16450000  1.0
  H  H35  1  0.20266000  0.99071000  0.83563000  1.0
  H  H36  1  0.11795000  0.79629000  0.79423000  1.0
  H  H37  1  0.70894000  0.20364000  0.20552000  1.0
  H  H38  1  0.66451000  0.29407000  0.70343000  1.0
  H  H39  1  0.66222000  0.70604000  0.29653000  1.0
  H  H40  1  0.61809000  0.79448000  0.79637000  1.0
  H  H41  1  0.20848000  0.20577000  0.20370000  1.0
  H  H42  1  0.16477000  0.70348000  0.29398000  1.0
  H  H43  1  0.16201000  0.29656000  0.70593000  1.0
  H  H44  1  0.15223000  0.86849000  0.86570000  1.0
  H  H45  1  0.88687000  0.13155000  0.13399000  1.0
  H  H46  1  0.77081000  0.36567000  0.63131000  1.0
  H  H47  1  0.76802000  0.63449000  0.36857000  1.0
  H  H48  1  0.65242000  0.86601000  0.86845000  1.0
  H  H49  1  0.38643000  0.13429000  0.13150000  1.0
  H  H50  1  0.27107000  0.63145000  0.36553000  1.0
  H  H51  1  0.26779000  0.36869000  0.63433000  1.0
  H  H52  1  0.45977000  0.71777000  0.77282000  1.0
  H  H53  1  0.95072000  0.28195000  0.22738000  1.0
  H  H54  1  0.92777000  0.27275000  0.78186000  1.0
  H  H55  1  0.98269000  0.72736000  0.21773000  1.0
  H  H56  1  0.96006000  0.77262000  0.71804000  1.0
  H  H57  1  0.45036000  0.22719000  0.28223000  1.0
  H  H58  1  0.42779000  0.78226000  0.27264000  1.0
  H  H59  1  0.48238000  0.21814000  0.72725000  1.0
  H  H60  1  0.42492000  0.64492000  0.70231000  1.0
  H  H61  1  0.77252000  0.35482000  0.29787000  1.0
  H  H62  1  0.82036000  0.20201000  0.85461000  1.0
  H  H63  1  0.87737000  0.79784000  0.14492000  1.0
  H  H64  1  0.92521000  0.70214000  0.64517000  1.0
  H  H65  1  0.27215000  0.29769000  0.35507000  1.0
  H  H66  1  0.32014000  0.85508000  0.20216000  1.0
  H  H67  1  0.37699000  0.14539000  0.79799000  1.0
  H  H68  1  0.19866000  0.85080000  0.97267000  1.0
  H  H69  1  0.02283000  0.14920000  0.02727000  1.0
  H  H70  1  0.79995000  0.47253000  0.64875000  1.0
  H  H71  1  0.92167000  0.52753000  0.35078000  1.0
  H  H72  1  0.69930000  0.97273000  0.85080000  1.0
  H  H73  1  0.52213000  0.02733000  0.14920000  1.0
  H  H74  1  0.29998000  0.64923000  0.47248000  1.0
  H  H75  1  0.42122000  0.35126000  0.52748000  1.0
  H  H76  1  0.23361000  0.92588000  0.04114000  1.0
  H  H77  1  0.20127000  0.07379000  0.95906000  1.0
  H  H78  1  0.91008000  0.54088000  0.57362000  1.0
  H  H79  1  0.02492000  0.45915000  0.42594000  1.0
  H  H80  1  0.73412000  0.04094000  0.92621000  1.0
  H  H81  1  0.70063000  0.95886000  0.07412000  1.0
  H  H82  1  0.41001000  0.57406000  0.54085000  1.0
  H  H83  1  0.52458000  0.42638000  0.45912000  1.0
  H  H84  1  0.48328000  0.92439000  0.85139000  1.0
  H  H85  1  0.25937000  0.07513000  0.14895000  1.0
  H  H86  1  0.15807000  0.35124000  0.57540000  1.0
  H  H87  1  0.08492000  0.64883000  0.42443000  1.0
  H  H88  1  0.98345000  0.85105000  0.92487000  1.0
  H  H89  1  0.75908000  0.14861000  0.07560000  1.0
  H  H90  1  0.65817000  0.57556000  0.35117000  1.0
  H  H91  1  0.58470000  0.42460000  0.64877000  1.0
  H  H92  1  0.46130000  0.84511000  0.77530000  1.0
  H  H93  1  0.08204000  0.15477000  0.22484000  1.0
  H  H94  1  0.05673000  0.27527000  0.65483000  1.0
  H  H95  1  0.98702000  0.72489000  0.34506000  1.0
  H  H96  1  0.96165000  0.77516000  0.84523000  1.0
  H  H97  1  0.58172000  0.22470000  0.15489000  1.0
  H  H98  1  0.55696000  0.65494000  0.27511000  1.0
  H  H99  1  0.48684000  0.34517000  0.72473000  1.0
  C  C100  1  0.16424000  0.55213000  0.59055000  1.0
  C  C101  1  0.30711000  0.44767000  0.40914000  1.0
  C  C102  1  0.46632000  0.09046000  0.94779000  1.0
  C  C103  1  0.50454000  0.90916000  0.05227000  1.0
  C  C104  1  0.66393000  0.59085000  0.55233000  1.0
  C  C105  1  0.80693000  0.40945000  0.44787000  1.0
  C  C106  1  0.96597000  0.94773000  0.09084000  1.0
  C  C107  1  0.00456000  0.05221000  0.90954000  1.0
  C  C108  1  0.19089000  0.59384000  0.63051000  1.0
  C  C109  1  0.41542000  0.40591000  0.36931000  1.0
  C  C110  1  0.53470000  0.13041000  0.90598000  1.0
  C  C111  1  0.57111000  0.86939000  0.09400000  1.0
  C  C112  1  0.69064000  0.63069000  0.59409000  1.0
  C  C113  1  0.91524000  0.36948000  0.40617000  1.0
  C  C114  1  0.03450000  0.90600000  0.13062000  1.0
  C  C115  1  0.07109000  0.09402000  0.86959000  1.0
  C  C116  1  0.15166000  0.67440000  0.63139000  1.0
  C  C117  1  0.45770000  0.32534000  0.36846000  1.0
  C  C118  1  0.57594000  0.13131000  0.82542000  1.0
  C  C119  1  0.53277000  0.86863000  0.17456000  1.0
  C  C120  1  0.65150000  0.63154000  0.67466000  1.0
  C  C121  1  0.95745000  0.36860000  0.32560000  1.0
  C  C122  1  0.07596000  0.82545000  0.13138000  1.0
  C  C123  1  0.03267000  0.17458000  0.86869000  1.0
  C  C124  1  0.17748000  0.71343000  0.66779000  1.0
  C  C125  1  0.55896000  0.28637000  0.33209000  1.0
  C  C126  1  0.64087000  0.16764000  0.78633000  1.0
  C  C127  1  0.59500000  0.83234000  0.21358000  1.0
  C  C128  1  0.67742000  0.66790000  0.71363000  1.0
  C  C129  1  0.05870000  0.33221000  0.28657000  1.0
  C  C130  1  0.14092000  0.78642000  0.16767000  1.0
  C  C131  1  0.09484000  0.21368000  0.83236000  1.0
  C  C132  1  0.24438000  0.67297000  0.70337000  1.0
  C  C133  1  0.62099000  0.32684000  0.29655000  1.0
  C  C134  1  0.66750000  0.20317000  0.82668000  1.0
  C  C135  1  0.69751000  0.79685000  0.17316000  1.0
  C  C136  1  0.74438000  0.70344000  0.67316000  1.0
  C  C137  1  0.12071000  0.29662000  0.32703000  1.0
  C  C138  1  0.16752000  0.82684000  0.20316000  1.0
  C  C139  1  0.19735000  0.17332000  0.79683000  1.0
  C  C140  1  0.28510000  0.59214000  0.70082000  1.0
  C  C141  1  0.57828000  0.40768000  0.29904000  1.0
  C  C142  1  0.62728000  0.20078000  0.90752000  1.0
  C  C143  1  0.73565000  0.79925000  0.09233000  1.0
  C  C144  1  0.78500000  0.70095000  0.59232000  1.0
  C  C145  1  0.07807000  0.29918000  0.40785000  1.0
  C  C146  1  0.12723000  0.90768000  0.20076000  1.0
  C  C147  1  0.23558000  0.09248000  0.79922000  1.0
  C  C148  1  0.25809000  0.55307000  0.66540000  1.0
  C  C149  1  0.47676000  0.44670000  0.33443000  1.0
  C  C150  1  0.56116000  0.16538000  0.94668000  1.0
  C  C151  1  0.67324000  0.83449000  0.05324000  1.0
  C  C152  1  0.75788000  0.66557000  0.55330000  1.0
  C  C153  1  0.97656000  0.33459000  0.44693000  1.0
  C  C154  1  0.06097000  0.94676000  0.16551000  1.0
  C  C155  1  0.17322000  0.05332000  0.83462000  1.0
  C  C156  1  0.26831000  0.71503000  0.74416000  1.0
  C  C157  1  0.72784000  0.28478000  0.25588000  1.0
  C  C158  1  0.73369000  0.24385000  0.78459000  1.0
  C  C159  1  0.76234000  0.75622000  0.21521000  1.0
  C  C160  1  0.76850000  0.74412000  0.71522000  1.0
  C  C161  1  0.22749000  0.25584000  0.28497000  1.0
  C  C162  1  0.23378000  0.78479000  0.24378000  1.0
  C  C163  1  0.26213000  0.21540000  0.75615000  1.0
  C  C164  1  0.19292000  0.77864000  0.79005000  1.0
  C  C165  1  0.76205000  0.22124000  0.20983000  1.0
  C  C166  1  0.72184000  0.28987000  0.72106000  1.0
  C  C167  1  0.73293000  0.71029000  0.27886000  1.0
  C  C168  1  0.69312000  0.79017000  0.77876000  1.0
  C  C169  1  0.26162000  0.20995000  0.22135000  1.0
  C  C170  1  0.22208000  0.72115000  0.28972000  1.0
  C  C171  1  0.23277000  0.27894000  0.71013000  1.0
  C  C172  1  0.21172000  0.81869000  0.83107000  1.0
  C  C173  1  0.86191000  0.18128000  0.16877000  1.0
  C  C174  1  0.78060000  0.33099000  0.68107000  1.0
  C  C175  1  0.79289000  0.66919000  0.31877000  1.0
  C  C176  1  0.71197000  0.83123000  0.81872000  1.0
  C  C177  1  0.36148000  0.16893000  0.18131000  1.0
  C  C178  1  0.28084000  0.68124000  0.33082000  1.0
  C  C179  1  0.29267000  0.31893000  0.66901000  1.0
  C  C180  1  0.30837000  0.79712000  0.82513000  1.0
  C  C181  1  0.93102000  0.20277000  0.17486000  1.0
  C  C182  1  0.85571000  0.32506000  0.70258000  1.0
  C  C183  1  0.88363000  0.67510000  0.29717000  1.0
  C  C184  1  0.80865000  0.82514000  0.79723000  1.0
  C  C185  1  0.43063000  0.17487000  0.20287000  1.0
  C  C186  1  0.35591000  0.70283000  0.32490000  1.0
  C  C187  1  0.38336000  0.29742000  0.67494000  1.0
  C  C188  1  0.38453000  0.73463000  0.77804000  1.0
  C  C189  1  0.89752000  0.26516000  0.22211000  1.0
  C  C190  1  0.86937000  0.27789000  0.76504000  1.0
  C  C191  1  0.91258000  0.72221000  0.23467000  1.0
  C  C192  1  0.88480000  0.77789000  0.73483000  1.0
  C  C193  1  0.39719000  0.22197000  0.26537000  1.0
  C  C194  1  0.36946000  0.76533000  0.27779000  1.0
  C  C195  1  0.41230000  0.23496000  0.72211000  1.0
  C  C196  1  0.36477000  0.69322000  0.73889000  1.0
  C  C197  1  0.79719000  0.30656000  0.26127000  1.0
  C  C198  1  0.80836000  0.23861000  0.80637000  1.0
  C  C199  1  0.85362000  0.76143000  0.19331000  1.0
  C  C200  1  0.86502000  0.73873000  0.69344000  1.0
  C  C201  1  0.29687000  0.26111000  0.30678000  1.0
  C  C202  1  0.30836000  0.80669000  0.23858000  1.0
  C  C203  1  0.35334000  0.19363000  0.76140000  1.0
  C  C204  1  0.32785000  0.84065000  0.86778000  1.0
  C  C205  1  0.03672000  0.15919000  0.13232000  1.0
  C  C206  1  0.91884000  0.36764000  0.65905000  1.0
  C  C207  1  0.94579000  0.63250000  0.34069000  1.0
  C  C208  1  0.82823000  0.86768000  0.84081000  1.0
  C  C209  1  0.53628000  0.13222000  0.15935000  1.0
  C  C210  1  0.41897000  0.65931000  0.36751000  1.0
  C  C211  1  0.44553000  0.34095000  0.63236000  1.0
  C  C212  1  0.26333000  0.86497000  0.94358000  1.0
  C  C213  1  0.07241000  0.13487000  0.05651000  1.0
  C  C214  1  0.87876000  0.44340000  0.63461000  1.0
  C  C215  1  0.95712000  0.55668000  0.36500000  1.0
  C  C216  1  0.76379000  0.94349000  0.86513000  1.0
  C  C217  1  0.57188000  0.05642000  0.13503000  1.0
  C  C218  1  0.37880000  0.63499000  0.44332000  1.0
  C  C219  1  0.45676000  0.36539000  0.55661000  1.0
  C  C220  1  0.28218000  0.90738000  0.98193000  1.0
  C  C221  1  0.17199000  0.09232000  0.01829000  1.0
  C  C222  1  0.94007000  0.48171000  0.59218000  1.0
  C  C223  1  0.01429000  0.51834000  0.40743000  1.0
  C  C224  1  0.78259000  0.98171000  0.90769000  1.0
  C  C225  1  0.67151000  0.01806000  0.09261000  1.0
  C  C226  1  0.44006000  0.59256000  0.48166000  1.0
  C  C227  1  0.51396000  0.40782000  0.51830000  1.0
  C  C228  1  0.42246000  0.90528000  0.87595000  1.0
  C  C229  1  0.20403000  0.09433000  0.12433000  1.0
  C  C230  1  0.07815000  0.37580000  0.59444000  1.0
  C  C231  1  0.04860000  0.62430000  0.40534000  1.0
  C  C232  1  0.92269000  0.87567000  0.90567000  1.0
  C  C233  1  0.70370000  0.12405000  0.09472000  1.0
  C  C234  1  0.57824000  0.59465000  0.37570000  1.0
  C  C235  1  0.54840000  0.40556000  0.62420000  1.0
  C  C236  1  0.40964000  0.86131000  0.83444000  1.0
  C  C237  1  0.10576000  0.13845000  0.16574000  1.0
  C  C238  1  0.02128000  0.33434000  0.63848000  1.0
  C  C239  1  0.99429000  0.66581000  0.36136000  1.0
  C  C240  1  0.90995000  0.83426000  0.86154000  1.0
  C  C241  1  0.60540000  0.16555000  0.13869000  1.0
  C  C242  1  0.52146000  0.63864000  0.33419000  1.0
  C  C243  1  0.49410000  0.36152000  0.66567000  1.0
  N  N244  1  0.35985000  0.92836000  0.94880000  1.0
  N  N245  1  0.23741000  0.07121000  0.05150000  1.0
  N  N246  1  0.03870000  0.44860000  0.57125000  1.0
  N  N247  1  0.05880000  0.55145000  0.42844000  1.0
  N  N248  1  0.86011000  0.94850000  0.92880000  1.0
  N  N249  1  0.73701000  0.05119000  0.07164000  1.0
  N  N250  1  0.53870000  0.57156000  0.44854000  1.0
  N  N251  1  0.55854000  0.42875000  0.55141000  1.0
  O  O252  1  0.10472000  0.59160000  0.55671000  1.0
  O  O253  1  0.25308000  0.40824000  0.44289000  1.0
  O  O254  1  0.44608000  0.05670000  0.90835000  1.0
  O  O255  1  0.41111000  0.94290000  0.09174000  1.0
  O  O256  1  0.60421000  0.55710000  0.59176000  1.0
  O  O257  1  0.75303000  0.44329000  0.40840000  1.0
  O  O258  1  0.94575000  0.90825000  0.05710000  1.0
  O  O259  1  0.91113000  0.09165000  0.94329000  1.0
  O  O260  1  0.20186000  0.47939000  0.58719000  1.0
  O  O261  1  0.26872000  0.52041000  0.41253000  1.0
  O  O262  1  0.43133000  0.08706000  0.02052000  1.0
  O  O263  1  0.53883000  0.91249000  0.97952000  1.0
  O  O264  1  0.70167000  0.58747000  0.47958000  1.0
  O  O265  1  0.76844000  0.41280000  0.52061000  1.0
  O  O266  1  0.93084000  0.02048000  0.08751000  1.0
  O  O267  1  0.03891000  0.97948000  0.91294000  1.0
