# generated using pymatgen
data_Cd3H36C30N6(Cl3O)2
_symmetry_space_group_name_H-M   'P 1'
_cell_length_a   9.32487000
_cell_length_b   10.28970000
_cell_length_c   10.82010000
_cell_angle_alpha   112.64700000
_cell_angle_beta   104.22300000
_cell_angle_gamma   96.60700000
_symmetry_Int_Tables_number   1
_chemical_formula_structural   Cd3H36C30N6(Cl3O)2
_chemical_formula_sum   'Cd3 H36 C30 N6 Cl6 O2'
_cell_volume   902.90222175
_cell_formula_units_Z   1
loop_
 _symmetry_equiv_pos_site_id
 _symmetry_equiv_pos_as_xyz
  1  'x, y, z'
loop_
 _atom_site_type_symbol
 _atom_site_label
 _atom_site_symmetry_multiplicity
 _atom_site_fract_x
 _atom_site_fract_y
 _atom_site_fract_z
 _atom_site_occupancy
  Cd  Cd0  1  0.91776000  0.29341000  0.89690000  1.0
  Cd  Cd1  1  0.08223000  0.70659000  0.10310000  1.0
  Cd  Cd2  1  0.00000000  0.00000000  0.00000000  1.0
  H  H3  1  0.68855000  0.83605000  0.99730000  1.0
  H  H4  1  0.31145000  0.16396000  0.00270000  1.0
  H  H5  1  0.34863000  0.57338000  0.78791000  1.0
  H  H6  1  0.65139000  0.42662000  0.21211000  1.0
  H  H7  1  0.45675000  0.70924000  0.95798000  1.0
  H  H8  1  0.54326000  0.29077000  0.04204000  1.0
  H  H9  1  0.48522000  0.52852000  0.90253000  1.0
  H  H10  1  0.51479000  0.47149000  0.09749000  1.0
  H  H11  1  0.46356000  0.48312000  0.61547000  1.0
  H  H12  1  0.53646000  0.51687000  0.38455000  1.0
  H  H13  1  0.65963000  0.48719000  0.68453000  1.0
  H  H14  1  0.34038000  0.51282000  0.31549000  1.0
  H  H15  1  0.61046000  0.61545000  0.61863000  1.0
  H  H16  1  0.38954000  0.38455000  0.38138000  1.0
  H  H17  1  0.32315000  0.09373000  0.32401000  1.0
  H  H18  1  0.67687000  0.90627000  0.67598000  1.0
  H  H19  1  0.16264000  0.11125000  0.47615000  1.0
  H  H20  1  0.83736000  0.88875000  0.52383000  1.0
  H  H21  1  0.27319000  0.20040000  0.73599000  1.0
  H  H22  1  0.72680000  0.79960000  0.26400000  1.0
  H  H23  1  0.55671000  0.26548000  0.84931000  1.0
  H  H24  1  0.44328000  0.73452000  0.15068000  1.0
  H  H25  1  0.53047000  0.07128000  0.23653000  1.0
  H  H26  1  0.46954000  0.92871000  0.76346000  1.0
  H  H27  1  0.72662000  0.06753000  0.27557000  1.0
  H  H28  1  0.27339000  0.93247000  0.72443000  1.0
  H  H29  1  0.67283000  0.23164000  0.28844000  1.0
  H  H30  1  0.32718000  0.76835000  0.71156000  1.0
  H  H31  1  0.94685000  0.14642000  0.45885000  1.0
  H  H32  1  0.05315000  0.85358000  0.54115000  1.0
  H  H33  1  0.02279000  0.25043000  0.64447000  1.0
  H  H34  1  0.97721000  0.74957000  0.35553000  1.0
  H  H35  1  0.93193000  0.51860000  0.71323000  1.0
  H  H36  1  0.06807000  0.48140000  0.28677000  1.0
  H  H37  1  0.02143000  0.26419000  0.32928000  1.0
  H  H38  1  0.97856000  0.73580000  0.67072000  1.0
  C  C39  1  0.69408000  0.76711000  0.89217000  1.0
  C  C40  1  0.30592000  0.23289000  0.10784000  1.0
  C  C41  1  0.46091000  0.61372000  0.86865000  1.0
  C  C42  1  0.53911000  0.38629000  0.13137000  1.0
  C  C43  1  0.57757000  0.55377000  0.67430000  1.0
  C  C44  1  0.42244000  0.44623000  0.32572000  1.0
  C  C45  1  0.78536000  0.21675000  0.56227000  1.0
  C  C46  1  0.21464000  0.78325000  0.43772000  1.0
  C  C47  1  0.59743000  0.21580000  0.64973000  1.0
  C  C48  1  0.40257000  0.78420000  0.35026000  1.0
  C  C49  1  0.53250000  0.16962000  0.50264000  1.0
  C  C50  1  0.46750000  0.83038000  0.49735000  1.0
  C  C51  1  0.37532000  0.13177000  0.43734000  1.0
  C  C52  1  0.62468000  0.86823000  0.56265000  1.0
  C  C53  1  0.28540000  0.14360000  0.52501000  1.0
  C  C54  1  0.71459000  0.85641000  0.47497000  1.0
  C  C55  1  0.34861000  0.19234000  0.67194000  1.0
  C  C56  1  0.65138000  0.80767000  0.32804000  1.0
  C  C57  1  0.50556000  0.22835000  0.73613000  1.0
  C  C58  1  0.49443000  0.77165000  0.26386000  1.0
  C  C59  1  0.64579000  0.13393000  0.30457000  1.0
  C  C60  1  0.35421000  0.86607000  0.69542000  1.0
  C  C61  1  0.93938000  0.24101000  0.54811000  1.0
  C  C62  1  0.06061000  0.75899000  0.45189000  1.0
  C  C63  1  0.97310000  0.37582000  0.52406000  1.0
  C  C64  1  0.02688000  0.62418000  0.47593000  1.0
  C  C65  1  0.96117000  0.50947000  0.61904000  1.0
  C  C66  1  0.03882000  0.49052000  0.38095000  1.0
  C  C67  1  0.01226000  0.36739000  0.40473000  1.0
  C  C68  1  0.98773000  0.63261000  0.59527000  1.0
  N  N69  1  0.57670000  0.65352000  0.81247000  1.0
  N  N70  1  0.42331000  0.34649000  0.18754000  1.0
  N  N71  1  0.75486000  0.24427000  0.68304000  1.0
  N  N72  1  0.24513000  0.75573000  0.31695000  1.0
  N  N73  1  0.65466000  0.17161000  0.45084000  1.0
  N  N74  1  0.34534000  0.82838000  0.54915000  1.0
  Cl  Cl75  1  0.03199000  0.05943000  0.79037000  1.0
  Cl  Cl76  1  0.96800000  0.94057000  0.20963000  1.0
  Cl  Cl77  1  0.20583000  0.84078000  0.98733000  1.0
  Cl  Cl78  1  0.79416000  0.15921000  0.01267000  1.0
  Cl  Cl79  1  0.17303000  0.46362000  0.97092000  1.0
  Cl  Cl80  1  0.82697000  0.53638000  0.02909000  1.0
  O  O81  1  0.80411000  0.79490000  0.85112000  1.0
  O  O82  1  0.19589000  0.20510000  0.14888000  1.0
