# generated using pymatgen
data_MnH8(C6N5)2
_symmetry_space_group_name_H-M   'P 1'
_cell_length_a   6.18285000
_cell_length_b   7.22039000
_cell_length_c   8.93750000
_cell_angle_alpha   72.58150000
_cell_angle_beta   71.75100000
_cell_angle_gamma   89.45200000
_symmetry_Int_Tables_number   1
_chemical_formula_structural   MnH8(C6N5)2
_chemical_formula_sum   'Mn1 H8 C12 N10'
_cell_volume   359.98616583
_cell_formula_units_Z   1
loop_
 _symmetry_equiv_pos_site_id
 _symmetry_equiv_pos_as_xyz
  1  'x, y, z'
loop_
 _atom_site_type_symbol
 _atom_site_label
 _atom_site_symmetry_multiplicity
 _atom_site_fract_x
 _atom_site_fract_y
 _atom_site_fract_z
 _atom_site_occupancy
  Mn  Mn0  1  0.49511000  0.00937000  0.98477000  1.0
  H  H1  1  0.75415000  0.32386000  0.38056000  1.0
  H  H2  1  0.25212000  0.66262000  0.62813000  1.0
  H  H3  1  0.36645000  0.32712000  0.34186000  1.0
  H  H4  1  0.64375000  0.65867000  0.65969000  1.0
  H  H5  1  0.02064000  0.17189000  0.60371000  1.0
  H  H6  1  0.98381000  0.82305000  0.39862000  1.0
  H  H7  1  0.10057000  0.03413000  0.86887000  1.0
  H  H8  1  0.89210000  0.97199000  0.13589000  1.0
  C  C9  1  0.59853000  0.26058000  0.48466000  1.0
  C  C10  1  0.40527000  0.72891000  0.52274000  1.0
  C  C11  1  0.38413000  0.26208000  0.46353000  1.0
  C  C12  1  0.62262000  0.72781000  0.53966000  1.0
  C  C13  1  0.19695000  0.17783000  0.60448000  1.0
  C  C14  1  0.80675000  0.81700000  0.39919000  1.0
  C  C15  1  0.23825000  0.10135000  0.75397000  1.0
  C  C16  1  0.75834000  0.89887000  0.25196000  1.0
  C  C17  1  0.80539000  0.38601000  0.89013000  1.0
  C  C18  1  0.19158000  0.62308000  0.10370000  1.0
  C  C19  1  0.80659000  0.70027000  0.88196000  1.0
  C  C20  1  0.19028000  0.30990000  0.11019000  1.0
  N  N21  1  0.45141000  0.10687000  0.76620000  1.0
  N  N22  1  0.54580000  0.89203000  0.24414000  1.0
  N  N23  1  0.63322000  0.18543000  0.63048000  1.0
  N  N24  1  0.36761000  0.80867000  0.37833000  1.0
  N  N25  1  0.71859000  0.22637000  0.93006000  1.0
  N  N26  1  0.27491000  0.78492000  0.05645000  1.0
  N  N27  1  0.91399000  0.55810000  0.83937000  1.0
  N  N28  1  0.08820000  0.44811000  0.16302000  1.0
  N  N29  1  0.71984000  0.83649000  0.91216000  1.0
  N  N30  1  0.27303000  0.17660000  0.07150000  1.0
