# generated using pymatgen
data_CdH3C2O3
_symmetry_space_group_name_H-M   'P 1'
_cell_length_a   5.71426000
_cell_length_b   6.18021000
_cell_length_c   10.20810000
_cell_angle_alpha   97.21840000
_cell_angle_beta   89.99970000
_cell_angle_gamma   90.00000000
_symmetry_Int_Tables_number   1
_chemical_formula_structural   CdH3C2O3
_chemical_formula_sum   'Cd4 H12 C8 O12'
_cell_volume   357.64518993
_cell_formula_units_Z   4
loop_
 _symmetry_equiv_pos_site_id
 _symmetry_equiv_pos_as_xyz
  1  'x, y, z'
loop_
 _atom_site_type_symbol
 _atom_site_label
 _atom_site_symmetry_multiplicity
 _atom_site_fract_x
 _atom_site_fract_y
 _atom_site_fract_z
 _atom_site_occupancy
  Cd  Cd0  1  0.97864000  0.14018000  0.86904000  1.0
  Cd  Cd1  1  0.47863000  0.35983000  0.13097000  1.0
  Cd  Cd2  1  0.02136000  0.85983000  0.13096000  1.0
  Cd  Cd3  1  0.52137000  0.64017000  0.86904000  1.0
  H  H4  1  0.01357000  0.30072000  0.12630000  1.0
  H  H5  1  0.51358000  0.19929000  0.87370000  1.0
  H  H6  1  0.98642000  0.69929000  0.87370000  1.0
  H  H7  1  0.48642000  0.80072000  0.12630000  1.0
  H  H8  1  0.26029000  0.53729000  0.53411000  1.0
  H  H9  1  0.76031000  0.96270000  0.46588000  1.0
  H  H10  1  0.73970000  0.46270000  0.46589000  1.0
  H  H11  1  0.23972000  0.03729000  0.53411000  1.0
  H  H12  1  0.03105000  0.71169000  0.59546000  1.0
  H  H13  1  0.53105000  0.78830000  0.40454000  1.0
  H  H14  1  0.96895000  0.28831000  0.40454000  1.0
  H  H15  1  0.46896000  0.21168000  0.59546000  1.0
  C  C16  1  0.07348000  0.54114000  0.55999000  1.0
  C  C17  1  0.57348000  0.95885000  0.44002000  1.0
  C  C18  1  0.92652000  0.45886000  0.44001000  1.0
  C  C19  1  0.42651000  0.04114000  0.55999000  1.0
  C  C20  1  0.04414000  0.41050000  0.67390000  1.0
  C  C21  1  0.54412000  0.08952000  0.32610000  1.0
  C  C22  1  0.95586000  0.58949000  0.32610000  1.0
  C  C23  1  0.45587000  0.91050000  0.67389000  1.0
  O  O24  1  0.12175000  0.19455000  0.07773000  1.0
  O  O25  1  0.62176000  0.30546000  0.92227000  1.0
  O  O26  1  0.87824000  0.80546000  0.92227000  1.0
  O  O27  1  0.37824000  0.69455000  0.07773000  1.0
  O  O28  1  0.92106000  0.23835000  0.66017000  1.0
  O  O29  1  0.42106000  0.26163000  0.33983000  1.0
  O  O30  1  0.07895000  0.76164000  0.33983000  1.0
  O  O31  1  0.57893000  0.73837000  0.66017000  1.0
  O  O32  1  0.14623000  0.47454000  0.78553000  1.0
  O  O33  1  0.64624000  0.02545000  0.21446000  1.0
  O  O34  1  0.85376000  0.52546000  0.21447000  1.0
  O  O35  1  0.35378000  0.97454000  0.78552000  1.0
