# generated using pymatgen
data_CuH10C11SN2(ClO)2
_symmetry_space_group_name_H-M   'P 1'
_cell_length_a   7.72195000
_cell_length_b   12.60170000
_cell_length_c   13.46110000
_cell_angle_alpha   89.99530000
_cell_angle_beta   89.99980000
_cell_angle_gamma   80.39500000
_symmetry_Int_Tables_number   1
_chemical_formula_structural   CuH10C11SN2(ClO)2
_chemical_formula_sum   'Cu4 H40 C44 S4 N8 Cl8 O8'
_cell_volume   1291.53276491
_cell_formula_units_Z   4
loop_
 _symmetry_equiv_pos_site_id
 _symmetry_equiv_pos_as_xyz
  1  'x, y, z'
loop_
 _atom_site_type_symbol
 _atom_site_label
 _atom_site_symmetry_multiplicity
 _atom_site_fract_x
 _atom_site_fract_y
 _atom_site_fract_z
 _atom_site_occupancy
  Cu  Cu0  1  0.67223000  0.45993000  0.21732000  1.0
  Cu  Cu1  1  0.82778000  0.04007000  0.71732000  1.0
  Cu  Cu2  1  0.32777000  0.54007000  0.78269000  1.0
  Cu  Cu3  1  0.17223000  0.95993000  0.28268000  1.0
  H  H4  1  0.52111000  0.36512000  0.38042000  1.0
  H  H5  1  0.97888000  0.13486000  0.88041000  1.0
  H  H6  1  0.47888000  0.63488000  0.61959000  1.0
  H  H7  1  0.02113000  0.86513000  0.11960000  1.0
  H  H8  1  0.27803000  0.41464000  0.50571000  1.0
  H  H9  1  0.22197000  0.08534000  0.00569000  1.0
  H  H10  1  0.72196000  0.58536000  0.49429000  1.0
  H  H11  1  0.77804000  0.91467000  0.99431000  1.0
  H  H12  1  0.10181000  0.59932000  0.50145000  1.0
  H  H13  1  0.39821000  0.90066000  0.00146000  1.0
  H  H14  1  0.89817000  0.40068000  0.49855000  1.0
  H  H15  1  0.60181000  0.09934000  0.99855000  1.0
  H  H16  1  0.16782000  0.72874000  0.37027000  1.0
  H  H17  1  0.33218000  0.77127000  0.87029000  1.0
  H  H18  1  0.83219000  0.27124000  0.62973000  1.0
  H  H19  1  0.66782000  0.22875000  0.12972000  1.0
  H  H20  1  0.69803000  0.75103000  0.28433000  1.0
  H  H21  1  0.80197000  0.74897000  0.78432000  1.0
  H  H22  1  0.30196000  0.24897000  0.71567000  1.0
  H  H23  1  0.19804000  0.25103000  0.21568000  1.0
  H  H24  1  0.55696000  0.86383000  0.22635000  1.0
  H  H25  1  0.94306000  0.63619000  0.72634000  1.0
  H  H26  1  0.44302000  0.13616000  0.77365000  1.0
  H  H27  1  0.05695000  0.36382000  0.27366000  1.0
  H  H28  1  0.73056000  0.75287000  0.45167000  1.0
  H  H29  1  0.76944000  0.74714000  0.95166000  1.0
  H  H30  1  0.26944000  0.24713000  0.54832000  1.0
  H  H31  1  0.23055000  0.25287000  0.04834000  1.0
  H  H32  1  0.63125000  0.82021000  0.62216000  1.0
  H  H33  1  0.86877000  0.67978000  0.12216000  1.0
  H  H34  1  0.36874000  0.17978000  0.37782000  1.0
  H  H35  1  0.13125000  0.32021000  0.87783000  1.0
  H  H36  1  0.34141000  0.94444000  0.63699000  1.0
  H  H37  1  0.15861000  0.55556000  0.13700000  1.0
  H  H38  1  0.65859000  0.05556000  0.36301000  1.0
  H  H39  1  0.84140000  0.44444000  0.86300000  1.0
  H  H40  1  0.16572000  0.99369000  0.48534000  1.0
  H  H41  1  0.33429000  0.50631000  0.98535000  1.0
  H  H42  1  0.83428000  0.00632000  0.51467000  1.0
  H  H43  1  0.66572000  0.49369000  0.01465000  1.0
  C  C44  1  0.44163000  0.44505000  0.38263000  1.0
  C  C45  1  0.05837000  0.05496000  0.88263000  1.0
  C  C46  1  0.55837000  0.55494000  0.61738000  1.0
  C  C47  1  0.94164000  0.94506000  0.11738000  1.0
  C  C48  1  0.30557000  0.47266000  0.45049000  1.0
  C  C49  1  0.19443000  0.02733000  0.95048000  1.0
  C  C50  1  0.69444000  0.52734000  0.54951000  1.0
  C  C51  1  0.80557000  0.97268000  0.04952000  1.0
  C  C52  1  0.20773000  0.57584000  0.44840000  1.0
  C  C53  1  0.29228000  0.92414000  0.94840000  1.0
  C  C54  1  0.79227000  0.42416000  0.55159000  1.0
  C  C55  1  0.70773000  0.07586000  0.05160000  1.0
  C  C56  1  0.24722000  0.64873000  0.37729000  1.0
  C  C57  1  0.25280000  0.85126000  0.87730000  1.0
  C  C58  1  0.75277000  0.35128000  0.62271000  1.0
  C  C59  1  0.74722000  0.14874000  0.12270000  1.0
  C  C60  1  0.38726000  0.61498000  0.31355000  1.0
  C  C61  1  0.11275000  0.88502000  0.81356000  1.0
  C  C62  1  0.61273000  0.38503000  0.68645000  1.0
  C  C63  1  0.88727000  0.11498000  0.18645000  1.0
  C  C64  1  0.56421000  0.79662000  0.27969000  1.0
  C  C65  1  0.93580000  0.70338000  0.77968000  1.0
  C  C66  1  0.43579000  0.20338000  0.72031000  1.0
  C  C67  1  0.06421000  0.29661000  0.22032000  1.0
  C  C68  1  0.49954000  0.83618000  0.38009000  1.0
  C  C69  1  0.00048000  0.66381000  0.88008000  1.0
  C  C70  1  0.50045000  0.16382000  0.61991000  1.0
  C  C71  1  0.99954000  0.33619000  0.11992000  1.0
  C  C72  1  0.60397000  0.80404000  0.46306000  1.0
  C  C73  1  0.89605000  0.69595000  0.96306000  1.0
  C  C74  1  0.39602000  0.19596000  0.53694000  1.0
  C  C75  1  0.10397000  0.30405000  0.03694000  1.0
  C  C76  1  0.54919000  0.84169000  0.55705000  1.0
  C  C77  1  0.95082000  0.65830000  0.05705000  1.0
  C  C78  1  0.45081000  0.15830000  0.44295000  1.0
  C  C79  1  0.04918000  0.34169000  0.94295000  1.0
  C  C80  1  0.38940000  0.91065000  0.56588000  1.0
  C  C81  1  0.11060000  0.58935000  0.06589000  1.0
  C  C82  1  0.61061000  0.08935000  0.43412000  1.0
  C  C83  1  0.88940000  0.41064000  0.93411000  1.0
  C  C84  1  0.29084000  0.93949000  0.48091000  1.0
  C  C85  1  0.20916000  0.56051000  0.98091000  1.0
  C  C86  1  0.70916000  0.06051000  0.51908000  1.0
  C  C87  1  0.79084000  0.43949000  0.01908000  1.0
  S  S88  1  0.43530000  0.70844000  0.21910000  1.0
  S  S89  1  0.06470000  0.79159000  0.71910000  1.0
  S  S90  1  0.56472000  0.29155000  0.78090000  1.0
  S  S91  1  0.93528000  0.20842000  0.28090000  1.0
  N  N92  1  0.48380000  0.51611000  0.31589000  1.0
  N  N93  1  0.01619000  0.98389000  0.81589000  1.0
  N  N94  1  0.51621000  0.48388000  0.68411000  1.0
  N  N95  1  0.98380000  0.01612000  0.18411000  1.0
  N  N96  1  0.34430000  0.90361000  0.38969000  1.0
  N  N97  1  0.15570000  0.59639000  0.88968000  1.0
  N  N98  1  0.65570000  0.09639000  0.61031000  1.0
  N  N99  1  0.84430000  0.40362000  0.11031000  1.0
  Cl  Cl100  1  0.87071000  0.54284000  0.30284000  1.0
  Cl  Cl101  1  0.62930000  0.95714000  0.80285000  1.0
  Cl  Cl102  1  0.12929000  0.45716000  0.69716000  1.0
  Cl  Cl103  1  0.37070000  0.04286000  0.19715000  1.0
  Cl  Cl104  1  0.45692000  0.38277000  0.14093000  1.0
  Cl  Cl105  1  0.04307000  0.11723000  0.64092000  1.0
  Cl  Cl106  1  0.54310000  0.61723000  0.85907000  1.0
  Cl  Cl107  1  0.95692000  0.88276000  0.35909000  1.0
  O  O108  1  0.26727000  0.77224000  0.19206000  1.0
  O  O109  1  0.23273000  0.72779000  0.69206000  1.0
  O  O110  1  0.73274000  0.22774000  0.80793000  1.0
  O  O111  1  0.76725000  0.27222000  0.30792000  1.0
  O  O112  1  0.54320000  0.64940000  0.14237000  1.0
  O  O113  1  0.95681000  0.85066000  0.64239000  1.0
  O  O114  1  0.45681000  0.35059000  0.85763000  1.0
  O  O115  1  0.04317000  0.14936000  0.35763000  1.0
