# generated using pymatgen
data_ZnH4CSeNO3
_symmetry_space_group_name_H-M   'P 1'
_cell_length_a   6.66865000
_cell_length_b   7.96487000
_cell_length_c   9.60324000
_cell_angle_alpha   89.99990000
_cell_angle_beta   89.99990000
_cell_angle_gamma   67.01400000
_symmetry_Int_Tables_number   1
_chemical_formula_structural   ZnH4CSeNO3
_chemical_formula_sum   'Zn4 H16 C4 Se4 N4 O12'
_cell_volume   469.57558769
_cell_formula_units_Z   4
loop_
 _symmetry_equiv_pos_site_id
 _symmetry_equiv_pos_as_xyz
  1  'x, y, z'
loop_
 _atom_site_type_symbol
 _atom_site_label
 _atom_site_symmetry_multiplicity
 _atom_site_fract_x
 _atom_site_fract_y
 _atom_site_fract_z
 _atom_site_occupancy
  Zn  Zn0  1  0.17898000  0.88659000  0.73174000  1.0
  Zn  Zn1  1  0.67898000  0.38659000  0.76826000  1.0
  Zn  Zn2  1  0.82102000  0.11340000  0.26826000  1.0
  Zn  Zn3  1  0.32102000  0.61341000  0.23174000  1.0
  H  H4  1  0.33807000  0.11968000  0.79817000  1.0
  H  H5  1  0.83807000  0.61968000  0.70183000  1.0
  H  H6  1  0.66193000  0.88032000  0.20183000  1.0
  H  H7  1  0.16194000  0.38031000  0.29817000  1.0
  H  H8  1  0.15101000  0.12288000  0.91227000  1.0
  H  H9  1  0.65101000  0.62288000  0.58773000  1.0
  H  H10  1  0.84899000  0.87712000  0.08773000  1.0
  H  H11  1  0.34899000  0.37712000  0.41227000  1.0
  H  H12  1  0.60593000  0.84585000  0.89459000  1.0
  H  H13  1  0.10593000  0.34585000  0.60541000  1.0
  H  H14  1  0.39407000  0.15415000  0.10541000  1.0
  H  H15  1  0.89407000  0.65415000  0.39459000  1.0
  H  H16  1  0.41294000  0.84949000  0.02244000  1.0
  H  H17  1  0.91294000  0.34949000  0.47757000  1.0
  H  H18  1  0.58706000  0.15051000  0.97756000  1.0
  H  H19  1  0.08706000  0.65050000  0.52244000  1.0
  C  C20  1  0.46636000  0.93604000  0.95604000  1.0
  C  C21  1  0.96636000  0.43604000  0.54395000  1.0
  C  C22  1  0.53364000  0.06397000  0.04395000  1.0
  C  C23  1  0.03364000  0.56397000  0.45605000  1.0
  Se  Se24  1  0.19286000  0.57528000  0.90723000  1.0
  Se  Se25  1  0.69286000  0.07528000  0.59277000  1.0
  Se  Se26  1  0.80714000  0.42472000  0.09277000  1.0
  Se  Se27  1  0.30714000  0.92472000  0.40723000  1.0
  N  N28  1  0.28745000  0.03656000  0.85910000  1.0
  N  N29  1  0.78745000  0.53656000  0.64090000  1.0
  N  N30  1  0.71255000  0.96344000  0.14090000  1.0
  N  N31  1  0.21255000  0.46344000  0.35910000  1.0
  O  O32  1  0.42362000  0.60120000  0.84826000  1.0
  O  O33  1  0.92362000  0.10120000  0.65174000  1.0
  O  O34  1  0.57638000  0.39880000  0.15173000  1.0
  O  O35  1  0.07638000  0.89880000  0.34827000  1.0
  O  O36  1  0.01069000  0.73576000  0.79745000  1.0
  O  O37  1  0.51069000  0.23576000  0.70255000  1.0
  O  O38  1  0.98930000  0.26424000  0.20255000  1.0
  O  O39  1  0.48931000  0.76424000  0.29745000  1.0
  O  O40  1  0.13574000  0.69693000  0.06175000  1.0
  O  O41  1  0.63574000  0.19693000  0.43825000  1.0
  O  O42  1  0.86426000  0.30307000  0.93825000  1.0
  O  O43  1  0.36426000  0.80307000  0.56175000  1.0
