# generated using pymatgen
data_MnH12C16(N5O)2
_symmetry_space_group_name_H-M   'P 1'
_cell_length_a   9.07688000
_cell_length_b   10.34240000
_cell_length_c   10.41690000
_cell_angle_alpha   117.71000000
_cell_angle_beta   90.26750000
_cell_angle_gamma   90.72430000
_symmetry_Int_Tables_number   1
_chemical_formula_structural   MnH12C16(N5O)2
_chemical_formula_sum   'Mn2 H24 C32 N20 O4'
_cell_volume   865.62039344
_cell_formula_units_Z   2
loop_
 _symmetry_equiv_pos_site_id
 _symmetry_equiv_pos_as_xyz
  1  'x, y, z'
loop_
 _atom_site_type_symbol
 _atom_site_label
 _atom_site_symmetry_multiplicity
 _atom_site_fract_x
 _atom_site_fract_y
 _atom_site_fract_z
 _atom_site_occupancy
  Mn  Mn0  1  0.49622000  0.50122000  0.98911000  1.0
  Mn  Mn1  1  0.99953000  0.00067000  0.00026000  1.0
  H  H2  1  0.54625000  0.78064000  0.50525000  1.0
  H  H3  1  0.04867000  0.71163000  0.49868000  1.0
  H  H4  1  0.45376000  0.21910000  0.49658000  1.0
  H  H5  1  0.95237000  0.28743000  0.50107000  1.0
  H  H6  1  0.42604000  0.75080000  0.36297000  1.0
  H  H7  1  0.93485000  0.74037000  0.64286000  1.0
  H  H8  1  0.57273000  0.24822000  0.63953000  1.0
  H  H9  1  0.06595000  0.25933000  0.35691000  1.0
  H  H10  1  0.25182000  0.44040000  0.77720000  1.0
  H  H11  1  0.75290000  0.04095000  0.22136000  1.0
  H  H12  1  0.74973000  0.55379000  0.22081000  1.0
  H  H13  1  0.24648000  0.95806000  0.77828000  1.0
  H  H14  1  0.18700000  0.50730000  0.58361000  1.0
  H  H15  1  0.68978000  0.97528000  0.41885000  1.0
  H  H16  1  0.81471000  0.48897000  0.41824000  1.0
  H  H17  1  0.31039000  0.02354000  0.58098000  1.0
  H  H18  1  0.59454000  0.75840000  0.68487000  1.0
  H  H19  1  0.09748000  0.73741000  0.32549000  1.0
  H  H20  1  0.40371000  0.24395000  0.32199000  1.0
  H  H21  1  0.90353000  0.26284000  0.67434000  1.0
  H  H22  1  0.63794000  0.69085000  0.87702000  1.0
  H  H23  1  0.14211000  0.81249000  0.13572000  1.0
  H  H24  1  0.36055000  0.31213000  0.12795000  1.0
  H  H25  1  0.85824000  0.18806000  0.86407000  1.0
  C  C26  1  0.82158000  0.53440000  0.92087000  1.0
  C  C27  1  0.33514000  0.98678000  0.09519000  1.0
  C  C28  1  0.17738000  0.46528000  0.07273000  1.0
  C  C29  1  0.66436000  0.01880000  0.90622000  1.0
  C  C30  1  0.98291000  0.66518000  0.86146000  1.0
  C  C31  1  0.47280000  0.83016000  0.13664000  1.0
  C  C32  1  0.01925000  0.33569000  0.13870000  1.0
  C  C33  1  0.52629000  0.17314000  0.85929000  1.0
  C  C34  1  0.32438000  0.51039000  0.75268000  1.0
  C  C35  1  0.82576000  0.97427000  0.24893000  1.0
  C  C36  1  0.67706000  0.48518000  0.24738000  1.0
  C  C37  1  0.17403000  0.02514000  0.75086000  1.0
  C  C38  1  0.28880000  0.54877000  0.64569000  1.0
  C  C39  1  0.79040000  0.93651000  0.35698000  1.0
  C  C40  1  0.71291000  0.44825000  0.35593000  1.0
  C  C41  1  0.20979000  0.06270000  0.64277000  1.0
  C  C42  1  0.38434000  0.63865000  0.61557000  1.0
  C  C43  1  0.88748000  0.85069000  0.38831000  1.0
  C  C44  1  0.61570000  0.36052000  0.38663000  1.0
  C  C45  1  0.11315000  0.14885000  0.61146000  1.0
  C  C46  1  0.51289000  0.68919000  0.70082000  1.0
  C  C47  1  0.01652000  0.80449000  0.30740000  1.0
  C  C48  1  0.48594000  0.31117000  0.30379000  1.0
  C  C49  1  0.98420000  0.19555000  0.69237000  1.0
  C  C50  1  0.54014000  0.64971000  0.80865000  1.0
  C  C51  1  0.04286000  0.84697000  0.20094000  1.0
  C  C52  1  0.45946000  0.35071000  0.19543000  1.0
  C  C53  1  0.95747000  0.15326000  0.79886000  1.0
  C  C54  1  0.34572000  0.67139000  0.49429000  1.0
  C  C55  1  0.84964000  0.81779000  0.51082000  1.0
  C  C56  1  0.65456000  0.32759000  0.50863000  1.0
  C  C57  1  0.15122000  0.18178000  0.48909000  1.0
  N  N58  1  0.70516000  0.51116000  0.95615000  1.0
  N  N59  1  0.23080000  0.02200000  0.05184000  1.0
  N  N60  1  0.29085000  0.48971000  0.03311000  1.0
  N  N61  1  0.76819000  0.98244000  0.94927000  1.0
  N  N62  1  0.95208000  0.55434000  0.88235000  1.0
  N  N63  1  0.45575000  0.95563000  0.14127000  1.0
  N  N64  1  0.04958000  0.44571000  0.11655000  1.0
  N  N65  1  0.54404000  0.05044000  0.86039000  1.0
  N  N66  1  0.02033000  0.76505000  0.84204000  1.0
  N  N67  1  0.49512000  0.71641000  0.13408000  1.0
  N  N68  1  0.98105000  0.23687000  0.15958000  1.0
  N  N69  1  0.50172000  0.28418000  0.85683000  1.0
  N  N70  1  0.44970000  0.55877000  0.83506000  1.0
  N  N71  1  0.95048000  0.93087000  0.17199000  1.0
  N  N72  1  0.55203000  0.43742000  0.16812000  1.0
  N  N73  1  0.04939000  0.06907000  0.82783000  1.0
  N  N74  1  0.44419000  0.74652000  0.45753000  1.0
  N  N75  1  0.94877000  0.74624000  0.54830000  1.0
  N  N76  1  0.55572000  0.25299000  0.54492000  1.0
  N  N77  1  0.05207000  0.25301000  0.45127000  1.0
  O  O78  1  0.22444000  0.62770000  0.42810000  1.0
  O  O79  1  0.72936000  0.85949000  0.57468000  1.0
  O  O80  1  0.77605000  0.37083000  0.57377000  1.0
  O  O81  1  0.27172000  0.14038000  0.42557000  1.0
