# generated using pymatgen
data_CdH32C34(NO)4
_symmetry_space_group_name_H-M   'P 1'
_cell_length_a   8.89372000
_cell_length_b   11.89259873
_cell_length_c   15.92790000
_cell_angle_alpha   80.37106978
_cell_angle_beta   89.99290000
_cell_angle_gamma   68.08630294
_symmetry_Int_Tables_number   1
_chemical_formula_structural   CdH32C34(NO)4
_chemical_formula_sum   'Cd2 H64 C68 N8 O8'
_cell_volume   1537.36351207
_cell_formula_units_Z   2
loop_
 _symmetry_equiv_pos_site_id
 _symmetry_equiv_pos_as_xyz
  1  'x, y, z'
loop_
 _atom_site_type_symbol
 _atom_site_label
 _atom_site_symmetry_multiplicity
 _atom_site_fract_x
 _atom_site_fract_y
 _atom_site_fract_z
 _atom_site_occupancy
  Cd  Cd0  1  0.18664000  0.00018000  0.74997000  1.0
  Cd  Cd1  1  0.81337000  0.99983000  0.25004000  1.0
  H  H2  1  0.87970000  0.17601000  0.79361000  1.0
  H  H3  1  0.05506000  0.82468000  0.70626000  1.0
  H  H4  1  0.12031000  0.82399000  0.20640000  1.0
  H  H5  1  0.94494000  0.17531000  0.29374000  1.0
  H  H6  1  0.75951000  0.20309000  0.88243000  1.0
  H  H7  1  0.96215000  0.79737000  0.61745000  1.0
  H  H8  1  0.24050000  0.79691000  0.11758000  1.0
  H  H9  1  0.03785000  0.20263000  0.38255000  1.0
  H  H10  1  0.70065000  0.14251000  0.79944000  1.0
  H  H11  1  0.84261000  0.85799000  0.70036000  1.0
  H  H12  1  0.29935000  0.85750000  0.20056000  1.0
  H  H13  1  0.15739000  0.14201000  0.29964000  1.0
  H  H14  1  0.32166000  0.71316000  0.87066000  1.0
  H  H15  1  0.03543000  0.28727000  0.62912000  1.0
  H  H16  1  0.67832000  0.28685000  0.12934000  1.0
  H  H17  1  0.96457000  0.71273000  0.37087000  1.0
  H  H18  1  0.35319000  0.53822000  0.99078000  1.0
  H  H19  1  0.89208000  0.46237000  0.50917000  1.0
  H  H20  1  0.64681000  0.46178000  0.00923000  1.0
  H  H21  1  0.10791000  0.53763000  0.49084000  1.0
  H  H22  1  0.14882000  0.55726000  0.09768000  1.0
  H  H23  1  0.70669000  0.44337000  0.40226000  1.0
  H  H24  1  0.85117000  0.44274000  0.90232000  1.0
  H  H25  1  0.29331000  0.55663000  0.59774000  1.0
  H  H26  1  0.90429000  0.75133000  0.09065000  1.0
  H  H27  1  0.65611000  0.24914000  0.40923000  1.0
  H  H28  1  0.09571000  0.24867000  0.90935000  1.0
  H  H29  1  0.34389000  0.75086000  0.59077000  1.0
  H  H30  1  0.67793000  0.10744000  0.98858000  1.0
  H  H31  1  0.78523000  0.89291000  0.51153000  1.0
  H  H32  1  0.32207000  0.89256000  0.01142000  1.0
  H  H33  1  0.21476000  0.10710000  0.48847000  1.0
  H  H34  1  0.74935000  0.97240000  0.06714000  1.0
  H  H35  1  0.72165000  0.02783000  0.43283000  1.0
  H  H36  1  0.25065000  0.02760000  0.93286000  1.0
  H  H37  1  0.27836000  0.97217000  0.56717000  1.0
  H  H38  1  0.61174000  0.87250000  0.98376000  1.0
  H  H39  1  0.48412000  0.12769000  0.51602000  1.0
  H  H40  1  0.38827000  0.12749000  0.01624000  1.0
  H  H41  1  0.51588000  0.87231000  0.48398000  1.0
  H  H42  1  0.53713000  0.00641000  0.90525000  1.0
  H  H43  1  0.54333000  0.99396000  0.59475000  1.0
  H  H44  1  0.46289000  0.99358000  0.09474000  1.0
  H  H45  1  0.45667000  0.00604000  0.40525000  1.0
  H  H46  1  0.30353000  0.30753000  0.87157000  1.0
  H  H47  1  0.61093000  0.69232000  0.62833000  1.0
  H  H48  1  0.69647000  0.69247000  0.12843000  1.0
  H  H49  1  0.38908000  0.30767000  0.37167000  1.0
  H  H50  1  0.43978000  0.45489000  0.88013000  1.0
  H  H51  1  0.89434000  0.54524000  0.61991000  1.0
  H  H52  1  0.56023000  0.54511000  0.11988000  1.0
  H  H53  1  0.10566000  0.45476000  0.38009000  1.0
  H  H54  1  0.59593000  0.50536000  0.75986000  1.0
  H  H55  1  0.10058000  0.49496000  0.74025000  1.0
  H  H56  1  0.40408000  0.49464000  0.24014000  1.0
  H  H57  1  0.89941000  0.50504000  0.25975000  1.0
  H  H58  1  0.61645000  0.40802000  0.63117000  1.0
  H  H59  1  0.02329000  0.59208000  0.86904000  1.0
  H  H60  1  0.38356000  0.59199000  0.36883000  1.0
  H  H61  1  0.97672000  0.40791000  0.13096000  1.0
  H  H62  1  0.47868000  0.26075000  0.62368000  1.0
  H  H63  1  0.73834000  0.73900000  0.87641000  1.0
  H  H64  1  0.52131000  0.73926000  0.37632000  1.0
  H  H65  1  0.26166000  0.26100000  0.12359000  1.0
  C  C66  1  0.80571000  0.14049000  0.83690000  1.0
  C  C67  1  0.94570000  0.86008000  0.66291000  1.0
  C  C68  1  0.19430000  0.85951000  0.16310000  1.0
  C  C69  1  0.05431000  0.13992000  0.33709000  1.0
  C  C70  1  0.90293000  0.01357000  0.88074000  1.0
  C  C71  1  0.91641000  0.98694000  0.61905000  1.0
  C  C72  1  0.09708000  0.98643000  0.11926000  1.0
  C  C73  1  0.08359000  0.01306000  0.38095000  1.0
  C  C74  1  0.97524000  0.83750000  0.97411000  1.0
  C  C75  1  0.81292000  0.16304000  0.52574000  1.0
  C  C76  1  0.02476000  0.16249000  0.02589000  1.0
  C  C77  1  0.18707000  0.83696000  0.47426000  1.0
  C  C78  1  0.09247000  0.82853000  0.91275000  1.0
  C  C79  1  0.92131000  0.17195000  0.58705000  1.0
  C  C80  1  0.90752000  0.17147000  0.08725000  1.0
  C  C81  1  0.07868000  0.82805000  0.41295000  1.0
  C  C82  1  0.23068000  0.72034000  0.91741000  1.0
  C  C83  1  0.95149000  0.28017000  0.58244000  1.0
  C  C84  1  0.76930000  0.27966000  0.08259000  1.0
  C  C85  1  0.04851000  0.71983000  0.41756000  1.0
  C  C86  1  0.24694000  0.62400000  0.98463000  1.0
  C  C87  1  0.87142000  0.37659000  0.51532000  1.0
  C  C88  1  0.75304000  0.37599000  0.01537000  1.0
  C  C89  1  0.12857000  0.62341000  0.48468000  1.0
  C  C90  1  0.12995000  0.63426000  0.04559000  1.0
  C  C91  1  0.76482000  0.36632000  0.45429000  1.0
  C  C92  1  0.87004000  0.36574000  0.95440000  1.0
  C  C93  1  0.23517000  0.63368000  0.54571000  1.0
  C  C94  1  0.99134000  0.74128000  0.04149000  1.0
  C  C95  1  0.73310000  0.25927000  0.45836000  1.0
  C  C96  1  0.00866000  0.25871000  0.95851000  1.0
  C  C97  1  0.26689000  0.74072000  0.54165000  1.0
  C  C98  1  0.71348000  0.00711000  0.99903000  1.0
  C  C99  1  0.72047000  0.99321000  0.50095000  1.0
  C  C100  1  0.28651000  0.99289000  0.00097000  1.0
  C  C101  1  0.27953000  0.00679000  0.49905000  1.0
  C  C102  1  0.57255000  0.97346000  0.97373000  1.0
  C  C103  1  0.54591000  0.02673000  0.52622000  1.0
  C  C104  1  0.42744000  0.02654000  0.02626000  1.0
  C  C105  1  0.45409000  0.97327000  0.47378000  1.0
  C  C106  1  0.30268000  0.18598000  0.74167000  1.0
  C  C107  1  0.48817000  0.81413000  0.75826000  1.0
  C  C108  1  0.69734000  0.81402000  0.25833000  1.0
  C  C109  1  0.51183000  0.18588000  0.24174000  1.0
  C  C110  1  0.38195000  0.27622000  0.74670000  1.0
  C  C111  1  0.65748000  0.72370000  0.75326000  1.0
  C  C112  1  0.61807000  0.72378000  0.25331000  1.0
  C  C113  1  0.34252000  0.27630000  0.24674000  1.0
  C  C114  1  0.37156000  0.33087000  0.81915000  1.0
  C  C115  1  0.70204000  0.66914000  0.68079000  1.0
  C  C116  1  0.62846000  0.66913000  0.18085000  1.0
  C  C117  1  0.29796000  0.33086000  0.31920000  1.0
  C  C118  1  0.44785000  0.41320000  0.82356000  1.0
  C  C119  1  0.86064000  0.58695000  0.67646000  1.0
  C  C120  1  0.55217000  0.58680000  0.17645000  1.0
  C  C121  1  0.13935000  0.41305000  0.32354000  1.0
  C  C122  1  0.53571000  0.44144000  0.75607000  1.0
  C  C123  1  0.97650000  0.55879000  0.74402000  1.0
  C  C124  1  0.46430000  0.55856000  0.24394000  1.0
  C  C125  1  0.02350000  0.44121000  0.25598000  1.0
  C  C126  1  0.54701000  0.38707000  0.68375000  1.0
  C  C127  1  0.93314000  0.61302000  0.81636000  1.0
  C  C128  1  0.45300000  0.61293000  0.31625000  1.0
  C  C129  1  0.06686000  0.38698000  0.18364000  1.0
  C  C130  1  0.47037000  0.30485000  0.67915000  1.0
  C  C131  1  0.77427000  0.69497000  0.82092000  1.0
  C  C132  1  0.52964000  0.69515000  0.32086000  1.0
  C  C133  1  0.22572000  0.30503000  0.17907000  1.0
  N  N134  1  0.04368000  0.93983000  0.85582000  1.0
  N  N135  1  0.98375000  0.06060000  0.64392000  1.0
  N  N136  1  0.95632000  0.06017000  0.14418000  1.0
  N  N137  1  0.01625000  0.93940000  0.35608000  1.0
  N  N138  1  0.85763000  0.95587000  0.95224000  1.0
  N  N139  1  0.81334000  0.04470000  0.54764000  1.0
  N  N140  1  0.14236000  0.04414000  0.04776000  1.0
  N  N141  1  0.18666000  0.95530000  0.45236000  1.0
  O  O142  1  0.21404000  0.16750000  0.80200000  1.0
  O  O143  1  0.38102000  0.83258000  0.69797000  1.0
  O  O144  1  0.78600000  0.83249000  0.19801000  1.0
  O  O145  1  0.61898000  0.16741000  0.30203000  1.0
  O  O146  1  0.32625000  0.13027000  0.67857000  1.0
  O  O147  1  0.45635000  0.86999000  0.82128000  1.0
  O  O148  1  0.67375000  0.86974000  0.32143000  1.0
  O  O149  1  0.54364000  0.13003000  0.17870000  1.0
