# generated using pymatgen
data_FeNiH24(C19N3)2
_symmetry_space_group_name_H-M   'P 1'
_cell_length_a   6.97153000
_cell_length_b   13.55890000
_cell_length_c   16.42350000
_cell_angle_alpha   73.14200000
_cell_angle_beta   83.39210000
_cell_angle_gamma   89.98890000
_symmetry_Int_Tables_number   1
_chemical_formula_structural   FeNiH24(C19N3)2
_chemical_formula_sum   'Fe2 Ni2 H48 C76 N12'
_cell_volume   1474.96894784
_cell_formula_units_Z   2
loop_
 _symmetry_equiv_pos_site_id
 _symmetry_equiv_pos_as_xyz
  1  'x, y, z'
loop_
 _atom_site_type_symbol
 _atom_site_label
 _atom_site_symmetry_multiplicity
 _atom_site_fract_x
 _atom_site_fract_y
 _atom_site_fract_z
 _atom_site_occupancy
  Fe  Fe0  1  0.00000000  0.00000000  0.00000000  1.0
  Fe  Fe1  1  0.00000000  0.50000000  1.00000000  1.0
  Ni  Ni2  1  0.49333000  0.23754000  0.03065000  1.0
  Ni  Ni3  1  0.50666000  0.76245000  0.96936000  1.0
  H  H4  1  0.05694000  0.97409000  0.82876000  1.0
  H  H5  1  0.94306000  0.02591000  0.17124000  1.0
  H  H6  1  0.07373000  0.08347000  0.67871000  1.0
  H  H7  1  0.92628000  0.91653000  0.32129000  1.0
  H  H8  1  0.00404000  0.34759000  0.77591000  1.0
  H  H9  1  0.99596000  0.65241000  0.22409000  1.0
  H  H10  1  0.99526000  0.22694000  0.92225000  1.0
  H  H11  1  0.00473000  0.77305000  0.07775000  1.0
  H  H12  1  0.28633000  0.50882000  0.11600000  1.0
  H  H13  1  0.71367000  0.49118000  0.88401000  1.0
  H  H14  1  0.29132000  0.47595000  0.27260000  1.0
  H  H15  1  0.70869000  0.52405000  0.72740000  1.0
  H  H16  1  0.68107000  0.39899000  0.30662000  1.0
  H  H17  1  0.31893000  0.60102000  0.69338000  1.0
  H  H18  1  0.69900000  0.43915000  0.14812000  1.0
  H  H19  1  0.30100000  0.56085000  0.85188000  1.0
  H  H20  1  0.97389000  0.08762000  0.51838000  1.0
  H  H21  1  0.02610000  0.91238000  0.48161000  1.0
  H  H22  1  0.29281000  0.13918000  0.54911000  1.0
  H  H23  1  0.70718000  0.86083000  0.45089000  1.0
  H  H24  1  0.54074000  0.23200000  0.42955000  1.0
  H  H25  1  0.45926000  0.76801000  0.57045000  1.0
  H  H26  1  0.47171000  0.27155000  0.27891000  1.0
  H  H27  1  0.52829000  0.72845000  0.72109000  1.0
  H  H28  1  0.25033000  0.26503000  0.17425000  1.0
  H  H29  1  0.74968000  0.73497000  0.82575000  1.0
  H  H30  1  0.93365000  0.21508000  0.14173000  1.0
  H  H31  1  0.06635000  0.78492000  0.85826000  1.0
  H  H32  1  0.68410000  0.12081000  0.26068000  1.0
  H  H33  1  0.31590000  0.87919000  0.73932000  1.0
  H  H34  1  0.75011000  0.07937000  0.41160000  1.0
  H  H35  1  0.24988000  0.92064000  0.58840000  1.0
  H  H36  1  0.63628000  0.17212000  0.55380000  1.0
  H  H37  1  0.36372000  0.82789000  0.44619000  1.0
  H  H38  1  0.66028000  0.98687000  0.63108000  1.0
  H  H39  1  0.33972000  0.01313000  0.36892000  1.0
  H  H40  1  0.61222000  0.92713000  0.79102000  1.0
  H  H41  1  0.38777000  0.07287000  0.20898000  1.0
  H  H42  1  0.53603000  0.05158000  0.87330000  1.0
  H  H43  1  0.46397000  0.94842000  0.12670000  1.0
  H  H44  1  0.47573000  0.23037000  0.87624000  1.0
  H  H45  1  0.52425000  0.76963000  0.12376000  1.0
  H  H46  1  0.43765000  0.41319000  0.80003000  1.0
  H  H47  1  0.56234000  0.58681000  0.19997000  1.0
  H  H48  1  0.47945000  0.47412000  0.63886000  1.0
  H  H49  1  0.52056000  0.52588000  0.36114000  1.0
  H  H50  1  0.56036000  0.35056000  0.55652000  1.0
  H  H51  1  0.43965000  0.64944000  0.44348000  1.0
  C  C52  1  0.04764000  0.05721000  0.81420000  1.0
  C  C53  1  0.95237000  0.94279000  0.18580000  1.0
  C  C54  1  0.05700000  0.11907000  0.73039000  1.0
  C  C55  1  0.94300000  0.88092000  0.26962000  1.0
  C  C56  1  0.03886000  0.22647000  0.71365000  1.0
  C  C57  1  0.96114000  0.77353000  0.28636000  1.0
  C  C58  1  0.01743000  0.26540000  0.78471000  1.0
  C  C59  1  0.98257000  0.73460000  0.21530000  1.0
  C  C60  1  0.01129000  0.19833000  0.86659000  1.0
  C  C61  1  0.98871000  0.80167000  0.13341000  1.0
  C  C62  1  0.03630000  0.28988000  0.62900000  1.0
  C  C63  1  0.96372000  0.71011000  0.37100000  1.0
  C  C64  1  0.02375000  0.33675000  0.55385000  1.0
  C  C65  1  0.97627000  0.66324000  0.44615000  1.0
  C  C66  1  0.30221000  0.14339000  0.03162000  1.0
  C  C67  1  0.69779000  0.85660000  0.96838000  1.0
  C  C68  1  0.31265000  0.66839000  0.97459000  1.0
  C  C69  1  0.68735000  0.33160000  0.02542000  1.0
  C  C70  1  0.31484000  0.33981000  0.01429000  1.0
  C  C71  1  0.68516000  0.66019000  0.98571000  1.0
  C  C72  1  0.67483000  0.13808000  0.03616000  1.0
  C  C73  1  0.32518000  0.86192000  0.96384000  1.0
  C  C74  1  0.15499000  0.48552000  0.16034000  1.0
  C  C75  1  0.84501000  0.51448000  0.83966000  1.0
  C  C76  1  0.15711000  0.46680000  0.24755000  1.0
  C  C77  1  0.84290000  0.53320000  0.75245000  1.0
  C  C78  1  0.98604000  0.43441000  0.30418000  1.0
  C  C79  1  0.01396000  0.56559000  0.69583000  1.0
  C  C80  1  0.81776000  0.42483000  0.26669000  1.0
  C  C81  1  0.18224000  0.57517000  0.73330000  1.0
  C  C82  1  0.82674000  0.44662000  0.17851000  1.0
  C  C83  1  0.17326000  0.55339000  0.82149000  1.0
  C  C84  1  0.98949000  0.40851000  0.39338000  1.0
  C  C85  1  0.01050000  0.59149000  0.60662000  1.0
  C  C86  1  0.00622000  0.37897000  0.47027000  1.0
  C  C87  1  0.99378000  0.62102000  0.52973000  1.0
  C  C88  1  0.03891000  0.14982000  0.38042000  1.0
  C  C89  1  0.96109000  0.85018000  0.61958000  1.0
  C  C90  1  0.08307000  0.12756000  0.46604000  1.0
  C  C91  1  0.91693000  0.87244000  0.53396000  1.0
  C  C92  1  0.26028000  0.15634000  0.48319000  1.0
  C  C93  1  0.73971000  0.84367000  0.51680000  1.0
  C  C94  1  0.40099000  0.20941000  0.41545000  1.0
  C  C95  1  0.59900000  0.79059000  0.58455000  1.0
  C  C96  1  0.36289000  0.23201000  0.33163000  1.0
  C  C97  1  0.63710000  0.76799000  0.66837000  1.0
  C  C98  1  0.18265000  0.20288000  0.31179000  1.0
  C  C99  1  0.81735000  0.79713000  0.68821000  1.0
  C  C100  1  0.14046000  0.22491000  0.22613000  1.0
  C  C101  1  0.85954000  0.77509000  0.77387000  1.0
  C  C102  1  0.96400000  0.19681000  0.20804000  1.0
  C  C103  1  0.03601000  0.80319000  0.79196000  1.0
  C  C104  1  0.82236000  0.14410000  0.27556000  1.0
  C  C105  1  0.17764000  0.85590000  0.72444000  1.0
  C  C106  1  0.85910000  0.12080000  0.35975000  1.0
  C  C107  1  0.14090000  0.87920000  0.64025000  1.0
  C  C108  1  0.56262000  0.21831000  0.66878000  1.0
  C  C109  1  0.43739000  0.78169000  0.33122000  1.0
  C  C110  1  0.60968000  0.14517000  0.62357000  1.0
  C  C111  1  0.39033000  0.85483000  0.37643000  1.0
  C  C112  1  0.62492000  0.04230000  0.66666667  1.0
  C  C113  1  0.37509000  0.95769000  0.33333333  1.0
  C  C114  1  0.59678000  0.00829000  0.75735000  1.0
  C  C115  1  0.40322000  0.99171000  0.24265000  1.0
  C  C116  1  0.55536000  0.07752000  0.80344000  1.0
  C  C117  1  0.44465000  0.92248000  0.19656000  1.0
  C  C118  1  0.53718000  0.18363000  0.76078000  1.0
  C  C119  1  0.46282000  0.81637000  0.23921000  1.0
  C  C120  1  0.49454000  0.25678000  0.80630000  1.0
  C  C121  1  0.50546000  0.74322000  0.19370000  1.0
  C  C122  1  0.47438000  0.35902000  0.76337000  1.0
  C  C123  1  0.52562000  0.64098000  0.23663000  1.0
  C  C124  1  0.49686000  0.39310000  0.67268000  1.0
  C  C125  1  0.50315000  0.60690000  0.32732000  1.0
  C  C126  1  0.54104000  0.32424000  0.62646000  1.0
  C  C127  1  0.45897000  0.67576000  0.37354000  1.0
  N  N128  1  0.02350000  0.09502000  0.88210000  1.0
  N  N129  1  0.97650000  0.90498000  0.11790000  1.0
  N  N130  1  0.18361000  0.08554000  0.02555000  1.0
  N  N131  1  0.81639000  0.91445000  0.97445000  1.0
  N  N132  1  0.99233000  0.47613000  0.12496000  1.0
  N  N133  1  0.00767000  0.52387000  0.87503000  1.0
  N  N134  1  0.19805000  0.40318000  0.00495000  1.0
  N  N135  1  0.80195000  0.59681000  0.99505000  1.0
  N  N136  1  0.18888000  0.60677000  0.98155000  1.0
  N  N137  1  0.81113000  0.39323000  0.01845000  1.0
  N  N138  1  0.79675000  0.08038000  0.02937000  1.0
  N  N139  1  0.20325000  0.91961000  0.97063000  1.0
