# generated using pymatgen
data_La2Cu3H30C42(NO5)6
_symmetry_space_group_name_H-M   'P 1'
_cell_length_a   9.94712000
_cell_length_b   11.76230000
_cell_length_c   13.19730000
_cell_angle_alpha   107.34800000
_cell_angle_beta   94.20680000
_cell_angle_gamma   99.30470000
_symmetry_Int_Tables_number   1
_chemical_formula_structural   La2Cu3H30C42(NO5)6
_chemical_formula_sum   'La2 Cu3 H30 C42 N6 O30'
_cell_volume   1442.30243047
_cell_formula_units_Z   1
loop_
 _symmetry_equiv_pos_site_id
 _symmetry_equiv_pos_as_xyz
  1  'x, y, z'
loop_
 _atom_site_type_symbol
 _atom_site_label
 _atom_site_symmetry_multiplicity
 _atom_site_fract_x
 _atom_site_fract_y
 _atom_site_fract_z
 _atom_site_occupancy
  La  La0  1  0.19844000  0.96292000  0.96055000  1.0
  La  La1  1  0.80156000  0.03708000  0.03945000  1.0
  Cu  Cu2  1  0.50000000  0.50000000  0.00000000  1.0
  Cu  Cu3  1  0.39736000  0.09653000  0.58930000  1.0
  Cu  Cu4  1  0.60264000  0.90347000  0.41070000  1.0
  H  H5  1  0.11994000  0.85307000  0.73807000  1.0
  H  H6  1  0.88006000  0.14693000  0.26193000  1.0
  H  H7  1  0.27344000  0.88544000  0.72781000  1.0
  H  H8  1  0.72655000  0.11456000  0.27219000  1.0
  H  H9  1  0.37284000  0.13759000  0.17963000  1.0
  H  H10  1  0.62717000  0.86242000  0.82038000  1.0
  H  H11  1  0.47148000  0.14107000  0.08841000  1.0
  H  H12  1  0.52852000  0.85893000  0.91159000  1.0
  H  H13  1  0.29890000  0.31942000  0.74469000  1.0
  H  H14  1  0.70111000  0.68058000  0.25531000  1.0
  H  H15  1  0.31916000  0.34114000  0.63431000  1.0
  H  H16  1  0.68084000  0.65886000  0.36569000  1.0
  H  H17  1  0.85686000  0.68191000  0.73268000  1.0
  H  H18  1  0.14314000  0.31809000  0.26732000  1.0
  H  H19  1  0.63390000  0.53951000  0.64551000  1.0
  H  H20  1  0.36610000  0.46049000  0.35448000  1.0
  H  H21  1  0.48475000  0.45329000  0.76206000  1.0
  H  H22  1  0.51525000  0.54671000  0.23793000  1.0
  H  H23  1  0.84928000  0.34762000  0.92736000  1.0
  H  H24  1  0.15072000  0.65239000  0.07264000  1.0
  H  H25  1  0.87684000  0.35446000  0.74222000  1.0
  H  H26  1  0.12316000  0.64554000  0.25778000  1.0
  H  H27  1  0.67839000  0.24886000  0.59448000  1.0
  H  H28  1  0.32162000  0.75114000  0.40553000  1.0
  H  H29  1  0.92315000  0.84198000  0.27544000  1.0
  H  H30  1  0.07686000  0.15802000  0.72456000  1.0
  H  H31  1  0.94985000  0.78650000  0.44215000  1.0
  H  H32  1  0.05016000  0.21350000  0.55785000  1.0
  H  H33  1  0.15988000  0.89398000  0.57871000  1.0
  H  H34  1  0.84012000  0.10602000  0.42129000  1.0
  C  C35  1  0.73680000  0.61957000  0.94800000  1.0
  C  C36  1  0.26320000  0.38043000  0.05199000  1.0
  C  C37  1  0.82579000  0.67091000  0.88966000  1.0
  C  C38  1  0.17420000  0.32910000  0.11034000  1.0
  C  C39  1  0.78999000  0.64041000  0.77900000  1.0
  C  C40  1  0.21001000  0.35958000  0.22100000  1.0
  C  C41  1  0.66656000  0.56194000  0.73086000  1.0
  C  C42  1  0.33344000  0.43807000  0.26913000  1.0
  C  C43  1  0.58291000  0.51432000  0.79424000  1.0
  C  C44  1  0.41709000  0.48569000  0.20576000  1.0
  C  C45  1  0.76065000  0.65025000  0.06803000  1.0
  C  C46  1  0.23934000  0.34975000  0.93197000  1.0
  C  C47  1  0.95146000  0.76656000  0.94037000  1.0
  C  C48  1  0.04854000  0.23344000  0.05964000  1.0
  C  C49  1  0.54433000  0.17632000  0.79357000  1.0
  C  C50  1  0.45567000  0.82368000  0.20643000  1.0
  C  C51  1  0.64465000  0.23856000  0.88084000  1.0
  C  C52  1  0.35535000  0.76144000  0.11917000  1.0
  C  C53  1  0.76717000  0.30202000  0.86143000  1.0
  C  C54  1  0.23283000  0.69798000  0.13857000  1.0
  C  C55  1  0.78275000  0.30547000  0.75863000  1.0
  C  C56  1  0.21725000  0.69453000  0.24137000  1.0
  C  C57  1  0.67517000  0.24623000  0.67618000  1.0
  C  C58  1  0.32483000  0.75377000  0.32382000  1.0
  C  C59  1  0.41217000  0.09625000  0.79768000  1.0
  C  C60  1  0.58783000  0.90374000  0.20232000  1.0
  C  C61  1  0.62301000  0.24727000  0.99501000  1.0
  C  C62  1  0.37698000  0.75273000  0.00499000  1.0
  C  C63  1  0.22528000  0.03024000  0.39720000  1.0
  C  C64  1  0.77472000  0.96976000  0.60280000  1.0
  C  C65  1  0.11192000  0.97574000  0.31869000  1.0
  C  C66  1  0.88808000  0.02426000  0.68131000  1.0
  C  C67  1  0.01123000  0.88771000  0.33621000  1.0
  C  C68  1  0.98877000  0.11229000  0.66379000  1.0
  C  C69  1  0.02743000  0.85533000  0.42875000  1.0
  C  C70  1  0.97258000  0.14467000  0.57124000  1.0
  C  C71  1  0.14234000  0.91358000  0.50385000  1.0
  C  C72  1  0.85766000  0.08642000  0.49615000  1.0
  C  C73  1  0.34278000  0.12752000  0.39241000  1.0
  C  C74  1  0.65722000  0.87249000  0.60759000  1.0
  C  C75  1  0.09227000  0.00171000  0.21374000  1.0
  C  C76  1  0.90773000  0.99829000  0.78626000  1.0
  N  N77  1  0.61896000  0.54200000  0.89963000  1.0
  N  N78  1  0.38104000  0.45800000  0.10037000  1.0
  N  N79  1  0.56085000  0.18187000  0.69387000  1.0
  N  N80  1  0.43915000  0.81813000  0.30613000  1.0
  N  N81  1  0.23736000  0.99884000  0.48754000  1.0
  N  N82  1  0.76264000  0.00116000  0.51246000  1.0
  O  O83  1  0.65362000  0.61750000  0.11138000  1.0
  O  O84  1  0.34637000  0.38251000  0.88862000  1.0
  O  O85  1  0.20916000  0.83123000  0.75417000  1.0
  O  O86  1  0.79084000  0.16877000  0.24583000  1.0
  O  O87  1  0.87514000  0.70447000  0.11777000  1.0
  O  O88  1  0.12486000  0.29553000  0.88223000  1.0
  O  O89  1  0.37538000  0.12145000  0.10222000  1.0
  O  O90  1  0.62462000  0.87855000  0.89779000  1.0
  O  O91  1  0.93244000  0.87440000  0.98514000  1.0
  O  O92  1  0.06756000  0.12560000  0.01487000  1.0
  O  O93  1  0.28557000  0.27875000  0.66566000  1.0
  O  O94  1  0.71443000  0.72125000  0.33434000  1.0
  O  O95  1  0.06880000  0.74229000  0.92656000  1.0
  O  O96  1  0.93119000  0.25771000  0.07344000  1.0
  O  O97  1  0.37267000  0.09198000  0.88442000  1.0
  O  O98  1  0.62734000  0.90802000  0.11558000  1.0
  O  O99  1  0.34493000  0.03138000  0.70513000  1.0
  O  O100  1  0.65507000  0.96862000  0.29487000  1.0
  O  O101  1  0.62696000  0.15308000  0.02498000  1.0
  O  O102  1  0.37303000  0.84691000  0.97502000  1.0
  O  O103  1  0.60460000  0.34720000  0.05200000  1.0
  O  O104  1  0.39540000  0.65280000  0.94800000  1.0
  O  O105  1  0.44138000  0.16060000  0.47183000  1.0
  O  O106  1  0.55862000  0.83940000  0.52817000  1.0
  O  O107  1  0.34033000  0.17135000  0.31760000  1.0
  O  O108  1  0.65967000  0.82865000  0.68241000  1.0
  O  O109  1  0.99425000  0.05572000  0.20154000  1.0
  O  O110  1  0.00575000  0.94428000  0.79847000  1.0
  O  O111  1  0.16830000  0.96012000  0.14526000  1.0
  O  O112  1  0.83170000  0.03989000  0.85474000  1.0
