# generated using pymatgen
data_Al2H3C24S6(O4F)3
_symmetry_space_group_name_H-M   'P 1'
_cell_length_a   3.96226000
_cell_length_b   20.15870000
_cell_length_c   20.15875000
_cell_angle_alpha   119.99975386
_cell_angle_beta   90.00000000
_cell_angle_gamma   89.99980000
_symmetry_Int_Tables_number   1
_chemical_formula_structural   Al2H3C24S6(O4F)3
_chemical_formula_sum   'Al2 H3 C24 S6 O12 F3'
_cell_volume   1394.44310676
_cell_formula_units_Z   1
loop_
 _symmetry_equiv_pos_site_id
 _symmetry_equiv_pos_as_xyz
  1  'x, y, z'
loop_
 _atom_site_type_symbol
 _atom_site_label
 _atom_site_symmetry_multiplicity
 _atom_site_fract_x
 _atom_site_fract_y
 _atom_site_fract_z
 _atom_site_occupancy
  Al  Al0  1  0.99747000  0.00000000  0.50000000  1.0
  Al  Al1  1  0.99761000  0.33334000  0.16667000  1.0
  H  H2  1  0.52238000  0.56266000  0.38510000  1.0
  H  H3  1  0.52238000  0.11491000  0.17756000  1.0
  H  H4  1  0.52238000  0.32245000  0.93735000  1.0
  C  C5  1  0.49804000  0.05751000  0.61750000  1.0
  C  C6  1  0.49804000  0.88250000  0.44001000  1.0
  C  C7  1  0.49804000  0.05999000  0.44249000  1.0
  C  C8  1  0.49814000  0.45095000  0.22509000  1.0
  C  C9  1  0.49814000  0.27491000  0.22586000  1.0
  C  C10  1  0.49814000  0.27414000  0.04905000  1.0
  C  C11  1  0.51075000  0.74886000  0.32028000  1.0
  C  C12  1  0.51266000  0.58353000  0.34477000  1.0
  C  C13  1  0.50177000  0.79784000  0.39843000  1.0
  C  C14  1  0.50166000  0.53566000  0.26647000  1.0
  C  C15  1  0.49583000  0.66128000  0.36391000  1.0
  C  C16  1  0.49473000  0.67069000  0.29935000  1.0
  C  C17  1  0.51074000  0.17973000  0.42858000  1.0
  C  C18  1  0.51266000  0.15523000  0.23876000  1.0
  C  C19  1  0.50176000  0.10157000  0.39941000  1.0
  C  C20  1  0.50166000  0.23354000  0.26919000  1.0
  C  C21  1  0.49583000  0.13609000  0.29737000  1.0
  C  C22  1  0.49473000  0.20065000  0.37134000  1.0
  C  C23  1  0.51074000  0.07143000  0.75115000  1.0
  C  C24  1  0.51266000  0.26125000  0.91647000  1.0
  C  C25  1  0.50176000  0.10059000  0.70216000  1.0
  C  C26  1  0.50166000  0.23082000  0.96435000  1.0
  C  C27  1  0.49584000  0.20263000  0.83872000  1.0
  C  C28  1  0.49473000  0.12866000  0.82931000  1.0
  S  S29  1  0.48133000  0.74805000  0.44807000  1.0
  S  S30  1  0.47907000  0.58416000  0.21546000  1.0
  S  S31  1  0.48133000  0.05193000  0.29998000  1.0
  S  S32  1  0.47907000  0.28455000  0.36871000  1.0
  S  S33  1  0.48133000  0.20002000  0.75195000  1.0
  S  S34  1  0.47907000  0.13130000  0.91584000  1.0
  O  O35  1  0.26226000  0.01123000  0.42666000  1.0
  O  O36  1  0.26226000  0.07335000  0.58457000  1.0
  O  O37  1  0.26226000  0.91544000  0.48878000  1.0
  O  O38  1  0.73135000  0.07509000  0.49151000  1.0
  O  O39  1  0.73135000  0.91642000  0.42491000  1.0
  O  O40  1  0.73136000  0.00849000  0.58358000  1.0
  O  O41  1  0.26251000  0.25894000  0.08261000  1.0
  O  O42  1  0.26251000  0.41739000  0.17633000  1.0
  O  O43  1  0.26251000  0.32367000  0.24106000  1.0
  O  O44  1  0.73075000  0.32362000  0.08266000  1.0
  O  O45  1  0.73075000  0.25904000  0.17638000  1.0
  O  O46  1  0.73076000  0.41734000  0.24096000  1.0
  F  F47  1  0.51835000  0.77257000  0.26843000  1.0
  F  F48  1  0.51836000  0.23157000  0.50414000  1.0
  F  F49  1  0.51834000  0.99586000  0.72743000  1.0
