# generated using pymatgen
data_Zn4H24C44(N2O5)3
_symmetry_space_group_name_H-M   'P 1'
_cell_length_a   19.18960000
_cell_length_b   19.22700000
_cell_length_c   19.24370000
_cell_angle_alpha   94.90060000
_cell_angle_beta   94.79310000
_cell_angle_gamma   90.13480000
_symmetry_Int_Tables_number   1
_chemical_formula_structural   Zn4H24C44(N2O5)3
_chemical_formula_sum   'Zn4 H24 C44 N6 O15'
_cell_volume   7049.10935293
_cell_formula_units_Z   1
loop_
 _symmetry_equiv_pos_site_id
 _symmetry_equiv_pos_as_xyz
  1  'x, y, z'
loop_
 _atom_site_type_symbol
 _atom_site_label
 _atom_site_symmetry_multiplicity
 _atom_site_fract_x
 _atom_site_fract_y
 _atom_site_fract_z
 _atom_site_occupancy
  Zn  Zn0  1  0.44043000  0.55774000  0.43934000  1.0
  Zn  Zn1  1  0.55437000  0.43767000  0.43960000  1.0
  Zn  Zn2  1  0.44173000  0.44649000  0.55428000  1.0
  Zn  Zn3  1  0.56377000  0.55955000  0.56537000  1.0
  H  H4  1  0.90140000  0.44731000  0.41239000  1.0
  H  H5  1  0.56000000  0.61994000  0.91338000  1.0
  H  H6  1  0.49322000  0.09993000  0.59733000  1.0
  H  H7  1  0.56310000  0.61181000  0.78196000  1.0
  H  H8  1  0.52995000  0.38404000  0.22498000  1.0
  H  H9  1  0.44693000  0.42512000  0.89680000  1.0
  H  H10  1  0.52933000  0.37697000  0.09348000  1.0
  H  H11  1  0.44726000  0.41861000  0.76576000  1.0
  H  H12  1  0.52135000  0.90957000  0.63353000  1.0
  H  H13  1  0.49882000  0.22365000  0.38108000  1.0
  H  H14  1  0.49309000  0.89803000  0.40917000  1.0
  H  H15  1  0.09137000  0.55326000  0.38358000  1.0
  H  H16  1  0.49119000  0.76735000  0.40512000  1.0
  H  H17  1  0.76990000  0.44163000  0.40745000  1.0
  H  H18  1  0.51191000  0.29319000  0.63004000  1.0
  H  H19  1  0.53142000  0.81122000  0.69630000  1.0
  H  H20  1  0.49487000  0.09235000  0.37317000  1.0
  H  H21  1  0.22319000  0.55667000  0.39134000  1.0
  H  H22  1  0.77639000  0.53851000  0.61756000  1.0
  H  H23  1  0.09819000  0.44969000  0.57315000  1.0
  H  H24  1  0.90825000  0.53892000  0.62451000  1.0
  H  H25  1  0.22966000  0.44938000  0.57868000  1.0
  H  H26  1  0.45030000  0.59274000  0.22491000  1.0
  H  H27  1  0.45509000  0.58769000  0.09410000  1.0
  C  C28  1  0.68790000  0.49105000  0.50817000  1.0
  C  C29  1  0.49522000  0.12330000  0.42338000  1.0
  C  C30  1  0.23377000  0.50328000  0.48547000  1.0
  C  C31  1  0.31172000  0.50280000  0.48912000  1.0
  C  C32  1  0.19878000  0.47284000  0.53683000  1.0
  C  C33  1  0.12636000  0.47278000  0.53384000  1.0
  C  C34  1  0.08795000  0.50224000  0.47836000  1.0
  C  C35  1  0.12261000  0.53140000  0.42623000  1.0
  C  C36  1  0.19526000  0.53309000  0.43050000  1.0
  C  C37  1  0.87323000  0.46679000  0.45681000  1.0
  C  C38  1  0.80077000  0.46392000  0.45419000  1.0
  C  C39  1  0.50754000  0.91136000  0.52184000  1.0
  C  C40  1  0.91157000  0.49477000  0.51842000  1.0
  C  C41  1  0.76585000  0.49069000  0.51193000  1.0
  C  C42  1  0.80439000  0.51819000  0.57336000  1.0
  C  C43  1  0.49181000  0.49303000  0.31020000  1.0
  C  C44  1  0.87696000  0.51874000  0.57719000  1.0
  C  C45  1  0.50613000  0.51441000  0.76678000  1.0
  C  C46  1  0.47263000  0.46188000  0.79870000  1.0
  C  C47  1  0.47221000  0.46537000  0.87092000  1.0
  C  C48  1  0.50448000  0.52244000  0.91202000  1.0
  C  C49  1  0.53633000  0.57591000  0.88018000  1.0
  C  C50  1  0.51527000  0.87765000  0.58365000  1.0
  C  C51  1  0.53818000  0.57134000  0.80785000  1.0
  C  C52  1  0.47105000  0.54362000  0.12353000  1.0
  C  C53  1  0.46870000  0.54630000  0.19563000  1.0
  C  C54  1  0.49404000  0.48248000  0.08716000  1.0
  C  C55  1  0.50648000  0.50979000  0.68908000  1.0
  C  C56  1  0.49090000  0.48907000  0.23239000  1.0
  C  C57  1  0.51319000  0.42798000  0.19573000  1.0
  C  C58  1  0.51324000  0.42410000  0.12332000  1.0
  C  C59  1  0.49550000  0.31243000  0.49387000  1.0
  C  C60  1  0.50564000  0.68646000  0.51021000  1.0
  C  C61  1  0.51267000  0.80486000  0.58213000  1.0
  C  C62  1  0.50488000  0.76486000  0.51690000  1.0
  C  C63  1  0.49786000  0.79891000  0.45511000  1.0
  C  C64  1  0.49899000  0.87134000  0.45700000  1.0
  C  C65  1  0.49548000  0.23740000  0.62564000  1.0
  C  C66  1  0.51161000  0.77467000  0.65047000  1.0
  C  C67  1  0.49380000  0.12670000  0.54972000  1.0
  C  C68  1  0.49363000  0.19952000  0.55443000  1.0
  C  C69  1  0.49499000  0.08835000  0.48452000  1.0
  C  C70  1  0.49601000  0.23444000  0.49284000  1.0
  C  C71  1  0.49712000  0.19581000  0.42788000  1.0
  N  N72  1  0.50836000  0.98505000  0.53075000  1.0
  N  N73  1  0.49531000  0.01462000  0.47486000  1.0
  N  N74  1  0.01409000  0.50267000  0.47016000  1.0
  N  N75  1  0.98525000  0.49899000  0.52658000  1.0
  N  N76  1  0.50543000  0.53077000  0.98582000  1.0
  N  N77  1  0.49749000  0.47439000  0.01394000  1.0
  O  O78  1  0.50014000  0.50061000  0.49936000  1.0
  O  O79  1  0.53652000  0.33893000  0.45434000  1.0
  O  O80  1  0.55768000  0.65698000  0.54034000  1.0
  O  O81  1  0.45358000  0.34483000  0.53299000  1.0
  O  O82  1  0.45502000  0.65735000  0.47122000  1.0
  O  O83  1  0.48141000  0.20914000  0.67744000  1.0
  O  O84  1  0.48902000  0.71680000  0.65895000  1.0
  O  O85  1  0.46126000  0.54480000  0.34061000  1.0
  O  O86  1  0.54483000  0.55354000  0.66309000  1.0
  O  O87  1  0.65516000  0.45595000  0.45587000  1.0
  O  O88  1  0.34285000  0.46861000  0.53652000  1.0
  O  O89  1  0.66011000  0.52683000  0.55740000  1.0
  O  O90  1  0.34100000  0.53621000  0.44464000  1.0
  O  O91  1  0.52374000  0.44418000  0.34048000  1.0
  O  O92  1  0.46829000  0.46180000  0.65471000  1.0
