# generated using pymatgen
data_CaH8C2(N4O3)2
_symmetry_space_group_name_H-M   'P 1'
_cell_length_a   5.57790000
_cell_length_b   6.47701959
_cell_length_c   14.81950000
_cell_angle_alpha   89.44692124
_cell_angle_beta   79.17100000
_cell_angle_gamma   64.49694505
_symmetry_Int_Tables_number   1
_chemical_formula_structural   CaH8C2(N4O3)2
_chemical_formula_sum   'Ca2 H16 C4 N16 O12'
_cell_volume   473.09277716
_cell_formula_units_Z   2
loop_
 _symmetry_equiv_pos_site_id
 _symmetry_equiv_pos_as_xyz
  1  'x, y, z'
loop_
 _atom_site_type_symbol
 _atom_site_label
 _atom_site_symmetry_multiplicity
 _atom_site_fract_x
 _atom_site_fract_y
 _atom_site_fract_z
 _atom_site_occupancy
  Ca  Ca0  1  0.72725000  0.74987000  0.25000000  1.0
  Ca  Ca1  1  0.27275000  0.25013000  0.75000000  1.0
  H  H2  1  0.08866000  0.92121000  0.12060000  1.0
  H  H3  1  0.13071000  0.57873000  0.37940000  1.0
  H  H4  1  0.91134000  0.07879000  0.87940000  1.0
  H  H5  1  0.86928000  0.42128000  0.62060000  1.0
  H  H6  1  0.64550000  0.31082000  0.28001000  1.0
  H  H7  1  0.23637000  0.18887000  0.22006000  1.0
  H  H8  1  0.35449000  0.68919000  0.71999000  1.0
  H  H9  1  0.76361000  0.81114000  0.77993000  1.0
  H  H10  1  0.44134000  0.45720000  0.21850000  1.0
  H  H11  1  0.11709000  0.04264000  0.28165000  1.0
  H  H12  1  0.55865000  0.54280000  0.78150000  1.0
  H  H13  1  0.88289000  0.95737000  0.71835000  1.0
  H  H14  1  0.78446000  0.07285000  0.10888000  1.0
  H  H15  1  0.96642000  0.42712000  0.39109000  1.0
  H  H16  1  0.21553000  0.92715000  0.89112000  1.0
  H  H17  1  0.03358000  0.57288000  0.60891000  1.0
  C  C18  1  0.14170000  0.42867000  0.99729000  1.0
  C  C19  1  0.56762000  0.07135000  0.50271000  1.0
  C  C20  1  0.85834000  0.57132000  0.00270000  1.0
  C  C21  1  0.43237000  0.92865000  0.49729000  1.0
  N  N22  1  0.53507000  0.24457000  0.03761000  1.0
  N  N23  1  0.81732000  0.25533000  0.46247000  1.0
  N  N24  1  0.46494000  0.75542000  0.96239000  1.0
  N  N25  1  0.18267000  0.74467000  0.53753000  1.0
  N  N26  1  0.32965000  0.31863000  0.92096000  1.0
  N  N27  1  0.56902000  0.18152000  0.57903000  1.0
  N  N28  1  0.67038000  0.68136000  0.07903000  1.0
  N  N29  1  0.43098000  0.81848000  0.42097000  1.0
  N  N30  1  0.56545000  0.20893000  0.94807000  1.0
  N  N31  1  0.72229000  0.29115000  0.55198000  1.0
  N  N32  1  0.43458000  0.79105000  0.05192000  1.0
  N  N33  1  0.27770000  0.70885000  0.44802000  1.0
  N  N34  1  0.26976000  0.38157000  0.07036000  1.0
  N  N35  1  0.72183000  0.11829000  0.42973000  1.0
  N  N36  1  0.73024000  0.61843000  0.92964000  1.0
  N  N37  1  0.27817000  0.88171000  0.57028000  1.0
  O  O38  1  0.57417000  0.46055000  0.25315000  1.0
  O  O39  1  0.28789000  0.03918000  0.24697000  1.0
  O  O40  1  0.42582000  0.53945000  0.74685000  1.0
  O  O41  1  0.71211000  0.96082000  0.75303000  1.0
  O  O42  1  0.17567000  0.44464000  0.15822000  1.0
  O  O43  1  0.77889000  0.05510000  0.34191000  1.0
  O  O44  1  0.82431000  0.55537000  0.84179000  1.0
  O  O45  1  0.22111000  0.94490000  0.65809000  1.0
  O  O46  1  0.89528000  0.97135000  0.15013000  1.0
  O  O47  1  0.01708000  0.52848000  0.34982000  1.0
  O  O48  1  0.10473000  0.02865000  0.84988000  1.0
  O  O49  1  0.98290000  0.47153000  0.65018000  1.0
