# generated using pymatgen
data_Zn2H13C21N3O7
_symmetry_space_group_name_H-M   'P 1'
_cell_length_a   10.07490000
_cell_length_b   10.70480000
_cell_length_c   11.13860000
_cell_angle_alpha   80.35410000
_cell_angle_beta   65.52790000
_cell_angle_gamma   63.42330000
_symmetry_Int_Tables_number   1
_chemical_formula_structural   Zn2H13C21N3O7
_chemical_formula_sum   'Zn4 H26 C42 N6 O14'
_cell_volume   977.61171182
_cell_formula_units_Z   2
loop_
 _symmetry_equiv_pos_site_id
 _symmetry_equiv_pos_as_xyz
  1  'x, y, z'
loop_
 _atom_site_type_symbol
 _atom_site_label
 _atom_site_symmetry_multiplicity
 _atom_site_fract_x
 _atom_site_fract_y
 _atom_site_fract_z
 _atom_site_occupancy
  Zn  Zn0  1  0.81170000  0.56307000  0.57030000  1.0
  Zn  Zn1  1  0.18830000  0.43693000  0.42970000  1.0
  Zn  Zn2  1  0.07114000  0.31058000  0.71750000  1.0
  Zn  Zn3  1  0.92886000  0.68942000  0.28250000  1.0
  H  H4  1  0.56389000  0.96657000  0.59704000  1.0
  H  H5  1  0.43611000  0.03343000  0.40297000  1.0
  H  H6  1  0.59535000  0.36011000  0.56281000  1.0
  H  H7  1  0.40465000  0.63989000  0.43718000  1.0
  H  H8  1  0.94090000  0.99139000  0.66523000  1.0
  H  H9  1  0.05910000  0.00860000  0.33477000  1.0
  H  H10  1  0.28633000  0.52315000  0.68015000  1.0
  H  H11  1  0.71367000  0.47685000  0.31985000  1.0
  H  H12  1  0.44031000  0.54134000  0.79866000  1.0
  H  H13  1  0.55969000  0.45866000  0.20134000  1.0
  H  H14  1  0.41402000  0.42717000  0.02086000  1.0
  H  H15  1  0.58598000  0.57283000  0.97914000  1.0
  H  H16  1  0.23718000  0.30248000  0.11166000  1.0
  H  H17  1  0.76281000  0.69753000  0.88834000  1.0
  H  H18  1  0.78013000  0.18493000  0.86238000  1.0
  H  H19  1  0.21987000  0.81507000  0.13762000  1.0
  H  H20  1  0.61498000  0.08040000  0.04140000  1.0
  H  H21  1  0.38502000  0.91960000  0.95860000  1.0
  H  H22  1  0.63940000  0.03141000  0.25835000  1.0
  H  H23  1  0.36060000  0.96859000  0.74165000  1.0
  H  H24  1  0.81926000  0.09545000  0.30854000  1.0
  H  H25  1  0.18074000  0.90455000  0.69146000  1.0
  H  H26  1  0.03391000  0.22997000  0.18817000  1.0
  H  H27  1  0.96609000  0.77003000  0.81183000  1.0
  H  H28  1  0.00857000  0.56847000  0.65372000  1.0
  H  H29  1  0.99143000  0.43153000  0.34628000  1.0
  C  C30  1  0.82000000  0.80841000  0.65517000  1.0
  C  C31  1  0.18001000  0.19159000  0.34482000  1.0
  C  C32  1  0.75912000  0.96243000  0.63232000  1.0
  C  C33  1  0.24088000  0.03757000  0.36768000  1.0
  C  C34  1  0.62197000  0.02875000  0.60210000  1.0
  C  C35  1  0.37803000  0.97125000  0.39790000  1.0
  C  C36  1  0.56235000  0.17137000  0.57626000  1.0
  C  C37  1  0.43765000  0.82863000  0.42374000  1.0
  C  C38  1  0.40747000  0.24261000  0.55550000  1.0
  C  C39  1  0.59253000  0.75739000  0.44450000  1.0
  C  C40  1  0.64052000  0.24866000  0.58180000  1.0
  C  C41  1  0.35948000  0.75134000  0.41820000  1.0
  C  C42  1  0.77407000  0.18469000  0.61741000  1.0
  C  C43  1  0.22593000  0.81531000  0.38258000  1.0
  C  C44  1  0.84288000  0.27419000  0.63743000  1.0
  C  C45  1  0.15712000  0.72581000  0.36257000  1.0
  C  C46  1  0.83500000  0.04105000  0.64050000  1.0
  C  C47  1  0.16500000  0.95895000  0.35951000  1.0
  C  C48  1  0.27859000  0.47536000  0.77607000  1.0
  C  C49  1  0.72141000  0.52464000  0.22393000  1.0
  C  C50  1  0.36400000  0.48580000  0.84302000  1.0
  C  C51  1  0.63600000  0.51420000  0.15698000  1.0
  C  C52  1  0.34970000  0.42210000  0.96488000  1.0
  C  C53  1  0.65029000  0.57790000  0.03513000  1.0
  C  C54  1  0.25151000  0.35098000  0.01582000  1.0
  C  C55  1  0.74849000  0.64903000  0.98418000  1.0
  C  C56  1  0.17078000  0.34548000  0.94166000  1.0
  C  C57  1  0.82922000  0.65452000  0.05835000  1.0
  C  C58  1  0.06209000  0.27663000  0.98546000  1.0
  C  C59  1  0.93791000  0.72337000  0.01454000  1.0
  C  C60  1  0.90258000  0.17514000  0.11104000  1.0
  C  C61  1  0.09742000  0.82486000  0.88896000  1.0
  C  C62  1  0.89360000  0.20026000  0.98475000  1.0
  C  C63  1  0.10640000  0.79974000  0.01525000  1.0
  C  C64  1  0.78914000  0.16645000  0.95808000  1.0
  C  C65  1  0.21086000  0.83355000  0.04192000  1.0
  C  C66  1  0.69787000  0.10737000  0.05899000  1.0
  C  C67  1  0.30213000  0.89263000  0.94101000  1.0
  C  C68  1  0.70960000  0.08123000  0.18341000  1.0
  C  C69  1  0.29040000  0.91877000  0.81659000  1.0
  C  C70  1  0.81147000  0.11518000  0.21207000  1.0
  C  C71  1  0.18853000  0.88482000  0.78793000  1.0
  N  N72  1  0.99567000  0.26279000  0.90868000  1.0
  N  N73  1  0.00433000  0.73720000  0.09132000  1.0
  N  N74  1  0.01040000  0.22363000  0.10682000  1.0
  N  N75  1  0.98960000  0.77637000  0.89318000  1.0
  N  N76  1  0.18487000  0.40666000  0.82325000  1.0
  N  N77  1  0.81513000  0.59334000  0.17675000  1.0
  O  O78  1  0.73560000  0.74986000  0.65154000  1.0
  O  O79  1  0.26440000  0.25014000  0.34846000  1.0
  O  O80  1  0.94886000  0.74457000  0.67770000  1.0
  O  O81  1  0.05114000  0.25542000  0.32230000  1.0
  O  O82  1  0.38638000  0.34988000  0.48403000  1.0
  O  O83  1  0.61362000  0.65011000  0.51597000  1.0
  O  O84  1  0.30562000  0.19024000  0.61691000  1.0
  O  O85  1  0.69439000  0.80976000  0.38309000  1.0
  O  O86  1  0.98002000  0.21449000  0.64552000  1.0
  O  O87  1  0.01998000  0.78551000  0.35448000  1.0
  O  O88  1  0.75252000  0.40534000  0.65064000  1.0
  O  O89  1  0.24748000  0.59466000  0.34936000  1.0
  O  O90  1  0.01834000  0.48380000  0.61830000  1.0
  O  O91  1  0.98166000  0.51620000  0.38170000  1.0
