# generated using pymatgen
data_Zn4C40Br16N4O21
_symmetry_space_group_name_H-M   'P 1'
_cell_length_a   23.61699606
_cell_length_b   23.61710000
_cell_length_c   23.61600000
_cell_angle_alpha   107.36900000
_cell_angle_beta   113.78140274
_cell_angle_gamma   107.35202533
_symmetry_Int_Tables_number   1
_chemical_formula_structural   Zn4C40Br16N4O21
_chemical_formula_sum   'Zn8 C80 Br32 N8 O42'
_cell_volume   10096.46743065
_cell_formula_units_Z   2
loop_
 _symmetry_equiv_pos_site_id
 _symmetry_equiv_pos_as_xyz
  1  'x, y, z'
loop_
 _atom_site_type_symbol
 _atom_site_label
 _atom_site_symmetry_multiplicity
 _atom_site_fract_x
 _atom_site_fract_y
 _atom_site_fract_z
 _atom_site_occupancy
  Zn  Zn0  1  0.51598000  0.55746000  0.45708000  1.0
  Zn  Zn1  1  0.54291000  0.44252000  0.48402000  1.0
  Zn  Zn2  1  0.54152000  0.55750000  0.60039000  1.0
  Zn  Zn3  1  0.39966000  0.44256000  0.45852000  1.0
  Zn  Zn4  1  0.98404000  0.44113000  0.04148000  1.0
  Zn  Zn5  1  0.95710000  0.44111000  0.89959000  1.0
  Zn  Zn6  1  0.95851000  0.55887000  0.01598000  1.0
  Zn  Zn7  1  0.10039000  0.55890000  0.04291000  1.0
  C  C8  1  0.58963000  0.49999000  0.41043000  1.0
  C  C9  1  0.63598000  0.50000000  0.63599000  1.0
  C  C10  1  0.58930000  0.67860000  0.58930000  1.0
  C  C11  1  0.41043000  0.50003000  0.58961000  1.0
  C  C12  1  0.36402000  0.49999000  0.36401000  1.0
  C  C13  1  0.41071000  0.32142000  0.41072000  1.0
  C  C14  1  0.91039000  0.32081000  0.91037000  1.0
  C  C15  1  0.86403000  0.50000000  0.86402000  1.0
  C  C16  1  0.91072000  0.50000000  0.08930000  1.0
  C  C17  1  0.08956000  0.67919000  0.08957000  1.0
  C  C18  1  0.13598000  0.50000000  0.13598000  1.0
  C  C19  1  0.08930000  0.50003000  0.91069000  1.0
  C  C20  1  0.30544000  0.49999000  0.30544000  1.0
  C  C21  1  0.19456000  0.50000000  0.19456000  1.0
  C  C22  1  0.23435000  0.45843000  0.27805000  1.0
  C  C23  1  0.26566000  0.54371000  0.22409000  1.0
  C  C24  1  0.18039000  0.45629000  0.22195000  1.0
  C  C25  1  0.31961000  0.54156000  0.27591000  1.0
  C  C26  1  0.69456000  0.50000000  0.69456000  1.0
  C  C27  1  0.80545000  0.50000000  0.80545000  1.0
  C  C28  1  0.72196000  0.54158000  0.76567000  1.0
  C  C29  1  0.77591000  0.45629000  0.73433000  1.0
  C  C30  1  0.77805000  0.54371000  0.81963000  1.0
  C  C31  1  0.72408000  0.45842000  0.68037000  1.0
  C  C32  1  0.87238000  0.24481000  0.87236000  1.0
  C  C33  1  0.83692000  0.20908000  0.89641000  1.0
  C  C34  1  0.80214000  0.13833000  0.86151000  1.0
  C  C35  1  0.80096000  0.10190000  0.80092000  1.0
  C  C36  1  0.83619000  0.13831000  0.77675000  1.0
  C  C37  1  0.87212000  0.20906000  0.81258000  1.0
  C  C38  1  0.76531000  0.03059000  0.76526000  1.0
  C  C39  1  0.73450000  0.96896000  0.73447000  1.0
  C  C40  1  0.69883000  0.89766000  0.69883000  1.0
  C  C41  1  0.71711000  0.86127000  0.73476000  1.0
  C  C42  1  0.68203000  0.79049000  0.69921000  1.0
  C  C43  1  0.62733000  0.75466000  0.62732000  1.0
  C  C44  1  0.60846000  0.79048000  0.59128000  1.0
  C  C45  1  0.64414000  0.86126000  0.62651000  1.0
  C  C46  1  0.12753000  0.75519000  0.12759000  1.0
  C  C47  1  0.18730000  0.79095000  0.12787000  1.0
  C  C48  1  0.22313000  0.86171000  0.16385000  1.0
  C  C49  1  0.19895000  0.89809000  0.19912000  1.0
  C  C50  1  0.13837000  0.86165000  0.19793000  1.0
  C  C51  1  0.10349000  0.79090000  0.16309000  1.0
  C  C52  1  0.23460000  0.96940000  0.23479000  1.0
  C  C53  1  0.26544000  0.03102000  0.26559000  1.0
  C  C54  1  0.30112000  0.10233000  0.30121000  1.0
  C  C55  1  0.37346000  0.13873000  0.35586000  1.0
  C  C56  1  0.40870000  0.20951000  0.39153000  1.0
  C  C57  1  0.37266000  0.24534000  0.37267000  1.0
  C  C58  1  0.30079000  0.20953000  0.31800000  1.0
  C  C59  1  0.26521000  0.13874000  0.28292000  1.0
  C  C60  1  0.87269000  0.50000000  0.12734000  1.0
  C  C61  1  0.89156000  0.48281000  0.18203000  1.0
  C  C62  1  0.85586000  0.48232000  0.21711000  1.0
  C  C63  1  0.80117000  0.49996000  0.19882000  1.0
  C  C64  1  0.78290000  0.51764000  0.14417000  1.0
  C  C65  1  0.81801000  0.51719000  0.10849000  1.0
  C  C66  1  0.76549000  0.49990000  0.23445000  1.0
  C  C67  1  0.73468000  0.49988000  0.26526000  1.0
  C  C68  1  0.69903000  0.49990000  0.30092000  1.0
  C  C69  1  0.66379000  0.44051000  0.30211000  1.0
  C  C70  1  0.62785000  0.44043000  0.33692000  1.0
  C  C71  1  0.62762000  0.49997000  0.37242000  1.0
  C  C72  1  0.66310000  0.55946000  0.37215000  1.0
  C  C73  1  0.69788000  0.55933000  0.33618000  1.0
  C  C74  1  0.12733000  0.50003000  0.87265000  1.0
  C  C75  1  0.09128000  0.48286000  0.80078000  1.0
  C  C76  1  0.12651000  0.48241000  0.76522000  1.0
  C  C77  1  0.19883000  0.50007000  0.80116000  1.0
  C  C78  1  0.23474000  0.51765000  0.87346000  1.0
  C  C79  1  0.19919000  0.51719000  0.90870000  1.0
  C  C80  1  0.23451000  0.50012000  0.76553000  1.0
  C  C81  1  0.26534000  0.50017000  0.73473000  1.0
  C  C82  1  0.30098000  0.50014000  0.69906000  1.0
  C  C83  1  0.27681000  0.44070000  0.63850000  1.0
  C  C84  1  0.31267000  0.44057000  0.60360000  1.0
  C  C85  1  0.37245000  0.50007000  0.62763000  1.0
  C  C86  1  0.39647000  0.55960000  0.68738000  1.0
  C  C87  1  0.36157000  0.55954000  0.72323000  1.0
  Br  Br88  1  0.83292000  0.25657000  0.97379000  1.0
  Br  Br89  1  0.92361000  0.25653000  0.78271000  1.0
  Br  Br90  1  0.83337000  0.08867000  0.69569000  1.0
  Br  Br91  1  0.75540000  0.08873333  0.89298000  1.0
  Br  Br92  1  0.78982000  0.91108000  0.83113000  1.0
  Br  Br93  1  0.62124000  0.91107000  0.57996000  1.0
  Br  Br94  1  0.53264000  0.74349000  0.49578000  1.0
  Br  Br95  1  0.71085000  0.74349000  0.74771000  1.0
  Br  Br96  1  0.21719000  0.74351000  0.07636000  1.0
  Br  Br97  1  0.02613000  0.74340000  0.16707000  1.0
  Br  Br98  1  0.10693000  0.91124000  0.24476000  1.0
  Br  Br99  1  0.30419000  0.91135000  0.16672000  1.0
  Br  Br100  1  0.42000000  0.08891000  0.37875000  1.0
  Br  Br101  1  0.16884000  0.08896000  0.21025000  1.0
  Br  Br102  1  0.25231000  0.25654000  0.28919000  1.0
  Br  Br103  1  0.50421000  0.25649000  0.46734000  1.0
  Br  Br104  1  0.96737000  0.46311000  0.21083000  1.0
  Br  Br105  1  0.78920000  0.53690000  0.03269000  1.0
  Br  Br106  1  0.71020000  0.54130000  0.12128000  1.0
  Br  Br107  1  0.87873000  0.45860000  0.28977000  1.0
  Br  Br108  1  0.66660000  0.36226000  0.25532000  1.0
  Br  Br109  1  0.74464000  0.63753000  0.33331000  1.0
  Br  Br110  1  0.66714000  0.64085000  0.42366000  1.0
  Br  Br111  1  0.57635000  0.35908000  0.33292000  1.0
  Br  Br112  1  0.99578000  0.46317000  0.75228000  1.0
  Br  Br113  1  0.24769000  0.53686000  0.00420000  1.0
  Br  Br114  1  0.33109000  0.54127000  0.92000000  1.0
  Br  Br115  1  0.07997000  0.45878000  0.66886000  1.0
  Br  Br116  1  0.19574000  0.36251000  0.60706000  1.0
  Br  Br117  1  0.39300000  0.63780000  0.80427000  1.0
  Br  Br118  1  0.47385000  0.64095000  0.71726000  1.0
  Br  Br119  1  0.28278000  0.35918000  0.52625000  1.0
  N  N120  1  0.21396000  0.41581000  0.30905000  1.0
  N  N121  1  0.28605000  0.59510000  0.20186000  1.0
  N  N122  1  0.10677000  0.40490000  0.19094000  1.0
  N  N123  1  0.39324000  0.58418000  0.29812000  1.0
  N  N124  1  0.69096000  0.58422000  0.78609000  1.0
  N  N125  1  0.79814000  0.40488000  0.71392000  1.0
  N  N126  1  0.80906000  0.59511000  0.89328000  1.0
  N  N127  1  0.70184000  0.41579000  0.60673000  1.0
  O  O128  1  0.50002000  0.50001000  0.50000000  1.0
  O  O129  1  0.54209000  0.51778000  0.39198000  1.0
  O  O130  1  0.59952000  0.44713000  0.57658000  1.0
  O  O131  1  0.56128000  0.64959000  0.61587000  1.0
  O  O132  1  0.60806000  0.48219000  0.45798000  1.0
  O  O133  1  0.58830000  0.64958000  0.53369000  1.0
  O  O134  1  0.62944000  0.55286000  0.65240000  1.0
  O  O135  1  0.47577000  0.51783000  0.62585000  1.0
  O  O136  1  0.34760000  0.44714000  0.37056000  1.0
  O  O137  1  0.37421000  0.48224000  0.52428000  1.0
  O  O138  1  0.42342000  0.55282000  0.40042000  1.0
  O  O139  1  0.46629000  0.35041000  0.41170000  1.0
  O  O140  1  0.38414000  0.35044000  0.43875000  1.0
  O  O141  1  0.00002000  0.50000000  0.99998000  1.0
  O  O142  1  0.95794000  0.34993000  0.97571000  1.0
  O  O143  1  0.90048000  0.47707000  0.84761000  1.0
  O  O144  1  0.93874000  0.55460000  0.08831000  1.0
  O  O145  1  0.89196000  0.34992000  0.87413000  1.0
  O  O146  1  0.91171000  0.44540000  0.06127000  1.0
  O  O147  1  0.87057000  0.52295000  0.92343000  1.0
  O  O148  1  0.02422000  0.65007000  0.04202000  1.0
  O  O149  1  0.15240000  0.52299000  0.09957000  1.0
  O  O150  1  0.12580000  0.65010000  0.10801000  1.0
  O  O151  1  0.07658000  0.47703000  0.12942000  1.0
  O  O152  1  0.03372000  0.44543000  0.88411000  1.0
  O  O153  1  0.11588000  0.55463000  0.96630000  1.0
  O  O154  1  0.22555000  0.44602000  0.36808000  1.0
  O  O155  1  0.18514000  0.35414000  0.27131000  1.0
  O  O156  1  0.27449000  0.64257000  0.22051000  1.0
  O  O157  1  0.31486000  0.58618000  0.16900000  1.0
  O  O158  1  0.07794000  0.35744000  0.13190000  1.0
  O  O159  1  0.08284000  0.41380000  0.22868000  1.0
  O  O160  1  0.42204000  0.55396000  0.27947000  1.0
  O  O161  1  0.41717000  0.64584000  0.33096000  1.0
  O  O162  1  0.63194000  0.55402000  0.77451000  1.0
  O  O163  1  0.72869000  0.64588000  0.81491000  1.0
  O  O164  1  0.77952000  0.35744000  0.72550000  1.0
  O  O165  1  0.83097000  0.41378000  0.68509000  1.0
  O  O166  1  0.86809000  0.64255000  0.92211000  1.0
  O  O167  1  0.77133000  0.58621000  0.91721000  1.0
  O  O168  1  0.72045000  0.44599000  0.57790000  1.0
  O  O169  1  0.66902000  0.35413000  0.58280000  1.0
