# generated using pymatgen
data_ZnH26C30S2(N5O2)2
_symmetry_space_group_name_H-M   'P 1'
_cell_length_a   11.33450000
_cell_length_b   13.28330000
_cell_length_c   13.69340000
_cell_angle_alpha   71.65180000
_cell_angle_beta   65.56510000
_cell_angle_gamma   64.78400000
_symmetry_Int_Tables_number   1
_chemical_formula_structural   ZnH26C30S2(N5O2)2
_chemical_formula_sum   'Zn2 H52 C60 S4 N20 O8'
_cell_volume   1673.94849941
_cell_formula_units_Z   2
loop_
 _symmetry_equiv_pos_site_id
 _symmetry_equiv_pos_as_xyz
  1  'x, y, z'
loop_
 _atom_site_type_symbol
 _atom_site_label
 _atom_site_symmetry_multiplicity
 _atom_site_fract_x
 _atom_site_fract_y
 _atom_site_fract_z
 _atom_site_occupancy
  Zn  Zn0  1  0.85709000  0.24997000  0.75006000  1.0
  Zn  Zn1  1  0.14291000  0.75003000  0.24994000  1.0
  H  H2  1  0.48940000  0.37471000  0.46381000  1.0
  H  H3  1  0.32797000  0.12504000  0.03650000  1.0
  H  H4  1  0.51060000  0.62529000  0.53619000  1.0
  H  H5  1  0.67203000  0.87496000  0.96350000  1.0
  H  H6  1  0.74654000  0.07777000  0.74840000  1.0
  H  H7  1  0.57318000  0.42178000  0.75155000  1.0
  H  H8  1  0.25346000  0.92223000  0.25160000  1.0
  H  H9  1  0.42682000  0.57822000  0.24845000  1.0
  H  H10  1  0.29165000  0.09396000  0.86636000  1.0
  H  H11  1  0.25260000  0.40571000  0.63327000  1.0
  H  H12  1  0.70834000  0.90604000  0.13364000  1.0
  H  H13  1  0.74740000  0.59430000  0.36674000  1.0
  H  H14  1  0.07185000  0.10087000  0.86233000  1.0
  H  H15  1  0.03537000  0.39909000  0.63755000  1.0
  H  H16  1  0.92815000  0.89913000  0.13767000  1.0
  H  H17  1  0.96463000  0.60091000  0.36245000  1.0
  H  H18  1  0.05263000  0.94421000  0.76831000  1.0
  H  H19  1  0.76536000  0.55583000  0.73180000  1.0
  H  H20  1  0.94736000  0.05579000  0.23170000  1.0
  H  H21  1  0.23464000  0.44417000  0.26820000  1.0
  H  H22  1  0.53073000  0.07020000  0.74750000  1.0
  H  H23  1  0.34907000  0.42942000  0.75208000  1.0
  H  H24  1  0.46927000  0.92980000  0.25250000  1.0
  H  H25  1  0.65093000  0.57058000  0.24792000  1.0
  H  H26  1  0.97743000  0.34631000  0.25149000  1.0
  H  H27  1  0.57560000  0.15362000  0.24857000  1.0
  H  H28  1  0.02257000  0.65369000  0.74850000  1.0
  H  H29  1  0.42440000  0.84638000  0.75143000  1.0
  H  H30  1  0.63751000  0.38114000  0.55111000  1.0
  H  H31  1  0.56983000  0.11853000  0.94912000  1.0
  H  H32  1  0.36249000  0.61886000  0.44889000  1.0
  H  H33  1  0.43017000  0.88147000  0.05088000  1.0
  H  H34  1  0.83011000  0.33745000  0.16203000  1.0
  H  H35  1  0.32992000  0.16266000  0.33815000  1.0
  H  H36  1  0.16989000  0.66255000  0.83797000  1.0
  H  H37  1  0.67008000  0.83735000  0.66185000  1.0
  H  H38  1  0.21427000  0.84646000  0.60357000  1.0
  H  H39  1  0.66433000  0.65361000  0.89661000  1.0
  H  H40  1  0.78572000  0.15354000  0.39643000  1.0
  H  H41  1  0.33567000  0.34639000  0.10339000  1.0
  H  H42  1  0.21918000  0.96576000  0.41880000  1.0
  H  H43  1  0.60344000  0.53430000  0.08135000  1.0
  H  H44  1  0.78082000  0.03424000  0.58120000  1.0
  H  H45  1  0.39656000  0.46570000  0.91865000  1.0
  H  H46  1  0.60608000  0.34417000  0.17683000  1.0
  H  H47  1  0.12734000  0.15592000  0.32337000  1.0
  H  H48  1  0.39392000  0.65583000  0.82316000  1.0
  H  H49  1  0.87267000  0.84408000  0.67663000  1.0
  H  H50  1  0.47104000  0.35301000  0.30195000  1.0
  H  H51  1  0.12625000  0.14697000  0.19826000  1.0
  H  H52  1  0.52896000  0.64699000  0.69805000  1.0
  H  H53  1  0.87376000  0.85303000  0.80174000  1.0
  C  C54  1  0.00221000  0.15934000  0.56888000  1.0
  C  C55  1  0.73034000  0.34070000  0.93122000  1.0
  C  C56  1  0.99779000  0.84066000  0.43112000  1.0
  C  C57  1  0.26966000  0.65931000  0.06878000  1.0
  C  C58  1  0.06295000  0.98866000  0.68471000  1.0
  C  C59  1  0.73653000  0.51136000  0.81539000  1.0
  C  C60  1  0.93704000  0.01134000  0.31529000  1.0
  C  C61  1  0.26348000  0.48864000  0.18461000  1.0
  C  C62  1  0.15249000  0.93559000  0.59467000  1.0
  C  C63  1  0.68283000  0.56445000  0.90547000  1.0
  C  C64  1  0.84750000  0.06441000  0.40533000  1.0
  C  C65  1  0.31717000  0.43555000  0.09453000  1.0
  C  C66  1  0.15521000  0.00229000  0.49301000  1.0
  C  C67  1  0.65038000  0.49776000  0.00713000  1.0
  C  C68  1  0.84479000  0.99771000  0.50699000  1.0
  C  C69  1  0.34962000  0.50224000  0.99287000  1.0
  C  C70  1  0.81790000  0.36150000  0.40728000  1.0
  C  C71  1  0.58685000  0.13833000  0.09288000  1.0
  C  C72  1  0.18210000  0.63850000  0.59271000  1.0
  C  C73  1  0.41315000  0.86167000  0.90712000  1.0
  C  C74  1  0.68015000  0.36999000  0.46642000  1.0
  C  C75  1  0.51671000  0.12972000  0.03379000  1.0
  C  C76  1  0.31986000  0.63001000  0.53358000  1.0
  C  C77  1  0.48330000  0.87028000  0.96621000  1.0
  C  C78  1  0.59697000  0.36664000  0.41740000  1.0
  C  C79  1  0.38115000  0.13311000  0.08286000  1.0
  C  C80  1  0.40304000  0.63336000  0.58260000  1.0
  C  C81  1  0.61885000  0.86689000  0.91714000  1.0
  C  C82  1  0.64913000  0.35528000  0.30631000  1.0
  C  C83  1  0.31095000  0.14470000  0.19390000  1.0
  C  C84  1  0.35087000  0.64472000  0.69369000  1.0
  C  C85  1  0.68905000  0.85529000  0.80610000  1.0
  C  C86  1  0.78845000  0.34729000  0.24725000  1.0
  C  C87  1  0.38326000  0.15269000  0.25295000  1.0
  C  C88  1  0.21155000  0.65271000  0.75275000  1.0
  C  C89  1  0.61674000  0.84731000  0.74705000  1.0
  C  C90  1  0.87094000  0.35105000  0.29724000  1.0
  C  C91  1  0.51952000  0.14883000  0.20291000  1.0
  C  C92  1  0.12906000  0.64895000  0.70275000  1.0
  C  C93  1  0.48048000  0.85117000  0.79709000  1.0
  C  C94  1  0.65597000  0.15386000  0.74880000  1.0
  C  C95  1  0.55902000  0.34571000  0.75106000  1.0
  C  C96  1  0.34403000  0.84614000  0.25120000  1.0
  C  C97  1  0.44098000  0.65429000  0.24894000  1.0
  C  C98  1  0.53528000  0.15005000  0.74886000  1.0
  C  C99  1  0.43469000  0.34955000  0.75076000  1.0
  C  C100  1  0.46472000  0.84995000  0.25114000  1.0
  C  C101  1  0.56532000  0.65045000  0.24924000  1.0
  C  C102  1  0.42119000  0.24980000  0.74976000  1.0
  C  C103  1  0.57881000  0.75020000  0.25024000  1.0
  C  C104  1  0.29132000  0.24981000  0.74976000  1.0
  C  C105  1  0.70868000  0.75019000  0.25024000  1.0
  C  C106  1  0.23942000  0.16285000  0.81367000  1.0
  C  C107  1  0.21649000  0.33679000  0.68589000  1.0
  C  C108  1  0.76058000  0.83715000  0.18633000  1.0
  C  C109  1  0.78351000  0.66321000  0.31411000  1.0
  C  C110  1  0.11587000  0.16643000  0.81214000  1.0
  C  C111  1  0.09480000  0.33341000  0.68758000  1.0
  C  C112  1  0.88412000  0.83357000  0.18787000  1.0
  C  C113  1  0.90520000  0.66659000  0.31242000  1.0
  S  S114  1  0.91867000  0.37270000  0.47098000  1.0
  S  S115  1  0.76239000  0.12737000  0.02918000  1.0
  S  S116  1  0.08134000  0.62730000  0.52902000  1.0
  S  S117  1  0.23761000  0.87263000  0.97083000  1.0
  N  N118  1  0.98694000  0.09798000  0.67231000  1.0
  N  N119  1  0.75734000  0.40205000  0.82777000  1.0
  N  N120  1  0.01305000  0.90203000  0.32769000  1.0
  N  N121  1  0.24266000  0.59795000  0.17223000  1.0
  N  N122  1  0.08211000  0.11288000  0.47798000  1.0
  N  N123  1  0.67278000  0.38717000  0.02212000  1.0
  N  N124  1  0.91789000  0.88712000  0.52202000  1.0
  N  N125  1  0.32722000  0.61283000  0.97788000  1.0
  N  N126  1  0.92759000  0.26991000  0.57292000  1.0
  N  N127  1  0.77037000  0.23010000  0.92715000  1.0
  N  N128  1  0.07241000  0.73009000  0.42708000  1.0
  N  N129  1  0.22963000  0.76990000  0.07285000  1.0
  N  N130  1  0.56673000  0.35548000  0.25683000  1.0
  N  N131  1  0.17920000  0.14473000  0.24335000  1.0
  N  N132  1  0.43327000  0.64452000  0.74317000  1.0
  N  N133  1  0.82081000  0.85527000  0.75665000  1.0
  N  N134  1  0.66806000  0.24979000  0.74999000  1.0
  N  N135  1  0.33194000  0.75020000  0.25001000  1.0
  N  N136  1  0.04533000  0.24998000  0.74992000  1.0
  N  N137  1  0.95467000  0.75002000  0.25007000  1.0
  O  O138  1  0.83720000  0.47280000  0.52237000  1.0
  O  O139  1  0.83261000  0.02716000  0.97792000  1.0
  O  O140  1  0.16279000  0.52720000  0.47763000  1.0
  O  O141  1  0.16740000  0.97283000  0.02208000  1.0
  O  O142  1  0.05281000  0.36740000  0.38960000  1.0
  O  O143  1  0.80968000  0.13303000  0.11052000  1.0
  O  O144  1  0.94718000  0.63261000  0.61040000  1.0
  O  O145  1  0.19032000  0.86697000  0.88948000  1.0
