# generated using pymatgen
data_UCuH8C12N4O11
_symmetry_space_group_name_H-M   'P 1'
_cell_length_a   9.32276000
_cell_length_b   11.80220000
_cell_length_c   15.62260000
_cell_angle_alpha   89.99960000
_cell_angle_beta   99.80930000
_cell_angle_gamma   89.99890000
_symmetry_Int_Tables_number   1
_chemical_formula_structural   UCuH8C12N4O11
_chemical_formula_sum   'U4 Cu4 H32 C48 N16 O44'
_cell_volume   1693.80981108
_cell_formula_units_Z   4
loop_
 _symmetry_equiv_pos_site_id
 _symmetry_equiv_pos_as_xyz
  1  'x, y, z'
loop_
 _atom_site_type_symbol
 _atom_site_label
 _atom_site_symmetry_multiplicity
 _atom_site_fract_x
 _atom_site_fract_y
 _atom_site_fract_z
 _atom_site_occupancy
  U  U0  1  0.75685000  0.63789000  0.42767000  1.0
  U  U1  1  0.74313000  0.13790000  0.57232000  1.0
  U  U2  1  0.24314000  0.36210000  0.57233000  1.0
  U  U3  1  0.25688000  0.86210000  0.42767000  1.0
  Cu  Cu4  1  0.07939000  0.48363000  0.18051000  1.0
  Cu  Cu5  1  0.42059000  0.98363000  0.81948000  1.0
  Cu  Cu6  1  0.92058000  0.51636000  0.81949000  1.0
  Cu  Cu7  1  0.57941000  0.01635000  0.18051000  1.0
  H  H8  1  0.27408000  0.59527000  0.29936000  1.0
  H  H9  1  0.22591000  0.09527000  0.70064000  1.0
  H  H10  1  0.72591000  0.40473000  0.70064000  1.0
  H  H11  1  0.77411000  0.90473000  0.29936000  1.0
  H  H12  1  0.31439000  0.62347000  0.20809000  1.0
  H  H13  1  0.18560000  0.12347000  0.79191000  1.0
  H  H14  1  0.68559000  0.37652000  0.79191000  1.0
  H  H15  1  0.81442000  0.87652000  0.20809000  1.0
  H  H16  1  0.95066000  0.34011000  0.31418000  1.0
  H  H17  1  0.54935000  0.84011000  0.68583000  1.0
  H  H18  1  0.04933000  0.65990000  0.68582000  1.0
  H  H19  1  0.45068000  0.15989000  0.31419000  1.0
  H  H20  1  0.92476000  0.12583000  0.33055000  1.0
  H  H21  1  0.57529000  0.62584000  0.66945000  1.0
  H  H22  1  0.07527000  0.87419000  0.66947000  1.0
  H  H23  1  0.42475000  0.37418000  0.33054000  1.0
  H  H24  1  0.04736000  0.00179000  0.23395000  1.0
  H  H25  1  0.45267000  0.50179000  0.76605000  1.0
  H  H26  1  0.95262000  0.99823000  0.76606000  1.0
  H  H27  1  0.54738000  0.49821000  0.23394000  1.0
  H  H28  1  0.21558000  0.56681000  0.02509000  1.0
  H  H29  1  0.28442000  0.06680000  0.97490000  1.0
  H  H30  1  0.78444000  0.43323000  0.97496000  1.0
  H  H31  1  0.71554000  0.93321000  0.02504000  1.0
  H  H32  1  0.37707000  0.46961000  0.93420000  1.0
  H  H33  1  0.12292000  0.96962000  0.06580000  1.0
  H  H34  1  0.62285000  0.53043000  0.06579000  1.0
  H  H35  1  0.87711000  0.03041000  0.93420000  1.0
  H  H36  1  0.42355000  0.25856000  0.96016000  1.0
  H  H37  1  0.07645000  0.75856000  0.03984000  1.0
  H  H38  1  0.57644000  0.74150000  0.03984000  1.0
  H  H39  1  0.92354000  0.24148000  0.96016000  1.0
  C  C40  1  0.76366000  0.36442000  0.45420000  1.0
  C  C41  1  0.73634000  0.86442000  0.54581000  1.0
  C  C42  1  0.23634000  0.63558000  0.54580000  1.0
  C  C43  1  0.26366000  0.13558000  0.45420000  1.0
  C  C44  1  0.75075000  0.41170000  0.54378000  1.0
  C  C45  1  0.74926000  0.91171000  0.45622000  1.0
  C  C46  1  0.24925000  0.58828000  0.45622000  1.0
  C  C47  1  0.25075000  0.08829000  0.54378000  1.0
  C  C48  1  0.88774000  0.62434000  0.24167000  1.0
  C  C49  1  0.61226000  0.12434000  0.75833000  1.0
  C  C50  1  0.11226000  0.37565000  0.75834000  1.0
  C  C51  1  0.38773000  0.87565000  0.24167000  1.0
  C  C52  1  0.92901000  0.68670000  0.16191000  1.0
  C  C53  1  0.57100000  0.18669000  0.83805000  1.0
  C  C54  1  0.07095000  0.31328000  0.83807000  1.0
  C  C55  1  0.42903000  0.81327000  0.16192000  1.0
  C  C56  1  0.99893000  0.27898000  0.27506000  1.0
  C  C57  1  0.50110000  0.77899000  0.72494000  1.0
  C  C58  1  0.00108000  0.72103000  0.72495000  1.0
  C  C59  1  0.49893000  0.22102000  0.27506000  1.0
  C  C60  1  0.98570000  0.16240000  0.28372000  1.0
  C  C61  1  0.51433000  0.66241000  0.71629000  1.0
  C  C62  1  0.01432000  0.83761000  0.71631000  1.0
  C  C63  1  0.48570000  0.33760000  0.28370000  1.0
  C  C64  1  0.05401000  0.09386000  0.22976000  1.0
  C  C65  1  0.44602000  0.59386000  0.77024000  1.0
  C  C66  1  0.94598000  0.90616000  0.77025000  1.0
  C  C67  1  0.55402000  0.40614000  0.22976000  1.0
  C  C68  1  0.13343000  0.24911000  0.16511000  1.0
  C  C69  1  0.36657000  0.74910000  0.83489000  1.0
  C  C70  1  0.86656000  0.75090000  0.83490000  1.0
  C  C71  1  0.63343000  0.25088000  0.16510000  1.0
  C  C72  1  0.20688000  0.30557000  0.09913000  1.0
  C  C73  1  0.29313000  0.80556000  0.90087000  1.0
  C  C74  1  0.79315000  0.69446000  0.90088000  1.0
  C  C75  1  0.70684000  0.19444000  0.09912000  1.0
  C  C76  1  0.23981000  0.47657000  0.03187000  1.0
  C  C77  1  0.26020000  0.97657000  0.96813000  1.0
  C  C78  1  0.76018000  0.52347000  0.96815000  1.0
  C  C79  1  0.73979000  0.02345000  0.03185000  1.0
  C  C80  1  0.32981000  0.42227000  0.98240000  1.0
  C  C81  1  0.17020000  0.92227000  0.01759000  1.0
  C  C82  1  0.67014000  0.57776000  0.01760000  1.0
  C  C83  1  0.82983000  0.07774000  0.98240000  1.0
  C  C84  1  0.35393000  0.30667000  0.99658000  1.0
  C  C85  1  0.14608000  0.80665000  0.00341000  1.0
  C  C86  1  0.64606000  0.69338000  0.00342000  1.0
  C  C87  1  0.85392000  0.19337000  0.99657000  1.0
  N  N88  1  0.07178000  0.32163000  0.21509000  1.0
  N  N89  1  0.42823000  0.82163000  0.78491000  1.0
  N  N90  1  0.92822000  0.67837000  0.78492000  1.0
  N  N91  1  0.57178000  0.17835000  0.21509000  1.0
  N  N92  1  0.17955000  0.41813000  0.09026000  1.0
  N  N93  1  0.32046000  0.91812000  0.90973000  1.0
  N  N94  1  0.82045000  0.58189000  0.90976000  1.0
  N  N95  1  0.67954000  0.08188000  0.09024000  1.0
  N  N96  1  0.29222000  0.24782000  0.05463000  1.0
  N  N97  1  0.20779000  0.74783000  0.94536000  1.0
  N  N98  1  0.70782000  0.75219000  0.94539000  1.0
  N  N99  1  0.79216000  0.25218000  0.05461000  1.0
  N  N100  1  0.12830000  0.13650000  0.17061000  1.0
  N  N101  1  0.37172000  0.63650000  0.82939000  1.0
  N  N102  1  0.87167000  0.86350000  0.82939000  1.0
  N  N103  1  0.62832000  0.36349000  0.17061000  1.0
  O  O104  1  0.95133000  0.64106000  0.46202000  1.0
  O  O105  1  0.54870000  0.14106000  0.53799000  1.0
  O  O106  1  0.04867000  0.35894000  0.53800000  1.0
  O  O107  1  0.45131000  0.85893000  0.46200000  1.0
  O  O108  1  0.56314000  0.62860000  0.39213000  1.0
  O  O109  1  0.93689000  0.12860000  0.60787000  1.0
  O  O110  1  0.43687000  0.37139000  0.60788000  1.0
  O  O111  1  0.06311000  0.87139000  0.39213000  1.0
  O  O112  1  0.77117000  0.43775000  0.39569000  1.0
  O  O113  1  0.72884000  0.93774000  0.60431000  1.0
  O  O114  1  0.22884000  0.56226000  0.60431000  1.0
  O  O115  1  0.27116000  0.06226000  0.39570000  1.0
  O  O116  1  0.76276000  0.25797000  0.44601000  1.0
  O  O117  1  0.73724000  0.75796000  0.55398000  1.0
  O  O118  1  0.23725000  0.74203000  0.55398000  1.0
  O  O119  1  0.26275000  0.24203000  0.44602000  1.0
  O  O120  1  0.73843000  0.51758000  0.55060000  1.0
  O  O121  1  0.76158000  0.01757000  0.44941000  1.0
  O  O122  1  0.26157000  0.48242000  0.44941000  1.0
  O  O123  1  0.23843000  0.98242000  0.55060000  1.0
  O  O124  1  0.75155000  0.33943000  0.60390000  1.0
  O  O125  1  0.74845000  0.83943000  0.39610000  1.0
  O  O126  1  0.24844000  0.66056000  0.39609000  1.0
  O  O127  1  0.25155000  0.16056000  0.60391000  1.0
  O  O128  1  0.79128000  0.66512000  0.28083000  1.0
  O  O129  1  0.70874000  0.16509000  0.71917000  1.0
  O  O130  1  0.20872000  0.33488000  0.71918000  1.0
  O  O131  1  0.29125000  0.83487000  0.28081000  1.0
  O  O132  1  0.95420000  0.53190000  0.26286000  1.0
  O  O133  1  0.54580000  0.03188000  0.73713000  1.0
  O  O134  1  0.04581000  0.46811000  0.73716000  1.0
  O  O135  1  0.45419000  0.96810000  0.26284000  1.0
  O  O136  1  0.00551000  0.62588000  0.11806000  1.0
  O  O137  1  0.49448000  0.12588000  0.88193000  1.0
  O  O138  1  0.99439000  0.37406000  0.88192000  1.0
  O  O139  1  0.50560000  0.87406000  0.11808000  1.0
  O  O140  1  0.88878000  0.78569000  0.14363000  1.0
  O  O141  1  0.61122000  0.28569000  0.85635000  1.0
  O  O142  1  0.11118000  0.21427000  0.85634000  1.0
  O  O143  1  0.38879000  0.71427000  0.14364000  1.0
  O  O144  1  0.28180000  0.56048000  0.24272000  1.0
  O  O145  1  0.21820000  0.06048000  0.75728000  1.0
  O  O146  1  0.71819000  0.43951000  0.75728000  1.0
  O  O147  1  0.78182000  0.93951000  0.24273000  1.0
