# generated using pymatgen
data_KCuH8C12I(NO2)2
_symmetry_space_group_name_H-M   'P 1'
_cell_length_a   8.65813000
_cell_length_b   9.18678000
_cell_length_c   9.18682000
_cell_angle_alpha   99.07630000
_cell_angle_beta   98.11780000
_cell_angle_gamma   98.11710000
_symmetry_Int_Tables_number   1
_chemical_formula_structural   KCuH8C12I(NO2)2
_chemical_formula_sum   'K2 Cu2 H16 C24 I2 N4 O8'
_cell_volume   704.28487124
_cell_formula_units_Z   2
loop_
 _symmetry_equiv_pos_site_id
 _symmetry_equiv_pos_as_xyz
  1  'x, y, z'
loop_
 _atom_site_type_symbol
 _atom_site_label
 _atom_site_symmetry_multiplicity
 _atom_site_fract_x
 _atom_site_fract_y
 _atom_site_fract_z
 _atom_site_occupancy
  K  K0  1  0.99998000  0.50001000  0.50000000  1.0
  K  K1  1  0.50002000  0.50001000  0.50000000  1.0
  Cu  Cu2  1  0.00001000  0.00000000  0.50000000  1.0
  Cu  Cu3  1  0.50000000  0.50000000  0.00000000  1.0
  H  H4  1  0.66205000  0.83046000  0.87481000  1.0
  H  H5  1  0.83795000  0.12519000  0.16953000  1.0
  H  H6  1  0.33795000  0.16954000  0.12520000  1.0
  H  H7  1  0.16204000  0.87481000  0.83046000  1.0
  H  H8  1  0.47340000  0.01319000  0.82743000  1.0
  H  H9  1  0.02660000  0.17257000  0.98680000  1.0
  H  H10  1  0.52660000  0.98680000  0.17258000  1.0
  H  H11  1  0.97339000  0.82743000  0.01320000  1.0
  H  H12  1  0.52081000  0.17661000  0.64154000  1.0
  H  H13  1  0.97919000  0.35846000  0.82339000  1.0
  H  H14  1  0.47919000  0.82338000  0.35846000  1.0
  H  H15  1  0.02081000  0.64154000  0.17662000  1.0
  H  H16  1  0.88493000  0.82180000  0.72995000  1.0
  H  H17  1  0.61508000  0.27005000  0.17820000  1.0
  H  H18  1  0.11508000  0.17820000  0.27006000  1.0
  H  H19  1  0.38492000  0.72995000  0.82180000  1.0
  C  C20  1  0.77298000  0.18793000  0.48451000  1.0
  C  C21  1  0.72702000  0.51550000  0.81207000  1.0
  C  C22  1  0.22702000  0.81206000  0.51549000  1.0
  C  C23  1  0.27298000  0.48451000  0.18793000  1.0
  C  C24  1  0.67852000  0.90685000  0.79680000  1.0
  C  C25  1  0.82149000  0.20320000  0.09315000  1.0
  C  C26  1  0.32148000  0.09315000  0.20321000  1.0
  C  C27  1  0.17850000  0.79680000  0.90685000  1.0
  C  C28  1  0.73085000  0.09015000  0.59433000  1.0
  C  C29  1  0.76915000  0.40568000  0.90985000  1.0
  C  C30  1  0.26915000  0.90985000  0.40567000  1.0
  C  C31  1  0.23085000  0.59433000  0.09015000  1.0
  C  C32  1  0.57459000  0.00621000  0.76971000  1.0
  C  C33  1  0.92541000  0.23029000  0.99378000  1.0
  C  C34  1  0.42541000  0.99378000  0.23029000  1.0
  C  C35  1  0.07458000  0.76971000  0.00622000  1.0
  C  C36  1  0.60067000  0.09850000  0.66600000  1.0
  C  C37  1  0.89934000  0.33401000  0.90150000  1.0
  C  C38  1  0.39934000  0.90150000  0.33400000  1.0
  C  C39  1  0.10066000  0.66600000  0.09850000  1.0
  C  C40  1  0.80480000  0.90201000  0.71826000  1.0
  C  C41  1  0.69520000  0.28174000  0.09798000  1.0
  C  C42  1  0.19520000  0.09798000  0.28174000  1.0
  C  C43  1  0.30479000  0.71826000  0.90202000  1.0
  I  I44  1  0.75000000  0.72504000  0.27495000  1.0
  I  I45  1  0.25000000  0.27496000  0.72504000  1.0
  N  N46  1  0.83069000  0.99342000  0.62072000  1.0
  N  N47  1  0.66931000  0.37928000  0.00658000  1.0
  N  N48  1  0.16931000  0.00658000  0.37928000  1.0
  N  N49  1  0.33068000  0.62072000  0.99342000  1.0
  O  O50  1  0.89968000  0.16641000  0.42961000  1.0
  O  O51  1  0.60032000  0.57038000  0.83359000  1.0
  O  O52  1  0.10032000  0.83359000  0.57038000  1.0
  O  O53  1  0.39968000  0.42962000  0.16641000  1.0
  O  O54  1  0.69157000  0.28463000  0.45414000  1.0
  O  O55  1  0.80843000  0.54587000  0.71537000  1.0
  O  O56  1  0.30843000  0.71537000  0.54587000  1.0
  O  O57  1  0.19157000  0.45413000  0.28463000  1.0
