# generated using pymatgen
data_GdH9C16O9
_symmetry_space_group_name_H-M   'P 1'
_cell_length_a   6.63009000
_cell_length_b   13.05120000
_cell_length_c   16.39580000
_cell_angle_alpha   108.77000000
_cell_angle_beta   90.00000000
_cell_angle_gamma   90.00000000
_symmetry_Int_Tables_number   1
_chemical_formula_structural   GdH9C16O9
_chemical_formula_sum   'Gd4 H36 C64 O36'
_cell_volume   1343.28735354
_cell_formula_units_Z   4
loop_
 _symmetry_equiv_pos_site_id
 _symmetry_equiv_pos_as_xyz
  1  'x, y, z'
loop_
 _atom_site_type_symbol
 _atom_site_label
 _atom_site_symmetry_multiplicity
 _atom_site_fract_x
 _atom_site_fract_y
 _atom_site_fract_z
 _atom_site_occupancy
  Gd  Gd0  1  0.81459000  0.52978000  0.90672000  1.0
  Gd  Gd1  1  0.31459000  0.47022000  0.59328000  1.0
  Gd  Gd2  1  0.18541000  0.47022000  0.09328000  1.0
  Gd  Gd3  1  0.68541000  0.52978000  0.40672000  1.0
  H  H4  1  0.62538000  0.88382000  0.60151000  1.0
  H  H5  1  0.12538000  0.11618000  0.89849000  1.0
  H  H6  1  0.37462000  0.11617000  0.39849000  1.0
  H  H7  1  0.87462000  0.88383000  0.10151000  1.0
  H  H8  1  0.64801000  0.04072000  0.73523000  1.0
  H  H9  1  0.14801000  0.95928000  0.76477000  1.0
  H  H10  1  0.35198000  0.95928000  0.26477000  1.0
  H  H11  1  0.85198000  0.04072000  0.23523000  1.0
  H  H12  1  0.62766000  0.81879000  0.88131000  1.0
  H  H13  1  0.12766000  0.18121000  0.61869000  1.0
  H  H14  1  0.37234000  0.18121000  0.11869000  1.0
  H  H15  1  0.87234000  0.81879000  0.38130000  1.0
  H  H16  1  0.56552000  0.15957000  0.85356000  1.0
  H  H17  1  0.06551000  0.84043000  0.64644000  1.0
  H  H18  1  0.43449000  0.84043000  0.14644000  1.0
  H  H19  1  0.93449000  0.15957000  0.35356000  1.0
  H  H20  1  0.77782000  0.92816000  0.97211000  1.0
  H  H21  1  0.27782000  0.07184000  0.52790000  1.0
  H  H22  1  0.22218000  0.07184000  0.02790000  1.0
  H  H23  1  0.72218000  0.92816000  0.47210000  1.0
  H  H24  1  0.85597000  0.07754000  0.10396000  1.0
  H  H25  1  0.35597000  0.92246000  0.39604000  1.0
  H  H26  1  0.14403000  0.92246000  0.89604000  1.0
  H  H27  1  0.64403000  0.07754000  0.60396000  1.0
  H  H28  1  0.39704000  0.44210000  0.86087000  1.0
  H  H29  1  0.89704000  0.55790000  0.63913000  1.0
  H  H30  1  0.60296000  0.55790000  0.13913000  1.0
  H  H31  1  0.10296000  0.44210000  0.36087000  1.0
  H  H32  1  0.46474000  0.48680000  0.78560000  1.0
  H  H33  1  0.96474000  0.51320000  0.71440000  1.0
  H  H34  1  0.53526000  0.51320000  0.21440000  1.0
  H  H35  1  0.03526000  0.48680000  0.28560000  1.0
  H  H36  1  0.93398000  0.32710000  0.24517000  1.0
  H  H37  1  0.43398000  0.67290000  0.25483000  1.0
  H  H38  1  0.06602000  0.67290000  0.75483000  1.0
  H  H39  1  0.56602000  0.32710000  0.74517000  1.0
  C  C40  1  0.60810000  0.74723000  0.74549000  1.0
  C  C41  1  0.10809000  0.25277000  0.75451000  1.0
  C  C42  1  0.39191000  0.25277000  0.25451000  1.0
  C  C43  1  0.89191000  0.74723000  0.24549000  1.0
  C  C44  1  0.61007000  0.76428000  0.66490000  1.0
  C  C45  1  0.11007000  0.23572000  0.83510000  1.0
  C  C46  1  0.38993000  0.23572000  0.33510000  1.0
  C  C47  1  0.88993000  0.76428000  0.16490000  1.0
  C  C48  1  0.62186000  0.87164000  0.66412000  1.0
  C  C49  1  0.12186000  0.12836000  0.83588000  1.0
  C  C50  1  0.37814000  0.12836000  0.33588000  1.0
  C  C51  1  0.87814000  0.87164000  0.16412000  1.0
  C  C52  1  0.63427000  0.95930000  0.73935000  1.0
  C  C53  1  0.13427000  0.04070000  0.76066000  1.0
  C  C54  1  0.36573000  0.04070000  0.26066000  1.0
  C  C55  1  0.86573000  0.95930000  0.23935000  1.0
  C  C56  1  0.63904000  0.94266000  0.82003000  1.0
  C  C57  1  0.13904000  0.05734000  0.67997000  1.0
  C  C58  1  0.36096000  0.05734000  0.17997000  1.0
  C  C59  1  0.86096000  0.94266000  0.32003000  1.0
  C  C60  1  0.62561000  0.83588000  0.82066000  1.0
  C  C61  1  0.12561000  0.16412000  0.67934000  1.0
  C  C62  1  0.37439000  0.16412000  0.17934000  1.0
  C  C63  1  0.87439000  0.83588000  0.32066000  1.0
  C  C64  1  0.58948000  0.64132000  0.76273000  1.0
  C  C65  1  0.08948000  0.35868000  0.73727000  1.0
  C  C66  1  0.41052000  0.35868000  0.23727000  1.0
  C  C67  1  0.91052000  0.64132000  0.26273000  1.0
  C  C68  1  0.61835000  0.67714000  0.57946000  1.0
  C  C69  1  0.11835000  0.32286000  0.92054000  1.0
  C  C70  1  0.38165000  0.32286000  0.42054000  1.0
  C  C71  1  0.88165000  0.67714000  0.07946000  1.0
  C  C72  1  0.75803000  0.20262000  0.05413000  1.0
  C  C73  1  0.25803000  0.79738000  0.44587000  1.0
  C  C74  1  0.24198000  0.79738000  0.94587000  1.0
  C  C75  1  0.74197000  0.20262000  0.55413000  1.0
  C  C76  1  0.67129000  0.22527000  0.98340000  1.0
  C  C77  1  0.17129000  0.77473000  0.51660000  1.0
  C  C78  1  0.32871000  0.77473000  0.01660000  1.0
  C  C79  1  0.82871000  0.22527000  0.48340000  1.0
  C  C80  1  0.62853000  0.14027000  0.90824000  1.0
  C  C81  1  0.12853000  0.85973000  0.59176000  1.0
  C  C82  1  0.37147000  0.85973000  0.09176000  1.0
  C  C83  1  0.87147000  0.14027000  0.40824000  1.0
  C  C84  1  0.66780000  0.03203000  0.90158000  1.0
  C  C85  1  0.16779000  0.96797000  0.59842000  1.0
  C  C86  1  0.33221000  0.96797000  0.09842000  1.0
  C  C87  1  0.83221000  0.03203000  0.40158000  1.0
  C  C88  1  0.74426000  0.01074000  0.97459000  1.0
  C  C89  1  0.24425000  0.98926000  0.52541000  1.0
  C  C90  1  0.25575000  0.98926000  0.02541000  1.0
  C  C91  1  0.75574000  0.01074000  0.47459000  1.0
  C  C92  1  0.78841000  0.09455000  0.04924000  1.0
  C  C93  1  0.28841000  0.90545000  0.45076000  1.0
  C  C94  1  0.21159000  0.90545000  0.95076000  1.0
  C  C95  1  0.71159000  0.09455000  0.54924000  1.0
  C  C96  1  0.84034000  0.29012000  0.12827000  1.0
  C  C97  1  0.34034000  0.70988000  0.37173000  1.0
  C  C98  1  0.15966000  0.70988000  0.87173000  1.0
  C  C99  1  0.65966000  0.29012000  0.62827000  1.0
  C  C100  1  0.62620000  0.33886000  0.98415000  1.0
  C  C101  1  0.12621000  0.66114000  0.51585000  1.0
  C  C102  1  0.37379000  0.66114000  0.01585000  1.0
  C  C103  1  0.87379000  0.33886000  0.48415000  1.0
  O  O104  1  0.71354000  0.62766000  0.81695000  1.0
  O  O105  1  0.21354000  0.37234000  0.68305000  1.0
  O  O106  1  0.28647000  0.37234000  0.18305000  1.0
  O  O107  1  0.78646000  0.62766000  0.31695000  1.0
  O  O108  1  0.44584000  0.57570000  0.73001000  1.0
  O  O109  1  0.94583000  0.42430000  0.76999000  1.0
  O  O110  1  0.55417000  0.42430000  0.26999000  1.0
  O  O111  1  0.05417000  0.57570000  0.23001000  1.0
  O  O112  1  0.62884000  0.57515000  0.57295000  1.0
  O  O113  1  0.12884000  0.42485000  0.92705000  1.0
  O  O114  1  0.37116000  0.42485000  0.42705000  1.0
  O  O115  1  0.87116000  0.57515000  0.07295000  1.0
  O  O116  1  0.62723000  0.70518000  0.51262000  1.0
  O  O117  1  0.12723000  0.29482000  0.98738000  1.0
  O  O118  1  0.37277000  0.29482000  0.48738000  1.0
  O  O119  1  0.87278000  0.70518000  0.01262000  1.0
  O  O120  1  0.87937000  0.26168000  0.19721000  1.0
  O  O121  1  0.37937000  0.73832000  0.30279000  1.0
  O  O122  1  0.12063000  0.73832000  0.80279000  1.0
  O  O123  1  0.62063000  0.26168000  0.69721000  1.0
  O  O124  1  0.87515000  0.38229000  0.12462000  1.0
  O  O125  1  0.37515000  0.61770000  0.37538000  1.0
  O  O126  1  0.12485000  0.61770000  0.87538000  1.0
  O  O127  1  0.62485000  0.38230000  0.62462000  1.0
  O  O128  1  0.49035000  0.39276000  0.03296000  1.0
  O  O129  1  0.99034000  0.60724000  0.46704000  1.0
  O  O130  1  0.50966000  0.60724000  0.96704000  1.0
  O  O131  1  0.00965000  0.39276000  0.53296000  1.0
  O  O132  1  0.72603000  0.37044000  0.93053000  1.0
  O  O133  1  0.22603000  0.62956000  0.56947000  1.0
  O  O134  1  0.27397000  0.62956000  0.06947000  1.0
  O  O135  1  0.77397000  0.37044000  0.43053000  1.0
  O  O136  1  0.50677000  0.43827000  0.81949000  1.0
  O  O137  1  0.00677000  0.56173000  0.68051000  1.0
  O  O138  1  0.49323000  0.56173000  0.18051000  1.0
  O  O139  1  0.99323000  0.43827000  0.31949000  1.0
