# generated using pymatgen
data_Co3H43C72N6O13
_symmetry_space_group_name_H-M   'P 1'
_cell_length_a   13.35340000
_cell_length_b   13.38390000
_cell_length_c   13.38300000
_cell_angle_alpha   96.76340000
_cell_angle_beta   96.75050000
_cell_angle_gamma   96.47260000
_symmetry_Int_Tables_number   1
_chemical_formula_structural   Co3H43C72N6O13
_chemical_formula_sum   'Co3 H43 C72 N6 O13'
_cell_volume   2339.19808057
_cell_formula_units_Z   1
loop_
 _symmetry_equiv_pos_site_id
 _symmetry_equiv_pos_as_xyz
  1  'x, y, z'
loop_
 _atom_site_type_symbol
 _atom_site_label
 _atom_site_symmetry_multiplicity
 _atom_site_fract_x
 _atom_site_fract_y
 _atom_site_fract_z
 _atom_site_occupancy
  Co  Co0  1  0.60751000  0.68226000  0.48285000  1.0
  Co  Co1  1  0.68205000  0.48659000  0.60547000  1.0
  Co  Co2  1  0.48571000  0.60074000  0.68513000  1.0
  H  H3  1  0.52390000  0.52836000  0.52309000  1.0
  H  H4  1  0.30534000  0.63975000  0.28802000  1.0
  H  H5  1  0.64287000  0.28897000  0.30450000  1.0
  H  H6  1  0.28866000  0.30477000  0.64129000  1.0
  H  H7  1  0.05904000  0.81903000  0.31682000  1.0
  H  H8  1  0.81816000  0.31328000  0.05575000  1.0
  H  H9  1  0.31633000  0.05793000  0.81828000  1.0
  H  H10  1  0.11475000  0.85733000  0.50368000  1.0
  H  H11  1  0.85850000  0.50007000  0.11003000  1.0
  H  H12  1  0.50362000  0.11164000  0.85649000  1.0
  H  H13  1  0.26207000  0.78058000  0.58164000  1.0
  H  H14  1  0.78507000  0.58020000  0.25796000  1.0
  H  H15  1  0.58245000  0.25826000  0.78105000  1.0
  H  H16  1  0.29052000  0.68753000  0.13280000  1.0
  H  H17  1  0.68539000  0.13285000  0.28900000  1.0
  H  H18  1  0.13270000  0.29012000  0.68589000  1.0
  H  H19  1  0.35017000  0.77599000  0.99721000  1.0
  H  H20  1  0.77086000  0.99856000  0.35163000  1.0
  H  H21  1  0.99819000  0.35231000  0.77197000  1.0
  H  H22  1  0.46700000  0.74880000  0.86478000  1.0
  H  H23  1  0.74180000  0.86876000  0.46982000  1.0
  H  H24  1  0.86678000  0.46992000  0.74368000  1.0
  H  H25  1  0.27806000  0.49857000  0.71394000  1.0
  H  H26  1  0.49308000  0.71624000  0.27911000  1.0
  H  H27  1  0.71274000  0.27868000  0.49623000  1.0
  H  H28  1  0.15193000  0.51393000  0.83888000  1.0
  H  H29  1  0.51025000  0.83894000  0.15131000  1.0
  H  H30  1  0.83694000  0.15144000  0.51270000  1.0
  H  H31  1  0.03465000  0.64377000  0.89691000  1.0
  H  H32  1  0.64136000  0.89531000  0.03507000  1.0
  H  H33  1  0.89616000  0.03593000  0.64234000  1.0
  H  H34  1  0.87508000  0.60431000  0.87405000  1.0
  H  H35  1  0.60615000  0.87051000  0.87579000  1.0
  H  H36  1  0.87235000  0.87688000  0.60671000  1.0
  H  H37  1  0.59517000  0.65317000  0.98621000  1.0
  H  H38  1  0.65240000  0.98135000  0.59581000  1.0
  H  H39  1  0.98500000  0.59729000  0.65485000  1.0
  H  H40  1  0.69164000  0.73368000  0.15404000  1.0
  H  H41  1  0.73257000  0.14966000  0.69137000  1.0
  H  H42  1  0.15398000  0.69305000  0.73286000  1.0
  H  H43  1  0.88047000  0.74732000  0.18076000  1.0
  H  H44  1  0.74634000  0.17741000  0.87991000  1.0
  H  H45  1  0.18092000  0.88129000  0.74584000  1.0
  C  C46  1  0.38247000  0.66283000  0.48578000  1.0
  C  C47  1  0.66867000  0.48700000  0.38028000  1.0
  C  C48  1  0.48624000  0.38025000  0.66519000  1.0
  C  C49  1  0.29249000  0.70657000  0.43891000  1.0
  C  C50  1  0.71061000  0.43872000  0.29007000  1.0
  C  C51  1  0.43959000  0.29015000  0.70757000  1.0
  C  C52  1  0.26304000  0.68832000  0.33393000  1.0
  C  C53  1  0.69110000  0.33372000  0.26137000  1.0
  C  C54  1  0.33431000  0.26178000  0.68924000  1.0
  C  C55  1  0.17801000  0.72736000  0.28968000  1.0
  C  C56  1  0.72840000  0.28823000  0.17602000  1.0
  C  C57  1  0.28961000  0.17711000  0.72752000  1.0
  C  C58  1  0.12469000  0.78833000  0.35189000  1.0
  C  C59  1  0.78887000  0.34925000  0.12170000  1.0
  C  C60  1  0.35172000  0.12324000  0.78797000  1.0
  C  C61  1  0.15556000  0.80888000  0.45608000  1.0
  C  C62  1  0.81068000  0.45339000  0.15180000  1.0
  C  C63  1  0.45618000  0.15301000  0.80856000  1.0
  C  C64  1  0.23820000  0.76680000  0.50006000  1.0
  C  C65  1  0.77037000  0.49861000  0.23479000  1.0
  C  C66  1  0.50067000  0.23525000  0.76708000  1.0
  C  C67  1  0.14240000  0.70403000  0.17957000  1.0
  C  C68  1  0.70397000  0.17809000  0.14111000  1.0
  C  C69  1  0.17925000  0.14235000  0.70386000  1.0
  C  C70  1  0.20936000  0.68479000  0.10844000  1.0
  C  C71  1  0.68312000  0.10785000  0.20819000  1.0
  C  C72  1  0.10818000  0.20932000  0.68357000  1.0
  C  C73  1  0.17075000  0.66199000  0.00547000  1.0
  C  C74  1  0.65943000  0.00484000  0.17023000  1.0
  C  C75  1  0.00501000  0.17119000  0.66030000  1.0
  C  C76  1  0.24103000  0.64651000  0.92939000  1.0
  C  C77  1  0.64245000  0.92986000  0.24110000  1.0
  C  C78  1  0.92896000  0.24168000  0.64399000  1.0
  C  C79  1  0.33175000  0.71248000  0.93641000  1.0
  C  C80  1  0.70726000  0.93798000  0.33293000  1.0
  C  C81  1  0.93698000  0.33343000  0.70875000  1.0
  C  C82  1  0.39657000  0.69857000  0.86353000  1.0
  C  C83  1  0.69228000  0.86640000  0.39858000  1.0
  C  C84  1  0.86453000  0.39878000  0.69416000  1.0
  C  C85  1  0.28994000  0.55890000  0.77801000  1.0
  C  C86  1  0.55352000  0.78007000  0.29090000  1.0
  C  C87  1  0.77728000  0.29081000  0.55619000  1.0
  C  C88  1  0.22080000  0.56806000  0.84771000  1.0
  C  C89  1  0.56373000  0.84855000  0.22091000  1.0
  C  C90  1  0.84660000  0.22106000  0.56604000  1.0
  C  C91  1  0.06591000  0.65829000  0.97695000  1.0
  C  C92  1  0.65652000  0.97541000  0.06584000  1.0
  C  C93  1  0.97633000  0.06680000  0.65717000  1.0
  C  C94  1  0.00376000  0.67973000  0.05248000  1.0
  C  C95  1  0.67946000  0.05008000  0.00345000  1.0
  C  C96  1  0.05184000  0.00462000  0.67958000  1.0
  C  C97  1  0.89174000  0.67697000  0.03035000  1.0
  C  C98  1  0.67727000  0.02707000  0.89179000  1.0
  C  C99  1  0.02961000  0.89304000  0.67740000  1.0
  C  C100  1  0.83682000  0.63374000  0.93663000  1.0
  C  C101  1  0.63474000  0.93300000  0.83730000  1.0
  C  C102  1  0.93533000  0.83857000  0.63542000  1.0
  C  C103  1  0.73056000  0.62566000  0.92077000  1.0
  C  C104  1  0.62628000  0.91655000  0.73122000  1.0
  C  C105  1  0.91929000  0.73263000  0.62797000  1.0
  C  C106  1  0.67798000  0.66177000  0.99933000  1.0
  C  C107  1  0.66160000  0.99491000  0.67848000  1.0
  C  C108  1  0.99827000  0.67989000  0.66317000  1.0
  C  C109  1  0.73205000  0.70643000  0.09230000  1.0
  C  C110  1  0.70593000  0.08812000  0.73204000  1.0
  C  C111  1  0.09187000  0.73354000  0.70642000  1.0
  C  C112  1  0.83770000  0.71436000  0.10776000  1.0
  C  C113  1  0.71405000  0.10415000  0.83749000  1.0
  C  C114  1  0.10746000  0.83888000  0.71393000  1.0
  C  C115  1  0.67337000  0.57913000  0.81995000  1.0
  C  C116  1  0.57956000  0.81553000  0.67387000  1.0
  C  C117  1  0.81783000  0.67590000  0.58290000  1.0
  N  N118  1  0.37623000  0.62314000  0.78550000  1.0
  N  N119  1  0.61694000  0.78842000  0.37805000  1.0
  N  N120  1  0.78582000  0.37811000  0.61926000  1.0
  N  N121  1  0.04239000  0.70254000  0.15104000  1.0
  N  N122  1  0.70302000  0.14866000  0.04154000  1.0
  N  N123  1  0.15051000  0.04280000  0.70282000  1.0
  O  O124  1  0.57265000  0.57465000  0.57234000  1.0
  O  O125  1  0.45236000  0.64740000  0.43008000  1.0
  O  O126  1  0.65276000  0.43228000  0.45020000  1.0
  O  O127  1  0.43003000  0.45038000  0.65172000  1.0
  O  O128  1  0.38168000  0.64536000  0.57721000  1.0
  O  O129  1  0.65288000  0.57932000  0.37942000  1.0
  O  O130  1  0.57773000  0.38065000  0.64693000  1.0
  O  O131  1  0.72578000  0.54790000  0.75190000  1.0
  O  O132  1  0.54973000  0.74778000  0.72707000  1.0
  O  O133  1  0.74995000  0.72890000  0.55103000  1.0
  O  O134  1  0.57681000  0.57479000  0.80885000  1.0
  O  O135  1  0.57328000  0.80510000  0.57763000  1.0
  O  O136  1  0.80582000  0.58005000  0.57985000  1.0
