# generated using pymatgen
data_NaZn3H13C19O17
_symmetry_space_group_name_H-M   'P 1'
_cell_length_a   7.69815000
_cell_length_b   9.40998000
_cell_length_c   9.78610000
_cell_angle_alpha   61.86960000
_cell_angle_beta   70.96980000
_cell_angle_gamma   79.70600000
_symmetry_Int_Tables_number   1
_chemical_formula_structural   NaZn3H13C19O17
_chemical_formula_sum   'Na1 Zn3 H13 C19 O17'
_cell_volume   590.72997961
_cell_formula_units_Z   1
loop_
 _symmetry_equiv_pos_site_id
 _symmetry_equiv_pos_as_xyz
  1  'x, y, z'
loop_
 _atom_site_type_symbol
 _atom_site_label
 _atom_site_symmetry_multiplicity
 _atom_site_fract_x
 _atom_site_fract_y
 _atom_site_fract_z
 _atom_site_occupancy
  Na  Na0  1  0.55230000  0.95374000  0.17449000  1.0
  Zn  Zn1  1  0.03978000  0.45301000  0.68167000  1.0
  Zn  Zn2  1  0.79141000  0.26394000  0.03336000  1.0
  Zn  Zn3  1  0.27256000  0.66481000  0.30309000  1.0
  H  H4  1  0.44680000  0.28979000  0.18540000  1.0
  H  H5  1  0.45975000  0.29065000  0.01645000  1.0
  H  H6  1  0.92931000  0.56937000  0.37779000  1.0
  H  H7  1  0.89183000  0.74400000  0.37358000  1.0
  H  H8  1  0.64032000  0.61634000  0.17213000  1.0
  H  H9  1  0.58994000  0.58078000  0.35774000  1.0
  H  H10  1  0.80101000  0.84418000  0.95925000  1.0
  H  H11  1  0.35034000  0.18432000  0.74574000  1.0
  H  H12  1  0.26338000  0.09373000  0.38011000  1.0
  H  H13  1  0.72753000  0.72773000  0.60734000  1.0
  H  H14  1  0.83937000  0.21427000  0.47609000  1.0
  H  H15  1  0.24505000  0.70409000  0.85078000  1.0
  H  H16  1  0.16660000  0.23320000  0.10030000  1.0
  C  C17  1  0.30384000  0.15889000  0.55143000  1.0
  C  C18  1  0.84040000  0.16409000  0.77526000  1.0
  C  C19  1  0.22187000  0.77209000  0.55348000  1.0
  C  C20  1  0.31343000  0.88095000  0.98293000  1.0
  C  C21  1  0.75695000  0.59295000  0.90830000  1.0
  C  C22  1  0.78957000  0.88184000  0.83887000  1.0
  C  C23  1  0.30461000  0.33397000  0.43977000  1.0
  C  C24  1  0.32149000  0.10205000  0.70692000  1.0
  C  C25  1  0.27702000  0.04985000  0.50090000  1.0
  C  C26  1  0.75381000  0.81671000  0.63880000  1.0
  C  C27  1  0.81393000  0.09001000  0.56698000  1.0
  C  C28  1  0.26515000  0.83095000  0.76580000  1.0
  C  C29  1  0.76185000  0.76785000  0.79554000  1.0
  C  C30  1  0.30033000  0.93834000  0.81474000  1.0
  C  C31  1  0.78499000  0.97613000  0.52301000  1.0
  C  C32  1  0.81192000  0.04404000  0.72557000  1.0
  C  C33  1  0.20285000  0.29684000  0.96668000  1.0
  C  C34  1  0.25848000  0.88602000  0.60720000  1.0
  C  C35  1  0.79217000  0.02316000  0.35245000  1.0
  O  O36  1  0.13988000  0.64462000  0.66294000  1.0
  O  O37  1  0.90551000  0.30007000  0.66328000  1.0
  O  O38  1  0.51037000  0.23446000  0.11523000  1.0
  O  O39  1  0.38064000  0.96979000  0.01488000  1.0
  O  O40  1  0.81509000  0.17290000  0.25532000  1.0
  O  O41  1  0.27445000  0.43774000  0.49991000  1.0
  O  O42  1  0.77924000  0.49388000  0.84568000  1.0
  O  O43  1  0.25211000  0.73848000  0.08588000  1.0
  O  O44  1  0.27454000  0.81274000  0.40146000  1.0
  O  O45  1  0.79820000  0.12010000  0.92639000  1.0
  O  O46  1  0.96716000  0.63926000  0.41051000  1.0
  O  O47  1  0.57445000  0.66170000  0.25360000  1.0
  O  O48  1  0.33057000  0.38445000  0.29134000  1.0
  O  O49  1  0.07348000  0.30215000  0.90700000  1.0
  O  O50  1  0.73771000  0.54081000  0.05684000  1.0
  O  O51  1  0.77586000  0.91636000  0.31263000  1.0
  O  O52  1  0.35718000  0.35537000  0.88614000  1.0
