# generated using pymatgen
data_InH7C12O5
_symmetry_space_group_name_H-M   'P 1'
_cell_length_a   7.30484000
_cell_length_b   22.20390000
_cell_length_c   22.20390000
_cell_angle_alpha   90.00000000
_cell_angle_beta   89.99990000
_cell_angle_gamma   89.99960000
_symmetry_Int_Tables_number   1
_chemical_formula_structural   InH7C12O5
_chemical_formula_sum   'In8 H56 C96 O40'
_cell_volume   3601.38236271
_cell_formula_units_Z   8
loop_
 _symmetry_equiv_pos_site_id
 _symmetry_equiv_pos_as_xyz
  1  'x, y, z'
loop_
 _atom_site_type_symbol
 _atom_site_label
 _atom_site_symmetry_multiplicity
 _atom_site_fract_x
 _atom_site_fract_y
 _atom_site_fract_z
 _atom_site_occupancy
  In  In0  1  0.99999000  0.75003000  0.75002000  1.0
  In  In1  1  0.99997000  0.25007000  0.25000000  1.0
  In  In2  1  0.00000000  0.25002000  0.75006000  1.0
  In  In3  1  0.00000000  0.75002000  0.25000000  1.0
  In  In4  1  0.50001000  0.74998000  0.75005000  1.0
  In  In5  1  0.49998000  0.24992000  0.24999000  1.0
  In  In6  1  0.50000000  0.24998000  0.74997000  1.0
  In  In7  1  0.50000000  0.74998000  0.25000000  1.0
  H  H8  1  0.48758000  0.73244000  0.94376000  1.0
  H  H9  1  0.05895000  0.82489000  0.88839000  1.0
  H  H10  1  0.30775000  0.87422000  0.94348000  1.0
  H  H11  1  0.74933000  0.81443000  0.31442000  1.0
  H  H12  1  0.48758000  0.26756000  0.05624000  1.0
  H  H13  1  0.05896000  0.17511000  0.11161000  1.0
  H  H14  1  0.30776000  0.12578000  0.05651000  1.0
  H  H15  1  0.48757000  0.44376000  0.76756000  1.0
  H  H16  1  0.05894000  0.38839000  0.67510000  1.0
  H  H17  1  0.30773000  0.44349000  0.62579000  1.0
  H  H18  1  0.74932000  0.81442000  0.68558000  1.0
  H  H19  1  0.48759000  0.55624000  0.23244000  1.0
  H  H20  1  0.05894000  0.61161000  0.32489000  1.0
  H  H21  1  0.30774000  0.55652000  0.37421000  1.0
  H  H22  1  0.74935000  0.18558000  0.31443000  1.0
  H  H23  1  0.51242000  0.76756000  0.44376000  1.0
  H  H24  1  0.94106000  0.67510000  0.38839000  1.0
  H  H25  1  0.69225000  0.62578000  0.44348000  1.0
  H  H26  1  0.51242000  0.23245000  0.55624000  1.0
  H  H27  1  0.94105000  0.32489000  0.61161000  1.0
  H  H28  1  0.69225000  0.37422000  0.55651000  1.0
  H  H29  1  0.51241000  0.05624000  0.26756000  1.0
  H  H30  1  0.94107000  0.11161000  0.17510000  1.0
  H  H31  1  0.69226000  0.05652000  0.12578000  1.0
  H  H32  1  0.25067000  0.68558000  0.18557000  1.0
  H  H33  1  0.51243000  0.94376000  0.73244000  1.0
  H  H34  1  0.94105000  0.88839000  0.82489000  1.0
  H  H35  1  0.69226000  0.94348000  0.87422000  1.0
  H  H36  1  0.25068000  0.31443000  0.81443000  1.0
  H  H37  1  0.51241000  0.76756000  0.55624000  1.0
  H  H38  1  0.94106000  0.67510000  0.61161000  1.0
  H  H39  1  0.69226000  0.62578000  0.55651000  1.0
  H  H40  1  0.51240000  0.23244000  0.44376000  1.0
  H  H41  1  0.94105000  0.32489000  0.38839000  1.0
  H  H42  1  0.69225000  0.37422000  0.44348000  1.0
  H  H43  1  0.51241000  0.05625000  0.73244000  1.0
  H  H44  1  0.94105000  0.11161000  0.82489000  1.0
  H  H45  1  0.69224000  0.05651000  0.87422000  1.0
  H  H46  1  0.25066000  0.68557000  0.81443000  1.0
  H  H47  1  0.51242000  0.94376000  0.26756000  1.0
  H  H48  1  0.94106000  0.88839000  0.17510000  1.0
  H  H49  1  0.69226000  0.94349000  0.12578000  1.0
  H  H50  1  0.25068000  0.31442000  0.18558000  1.0
  H  H51  1  0.48759000  0.73244000  0.05624000  1.0
  H  H52  1  0.05894000  0.82489000  0.11161000  1.0
  H  H53  1  0.30774000  0.87421000  0.05651000  1.0
  H  H54  1  0.48758000  0.26756000  0.94376000  1.0
  H  H55  1  0.05894000  0.17510000  0.88839000  1.0
  H  H56  1  0.30774000  0.12578000  0.94348000  1.0
  H  H57  1  0.48759000  0.44376000  0.23243000  1.0
  H  H58  1  0.05897000  0.38839000  0.32490000  1.0
  H  H59  1  0.30774000  0.44349000  0.37422000  1.0
  H  H60  1  0.48759000  0.55624000  0.76755000  1.0
  H  H61  1  0.05894000  0.61161000  0.67510000  1.0
  H  H62  1  0.30774000  0.55651000  0.62578000  1.0
  H  H63  1  0.74935000  0.18558000  0.68559000  1.0
  C  C64  1  0.75057000  0.76162000  0.86921000  1.0
  C  C65  1  0.75518000  0.77055000  0.93623000  1.0
  C  C66  1  0.60489000  0.75004000  0.96841000  1.0
  C  C67  1  0.90820000  0.79676000  0.96743000  1.0
  C  C68  1  0.05697000  0.82492000  0.93716000  1.0
  C  C69  1  0.19713000  0.85241000  0.96828000  1.0
  C  C70  1  0.75060000  0.23838000  0.13079000  1.0
  C  C71  1  0.75519000  0.22945000  0.06377000  1.0
  C  C72  1  0.60490000  0.24995000  0.03159000  1.0
  C  C73  1  0.90820000  0.20324000  0.03256000  1.0
  C  C74  1  0.05698000  0.17508000  0.06283000  1.0
  C  C75  1  0.19713000  0.14759000  0.03171000  1.0
  C  C76  1  0.75055000  0.36922000  0.73838000  1.0
  C  C77  1  0.75517000  0.43624000  0.72944000  1.0
  C  C78  1  0.60489000  0.46841000  0.74995000  1.0
  C  C79  1  0.90819000  0.46743000  0.70324000  1.0
  C  C80  1  0.05696000  0.43716000  0.67507000  1.0
  C  C81  1  0.19712000  0.46828000  0.64759000  1.0
  C  C82  1  0.75056000  0.63080000  0.26162000  1.0
  C  C83  1  0.75518000  0.56377000  0.27054000  1.0
  C  C84  1  0.60489000  0.53158000  0.25004000  1.0
  C  C85  1  0.90819000  0.53257000  0.29676000  1.0
  C  C86  1  0.05697000  0.56284000  0.32492000  1.0
  C  C87  1  0.19712000  0.53172000  0.35241000  1.0
  C  C88  1  0.24945000  0.73838000  0.36920000  1.0
  C  C89  1  0.24483000  0.72945000  0.43623000  1.0
  C  C90  1  0.39511000  0.74996000  0.46841000  1.0
  C  C91  1  0.09181000  0.70324000  0.46743000  1.0
  C  C92  1  0.94303000  0.67507000  0.43716000  1.0
  C  C93  1  0.80287000  0.64759000  0.46828000  1.0
  C  C94  1  0.24942000  0.26162000  0.63080000  1.0
  C  C95  1  0.24482000  0.27055000  0.56377000  1.0
  C  C96  1  0.39511000  0.25005000  0.53159000  1.0
  C  C97  1  0.09180000  0.29676000  0.53257000  1.0
  C  C98  1  0.94303000  0.32492000  0.56284000  1.0
  C  C99  1  0.80287000  0.35241000  0.53172000  1.0
  C  C100  1  0.24938000  0.13079000  0.23838000  1.0
  C  C101  1  0.24481000  0.06377000  0.22946000  1.0
  C  C102  1  0.39509000  0.03159000  0.24996000  1.0
  C  C103  1  0.09179000  0.03257000  0.20324000  1.0
  C  C104  1  0.94303000  0.06284000  0.17508000  1.0
  C  C105  1  0.80287000  0.03172000  0.14759000  1.0
  C  C106  1  0.24945000  0.86920000  0.76162000  1.0
  C  C107  1  0.24482000  0.93623000  0.77055000  1.0
  C  C108  1  0.39511000  0.96841000  0.75004000  1.0
  C  C109  1  0.09181000  0.96743000  0.79676000  1.0
  C  C110  1  0.94304000  0.93716000  0.82492000  1.0
  C  C111  1  0.80286000  0.96828000  0.85241000  1.0
  C  C112  1  0.24944000  0.73838000  0.63080000  1.0
  C  C113  1  0.24482000  0.72945000  0.56377000  1.0
  C  C114  1  0.39510000  0.74995000  0.53159000  1.0
  C  C115  1  0.09181000  0.70324000  0.53257000  1.0
  C  C116  1  0.94303000  0.67508000  0.56284000  1.0
  C  C117  1  0.80286000  0.64759000  0.53172000  1.0
  C  C118  1  0.24941000  0.26162000  0.36920000  1.0
  C  C119  1  0.24481000  0.27055000  0.43623000  1.0
  C  C120  1  0.39509000  0.25005000  0.46841000  1.0
  C  C121  1  0.09180000  0.29676000  0.46743000  1.0
  C  C122  1  0.94302000  0.32492000  0.43716000  1.0
  C  C123  1  0.80286000  0.35241000  0.46828000  1.0
  C  C124  1  0.24941000  0.13081000  0.76162000  1.0
  C  C125  1  0.24481000  0.06378000  0.77054000  1.0
  C  C126  1  0.39510000  0.03159000  0.75004000  1.0
  C  C127  1  0.09179000  0.03257000  0.79676000  1.0
  C  C128  1  0.94302000  0.06283000  0.82492000  1.0
  C  C129  1  0.80286000  0.03172000  0.85241000  1.0
  C  C130  1  0.24946000  0.86920000  0.23837000  1.0
  C  C131  1  0.24482000  0.93623000  0.22945000  1.0
  C  C132  1  0.39511000  0.96841000  0.24995000  1.0
  C  C133  1  0.09181000  0.96743000  0.20323000  1.0
  C  C134  1  0.94305000  0.93716000  0.17507000  1.0
  C  C135  1  0.80288000  0.96828000  0.14759000  1.0
  C  C136  1  0.75055000  0.76162000  0.13079000  1.0
  C  C137  1  0.75518000  0.77055000  0.06377000  1.0
  C  C138  1  0.60490000  0.75004000  0.03159000  1.0
  C  C139  1  0.90819000  0.79676000  0.03257000  1.0
  C  C140  1  0.05697000  0.82492000  0.06284000  1.0
  C  C141  1  0.19714000  0.85241000  0.03172000  1.0
  C  C142  1  0.75055000  0.23838000  0.86921000  1.0
  C  C143  1  0.75518000  0.22945000  0.93623000  1.0
  C  C144  1  0.60489000  0.24996000  0.96841000  1.0
  C  C145  1  0.90820000  0.20324000  0.96743000  1.0
  C  C146  1  0.05697000  0.17508000  0.93716000  1.0
  C  C147  1  0.19714000  0.14759000  0.96828000  1.0
  C  C148  1  0.75056000  0.36920000  0.26162000  1.0
  C  C149  1  0.75518000  0.43623000  0.27055000  1.0
  C  C150  1  0.60490000  0.46840000  0.25004000  1.0
  C  C151  1  0.90819000  0.46743000  0.29676000  1.0
  C  C152  1  0.05697000  0.43716000  0.32492000  1.0
  C  C153  1  0.19713000  0.46828000  0.35241000  1.0
  C  C154  1  0.75057000  0.63079000  0.73838000  1.0
  C  C155  1  0.75518000  0.56377000  0.72945000  1.0
  C  C156  1  0.60490000  0.53159000  0.74996000  1.0
  C  C157  1  0.90820000  0.53257000  0.70324000  1.0
  C  C158  1  0.05696000  0.56284000  0.67508000  1.0
  C  C159  1  0.19713000  0.53172000  0.64759000  1.0
  O  O160  1  0.59357000  0.75847000  0.84432000  1.0
  O  O161  1  0.90427000  0.75576000  0.84255000  1.0
  O  O162  1  0.59358000  0.24153000  0.15568000  1.0
  O  O163  1  0.90428000  0.24424000  0.15746000  1.0
  O  O164  1  0.59357000  0.34432000  0.74153000  1.0
  O  O165  1  0.90427000  0.34256000  0.74424000  1.0
  O  O166  1  0.59356000  0.65569000  0.25847000  1.0
  O  O167  1  0.90427000  0.65746000  0.25576000  1.0
  O  O168  1  0.40645000  0.74153000  0.34431000  1.0
  O  O169  1  0.09574000  0.74424000  0.34254000  1.0
  O  O170  1  0.40644000  0.25847000  0.65569000  1.0
  O  O171  1  0.09574000  0.25577000  0.65748000  1.0
  O  O172  1  0.40643000  0.15567000  0.24152000  1.0
  O  O173  1  0.09572000  0.15747000  0.24424000  1.0
  O  O174  1  0.40643000  0.84431000  0.75847000  1.0
  O  O175  1  0.09574000  0.84254000  0.75577000  1.0
  O  O176  1  0.40643000  0.74153000  0.65570000  1.0
  O  O177  1  0.09573000  0.74424000  0.65746000  1.0
  O  O178  1  0.40642000  0.25847000  0.34430000  1.0
  O  O179  1  0.09572000  0.25576000  0.34254000  1.0
  O  O180  1  0.40642000  0.15570000  0.75847000  1.0
  O  O181  1  0.09573000  0.15748000  0.75577000  1.0
  O  O182  1  0.40645000  0.84431000  0.24153000  1.0
  O  O183  1  0.09574000  0.84254000  0.24423000  1.0
  O  O184  1  0.59356000  0.75847000  0.15569000  1.0
  O  O185  1  0.90426000  0.75577000  0.15746000  1.0
  O  O186  1  0.59358000  0.24153000  0.84431000  1.0
  O  O187  1  0.90427000  0.24425000  0.84256000  1.0
  O  O188  1  0.59360000  0.34429000  0.25846000  1.0
  O  O189  1  0.90428000  0.34254000  0.25577000  1.0
  O  O190  1  0.59356000  0.65568000  0.74153000  1.0
  O  O191  1  0.90426000  0.65746000  0.74425000  1.0
  O  O192  1  0.74927000  0.78356000  0.71643000  1.0
  O  O193  1  0.74932000  0.21642000  0.28356000  1.0
  O  O194  1  0.74933000  0.21645000  0.71643000  1.0
  O  O195  1  0.74929000  0.78357000  0.28356000  1.0
  O  O196  1  0.25071000  0.71644000  0.21643000  1.0
  O  O197  1  0.25075000  0.28358000  0.78357000  1.0
  O  O198  1  0.25074000  0.28356000  0.21643000  1.0
  O  O199  1  0.25069000  0.71642000  0.78357000  1.0
