# generated using pymatgen
data_Zn2H23C49IN2O11
_symmetry_space_group_name_H-M   'P 1'
_cell_length_a   12.67900000
_cell_length_b   13.55960000
_cell_length_c   15.21430000
_cell_angle_alpha   88.66390000
_cell_angle_beta   74.18360000
_cell_angle_gamma   76.06040000
_symmetry_Int_Tables_number   1
_chemical_formula_structural   Zn2H23C49IN2O11
_chemical_formula_sum   'Zn2 H23 C49 I1 N2 O11'
_cell_volume   2440.01918920
_cell_formula_units_Z   1
loop_
 _symmetry_equiv_pos_site_id
 _symmetry_equiv_pos_as_xyz
  1  'x, y, z'
loop_
 _atom_site_type_symbol
 _atom_site_label
 _atom_site_symmetry_multiplicity
 _atom_site_fract_x
 _atom_site_fract_y
 _atom_site_fract_z
 _atom_site_occupancy
  Zn  Zn0  1  0.61771000  0.50487000  0.47160000  1.0
  Zn  Zn1  1  0.38510000  0.49585000  0.52217000  1.0
  H  H2  1  0.68034000  0.51440000  0.17578000  1.0
  H  H3  1  0.90161000  0.71252000  0.34410000  1.0
  H  H4  1  0.33200000  0.50891000  0.26467000  1.0
  H  H5  1  0.27988000  0.36762000  0.64728000  1.0
  H  H6  1  0.94347000  0.38521000  0.62910000  1.0
  H  H7  1  0.09547000  0.31685000  0.70289000  1.0
  H  H8  1  0.24187000  0.60422000  0.43315000  1.0
  H  H9  1  0.21471000  0.51696000  0.98584000  1.0
  H  H10  1  0.31639000  0.50822000  0.81888000  1.0
  H  H11  1  0.67024000  0.49844000  0.73347000  1.0
  H  H12  1  0.77617000  0.50466000  0.84877000  1.0
  H  H13  1  0.24798000  0.16539000  0.44131000  1.0
  H  H14  1  0.77876000  0.51041000  0.01085000  1.0
  H  H15  1  0.75468000  0.37173000  0.53798000  1.0
  H  H16  1  0.18762000  0.52243000  0.23486000  1.0
  H  H17  1  0.19083000  0.76470000  0.57548000  1.0
  H  H18  1  0.18626000  0.00534000  0.47263000  1.0
  H  H19  1  0.57082000  0.82071000  0.48364000  1.0
  H  H20  1  0.77139000  0.18509000  0.45847000  1.0
  H  H21  1  0.68761000  0.89576000  0.46256000  1.0
  H  H22  1  0.38867000  0.26397000  0.43765000  1.0
  H  H23  1  0.72130000  0.65409000  0.37688000  1.0
  H  H24  1  0.08993000  0.69346000  0.36592000  1.0
  C  C25  1  0.56863000  0.30435000  0.47443000  1.0
  C  C26  1  0.39416000  0.50680000  0.83705000  1.0
  C  C27  1  0.49351000  0.50210000  0.76740000  1.0
  C  C28  1  0.49281000  0.49869000  0.66913000  1.0
  C  C29  1  0.59406000  0.50146000  0.78917000  1.0
  C  C30  1  0.27126000  0.96589000  0.47507000  1.0
  C  C31  1  0.40395000  0.81125000  0.49550000  1.0
  C  C32  1  0.71070000  0.14056000  0.45761000  1.0
  C  C33  1  0.74161000  0.03384000  0.45658000  1.0
  C  C34  1  0.66249000  0.97811000  0.45997000  1.0
  C  C35  1  0.55064000  0.02674000  0.46041000  1.0
  C  C36  1  0.60134000  0.51188000  0.06632000  1.0
  C  C37  1  0.51930000  0.13495000  0.45665000  1.0
  C  C38  1  0.46576000  0.96943000  0.46776000  1.0
  C  C39  1  0.35507000  0.02107000  0.46347000  1.0
  C  C40  1  0.43601000  0.69860000  0.50415000  1.0
  C  C41  1  0.33107000  0.12781000  0.44925000  1.0
  C  C42  1  0.40915000  0.18257000  0.44716000  1.0
  C  C43  1  0.48735000  0.86434000  0.48188000  1.0
  C  C44  1  0.29295000  0.86332000  0.49363000  1.0
  C  C45  1  0.60045000  0.19075000  0.46006000  1.0
  C  C46  1  0.89038000  0.64765000  0.38616000  1.0
  C  C47  1  0.29375000  0.51642000  0.09228000  1.0
  C  C48  1  0.21004000  0.39742000  0.61756000  1.0
  C  C49  1  0.10777000  0.36830000  0.64705000  1.0
  C  C50  1  0.02370000  0.40592000  0.60467000  1.0
  C  C51  1  0.04173000  0.47137000  0.53146000  1.0
  C  C52  1  0.50865000  0.50792000  0.32550000  1.0
  C  C53  1  0.14491000  0.50330000  0.51026000  1.0
  C  C54  1  0.95945000  0.51370000  0.48173000  1.0
  C  C55  1  0.97642000  0.59741000  0.42540000  1.0
  C  C56  1  0.07948000  0.62911000  0.40887000  1.0
  C  C57  1  0.16273000  0.58107000  0.44684000  1.0
  C  C58  1  0.29424000  0.51447000  0.00174000  1.0
  C  C59  1  0.86108000  0.47886000  0.48524000  1.0
  C  C60  1  0.79197000  0.61541000  0.40264000  1.0
  C  C61  1  0.60283000  0.51346000  0.15805000  1.0
  C  C62  1  0.50564000  0.51153000  0.22772000  1.0
  C  C63  1  0.40448000  0.51132000  0.20739000  1.0
  C  C64  1  0.39731000  0.51336000  0.11697000  1.0
  C  C65  1  0.49809000  0.51169000  0.04497000  1.0
  C  C66  1  0.84421000  0.37523000  0.51314000  1.0
  C  C67  1  0.18485000  0.52352000  0.16234000  1.0
  C  C68  1  0.19632000  0.81480000  0.51657000  1.0
  C  C69  1  0.39408000  0.50978000  0.92932000  1.0
  C  C70  1  0.49677000  0.50910000  0.95190000  1.0
  C  C71  1  0.59785000  0.50558000  0.88024000  1.0
  C  C72  1  0.69963000  0.50647000  0.90391000  1.0
  C  C73  1  0.70111000  0.50974000  0.99313000  1.0
  I  I74  1  0.90704000  0.95617000  0.45520000  1.0
  N  N75  1  0.77869000  0.53140000  0.45012000  1.0
  N  N76  1  0.22721000  0.46437000  0.55279000  1.0
  O  O77  1  0.64508000  0.35191000  0.44153000  1.0
  O  O78  1  0.09383000  0.53123000  0.14538000  1.0
  O  O79  1  0.12197000  0.83225000  0.47662000  1.0
  O  O80  1  0.46844000  0.34475000  0.52197000  1.0
  O  O81  1  0.58869000  0.48194000  0.60959000  1.0
  O  O82  1  0.39723000  0.51294000  0.65246000  1.0
  O  O83  1  0.53601000  0.65781000  0.50758000  1.0
  O  O84  1  0.36018000  0.65057000  0.50534000  1.0
  O  O85  1  0.59066000  0.53272000  0.34502000  1.0
  O  O86  1  0.42792000  0.47965000  0.38191000  1.0
  O  O87  1  0.92201000  0.29917000  0.50339000  1.0
