# generated using pymatgen
data_ZnH9C4NO6
_symmetry_space_group_name_H-M   'P 1'
_cell_length_a   5.18804000
_cell_length_b   9.64201000
_cell_length_c   14.28500000
_cell_angle_alpha   89.99970000
_cell_angle_beta   90.00070000
_cell_angle_gamma   89.99870000
_symmetry_Int_Tables_number   1
_chemical_formula_structural   ZnH9C4NO6
_chemical_formula_sum   'Zn4 H36 C16 N4 O24'
_cell_volume   714.58046266
_cell_formula_units_Z   4
loop_
 _symmetry_equiv_pos_site_id
 _symmetry_equiv_pos_as_xyz
  1  'x, y, z'
loop_
 _atom_site_type_symbol
 _atom_site_label
 _atom_site_symmetry_multiplicity
 _atom_site_fract_x
 _atom_site_fract_y
 _atom_site_fract_z
 _atom_site_occupancy
  Zn  Zn0  1  0.16000000  0.12485000  0.93923000  1.0
  Zn  Zn1  1  0.84003000  0.62487000  0.06078000  1.0
  Zn  Zn2  1  0.84002000  0.12486000  0.43922000  1.0
  Zn  Zn3  1  0.15998000  0.62485000  0.56077000  1.0
  H  H4  1  0.44304000  0.22192000  0.79842000  1.0
  H  H5  1  0.55695000  0.72194000  0.20158000  1.0
  H  H6  1  0.55696000  0.22193000  0.29841000  1.0
  H  H7  1  0.44302000  0.72190000  0.70158000  1.0
  H  H8  1  0.17231000  0.22036000  0.68482000  1.0
  H  H9  1  0.82766000  0.72037000  0.31519000  1.0
  H  H10  1  0.82769000  0.22037000  0.18481000  1.0
  H  H11  1  0.17228000  0.72036000  0.81518000  1.0
  H  H12  1  0.99458000  0.35293000  0.73760000  1.0
  H  H13  1  0.00538000  0.85295000  0.26241000  1.0
  H  H14  1  0.00542000  0.35293000  0.23760000  1.0
  H  H15  1  0.99454000  0.85291000  0.76240000  1.0
  H  H16  1  0.32812000  0.47592000  0.80891000  1.0
  H  H17  1  0.67184000  0.97594000  0.19109000  1.0
  H  H18  1  0.67188000  0.47593000  0.30891000  1.0
  H  H19  1  0.32814000  0.97591000  0.69110000  1.0
  H  H20  1  0.49748000  0.39921000  0.90247000  1.0
  H  H21  1  0.50252000  0.89923000  0.09752000  1.0
  H  H22  1  0.50253000  0.39923000  0.40247000  1.0
  H  H23  1  0.49747000  0.89920000  0.59753000  1.0
  H  H24  1  0.43475000  0.88079000  0.93082000  1.0
  H  H25  1  0.56529000  0.38081000  0.06917000  1.0
  H  H26  1  0.56530000  0.88080000  0.43084000  1.0
  H  H27  1  0.43474000  0.38078000  0.56917000  1.0
  H  H28  1  0.37086000  0.18662000  0.10348000  1.0
  H  H29  1  0.62916000  0.68661000  0.89652000  1.0
  H  H30  1  0.62917000  0.18662000  0.60348000  1.0
  H  H31  1  0.37084000  0.68663000  0.39653000  1.0
  H  H32  1  0.58682000  0.99861000  0.87395000  1.0
  H  H33  1  0.41321000  0.49862000  0.12605000  1.0
  H  H34  1  0.41320000  0.99861000  0.37395000  1.0
  H  H35  1  0.58680000  0.49859000  0.62605000  1.0
  H  H36  1  0.60799000  0.15368000  0.03584000  1.0
  H  H37  1  0.39203000  0.65366000  0.96416000  1.0
  H  H38  1  0.39203000  0.15367000  0.53584000  1.0
  H  H39  1  0.60798000  0.65367000  0.46417000  1.0
  C  C40  1  0.08059000  0.25075000  0.75109000  1.0
  C  C41  1  0.91939000  0.75076000  0.24891000  1.0
  C  C42  1  0.91940000  0.25075000  0.25109000  1.0
  C  C43  1  0.08056000  0.75073000  0.74890000  1.0
  C  C44  1  0.86283000  0.14884000  0.76851000  1.0
  C  C45  1  0.13717000  0.64887000  0.23150000  1.0
  C  C46  1  0.13718000  0.14884000  0.26850000  1.0
  C  C47  1  0.86281000  0.64883000  0.73149000  1.0
  C  C48  1  0.31306000  0.39736000  0.86442000  1.0
  C  C49  1  0.68693000  0.89738000  0.13558000  1.0
  C  C50  1  0.68695000  0.39737000  0.36442000  1.0
  C  C51  1  0.31305000  0.89736000  0.63558000  1.0
  C  C52  1  0.09997000  0.43575000  0.93318000  1.0
  C  C53  1  0.90003000  0.93575000  0.06683000  1.0
  C  C54  1  0.90004000  0.43575000  0.43317000  1.0
  C  C55  1  0.09998000  0.93577000  0.56683000  1.0
  N  N56  1  0.27368000  0.25744000  0.82671000  1.0
  N  N57  1  0.72630000  0.75745000  0.17329000  1.0
  N  N58  1  0.72632000  0.25745000  0.32671000  1.0
  N  N59  1  0.27367000  0.75743000  0.67329000  1.0
  O  O60  1  0.87015000  0.07070000  0.84080000  1.0
  O  O61  1  0.12986000  0.57073000  0.15921000  1.0
  O  O62  1  0.12985000  0.07071000  0.34080000  1.0
  O  O63  1  0.87016000  0.57069000  0.65921000  1.0
  O  O64  1  0.67774000  0.14692000  0.71093000  1.0
  O  O65  1  0.32226000  0.64695000  0.28907000  1.0
  O  O66  1  0.32227000  0.14693000  0.21093000  1.0
  O  O67  1  0.67770000  0.64690000  0.78906000  1.0
  O  O68  1  0.94676000  0.34420000  0.96118000  1.0
  O  O69  1  0.05322000  0.84420000  0.03882000  1.0
  O  O70  1  0.05322000  0.34420000  0.46118000  1.0
  O  O71  1  0.94674000  0.84421000  0.53882000  1.0
  O  O72  1  0.09513000  0.56437000  0.95903000  1.0
  O  O73  1  0.90491000  0.06437000  0.04098000  1.0
  O  O74  1  0.90490000  0.56437000  0.45902000  1.0
  O  O75  1  0.09513000  0.06437000  0.54097000  1.0
  O  O76  1  0.43969000  0.20400000  0.03833000  1.0
  O  O77  1  0.56032000  0.70398000  0.96166000  1.0
  O  O78  1  0.56032000  0.20399000  0.53834000  1.0
  O  O79  1  0.43969000  0.70399000  0.46167000  1.0
  O  O80  1  0.41204000  0.96779000  0.89522000  1.0
  O  O81  1  0.58799000  0.46780000  0.10478000  1.0
  O  O82  1  0.58798000  0.96779000  0.39522000  1.0
  O  O83  1  0.41203000  0.46777000  0.60477000  1.0
