# generated using pymatgen
data_MnH11C12NO9
_symmetry_space_group_name_H-M   'P 1'
_cell_length_a   7.00865000
_cell_length_b   7.24711000
_cell_length_c   13.56150000
_cell_angle_alpha   78.61400000
_cell_angle_beta   77.49350000
_cell_angle_gamma   81.08720000
_symmetry_Int_Tables_number   1
_chemical_formula_structural   MnH11C12NO9
_chemical_formula_sum   'Mn2 H22 C24 N2 O18'
_cell_volume   654.69810159
_cell_formula_units_Z   2
loop_
 _symmetry_equiv_pos_site_id
 _symmetry_equiv_pos_as_xyz
  1  'x, y, z'
loop_
 _atom_site_type_symbol
 _atom_site_label
 _atom_site_symmetry_multiplicity
 _atom_site_fract_x
 _atom_site_fract_y
 _atom_site_fract_z
 _atom_site_occupancy
  Mn  Mn0  1  0.03542000  0.32269000  0.42362000  1.0
  Mn  Mn1  1  0.96458000  0.67728000  0.57639000  1.0
  H  H2  1  0.84075000  0.52956000  0.03019000  1.0
  H  H3  1  0.15925000  0.47045000  0.96980000  1.0
  H  H4  1  0.54594000  0.67557000  0.95833000  1.0
  H  H5  1  0.45405000  0.32443000  0.04167000  1.0
  H  H6  1  0.31613000  0.93666000  0.22533000  1.0
  H  H7  1  0.68384000  0.06332000  0.77468000  1.0
  H  H8  1  0.58038000  0.09238000  0.30352000  1.0
  H  H9  1  0.41963000  0.90764000  0.69649000  1.0
  H  H10  1  0.81266000  0.98730000  0.24432000  1.0
  H  H11  1  0.18735000  0.01271000  0.75567000  1.0
  H  H12  1  0.32310000  0.89449000  0.39024000  1.0
  H  H13  1  0.67687000  0.10548000  0.60976000  1.0
  H  H14  1  0.47436000  0.77223000  0.47856000  1.0
  H  H15  1  0.52565000  0.22776000  0.52144000  1.0
  H  H16  1  0.73201000  0.68046000  0.34312000  1.0
  H  H17  1  0.26800000  0.31956000  0.65687000  1.0
  H  H18  1  0.08888000  0.91971000  0.93818000  1.0
  H  H19  1  0.91111000  0.08030000  0.06181000  1.0
  H  H20  1  0.21227000  0.33090000  0.23275000  1.0
  H  H21  1  0.78771000  0.66915000  0.76725000  1.0
  H  H22  1  0.36430000  0.33521000  0.30709000  1.0
  H  H23  1  0.63569000  0.66481000  0.69289000  1.0
  C  C24  1  0.92260000  0.54257000  0.21398000  1.0
  C  C25  1  0.07739000  0.45747000  0.78602000  1.0
  C  C26  1  0.74662000  0.64491000  0.16988000  1.0
  C  C27  1  0.25337000  0.35512000  0.83012000  1.0
  C  C28  1  0.72624000  0.61797000  0.07336000  1.0
  C  C29  1  0.27375000  0.38204000  0.92664000  1.0
  C  C30  1  0.56008000  0.69902000  0.03309000  1.0
  C  C31  1  0.43991000  0.30099000  0.96690000  1.0
  C  C32  1  0.41032000  0.81016000  0.08903000  1.0
  C  C33  1  0.58968000  0.18985000  0.91097000  1.0
  C  C34  1  0.43028000  0.84450000  0.18411000  1.0
  C  C35  1  0.56968000  0.15549000  0.81589000  1.0
  C  C36  1  0.59539000  0.76034000  0.22343000  1.0
  C  C37  1  0.40458000  0.23970000  0.77656000  1.0
  C  C38  1  0.22697000  0.89112000  0.05109000  1.0
  C  C39  1  0.77302000  0.10888000  0.94891000  1.0
  C  C40  1  0.69790000  0.97567000  0.31377000  1.0
  C  C41  1  0.30209000  0.02434000  0.68623000  1.0
  C  C42  1  0.79252000  0.98684000  0.40306000  1.0
  C  C43  1  0.20748000  0.01311000  0.59695000  1.0
  C  C44  1  0.43334000  0.77271000  0.40486000  1.0
  C  C45  1  0.56665000  0.22729000  0.59514000  1.0
  C  C46  1  0.35688000  0.58554000  0.40838000  1.0
  C  C47  1  0.64316000  0.41443000  0.59163000  1.0
  N  N48  1  0.61601000  0.79182000  0.32455000  1.0
  N  N49  1  0.38397000  0.20819000  0.67545000  1.0
  O  O50  1  0.05982000  0.45753000  0.15758000  1.0
  O  O51  1  0.94020000  0.54255000  0.84240000  1.0
  O  O52  1  0.91914000  0.54781000  0.30945000  1.0
  O  O53  1  0.08089000  0.45221000  0.69054000  1.0
  O  O54  1  0.86683000  0.13866000  0.39336000  1.0
  O  O55  1  0.13308000  0.86131000  0.60671000  1.0
  O  O56  1  0.78873000  0.84869000  0.47658000  1.0
  O  O57  1  0.21138000  0.15117000  0.52337000  1.0
  O  O58  1  0.47251000  0.46024000  0.36696000  1.0
  O  O59  1  0.52755000  0.53977000  0.63302000  1.0
  O  O60  1  0.17756000  0.56840000  0.45337000  1.0
  O  O61  1  0.82252000  0.43156000  0.54667000  1.0
  O  O62  1  0.09064000  0.98344000  0.10378000  1.0
  O  O63  1  0.90933000  0.01657000  0.89622000  1.0
  O  O64  1  0.22042000  0.85692000  0.96016000  1.0
  O  O65  1  0.77956000  0.14308000  0.03985000  1.0
  O  O66  1  0.27222000  0.25670000  0.29197000  1.0
  O  O67  1  0.72778000  0.74329000  0.70802000  1.0
