# generated using pymatgen
data_Zn2PH2CO7
_symmetry_space_group_name_H-M   'P 1'
_cell_length_a   4.81135000
_cell_length_b   7.89038000
_cell_length_c   14.15450000
_cell_angle_alpha   96.49610000
_cell_angle_beta   90.00000000
_cell_angle_gamma   89.99990000
_symmetry_Int_Tables_number   1
_chemical_formula_structural   Zn2PH2CO7
_chemical_formula_sum   'Zn8 P4 H8 C4 O28'
_cell_volume   533.90261845
_cell_formula_units_Z   4
loop_
 _symmetry_equiv_pos_site_id
 _symmetry_equiv_pos_as_xyz
  1  'x, y, z'
loop_
 _atom_site_type_symbol
 _atom_site_label
 _atom_site_symmetry_multiplicity
 _atom_site_fract_x
 _atom_site_fract_y
 _atom_site_fract_z
 _atom_site_occupancy
  Zn  Zn0  1  0.97214000  0.41037000  0.30481000  1.0
  Zn  Zn1  1  0.47214000  0.08963000  0.19519000  1.0
  Zn  Zn2  1  0.02786000  0.58963000  0.69519000  1.0
  Zn  Zn3  1  0.52786000  0.91036000  0.80481000  1.0
  Zn  Zn4  1  0.98499000  0.70116000  0.13123000  1.0
  Zn  Zn5  1  0.48499000  0.79884000  0.36876000  1.0
  Zn  Zn6  1  0.01501000  0.29883000  0.86877000  1.0
  Zn  Zn7  1  0.51501000  0.20117000  0.63124000  1.0
  P  P8  1  0.52524000  0.50270000  0.19541000  1.0
  P  P9  1  0.02524000  0.99730000  0.30459000  1.0
  P  P10  1  0.47476000  0.49730000  0.80459000  1.0
  P  P11  1  0.97476000  0.00269000  0.69541000  1.0
  H  H12  1  0.25053000  0.60570000  0.97014000  1.0
  H  H13  1  0.75052000  0.89430000  0.52986000  1.0
  H  H14  1  0.74948000  0.39429000  0.02986000  1.0
  H  H15  1  0.24947000  0.10571000  0.47014000  1.0
  H  H16  1  0.01484000  0.75118000  0.96205000  1.0
  H  H17  1  0.51483000  0.74882000  0.53795000  1.0
  H  H18  1  0.98516000  0.24883000  0.03795000  1.0
  H  H19  1  0.48516000  0.25117000  0.46205000  1.0
  C  C20  1  0.87679000  0.44077000  0.50723000  1.0
  C  C21  1  0.37679000  0.05923000  0.99278000  1.0
  C  C22  1  0.12322000  0.55923000  0.49278000  1.0
  C  C23  1  0.62322000  0.94077000  0.00722000  1.0
  O  O24  1  0.20336000  0.50520000  0.19480000  1.0
  O  O25  1  0.70337000  0.99480000  0.30520000  1.0
  O  O26  1  0.79663000  0.49480000  0.80520000  1.0
  O  O27  1  0.29663000  0.00520000  0.69480000  1.0
  O  O28  1  0.65670000  0.62158000  0.27965000  1.0
  O  O29  1  0.15670000  0.87841000  0.22035000  1.0
  O  O30  1  0.34330000  0.37842000  0.72035000  1.0
  O  O31  1  0.84330000  0.12159000  0.77965000  1.0
  O  O32  1  0.64238000  0.32375000  0.21088000  1.0
  O  O33  1  0.14239000  0.17625000  0.28912000  1.0
  O  O34  1  0.35761000  0.67625000  0.78913000  1.0
  O  O35  1  0.85761000  0.82375000  0.71087000  1.0
  O  O36  1  0.64147000  0.56018000  0.10189000  1.0
  O  O37  1  0.14147000  0.93982000  0.39811000  1.0
  O  O38  1  0.35852000  0.43981000  0.89811000  1.0
  O  O39  1  0.85852000  0.06018000  0.60189000  1.0
  O  O40  1  0.76436000  0.36523000  0.43326000  1.0
  O  O41  1  0.26436000  0.13476000  0.06674000  1.0
  O  O42  1  0.23565000  0.63477000  0.56674000  1.0
  O  O43  1  0.73565000  0.86523000  0.93326000  1.0
  O  O44  1  0.80228000  0.42889000  0.59230000  1.0
  O  O45  1  0.30229000  0.07111000  0.90770000  1.0
  O  O46  1  0.19771000  0.57111000  0.40770000  1.0
  O  O47  1  0.69773000  0.92888000  0.09230000  1.0
  O  O48  1  0.16091000  0.71044000  0.00425000  1.0
  O  O49  1  0.66090000  0.78956000  0.49574000  1.0
  O  O50  1  0.83909000  0.28956000  0.99575000  1.0
  O  O51  1  0.33909000  0.21044000  0.50425000  1.0
