# generated using pymatgen
data_H12PbC18(NO)4
_symmetry_space_group_name_H-M   'P 1'
_cell_length_a   7.11780000
_cell_length_b   8.62373000
_cell_length_c   13.83600000
_cell_angle_alpha   100.42700000
_cell_angle_beta   99.72360000
_cell_angle_gamma   100.81800000
_symmetry_Int_Tables_number   1
_chemical_formula_structural   H12PbC18(NO)4
_chemical_formula_sum   'H24 Pb2 C36 N8 O8'
_cell_volume   802.11799645
_cell_formula_units_Z   2
loop_
 _symmetry_equiv_pos_site_id
 _symmetry_equiv_pos_as_xyz
  1  'x, y, z'
loop_
 _atom_site_type_symbol
 _atom_site_label
 _atom_site_symmetry_multiplicity
 _atom_site_fract_x
 _atom_site_fract_y
 _atom_site_fract_z
 _atom_site_occupancy
  H  H0  1  0.98698000  0.78603000  0.16351000  1.0
  H  H1  1  0.01305000  0.21400000  0.83650000  1.0
  H  H2  1  0.89119000  0.92816000  0.31735000  1.0
  H  H3  1  0.10875000  0.07176000  0.68268000  1.0
  H  H4  1  0.09842000  0.93793000  0.48787000  1.0
  H  H5  1  0.90151000  0.06195000  0.51215000  1.0
  H  H6  1  0.86338000  0.57770000  0.50428000  1.0
  H  H7  1  0.13661000  0.42225000  0.49572000  1.0
  H  H8  1  0.92520000  0.43487000  0.33737000  1.0
  H  H9  1  0.07479000  0.56509000  0.66263000  1.0
  H  H10  1  0.69319000  0.43099000  0.18001000  1.0
  H  H11  1  0.30685000  0.56905000  0.81998000  1.0
  H  H12  1  0.46569000  0.96424000  0.76070000  1.0
  H  H13  1  0.53432000  0.03571000  0.23930000  1.0
  H  H14  1  0.73103000  0.80140000  0.76702000  1.0
  H  H15  1  0.26902000  0.19860000  0.23298000  1.0
  H  H16  1  0.10946000  0.92650000  0.82599000  1.0
  H  H17  1  0.89057000  0.07353000  0.17400000  1.0
  H  H18  1  0.30908000  0.84568000  0.86795000  1.0
  H  H19  1  0.69094000  0.15435000  0.13205000  1.0
  H  H20  1  0.13802000  0.07853000  0.00552000  1.0
  H  H21  1  0.86199000  0.92149000  0.99448000  1.0
  H  H22  1  0.33584000  0.99587000  0.04613000  1.0
  H  H23  1  0.66420000  0.00417000  0.95386000  1.0
  Pb  Pb24  1  0.28878000  0.55028000  0.08388000  1.0
  Pb  Pb25  1  0.71119000  0.44978000  0.91612000  1.0
  C  C26  1  0.06808000  0.79215000  0.23898000  1.0
  C  C27  1  0.93192000  0.20786000  0.76104000  1.0
  C  C28  1  0.01711000  0.87285000  0.32485000  1.0
  C  C29  1  0.98285000  0.12709000  0.67517000  1.0
  C  C30  1  0.12891000  0.87804000  0.41795000  1.0
  C  C31  1  0.87105000  0.12188000  0.58207000  1.0
  C  C32  1  0.28850000  0.80347000  0.42471000  1.0
  C  C33  1  0.71148000  0.19648000  0.57530000  1.0
  C  C34  1  0.32812000  0.72287000  0.33441000  1.0
  C  C35  1  0.67189000  0.27713000  0.66560000  1.0
  C  C36  1  0.49209000  0.64350000  0.33813000  1.0
  C  C37  1  0.50793000  0.35650000  0.66187000  1.0
  C  C38  1  0.61231000  0.64882000  0.43175000  1.0
  C  C39  1  0.38770000  0.35116000  0.56825000  1.0
  C  C40  1  0.77034000  0.57204000  0.43205000  1.0
  C  C41  1  0.22966000  0.42792000  0.56795000  1.0
  C  C42  1  0.80343000  0.49410000  0.34200000  1.0
  C  C43  1  0.19657000  0.50588000  0.65800000  1.0
  C  C44  1  0.67562000  0.49316000  0.25271000  1.0
  C  C45  1  0.32440000  0.50686000  0.74728000  1.0
  C  C46  1  0.41230000  0.80929000  0.52086000  1.0
  C  C47  1  0.58769000  0.19067000  0.47914000  1.0
  C  C48  1  0.57019000  0.73079000  0.52435000  1.0
  C  C49  1  0.42982000  0.26918000  0.47565000  1.0
  C  C50  1  0.49128000  0.89291000  0.69223000  1.0
  C  C51  1  0.50872000  0.10704000  0.30778000  1.0
  C  C52  1  0.64240000  0.80743000  0.69575000  1.0
  C  C53  1  0.35763000  0.19255000  0.30426000  1.0
  C  C54  1  0.05019000  0.74448000  0.91013000  1.0
  C  C55  1  0.94980000  0.25557000  0.08986000  1.0
  C  C56  1  0.18511000  0.89055000  0.89143000  1.0
  C  C57  1  0.81490000  0.10949000  0.10856000  1.0
  C  C58  1  0.26024000  0.03307000  0.98112000  1.0
  C  C59  1  0.73978000  0.96697000  0.01887000  1.0
  C  C60  1  0.39511000  0.17823000  0.96208000  1.0
  C  C61  1  0.60486000  0.82183000  0.03790000  1.0
  N  N62  1  0.21808000  0.71956000  0.24394000  1.0
  N  N63  1  0.78194000  0.28046000  0.75607000  1.0
  N  N64  1  0.52533000  0.56497000  0.25108000  1.0
  N  N65  1  0.47470000  0.43506000  0.74892000  1.0
  N  N66  1  0.68300000  0.72850000  0.61283000  1.0
  N  N67  1  0.31703000  0.27148000  0.38717000  1.0
  N  N68  1  0.37576000  0.89253000  0.60578000  1.0
  N  N69  1  0.62423000  0.10741000  0.39423000  1.0
  O  O70  1  0.05837000  0.72424000  0.00018000  1.0
  O  O71  1  0.94160000  0.27582000  0.99981000  1.0
  O  O72  1  0.93592000  0.64735000  0.83342000  1.0
  O  O73  1  0.06409000  0.35269000  0.16657000  1.0
  O  O74  1  0.46185000  0.30131000  0.03597000  1.0
  O  O75  1  0.53813000  0.69875000  0.96402000  1.0
  O  O76  1  0.43642000  0.17326000  0.87585000  1.0
  O  O77  1  0.56352000  0.82682000  0.12413000  1.0
