# generated using pymatgen
data_Zn8H26C45I6O31
_symmetry_space_group_name_H-M   'P 1'
_cell_length_a   18.31820000
_cell_length_b   18.41570000
_cell_length_c   18.64370000
_cell_angle_alpha   91.02930000
_cell_angle_beta   118.88900000
_cell_angle_gamma   119.43500000
_symmetry_Int_Tables_number   1
_chemical_formula_structural   Zn8H26C45I6O31
_chemical_formula_sum   'Zn8 H26 C45 I6 O31'
_cell_volume   4518.85553081
_cell_formula_units_Z   1
loop_
 _symmetry_equiv_pos_site_id
 _symmetry_equiv_pos_as_xyz
  1  'x, y, z'
loop_
 _atom_site_type_symbol
 _atom_site_label
 _atom_site_symmetry_multiplicity
 _atom_site_fract_x
 _atom_site_fract_y
 _atom_site_fract_z
 _atom_site_occupancy
  Zn  Zn0  1  0.59235000  0.54112000  0.45618000  1.0
  Zn  Zn1  1  0.41549000  0.54358000  0.45175000  1.0
  Zn  Zn2  1  0.58876000  0.54494000  0.62630000  1.0
  Zn  Zn3  1  0.41655000  0.37192000  0.45537000  1.0
  Zn  Zn4  1  0.40786000  0.95894000  0.03836000  1.0
  Zn  Zn5  1  0.42132000  0.96141000  0.87360000  1.0
  Zn  Zn6  1  0.58628000  0.96036000  0.04856000  1.0
  Zn  Zn7  1  0.58694000  0.13507000  0.04515000  1.0
  H  H8  1  0.36377000  0.18525000  0.27329000  1.0
  H  H9  1  0.61094000  0.40028000  0.79658000  1.0
  H  H10  1  0.47115000  0.19778000  0.36297000  1.0
  H  H11  1  0.90898000  0.31197000  0.21983000  1.0
  H  H12  1  0.91813000  0.15331000  0.18527000  1.0
  H  H13  1  0.09403000  0.39628000  0.27801000  1.0
  H  H14  1  0.62871000  0.72906000  0.80107000  1.0
  H  H15  1  0.45617000  0.72979000  0.64635000  1.0
  H  H16  1  0.59800000  0.79614000  0.19647000  1.0
  H  H17  1  0.42044000  0.77895000  0.19441000  1.0
  H  H18  1  0.35978000  0.09514000  0.18058000  1.0
  H  H19  1  0.65229000  0.30722000  0.25441000  1.0
  H  H20  1  0.37764000  0.28248000  0.18344000  1.0
  H  H21  1  0.38124000  0.19323000  0.09663000  1.0
  H  H22  1  0.00755000  0.64605000  0.70837000  1.0
  H  H23  1  0.13740000  0.20685000  0.38712000  1.0
  H  H24  1  0.38696000  0.64504000  0.73344000  1.0
  H  H25  1  0.45614000  0.02896000  0.24302000  1.0
  H  H26  1  0.75547000  0.28531000  0.38952000  1.0
  H  H27  1  0.49776000  0.37278000  0.21171000  1.0
  H  H28  1  0.50447000  0.28198000  0.12998000  1.0
  H  H29  1  0.08835000  0.79817000  0.89530000  1.0
  H  H30  1  0.08444000  0.80642000  0.72846000  1.0
  H  H31  1  0.90070000  0.72341000  0.79257000  1.0
  H  H32  1  0.59742000  0.32108000  0.90067000  1.0
  H  H33  1  0.46463000  0.15507000  0.74088000  1.0
  C  C34  1  0.22803000  0.36578000  0.37336000  1.0
  C  C35  1  0.88891000  0.66125000  0.68820000  1.0
  C  C36  1  0.55065000  0.28310000  0.83150000  1.0
  C  C37  1  0.77569000  0.61412000  0.63402000  1.0
  C  C38  1  0.50708000  0.19511000  0.80822000  1.0
  C  C39  1  0.54460000  0.33212000  0.77143000  1.0
  C  C40  1  0.46830000  0.30743000  0.68777000  1.0
  C  C41  1  0.94546000  0.27738000  0.22821000  1.0
  C  C42  1  0.88602000  0.19065000  0.18205000  1.0
  C  C43  1  0.05553000  0.33023000  0.28250000  1.0
  C  C44  1  0.11689000  0.30698000  0.33608000  1.0
  C  C45  1  0.61421000  0.33150000  0.34126000  1.0
  C  C46  1  0.57095000  0.80005000  0.82395000  1.0
  C  C47  1  0.48786000  0.78379000  0.81946000  1.0
  C  C48  1  0.57205000  0.74400000  0.76932000  1.0
  C  C49  1  0.52171000  0.64714000  0.37519000  1.0
  C  C50  1  0.50962000  0.71240000  0.68184000  1.0
  C  C51  1  0.54186000  0.77395000  0.21232000  1.0
  C  C52  1  0.48089000  0.80229000  0.18417000  1.0
  C  C53  1  0.53505000  0.71225000  0.26037000  1.0
  C  C54  1  0.53408000  0.71616000  0.33192000  1.0
  C  C55  1  0.51138000  0.14456000  0.86898000  1.0
  C  C56  1  0.50318000  0.30085000  0.30341000  1.0
  C  C57  1  0.49089000  0.86538000  0.13585000  1.0
  C  C58  1  0.22662000  0.87255000  0.85775000  1.0
  C  C59  1  0.77389000  0.13882000  0.12778000  1.0
  C  C60  1  0.49239000  0.84991000  0.87297000  1.0
  C  C61  1  0.48434000  0.36680000  0.63503000  1.0
  C  C62  1  0.50247000  0.13936000  0.14452000  1.0
  C  C63  1  0.51040000  0.65228000  0.62871000  1.0
  C  C64  1  0.49718000  0.35891000  0.35773000  1.0
  C  C65  1  0.44052000  0.20372000  0.29793000  1.0
  C  C66  1  0.43739000  0.14068000  0.23971000  1.0
  C  C67  1  0.50359000  0.19538000  0.20720000  1.0
  C  C68  1  0.45599000  0.30420000  0.20979000  1.0
  C  C69  1  0.93889000  0.64102000  0.65529000  1.0
  C  C70  1  0.08458000  0.22772000  0.36438000  1.0
  C  C71  1  0.38809000  0.69673000  0.76662000  1.0
  C  C72  1  0.45959000  0.07750000  0.28287000  1.0
  C  C73  1  0.67679000  0.23383000  0.33317000  1.0
  C  C74  1  0.45809000  0.24343000  0.15382000  1.0
  C  C75  1  0.61316000  0.26819000  0.28378000  1.0
  C  C76  1  0.05291000  0.77938000  0.82505000  1.0
  C  C77  1  0.11441000  0.81609000  0.79714000  1.0
  C  C78  1  0.94357000  0.72021000  0.76881000  1.0
  I  I79  1  0.32249000  0.18845000  0.61980000  1.0
  I  I80  1  0.71764000  0.91647000  0.91402000  1.0
  I  I81  1  0.52251000  0.60252000  0.20216000  1.0
  I  I82  1  0.55406000  0.82445000  0.39982000  1.0
  I  I83  1  0.71526000  0.46675000  0.34912000  1.0
  I  I84  1  0.68311000  0.33225000  0.47819000  1.0
  O  O85  1  0.50360000  0.50144000  0.49866000  1.0
  O  O86  1  0.72889000  0.05483000  0.10037000  1.0
  O  O87  1  0.44792000  0.88463000  0.83045000  1.0
  O  O88  1  0.27155000  0.32593000  0.38579000  1.0
  O  O89  1  0.56941000  0.18074000  0.12830000  1.0
  O  O90  1  0.53925000  0.86360000  0.95415000  1.0
  O  O91  1  0.42957000  0.05773000  0.10838000  1.0
  O  O92  1  0.26482000  0.89114000  0.93913000  1.0
  O  O93  1  0.73183000  0.18010000  0.11366000  1.0
  O  O94  1  0.46286000  0.06147000  0.83225000  1.0
  O  O95  1  0.56587000  0.89952000  0.12871000  1.0
  O  O96  1  0.59386000  0.63723000  0.41092000  1.0
  O  O97  1  0.73158000  0.58858000  0.55221000  1.0
  O  O98  1  0.44057000  0.60629000  0.37296000  1.0
  O  O99  1  0.55211000  0.44956000  0.67642000  1.0
  O  O100  1  0.44684000  0.62673000  0.54659000  1.0
  O  O101  1  0.44578000  0.32038000  0.38906000  1.0
  O  O102  1  0.57208000  0.63063000  0.66866000  1.0
  O  O103  1  0.54101000  0.44029000  0.36465000  1.0
  O  O104  1  0.90994000  0.61820000  0.57946000  1.0
  O  O105  1  0.01050000  0.19117000  0.36815000  1.0
  O  O106  1  0.31252000  0.68080000  0.76226000  1.0
  O  O107  1  0.42973000  0.32869000  0.55329000  1.0
  O  O108  1  0.47376000  0.07575000  0.35367000  1.0
  O  O109  1  0.64736000  0.15688000  0.31017000  1.0
  O  O110  1  0.26965000  0.44878000  0.38920000  1.0
  O  O111  1  0.73399000  0.60472000  0.67501000  1.0
  O  O112  1  0.50078000  0.00497000  0.00126000  1.0
  O  O113  1  0.55979000  0.18492000  0.95007000  1.0
  O  O114  1  0.42199000  0.88024000  0.10515000  1.0
  O  O115  1  0.27485000  0.89667000  0.82156000  1.0
