# generated using pymatgen
data_Cu3H18(C14N3)2
_symmetry_space_group_name_H-M   'P 1'
_cell_length_a   29.40940000
_cell_length_b   32.66650000
_cell_length_c   32.73250000
_cell_angle_alpha   88.56830000
_cell_angle_beta   88.95790000
_cell_angle_gamma   89.84090000
_symmetry_Int_Tables_number   1
_chemical_formula_structural   Cu3H18(C14N3)2
_chemical_formula_sum   'Cu12 H72 C112 N24'
_cell_volume   31431.08235228
_cell_formula_units_Z   4
loop_
 _symmetry_equiv_pos_site_id
 _symmetry_equiv_pos_as_xyz
  1  'x, y, z'
loop_
 _atom_site_type_symbol
 _atom_site_label
 _atom_site_symmetry_multiplicity
 _atom_site_fract_x
 _atom_site_fract_y
 _atom_site_fract_z
 _atom_site_occupancy
  Cu  Cu0  1  0.17291000  0.91093000  0.87902000  1.0
  Cu  Cu1  1  0.10957000  0.85161000  0.83350000  1.0
  Cu  Cu2  1  0.11775000  0.84453000  0.93062000  1.0
  Cu  Cu3  1  0.65364000  0.58641000  0.10702000  1.0
  Cu  Cu4  1  0.59818000  0.63764000  0.17358000  1.0
  Cu  Cu5  1  0.62707000  0.67801000  0.08838000  1.0
  Cu  Cu6  1  0.33310000  0.08512000  0.37991000  1.0
  Cu  Cu7  1  0.42041000  0.12851000  0.33760000  1.0
  Cu  Cu8  1  0.36410000  0.17304000  0.40651000  1.0
  Cu  Cu9  1  0.84714000  0.42477000  0.61740000  1.0
  Cu  Cu10  1  0.90598000  0.36019000  0.66905000  1.0
  Cu  Cu11  1  0.87008000  0.33828000  0.58191000  1.0
  H  H12  1  0.67664000  0.47849000  0.35001000  1.0
  H  H13  1  0.58427000  0.41559000  0.27249000  1.0
  H  H14  1  0.70856000  0.44227000  0.41036000  1.0
  H  H15  1  0.66016000  0.32163000  0.44542000  1.0
  H  H16  1  0.59925000  0.28922000  0.40554000  1.0
  H  H17  1  0.55565000  0.34670000  0.29295000  1.0
  H  H18  1  0.17449000  0.01915000  0.65707000  1.0
  H  H19  1  0.08232000  0.08837000  0.73265000  1.0
  H  H20  1  0.19607000  0.04540000  0.58784000  1.0
  H  H21  1  0.13934000  0.15897000  0.54190000  1.0
  H  H22  1  0.08108000  0.19535000  0.58277000  1.0
  H  H23  1  0.04654000  0.15184000  0.70483000  1.0
  H  H24  1  0.82236000  0.52956000  0.82996000  1.0
  H  H25  1  0.92590000  0.59995000  0.76552000  1.0
  H  H26  1  0.78952000  0.55490000  0.89531000  1.0
  H  H27  1  0.84365000  0.66368000  0.94815000  1.0
  H  H28  1  0.90795000  0.70003000  0.91434000  1.0
  H  H29  1  0.95934000  0.66059000  0.79748000  1.0
  H  H30  1  0.29373000  0.94726000  0.19412000  1.0
  H  H31  1  0.42908000  0.91057000  0.22795000  1.0
  H  H32  1  0.25836000  0.91845000  0.13314000  1.0
  H  H33  1  0.33566000  0.83794000  0.05596000  1.0
  H  H34  1  0.41082000  0.81231000  0.07827000  1.0
  H  H35  1  0.46902000  0.85575000  0.18907000  1.0
  H  H36  1  0.17683000  0.98564000  0.81315000  1.0
  H  H37  1  0.11307000  0.89139000  0.74329000  1.0
  H  H38  1  0.17112000  0.84409000  0.01427000  1.0
  H  H39  1  0.25663000  0.92314000  0.93771000  1.0
  H  H40  1  0.04090000  0.77995000  0.81868000  1.0
  H  H41  1  0.03770000  0.78115000  0.95106000  1.0
  H  H42  1  0.65343000  0.49896000  0.15107000  1.0
  H  H43  1  0.59595000  0.57265000  0.24742000  1.0
  H  H44  1  0.69531000  0.69919000  0.01426000  1.0
  H  H45  1  0.72388000  0.57006000  0.03395000  1.0
  H  H46  1  0.53383000  0.70787000  0.20906000  1.0
  H  H47  1  0.56318000  0.75625000  0.08699000  1.0
  H  H48  1  0.32747000  0.00535000  0.32711000  1.0
  H  H49  1  0.44911000  0.06109000  0.27428000  1.0
  H  H50  1  0.28686000  0.19350000  0.47147000  1.0
  H  H51  1  0.25278000  0.06802000  0.44517000  1.0
  H  H52  1  0.50099000  0.19276000  0.32152000  1.0
  H  H53  1  0.42837000  0.24854000  0.42219000  1.0
  H  H54  1  0.84295000  0.49784000  0.67904000  1.0
  H  H55  1  0.90603000  0.40409000  0.75495000  1.0
  H  H56  1  0.80130000  0.33646000  0.50824000  1.0
  H  H57  1  0.78255000  0.46113000  0.54760000  1.0
  H  H58  1  0.97924000  0.28968000  0.68282000  1.0
  H  H59  1  0.93171000  0.26099000  0.56234000  1.0
  H  H60  1  0.12495000  0.03135000  0.76268000  1.0
  H  H61  1  0.14283000  0.96644000  0.69791000  1.0
  H  H62  1  0.63695000  0.51625000  0.29377000  1.0
  H  H63  1  0.62497000  0.45511000  0.22491000  1.0
  H  H64  1  0.32479000  0.97239000  0.25566000  1.0
  H  H65  1  0.42852000  0.98080000  0.24618000  1.0
  H  H66  1  0.88471000  0.54473000  0.73085000  1.0
  H  H67  1  0.86955000  0.47707000  0.79658000  1.0
  H  H68  1  0.22140000  0.87982000  0.07383000  1.0
  H  H69  1  0.29835000  0.88743000  0.00931000  1.0
  H  H70  1  0.72392000  0.34704000  0.47853000  1.0
  H  H71  1  0.73850000  0.44020000  0.47224000  1.0
  H  H72  1  0.76262000  0.57565000  0.96283000  1.0
  H  H73  1  0.76969000  0.66923000  0.96870000  1.0
  H  H74  1  0.21469000  0.06895000  0.51834000  1.0
  H  H75  1  0.21205000  0.16309000  0.51543000  1.0
  H  H76  1  0.99010000  0.72032000  0.82503000  1.0
  H  H77  1  0.97460000  0.72873000  0.91768000  1.0
  H  H78  1  0.53307000  0.27290000  0.31255000  1.0
  H  H79  1  0.51767000  0.27922000  0.40527000  1.0
  H  H80  1  0.01865000  0.21889000  0.68023000  1.0
  H  H81  1  0.00701000  0.21578000  0.58716000  1.0
  H  H82  1  0.48503000  0.78995000  0.09640000  1.0
  H  H83  1  0.49342000  0.78560000  0.18988000  1.0
  C  C84  1  0.65811000  0.41722000  0.37100000  1.0
  C  C85  1  0.65653000  0.45142000  0.34355000  1.0
  C  C86  1  0.63090000  0.45087000  0.30780000  1.0
  C  C87  1  0.60531000  0.41586000  0.29960000  1.0
  C  C88  1  0.60415000  0.38157000  0.32688000  1.0
  C  C89  1  0.63071000  0.38234000  0.36296000  1.0
  C  C90  1  0.68647000  0.41613000  0.40545000  1.0
  C  C91  1  0.68832000  0.38155000  0.43187000  1.0
  C  C92  1  0.65957000  0.34832000  0.42464000  1.0
  C  C93  1  0.63002000  0.34816000  0.39099000  1.0
  C  C94  1  0.60024000  0.31519000  0.38389000  1.0
  C  C95  1  0.57275000  0.31480000  0.34927000  1.0
  C  C96  1  0.57635000  0.34710000  0.32031000  1.0
  C  C97  1  0.14805000  0.07461000  0.62879000  1.0
  C  C98  1  0.15158000  0.04515000  0.66102000  1.0
  C  C99  1  0.12812000  0.04976000  0.69839000  1.0
  C  C100  1  0.10054000  0.08447000  0.70362000  1.0
  C  C101  1  0.09470000  0.11414000  0.67188000  1.0
  C  C102  1  0.11904000  0.10928000  0.63416000  1.0
  C  C103  1  0.17341000  0.07161000  0.59179000  1.0
  C  C104  1  0.17204000  0.10245000  0.56117000  1.0
  C  C105  1  0.14215000  0.13565000  0.56619000  1.0
  C  C106  1  0.11494000  0.13945000  0.60203000  1.0
  C  C107  1  0.08416000  0.17235000  0.60734000  1.0
  C  C108  1  0.05877000  0.17666000  0.64379000  1.0
  C  C109  1  0.06542000  0.14830000  0.67609000  1.0
  C  C110  1  0.84450000  0.58394000  0.86057000  1.0
  C  C111  1  0.84576000  0.55547000  0.82861000  1.0
  C  C112  1  0.87497000  0.56095000  0.79452000  1.0
  C  C113  1  0.90338000  0.59541000  0.79214000  1.0
  C  C114  1  0.90506000  0.62353000  0.82419000  1.0
  C  C115  1  0.87500000  0.61791000  0.85858000  1.0
  C  C116  1  0.81345000  0.58044000  0.89406000  1.0
  C  C117  1  0.81144000  0.60981000  0.92466000  1.0
  C  C118  1  0.84311000  0.64198000  0.92334000  1.0
  C  C119  1  0.87532000  0.64656000  0.89091000  1.0
  C  C120  1  0.90777000  0.67846000  0.88941000  1.0
  C  C121  1  0.93881000  0.68331000  0.85644000  1.0
  C  C122  1  0.93606000  0.65659000  0.82366000  1.0
  C  C123  1  0.32593000  0.90358000  0.15420000  1.0
  C  C124  1  0.32430000  0.92905000  0.18848000  1.0
  C  C125  1  0.36187000  0.93340000  0.21383000  1.0
  C  C126  1  0.40063000  0.90900000  0.20709000  1.0
  C  C127  1  0.40330000  0.88170000  0.17411000  1.0
  C  C128  1  0.36632000  0.88054000  0.14635000  1.0
  C  C129  1  0.28938000  0.90109000  0.12686000  1.0
  C  C130  1  0.29318000  0.87883000  0.09086000  1.0
  C  C131  1  0.33312000  0.85653000  0.08316000  1.0
  C  C132  1  0.36955000  0.85615000  0.11084000  1.0
  C  C133  1  0.40864000  0.83160000  0.10502000  1.0
  C  C134  1  0.44334000  0.82959000  0.13389000  1.0
  C  C135  1  0.44106000  0.85544000  0.16758000  1.0
  C  C136  1  0.16068000  0.95833000  0.80208000  1.0
  C  C137  1  0.14375000  0.95083000  0.76304000  1.0
  C  C138  1  0.12904000  0.90993000  0.76604000  1.0
  C  C139  1  0.18613000  0.86406000  0.99073000  1.0
  C  C140  1  0.22847000  0.88397000  0.98987000  1.0
  C  C141  1  0.23021000  0.90374000  0.95124000  1.0
  C  C142  1  0.04588000  0.78492000  0.85093000  1.0
  C  C143  1  0.02400000  0.76667000  0.88537000  1.0
  C  C144  1  0.04408000  0.78588000  0.91850000  1.0
  C  C145  1  0.63928000  0.52270000  0.17016000  1.0
  C  C146  1  0.62547000  0.52050000  0.21149000  1.0
  C  C147  1  0.61086000  0.56057000  0.21962000  1.0
  C  C148  1  0.69683000  0.66732000  0.02433000  1.0
  C  C149  1  0.72420000  0.63539000  0.00950000  1.0
  C  C150  1  0.71099000  0.60123000  0.03395000  1.0
  C  C151  1  0.54627000  0.71443000  0.17816000  1.0
  C  C152  1  0.53469000  0.74674000  0.15108000  1.0
  C  C153  1  0.56058000  0.73878000  0.11557000  1.0
  C  C154  1  0.35611000  0.02471000  0.31827000  1.0
  C  C155  1  0.39024000  0.01858000  0.28836000  1.0
  C  C156  1  0.41868000  0.05281000  0.29181000  1.0
  C  C157  1  0.28417000  0.16274000  0.45991000  1.0
  C  C158  1  0.25455000  0.13091000  0.47238000  1.0
  C  C159  1  0.26711000  0.09847000  0.44695000  1.0
  C  C160  1  0.47728000  0.20168000  0.34548000  1.0
  C  C161  1  0.47957000  0.23460000  0.37225000  1.0
  C  C162  1  0.44062000  0.22967000  0.39744000  1.0
  C  C163  1  0.85938000  0.47073000  0.69176000  1.0
  C  C164  1  0.87416000  0.46296000  0.73183000  1.0
  C  C165  1  0.89062000  0.42256000  0.73087000  1.0
  C  C166  1  0.80123000  0.36551000  0.52359000  1.0
  C  C167  1  0.77709000  0.40171000  0.51419000  1.0
  C  C168  1  0.79227000  0.42943000  0.54317000  1.0
  C  C169  1  0.96199000  0.28754000  0.65392000  1.0
  C  C170  1  0.96958000  0.26049000  0.62166000  1.0
  C  C171  1  0.93802000  0.27333000  0.59219000  1.0
  C  C172  1  0.13166000  0.01971000  0.73206000  1.0
  C  C173  1  0.14011000  0.97927000  0.72843000  1.0
  C  C174  1  0.63123000  0.48658000  0.27993000  1.0
  C  C175  1  0.62672000  0.48509000  0.23899000  1.0
  C  C176  1  0.35920000  0.96436000  0.24526000  1.0
  C  C177  1  0.39450000  0.98613000  0.25911000  1.0
  C  C178  1  0.87704000  0.53174000  0.76136000  1.0
  C  C179  1  0.87297000  0.49070000  0.76579000  1.0
  C  C180  1  0.25620000  0.88004000  0.06139000  1.0
  C  C181  1  0.26332000  0.88365000  0.02061000  1.0
  C  C182  1  0.71987000  0.37809000  0.46572000  1.0
  C  C183  1  0.74397000  0.40845000  0.48245000  1.0
  C  C184  1  0.77626000  0.60639000  0.95669000  1.0
  C  C185  1  0.75834000  0.63824000  0.97717000  1.0
  C  C186  1  0.20318000  0.09977000  0.52599000  1.0
  C  C187  1  0.22119000  0.13240000  0.50535000  1.0
  C  C188  1  0.97397000  0.71476000  0.85506000  1.0
  C  C189  1  0.98904000  0.73567000  0.88727000  1.0
  C  C190  1  0.53917000  0.28236000  0.34383000  1.0
  C  C191  1  0.51361000  0.26638000  0.37497000  1.0
  C  C192  1  0.02557000  0.20963000  0.64880000  1.0
  C  C193  1  0.00209000  0.22745000  0.61797000  1.0
  C  C194  1  0.47926000  0.79920000  0.12800000  1.0
  C  C195  1  0.50180000  0.77904000  0.15800000  1.0
  N  N196  1  0.13587000  0.89464000  0.80412000  1.0
  N  N197  1  0.15597000  0.92464000  0.82638000  1.0
  N  N198  1  0.19176000  0.89644000  0.93088000  1.0
  N  N199  1  0.16452000  0.87145000  0.95531000  1.0
  N  N200  1  0.07539000  0.81327000  0.90483000  1.0
  N  N201  1  0.07644000  0.81261000  0.86280000  1.0
  N  N202  1  0.61597000  0.58465000  0.18583000  1.0
  N  N203  1  0.63391000  0.56119000  0.15512000  1.0
  N  N204  1  0.67840000  0.61216000  0.06103000  1.0
  N  N205  1  0.66942000  0.65320000  0.05494000  1.0
  N  N206  1  0.58532000  0.70440000  0.12118000  1.0
  N  N207  1  0.57626000  0.68907000  0.15999000  1.0
  N  N208  1  0.40233000  0.07758000  0.32101000  1.0
  N  N209  1  0.36362000  0.05991000  0.33767000  1.0
  N  N210  1  0.30161000  0.11020000  0.42168000  1.0
  N  N211  1  0.31243000  0.15006000  0.42991000  1.0
  N  N212  1  0.41693000  0.19667000  0.38624000  1.0
  N  N213  1  0.43992000  0.17902000  0.35422000  1.0
  N  N214  1  0.88638000  0.40772000  0.69302000  1.0
  N  N215  1  0.86665000  0.43760000  0.66880000  1.0
  N  N216  1  0.82245000  0.41090000  0.56816000  1.0
  N  N217  1  0.82815000  0.37125000  0.55576000  1.0
  N  N218  1  0.91351000  0.30523000  0.60592000  1.0
  N  N219  1  0.92854000  0.31412000  0.64425000  1.0
