# generated using pymatgen
data_Ag2H10C5(SN2)2
_symmetry_space_group_name_H-M   'P 1'
_cell_length_a   5.94793000
_cell_length_b   6.23385000
_cell_length_c   14.11160000
_cell_angle_alpha   89.99430000
_cell_angle_beta   92.94330000
_cell_angle_gamma   89.99460000
_symmetry_Int_Tables_number   1
_chemical_formula_structural   Ag2H10C5(SN2)2
_chemical_formula_sum   'Ag4 H20 C10 S4 N8'
_cell_volume   522.54676920
_cell_formula_units_Z   2
loop_
 _symmetry_equiv_pos_site_id
 _symmetry_equiv_pos_as_xyz
  1  'x, y, z'
loop_
 _atom_site_type_symbol
 _atom_site_label
 _atom_site_symmetry_multiplicity
 _atom_site_fract_x
 _atom_site_fract_y
 _atom_site_fract_z
 _atom_site_occupancy
  Ag  Ag0  1  0.60642000  0.21527000  0.95735000  1.0
  Ag  Ag1  1  0.60640000  0.78475000  0.45734000  1.0
  Ag  Ag2  1  0.39359000  0.78486000  0.04265000  1.0
  Ag  Ag3  1  0.39361000  0.21513000  0.54266000  1.0
  H  H4  1  0.39955000  0.46341000  0.82148000  1.0
  H  H5  1  0.39961000  0.53660000  0.32152000  1.0
  H  H6  1  0.60042000  0.53665000  0.17851000  1.0
  H  H7  1  0.60038000  0.46334000  0.67846000  1.0
  H  H8  1  0.23446000  0.43977000  0.90837000  1.0
  H  H9  1  0.23449000  0.56026000  0.40840000  1.0
  H  H10  1  0.76552000  0.56029000  0.09163000  1.0
  H  H11  1  0.76551000  0.43968000  0.59159000  1.0
  H  H12  1  0.27913000  0.11369000  0.75845000  1.0
  H  H13  1  0.27909000  0.88630000  0.25843000  1.0
  H  H14  1  0.72089000  0.88633000  0.24156000  1.0
  H  H15  1  0.72093000  0.11367000  0.74157000  1.0
  H  H16  1  0.10153000  0.09511000  0.85460000  1.0
  H  H17  1  0.10147000  0.90490000  0.35457000  1.0
  H  H18  1  0.89849000  0.90492000  0.14541000  1.0
  H  H19  1  0.89857000  0.09507000  0.64543000  1.0
  H  H20  1  0.91444000  0.44464000  0.79944000  1.0
  H  H21  1  0.91450000  0.55535000  0.29946000  1.0
  H  H22  1  0.08553000  0.55536000  0.20055000  1.0
  H  H23  1  0.08548000  0.44464000  0.70054000  1.0
  C  C24  1  0.89458000  0.77179000  0.93174000  1.0
  C  C25  1  0.89460000  0.22822000  0.43173000  1.0
  C  C26  1  0.10542000  0.22825000  0.06827000  1.0
  C  C27  1  0.10540000  0.77174000  0.56827000  1.0
  C  C28  1  0.17797000  0.20861000  0.80626000  1.0
  C  C29  1  0.17795000  0.79139000  0.30625000  1.0
  C  C30  1  0.82204000  0.79142000  0.19374000  1.0
  C  C31  1  0.82206000  0.20858000  0.69375000  1.0
  C  C32  1  0.99999000  0.33877000  0.75000000  1.0
  C  C33  1  0.00000000  0.66123000  0.25000000  1.0
  S  S34  1  0.64741000  0.81294000  0.87902000  1.0
  S  S35  1  0.64744000  0.18708000  0.37901000  1.0
  S  S36  1  0.35259000  0.18712000  0.12099000  1.0
  S  S37  1  0.35256000  0.81287000  0.62099000  1.0
  N  N38  1  0.07321000  0.74055000  0.97007000  1.0
  N  N39  1  0.07321000  0.25946000  0.47006000  1.0
  N  N40  1  0.92679000  0.25951000  0.02994000  1.0
  N  N41  1  0.92679000  0.74049000  0.52993000  1.0
  N  N42  1  0.32954000  0.35096000  0.86394000  1.0
  N  N43  1  0.32954000  0.64906000  0.36395000  1.0
  N  N44  1  0.67045000  0.64909000  0.13606000  1.0
  N  N45  1  0.67046000  0.35088000  0.63604000  1.0
