# generated using pymatgen
data_Nd2CoH32(C4O5)4
_symmetry_space_group_name_H-M   'P 1'
_cell_length_a   8.25048000
_cell_length_b   9.46660000
_cell_length_c   11.24240000
_cell_angle_alpha   111.07500000
_cell_angle_beta   105.28700000
_cell_angle_gamma   93.23270000
_symmetry_Int_Tables_number   1
_chemical_formula_structural   Nd2CoH32(C4O5)4
_chemical_formula_sum   'Nd2 Co1 H32 C16 O20'
_cell_volume   779.12100882
_cell_formula_units_Z   1
loop_
 _symmetry_equiv_pos_site_id
 _symmetry_equiv_pos_as_xyz
  1  'x, y, z'
loop_
 _atom_site_type_symbol
 _atom_site_label
 _atom_site_symmetry_multiplicity
 _atom_site_fract_x
 _atom_site_fract_y
 _atom_site_fract_z
 _atom_site_occupancy
  Nd  Nd0  1  0.10674000  0.92008000  0.34340000  1.0
  Nd  Nd1  1  0.89324000  0.07993000  0.65660000  1.0
  Co  Co2  1  0.00000000  0.99999000  0.00000000  1.0
  H  H3  1  0.23699000  0.91602000  0.61541000  1.0
  H  H4  1  0.76301000  0.08400000  0.38460000  1.0
  H  H5  1  0.41118000  0.97133000  0.59671000  1.0
  H  H6  1  0.58882000  0.02869000  0.40329000  1.0
  H  H7  1  0.05777000  0.59427000  0.19635000  1.0
  H  H8  1  0.94227000  0.40572000  0.80368000  1.0
  H  H9  1  0.23470000  0.59637000  0.29672000  1.0
  H  H10  1  0.76533000  0.40366000  0.70333000  1.0
  H  H11  1  0.39194000  0.85269000  0.00981000  1.0
  H  H12  1  0.60805000  0.14730000  0.99018000  1.0
  H  H13  1  0.57972000  0.93464000  0.15208000  1.0
  H  H14  1  0.42027000  0.06534000  0.84791000  1.0
  H  H15  1  0.44092000  0.05296000  0.09436000  1.0
  H  H16  1  0.55908000  0.94703000  0.90564000  1.0
  H  H17  1  0.57286000  0.63324000  0.01325000  1.0
  H  H18  1  0.42714000  0.36676000  0.98675000  1.0
  H  H19  1  0.69518000  0.50011000  0.93990000  1.0
  H  H20  1  0.30482000  0.49988000  0.06011000  1.0
  H  H21  1  0.59378000  0.61629000  0.85520000  1.0
  H  H22  1  0.40622000  0.38369000  0.14480000  1.0
  H  H23  1  0.27325000  0.40225000  0.75446000  1.0
  H  H24  1  0.72674000  0.59774000  0.24553000  1.0
  H  H25  1  0.39252000  0.44673000  0.65501000  1.0
  H  H26  1  0.60747000  0.55327000  0.34498000  1.0
  H  H27  1  0.45068000  0.30966000  0.72639000  1.0
  H  H28  1  0.54931000  0.69034000  0.27360000  1.0
  H  H29  1  0.88939000  0.41227000  0.28808000  1.0
  H  H30  1  0.11062000  0.58774000  0.71191000  1.0
  H  H31  1  0.90643000  0.34727000  0.42213000  1.0
  H  H32  1  0.09359000  0.65275000  0.57786000  1.0
  H  H33  1  0.70928000  0.30558000  0.29675000  1.0
  H  H34  1  0.29073000  0.69444000  0.70324000  1.0
  C  C35  1  0.33792000  0.93657000  0.19394000  1.0
  C  C36  1  0.66208000  0.06342000  0.80605000  1.0
  C  C37  1  0.81708000  0.73729000  0.02435000  1.0
  C  C38  1  0.18293000  0.26270000  0.97566000  1.0
  C  C39  1  0.23411000  0.22598000  0.55812000  1.0
  C  C40  1  0.76587000  0.77403000  0.44187000  1.0
  C  C41  1  0.89232000  0.16923000  0.23366000  1.0
  C  C42  1  0.10768000  0.83078000  0.76633000  1.0
  C  C43  1  0.44778000  0.94506000  0.10931000  1.0
  C  C44  1  0.55222000  0.05493000  0.89069000  1.0
  C  C45  1  0.66017000  0.61363000  0.95225000  1.0
  C  C46  1  0.33982000  0.38636000  0.04776000  1.0
  C  C47  1  0.34251000  0.35669000  0.68195000  1.0
  C  C48  1  0.65748000  0.64331000  0.31804000  1.0
  C  C49  1  0.84810000  0.31910000  0.31486000  1.0
  C  C50  1  0.15191000  0.68091000  0.68513000  1.0
  O  O51  1  0.10117000  0.15102000  0.56229000  1.0
  O  O52  1  0.89882000  0.84898000  0.43770000  1.0
  O  O53  1  0.27851000  0.18386000  0.45294000  1.0
  O  O54  1  0.72147000  0.81615000  0.54705000  1.0
  O  O55  1  0.18669000  0.96542000  0.16479000  1.0
  O  O56  1  0.81331000  0.03456000  0.83520000  1.0
  O  O57  1  0.39285000  0.89916000  0.29515000  1.0
  O  O58  1  0.60715000  0.10085000  0.70486000  1.0
  O  O59  1  0.92997000  0.16212000  0.12957000  1.0
  O  O60  1  0.07003000  0.83788000  0.87042000  1.0
  O  O61  1  0.88537000  0.05872000  0.27446000  1.0
  O  O62  1  0.11462000  0.94129000  0.72554000  1.0
  O  O63  1  0.82380000  0.84109000  0.97837000  1.0
  O  O64  1  0.17621000  0.15890000  0.02163000  1.0
  O  O65  1  0.92539000  0.72790000  0.12508000  1.0
  O  O66  1  0.07461000  0.27210000  0.87493000  1.0
  O  O67  1  0.29939000  0.90239000  0.54813000  1.0
  O  O68  1  0.70060000  0.09763000  0.45187000  1.0
  O  O69  1  0.12623000  0.63285000  0.29097000  1.0
  O  O70  1  0.87380000  0.36717000  0.70906000  1.0
