# generated using pymatgen
data_AlH14C20N2O5
_symmetry_space_group_name_H-M   'P 1'
_cell_length_a   6.62916000
_cell_length_b   22.04670000
_cell_length_c   27.40540000
_cell_angle_alpha   78.57970000
_cell_angle_beta   88.70430000
_cell_angle_gamma   89.94830000
_symmetry_Int_Tables_number   1
_chemical_formula_structural   AlH14C20N2O5
_chemical_formula_sum   'Al4 H56 C80 N8 O20'
_cell_volume   3924.99825046
_cell_formula_units_Z   4
loop_
 _symmetry_equiv_pos_site_id
 _symmetry_equiv_pos_as_xyz
  1  'x, y, z'
loop_
 _atom_site_type_symbol
 _atom_site_label
 _atom_site_symmetry_multiplicity
 _atom_site_fract_x
 _atom_site_fract_y
 _atom_site_fract_z
 _atom_site_occupancy
  Al  Al0  1  0.80264000  0.74684000  0.75136000  1.0
  Al  Al1  1  0.19544000  0.25356000  0.24843000  1.0
  Al  Al2  1  0.30226000  0.75226000  0.74720000  1.0
  Al  Al3  1  0.69569000  0.24821000  0.25253000  1.0
  H  H4  1  0.53124000  0.55712000  0.04294000  1.0
  H  H5  1  0.46790000  0.44352000  0.95727000  1.0
  H  H6  1  0.04574000  0.93724000  0.45842000  1.0
  H  H7  1  0.95343000  0.06242000  0.54056000  1.0
  H  H8  1  0.33316000  0.56432000  0.80037000  1.0
  H  H9  1  0.66542000  0.43632000  0.19975000  1.0
  H  H10  1  0.81511000  0.93817000  0.69747000  1.0
  H  H11  1  0.18216000  0.06216000  0.30164000  1.0
  H  H12  1  0.54336000  0.51824000  0.13052000  1.0
  H  H13  1  0.45505000  0.48245000  0.86963000  1.0
  H  H14  1  0.06168000  0.97800000  0.37113000  1.0
  H  H15  1  0.93631000  0.02210000  0.62794000  1.0
  H  H16  1  0.67174000  0.56980000  0.95880000  1.0
  H  H17  1  0.32737000  0.43101000  0.04142000  1.0
  H  H18  1  0.17622000  0.92557000  0.54207000  1.0
  H  H19  1  0.82338000  0.07384000  0.45688000  1.0
  H  H20  1  0.31962000  0.89741000  0.93928000  1.0
  H  H21  1  0.68032000  0.10286000  0.06027000  1.0
  H  H22  1  0.82376000  0.54767000  0.59398000  1.0
  H  H23  1  0.17323000  0.45319000  0.40513000  1.0
  H  H24  1  0.34420000  0.83260000  0.87409000  1.0
  H  H25  1  0.65436000  0.16773000  0.12538000  1.0
  H  H26  1  0.85831000  0.61415000  0.65735000  1.0
  H  H27  1  0.13931000  0.38608000  0.34220000  1.0
  H  H28  1  0.27247000  0.01421000  0.93501000  1.0
  H  H29  1  0.72796000  0.98606000  0.06485000  1.0
  H  H30  1  0.77073000  0.57792000  0.49849000  1.0
  H  H31  1  0.22570000  0.42340000  0.50072000  1.0
  H  H32  1  0.26734000  0.07929000  0.99890000  1.0
  H  H33  1  0.73325000  0.92104000  0.00089000  1.0
  H  H34  1  0.75971000  0.51700000  0.43187000  1.0
  H  H35  1  0.23685000  0.48433000  0.56733000  1.0
  H  H36  1  0.83301000  0.66602000  0.87053000  1.0
  H  H37  1  0.83540000  0.63888000  0.93405000  1.0
  H  H38  1  0.16399000  0.36190000  0.06623000  1.0
  H  H39  1  0.16621000  0.33473000  0.12975000  1.0
  H  H40  1  0.34807000  0.82881000  0.62814000  1.0
  H  H41  1  0.34919000  0.85857000  0.56603000  1.0
  H  H42  1  0.65001000  0.14105000  0.43318000  1.0
  H  H43  1  0.65056000  0.17103000  0.37117000  1.0
  H  H44  1  0.72451000  0.87284000  0.83858000  1.0
  H  H45  1  0.27417000  0.12800000  0.16120000  1.0
  H  H46  1  0.24279000  0.67179000  0.63457000  1.0
  H  H47  1  0.75523000  0.32893000  0.36536000  1.0
  H  H48  1  0.66740000  0.98475000  0.91828000  1.0
  H  H49  1  0.56099000  0.95064000  0.87443000  1.0
  H  H50  1  0.43906000  0.05035000  0.12543000  1.0
  H  H51  1  0.33315000  0.01604000  0.08160000  1.0
  H  H52  1  0.06362000  0.63916000  0.56940000  1.0
  H  H53  1  0.16647000  0.59232000  0.53271000  1.0
  H  H54  1  0.83041000  0.40928000  0.46670000  1.0
  H  H55  1  0.93377000  0.36208000  0.43037000  1.0
  H  H56  1  0.53183000  0.69999000  0.80690000  1.0
  H  H57  1  0.46640000  0.30098000  0.19312000  1.0
  H  H58  1  0.03925000  0.80114000  0.69325000  1.0
  H  H59  1  0.95880000  0.19896000  0.30629000  1.0
  C  C60  1  0.56686000  0.68912000  0.68526000  1.0
  C  C61  1  0.43118000  0.31109000  0.31469000  1.0
  C  C62  1  0.03948000  0.80963000  0.81445000  1.0
  C  C63  1  0.95849000  0.19107000  0.18507000  1.0
  C  C64  1  0.55693000  0.84939000  0.69305000  1.0
  C  C65  1  0.44097000  0.15078000  0.30628000  1.0
  C  C66  1  0.06866000  0.65055000  0.80527000  1.0
  C  C67  1  0.92974000  0.35010000  0.19484000  1.0
  C  C68  1  0.90006000  0.40505000  0.15519000  1.0
  C  C69  1  0.09853000  0.59564000  0.84499000  1.0
  C  C70  1  0.41010000  0.09426000  0.34540000  1.0
  C  C71  1  0.58806000  0.90578000  0.65374000  1.0
  C  C72  1  0.67301000  0.48957000  0.12520000  1.0
  C  C73  1  0.32553000  0.51114000  0.87494000  1.0
  C  C74  1  0.18858000  0.00758000  0.37584000  1.0
  C  C75  1  0.80962000  0.99246000  0.62320000  1.0
  C  C76  1  0.73957000  0.44457000  0.16316000  1.0
  C  C77  1  0.25904000  0.55614000  0.83697000  1.0
  C  C78  1  0.25446000  0.05389000  0.33770000  1.0
  C  C79  1  0.74335000  0.94629000  0.66139000  1.0
  C  C80  1  0.00286000  0.41306000  0.10837000  1.0
  C  C81  1  0.99614000  0.58766000  0.89186000  1.0
  C  C82  1  0.50652000  0.08751000  0.39148000  1.0
  C  C83  1  0.49219000  0.91229000  0.60763000  1.0
  C  C84  1  0.94396000  0.46335000  0.06870000  1.0
  C  C85  1  0.05511000  0.53738000  0.93152000  1.0
  C  C86  1  0.44961000  0.03629000  0.43115000  1.0
  C  C87  1  0.54946000  0.96337000  0.56786000  1.0
  C  C88  1  0.76791000  0.49754000  0.07751000  1.0
  C  C89  1  0.23102000  0.50316000  0.92267000  1.0
  C  C90  1  0.27907000  0.00001000  0.42295000  1.0
  C  C91  1  0.71978000  0.99977000  0.57605000  1.0
  C  C92  1  0.04532000  0.47924000  0.02019000  1.0
  C  C93  1  0.95380000  0.52150000  0.98001000  1.0
  C  C94  1  0.54549000  0.02151000  0.47927000  1.0
  C  C95  1  0.45384000  0.97799000  0.51970000  1.0
  C  C96  1  0.75957000  0.54548000  0.98953000  1.0
  C  C97  1  0.23938000  0.45517000  0.01064000  1.0
  C  C98  1  0.26482000  0.95129000  0.51096000  1.0
  C  C99  1  0.73457000  0.04821000  0.48799000  1.0
  C  C100  1  0.67692000  0.53660000  0.03654000  1.0
  C  C101  1  0.32208000  0.46404000  0.96361000  1.0
  C  C102  1  0.18780000  0.95947000  0.46429000  1.0
  C  C103  1  0.81145000  0.04014000  0.53468000  1.0
  C  C104  1  0.85452000  0.87913000  0.86078000  1.0
  C  C105  1  0.14435000  0.12150000  0.13899000  1.0
  C  C106  1  0.36941000  0.64441000  0.62499000  1.0
  C  C107  1  0.62831000  0.35630000  0.37479000  1.0
  C  C108  1  0.84005000  0.91718000  0.89606000  1.0
  C  C109  1  0.15952000  0.08341000  0.10375000  1.0
  C  C110  1  0.34808000  0.60775000  0.58901000  1.0
  C  C111  1  0.64929000  0.39325000  0.41057000  1.0
  C  C112  1  0.01060000  0.92348000  0.92514000  1.0
  C  C113  1  0.98925000  0.07691000  0.07464000  1.0
  C  C114  1  0.51590000  0.57269000  0.57732000  1.0
  C  C115  1  0.48116000  0.42836000  0.42203000  1.0
  C  C116  1  0.18964000  0.89272000  0.91656000  1.0
  C  C117  1  0.80991000  0.10761000  0.08308000  1.0
  C  C118  1  0.69657000  0.57550000  0.60254000  1.0
  C  C119  1  0.30062000  0.42532000  0.39678000  1.0
  C  C120  1  0.20474000  0.85630000  0.88053000  1.0
  C  C121  1  0.79409000  0.14409000  0.11905000  1.0
  C  C122  1  0.71747000  0.61229000  0.63796000  1.0
  C  C123  1  0.27999000  0.38817000  0.36162000  1.0
  C  C124  1  0.03442000  0.84922000  0.85272000  1.0
  C  C125  1  0.96411000  0.15135000  0.14690000  1.0
  C  C126  1  0.55204000  0.64737000  0.64886000  1.0
  C  C127  1  0.44580000  0.35307000  0.35093000  1.0
  C  C128  1  0.15390000  0.00750000  0.96386000  1.0
  C  C129  1  0.84669000  0.99279000  0.03601000  1.0
  C  C130  1  0.65224000  0.54336000  0.49938000  1.0
  C  C131  1  0.34419000  0.45796000  0.49983000  1.0
  C  C132  1  0.15102000  0.04410000  0.99985000  1.0
  C  C133  1  0.84953000  0.95622000  1.00000000  1.0
  C  C134  1  0.64604000  0.50906000  0.46189000  1.0
  C  C135  1  0.35047000  0.49224000  0.53732000  1.0
  C  C136  1  0.99688000  0.03758000  0.03671000  1.0
  C  C137  1  0.00362000  0.96275000  0.96313000  1.0
  C  C138  1  0.49142000  0.46553000  0.46132000  1.0
  C  C139  1  0.50513000  0.53573000  0.53791000  1.0
  N  N140  1  0.85123000  0.62973000  0.89941000  1.0
  N  N141  1  0.14792000  0.37103000  0.10087000  1.0
  N  N142  1  0.35475000  0.86746000  0.60088000  1.0
  N  N143  1  0.64412000  0.13227000  0.39831000  1.0
  N  N144  1  0.65956000  0.94681000  0.90263000  1.0
  N  N145  1  0.34043000  0.05397000  0.09726000  1.0
  N  N146  1  0.16500000  0.60572000  0.56604000  1.0
  N  N147  1  0.83225000  0.39555000  0.43352000  1.0
  O  O148  1  0.37962000  0.83288000  0.70981000  1.0
  O  O149  1  0.61821000  0.16748000  0.28961000  1.0
  O  O150  1  0.89546000  0.67721000  0.79980000  1.0
  O  O151  1  0.10299000  0.32351000  0.20034000  1.0
  O  O152  1  0.73448000  0.69252000  0.70654000  1.0
  O  O153  1  0.26341000  0.30754000  0.29351000  1.0
  O  O154  1  0.20942000  0.78850000  0.80275000  1.0
  O  O155  1  0.78845000  0.21212000  0.19678000  1.0
  O  O156  1  0.71723000  0.81964000  0.70675000  1.0
  O  O157  1  0.28058000  0.18052000  0.29266000  1.0
  O  O158  1  0.22423000  0.67028000  0.77855000  1.0
  O  O159  1  0.77401000  0.33024000  0.22145000  1.0
  O  O160  1  0.86994000  0.79917000  0.79666000  1.0
  O  O161  1  0.12802000  0.20172000  0.20279000  1.0
  O  O162  1  0.40832000  0.71986000  0.69177000  1.0
  O  O163  1  0.58988000  0.28041000  0.30818000  1.0
  O  O164  1  0.54605000  0.73650000  0.78068000  1.0
  O  O165  1  0.45205000  0.26419000  0.21908000  1.0
  O  O166  1  0.05207000  0.76286000  0.71762000  1.0
  O  O167  1  0.94583000  0.23738000  0.28210000  1.0
