# generated using pymatgen
data_DyH21C25N4O7
_symmetry_space_group_name_H-M   'P 1'
_cell_length_a   8.66765000
_cell_length_b   16.24270000
_cell_length_c   20.34570000
_cell_angle_alpha   86.31910000
_cell_angle_beta   89.99980000
_cell_angle_gamma   89.99970000
_symmetry_Int_Tables_number   1
_chemical_formula_structural   DyH21C25N4O7
_chemical_formula_sum   'Dy4 H84 C100 N16 O28'
_cell_volume   2858.48148433
_cell_formula_units_Z   4
loop_
 _symmetry_equiv_pos_site_id
 _symmetry_equiv_pos_as_xyz
  1  'x, y, z'
loop_
 _atom_site_type_symbol
 _atom_site_label
 _atom_site_symmetry_multiplicity
 _atom_site_fract_x
 _atom_site_fract_y
 _atom_site_fract_z
 _atom_site_occupancy
  Dy  Dy0  1  0.21866000  0.75699000  0.71372000  1.0
  Dy  Dy1  1  0.71866000  0.74301000  0.78628000  1.0
  Dy  Dy2  1  0.78132000  0.24300000  0.28628000  1.0
  Dy  Dy3  1  0.28133000  0.25699000  0.21372000  1.0
  H  H4  1  0.75729000  0.78426000  0.62182000  1.0
  H  H5  1  0.25729000  0.71573000  0.87818000  1.0
  H  H6  1  0.24270000  0.21574000  0.37818000  1.0
  H  H7  1  0.74270000  0.28426000  0.12182000  1.0
  H  H8  1  0.95366000  0.85521000  0.54762000  1.0
  H  H9  1  0.45366000  0.64478000  0.95237000  1.0
  H  H10  1  0.04633000  0.14480000  0.45238000  1.0
  H  H11  1  0.54634000  0.35520000  0.04762000  1.0
  H  H12  1  0.66704000  0.07138000  0.52919000  1.0
  H  H13  1  0.16704000  0.42862000  0.97081000  1.0
  H  H14  1  0.33294000  0.92863000  0.47081000  1.0
  H  H15  1  0.83294000  0.57137000  0.02919000  1.0
  H  H16  1  0.46854000  0.99971000  0.60356000  1.0
  H  H17  1  0.96854000  0.50029000  0.89645000  1.0
  H  H18  1  0.53144000  0.00029000  0.39644000  1.0
  H  H19  1  0.03144000  0.49970000  0.10355000  1.0
  H  H20  1  0.63105000  0.51621000  0.86177000  1.0
  H  H21  1  0.13105000  0.98380000  0.63824000  1.0
  H  H22  1  0.36895000  0.48379000  0.13824000  1.0
  H  H23  1  0.86897000  0.01620000  0.36177000  1.0
  H  H24  1  0.64038000  0.36207000  0.88700000  1.0
  H  H25  1  0.14035000  0.13794000  0.61300000  1.0
  H  H26  1  0.35963000  0.63793000  0.11299000  1.0
  H  H27  1  0.85965000  0.86207000  0.38701000  1.0
  H  H28  1  0.23857000  0.33333333  0.76641000  1.0
  H  H29  1  0.73854000  0.16669000  0.73359000  1.0
  H  H30  1  0.76145000  0.66666667  0.23359000  1.0
  H  H31  1  0.26146000  0.83331000  0.26641000  1.0
  H  H32  1  0.22519000  0.48717000  0.74432000  1.0
  H  H33  1  0.72518000  0.01283000  0.75568000  1.0
  H  H34  1  0.77483000  0.51283000  0.25568000  1.0
  H  H35  1  0.27483000  0.98717000  0.24432000  1.0
  H  H36  1  0.61221000  0.96424000  0.88198000  1.0
  H  H37  1  0.11221000  0.53576000  0.61801000  1.0
  H  H38  1  0.38778000  0.03575000  0.11801000  1.0
  H  H39  1  0.88777000  0.46424000  0.38198000  1.0
  H  H40  1  0.59790000  0.11986000  0.87722000  1.0
  H  H41  1  0.09787000  0.38014000  0.62278000  1.0
  H  H42  1  0.40211000  0.88013000  0.12277000  1.0
  H  H43  1  0.90211000  0.61986000  0.37722000  1.0
  H  H44  1  0.17726000  0.11056000  0.76595000  1.0
  H  H45  1  0.67726000  0.38946000  0.73406000  1.0
  H  H46  1  0.82273000  0.88944000  0.23406000  1.0
  H  H47  1  0.32274000  0.61055000  0.26594000  1.0
  H  H48  1  0.19309000  0.95571000  0.77100000  1.0
  H  H49  1  0.69311000  0.54430000  0.72901000  1.0
  H  H50  1  0.80690000  0.04429000  0.22899000  1.0
  H  H51  1  0.30688000  0.45570000  0.27100000  1.0
  H  H52  1  0.54622000  0.62791000  0.63944000  1.0
  H  H53  1  0.04622000  0.87209000  0.86056000  1.0
  H  H54  1  0.45378000  0.37208000  0.36055000  1.0
  H  H55  1  0.95378000  0.12793000  0.13944000  1.0
  H  H56  1  0.53716000  0.57368000  0.56582000  1.0
  H  H57  1  0.03716000  0.92632000  0.93418000  1.0
  H  H58  1  0.46285000  0.42631000  0.43418000  1.0
  H  H59  1  0.96284000  0.07369000  0.06581000  1.0
  H  H60  1  0.41265000  0.54589000  0.63341000  1.0
  H  H61  1  0.91264000  0.95411000  0.86660000  1.0
  H  H62  1  0.58737000  0.45410000  0.36659000  1.0
  H  H63  1  0.08735000  0.04590000  0.13340000  1.0
  H  H64  1  0.37020000  0.59163000  0.44390000  1.0
  H  H65  1  0.87021000  0.90837000  0.05611000  1.0
  H  H66  1  0.62982000  0.40838000  0.55609000  1.0
  H  H67  1  0.12982000  0.09162000  0.94390000  1.0
  H  H68  1  0.17833000  0.56284000  0.46565000  1.0
  H  H69  1  0.67834000  0.93717000  0.03436000  1.0
  H  H70  1  0.82168000  0.43717000  0.53434000  1.0
  H  H71  1  0.32168000  0.06283000  0.96565000  1.0
  H  H72  1  0.33349000  0.52550000  0.51622000  1.0
  H  H73  1  0.83349000  0.97450000  0.98379000  1.0
  H  H74  1  0.66654000  0.47451000  0.48377000  1.0
  H  H75  1  0.16653000  0.02550000  0.01622000  1.0
  H  H76  1  0.04566000  0.69514000  0.51180000  1.0
  H  H77  1  0.54566000  0.80487000  0.98821000  1.0
  H  H78  1  0.95435000  0.30487000  0.48820000  1.0
  H  H79  1  0.45436000  0.19513000  0.01179000  1.0
  H  H80  1  0.17638000  0.72236000  0.44620000  1.0
  H  H81  1  0.67638000  0.77765000  0.05381000  1.0
  H  H82  1  0.82363000  0.27766000  0.55380000  1.0
  H  H83  1  0.32364000  0.22234000  0.94619000  1.0
  H  H84  1  0.18982000  0.77134000  0.52244000  1.0
  H  H85  1  0.68982000  0.72867000  0.97757000  1.0
  H  H86  1  0.81020000  0.22867000  0.47756000  1.0
  H  H87  1  0.31021000  0.27133000  0.02243000  1.0
  C  C88  1  0.49121000  0.84820000  0.66541000  1.0
  C  C89  1  0.99121000  0.65179000  0.83460000  1.0
  C  C90  1  0.50879000  0.15180000  0.33460000  1.0
  C  C91  1  0.00879000  0.34820000  0.16541000  1.0
  C  C92  1  0.60370000  0.88886000  0.61836000  1.0
  C  C93  1  0.10369000  0.61114000  0.88164000  1.0
  C  C94  1  0.39629000  0.11115000  0.38164000  1.0
  C  C95  1  0.89630000  0.38885000  0.11836000  1.0
  C  C96  1  0.73770000  0.84679000  0.60081000  1.0
  C  C97  1  0.23770000  0.65320000  0.89919000  1.0
  C  C98  1  0.26229000  0.15321000  0.39918000  1.0
  C  C99  1  0.76229000  0.34679000  0.10081000  1.0
  C  C100  1  0.84664000  0.88580000  0.55984000  1.0
  C  C101  1  0.34664000  0.61419000  0.94016000  1.0
  C  C102  1  0.15335000  0.11421000  0.44016000  1.0
  C  C103  1  0.65336000  0.38579000  0.05984000  1.0
  C  C104  1  0.82262000  0.96802000  0.53602000  1.0
  C  C105  1  0.32262000  0.53198000  0.96399000  1.0
  C  C106  1  0.17737000  0.03199000  0.46398000  1.0
  C  C107  1  0.67737000  0.46801000  0.03601000  1.0
  C  C108  1  0.68434000  0.00849000  0.55000000  1.0
  C  C109  1  0.18433000  0.49151000  0.95001000  1.0
  C  C110  1  0.31564000  0.99151000  0.45000000  1.0
  C  C111  1  0.81565000  0.50848000  0.05000000  1.0
  C  C112  1  0.57559000  0.96906000  0.59125000  1.0
  C  C113  1  0.07558000  0.53093000  0.90875000  1.0
  C  C114  1  0.42441000  0.03094000  0.40875000  1.0
  C  C115  1  0.92441000  0.46906000  0.09125000  1.0
  C  C116  1  0.42677000  0.60094000  0.78280000  1.0
  C  C117  1  0.92676000  0.89907000  0.71721000  1.0
  C  C118  1  0.57324000  0.39906000  0.21721000  1.0
  C  C119  1  0.07323000  0.10093000  0.28279000  1.0
  C  C120  1  0.42928000  0.50995000  0.80057000  1.0
  C  C121  1  0.92927000  0.99006000  0.69944000  1.0
  C  C122  1  0.57072000  0.49005000  0.19943000  1.0
  C  C123  1  0.07072000  0.00994000  0.30056000  1.0
  C  C124  1  0.54560000  0.47556000  0.84158000  1.0
  C  C125  1  0.04558000  0.02444000  0.65842000  1.0
  C  C126  1  0.45441000  0.52444000  0.15842000  1.0
  C  C127  1  0.95442000  0.97556000  0.34158000  1.0
  C  C128  1  0.55105000  0.39057000  0.85536000  1.0
  C  C129  1  0.05102000  0.10943000  0.64463000  1.0
  C  C130  1  0.44897000  0.60942000  0.14464000  1.0
  C  C131  1  0.94898000  0.89057000  0.35537000  1.0
  C  C132  1  0.44231000  0.33927000  0.82716000  1.0
  C  C133  1  0.94229000  0.16074000  0.67284000  1.0
  C  C134  1  0.55770000  0.66073000  0.17284000  1.0
  C  C135  1  0.05770000  0.83926000  0.32715000  1.0
  C  C136  1  0.32308000  0.37399000  0.78712000  1.0
  C  C137  1  0.82306000  0.12602000  0.71287000  1.0
  C  C138  1  0.67693000  0.62601000  0.21287000  1.0
  C  C139  1  0.17694000  0.87398000  0.28712000  1.0
  C  C140  1  0.31676000  0.45872000  0.77461000  1.0
  C  C141  1  0.81674000  0.04129000  0.72539000  1.0
  C  C142  1  0.68325000  0.54128000  0.22539000  1.0
  C  C143  1  0.18326000  0.95871000  0.27461000  1.0
  C  C144  1  0.41500000  0.85918000  0.82506000  1.0
  C  C145  1  0.91501000  0.64083000  0.67495000  1.0
  C  C146  1  0.58499000  0.14082000  0.17494000  1.0
  C  C147  1  0.08498000  0.35917000  0.32505000  1.0
  C  C148  1  0.40150000  0.95110000  0.82790000  1.0
  C  C149  1  0.90151000  0.54891000  0.67210000  1.0
  C  C150  1  0.59849000  0.04890000  0.17209000  1.0
  C  C151  1  0.09847000  0.45109000  0.32790000  1.0
  C  C152  1  0.51625000  0.99739000  0.85785000  1.0
  C  C153  1  0.01625000  0.50262000  0.64215000  1.0
  C  C154  1  0.48375000  0.00261000  0.14214000  1.0
  C  C155  1  0.98373000  0.49738000  0.35784000  1.0
  C  C156  1  0.50896000  0.08300000  0.85514000  1.0
  C  C157  1  0.00895000  0.41701000  0.64486000  1.0
  C  C158  1  0.49105000  0.91700000  0.14485000  1.0
  C  C159  1  0.99105000  0.58300000  0.35514000  1.0
  C  C160  1  0.38544000  0.12367000  0.82147000  1.0
  C  C161  1  0.88542000  0.37634000  0.67853000  1.0
  C  C162  1  0.61456000  0.87633000  0.17853000  1.0
  C  C163  1  0.11457000  0.62366000  0.32147000  1.0
  C  C164  1  0.27022000  0.07750000  0.79227000  1.0
  C  C165  1  0.77021000  0.42252000  0.70774000  1.0
  C  C166  1  0.72979000  0.92251000  0.20773000  1.0
  C  C167  1  0.22978000  0.57748000  0.29226000  1.0
  C  C168  1  0.27830000  0.99199000  0.79556000  1.0
  C  C169  1  0.77830000  0.50802000  0.70445000  1.0
  C  C170  1  0.72169000  0.00801000  0.20444000  1.0
  C  C171  1  0.22168000  0.49198000  0.29555000  1.0
  C  C172  1  0.34999000  0.66032000  0.58133000  1.0
  C  C173  1  0.85000000  0.83969000  0.91869000  1.0
  C  C174  1  0.65001000  0.33968000  0.41868000  1.0
  C  C175  1  0.15001000  0.16032000  0.08131000  1.0
  C  C176  1  0.46906000  0.59795000  0.60566000  1.0
  C  C177  1  0.96906000  0.90205000  0.89435000  1.0
  C  C178  1  0.53094000  0.40204000  0.39434000  1.0
  C  C179  1  0.03094000  0.09796000  0.10565000  1.0
  C  C180  1  0.29122000  0.57875000  0.48574000  1.0
  C  C181  1  0.79122000  0.92126000  0.01427000  1.0
  C  C182  1  0.70880000  0.42126000  0.51425000  1.0
  C  C183  1  0.20880000  0.07874000  0.98574000  1.0
  C  C184  1  0.16498000  0.71352000  0.49978000  1.0
  C  C185  1  0.66498000  0.78649000  0.00023000  1.0
  C  C186  1  0.83504000  0.28649000  0.50022000  1.0
  C  C187  1  0.33504000  0.21351000  0.99977000  1.0
  N  N188  1  0.93231000  0.01498000  0.49875000  1.0
  N  N189  1  0.43232000  0.48502000  0.00125000  1.0
  N  N190  1  0.06767000  0.98503000  0.50125000  1.0
  N  N191  1  0.56767000  0.51496000  0.99875000  1.0
  N  N192  1  0.46381000  0.25349000  0.84028000  1.0
  N  N193  1  0.96378000  0.24652000  0.65972000  1.0
  N  N194  1  0.53622000  0.74651000  0.15971000  1.0
  N  N195  1  0.03622000  0.75349000  0.34028000  1.0
  N  N196  1  0.36613000  0.20964000  0.81186000  1.0
  N  N197  1  0.86611000  0.29037000  0.68815000  1.0
  N  N198  1  0.63387000  0.79036000  0.18815000  1.0
  N  N199  1  0.13388000  0.70963000  0.31185000  1.0
  N  N200  1  0.27368000  0.65026000  0.52468000  1.0
  N  N201  1  0.77368000  0.84974000  0.97533000  1.0
  N  N202  1  0.72633000  0.34974000  0.47531000  1.0
  N  N203  1  0.22633000  0.15026000  0.02468000  1.0
  O  O204  1  0.35250000  0.87368000  0.66465000  1.0
  O  O205  1  0.85250000  0.62632000  0.83536000  1.0
  O  O206  1  0.64750000  0.12632000  0.33535000  1.0
  O  O207  1  0.14749000  0.37368000  0.16465000  1.0
  O  O208  1  0.31431000  0.62971000  0.74837000  1.0
  O  O209  1  0.81432000  0.87030000  0.75164000  1.0
  O  O210  1  0.68568000  0.37028000  0.25164000  1.0
  O  O211  1  0.18568000  0.12970000  0.24836000  1.0
  O  O212  1  0.54285000  0.82589000  0.84130000  1.0
  O  O213  1  0.04286000  0.67412000  0.65870000  1.0
  O  O214  1  0.45713000  0.17411000  0.15869000  1.0
  O  O215  1  0.95713000  0.32588000  0.34129000  1.0
  O  O216  1  0.29721000  0.82074000  0.80527000  1.0
  O  O217  1  0.79722000  0.67927000  0.69474000  1.0
  O  O218  1  0.70277000  0.17927000  0.19473000  1.0
  O  O219  1  0.20278000  0.32073000  0.30527000  1.0
  O  O220  1  0.53897000  0.64332000  0.80209000  1.0
  O  O221  1  0.03898000  0.85669000  0.69792000  1.0
  O  O222  1  0.46102000  0.35669000  0.19792000  1.0
  O  O223  1  0.96102000  0.14331000  0.30208000  1.0
  O  O224  1  0.53341000  0.78697000  0.70454000  1.0
  O  O225  1  0.03341000  0.71303000  0.79547000  1.0
  O  O226  1  0.46659000  0.21303000  0.29546000  1.0
  O  O227  1  0.96660000  0.28696000  0.20453000  1.0
  O  O228  1  0.32260000  0.72225000  0.61332000  1.0
  O  O229  1  0.82260000  0.77774000  0.88669000  1.0
  O  O230  1  0.67741000  0.27773000  0.38669000  1.0
  O  O231  1  0.17740000  0.22227000  0.11331000  1.0
