# generated using pymatgen
data_Zn3H17C34I9O16
_symmetry_space_group_name_H-M   'P 1'
_cell_length_a   18.40230000
_cell_length_b   18.58045968
_cell_length_c   18.78450000
_cell_angle_alpha   109.07989339
_cell_angle_beta   108.97000000
_cell_angle_gamma   109.07155703
_symmetry_Int_Tables_number   1
_chemical_formula_structural   Zn3H17C34I9O16
_chemical_formula_sum   'Zn6 H34 C68 I18 O32'
_cell_volume   5021.61488970
_cell_formula_units_Z   2
loop_
 _symmetry_equiv_pos_site_id
 _symmetry_equiv_pos_as_xyz
  1  'x, y, z'
loop_
 _atom_site_type_symbol
 _atom_site_label
 _atom_site_symmetry_multiplicity
 _atom_site_fract_x
 _atom_site_fract_y
 _atom_site_fract_z
 _atom_site_occupancy
  Zn  Zn0  1  0.94685000  0.43035000  0.99746000  1.0
  Zn  Zn1  1  0.08126000  0.56327000  0.00928000  1.0
  Zn  Zn2  1  0.50078000  0.42806000  0.43853000  1.0
  Zn  Zn3  1  0.50094000  0.55811000  0.56476000  1.0
  Zn  Zn4  1  0.02989000  0.98528000  0.53315000  1.0
  Zn  Zn5  1  0.91196000  0.99989000  0.41342000  1.0
  H  H6  1  0.37975000  0.56441000  0.26916000  1.0
  H  H7  1  0.95921000  0.69880000  0.39185000  1.0
  H  H8  1  0.90904000  0.58079000  0.24823000  1.0
  H  H9  1  0.65313000  0.32257000  0.80045000  1.0
  H  H10  1  0.86073000  0.23590000  0.77977000  1.0
  H  H11  1  0.87103000  0.72090000  0.45120000  1.0
  H  H12  1  0.17887000  0.07656000  0.33359000  1.0
  H  H13  1  0.37249000  0.21318000  0.46463000  1.0
  H  H14  1  0.22279000  0.31032000  0.17337000  1.0
  H  H15  1  0.03376000  0.77955000  0.13017000  1.0
  H  H16  1  0.88039000  0.67562000  0.74959000  1.0
  H  H17  1  0.76680000  0.64884000  0.69725000  1.0
  H  H18  1  0.83133000  0.66540000  0.64423000  1.0
  H  H19  1  0.51320000  0.39274000  0.82963000  1.0
  H  H20  1  0.43250000  0.31279000  0.71916000  1.0
  H  H21  1  0.44008000  0.41855000  0.76551000  1.0
  H  H22  1  0.71647000  0.37716000  0.95309000  1.0
  H  H23  1  0.60187000  0.34693000  0.91042000  1.0
  H  H24  1  0.68312000  0.45162000  0.00191000  1.0
  H  H25  1  0.87767000  0.17071000  0.58337000  1.0
  H  H26  1  0.83437000  0.22297000  0.64456000  1.0
  H  H27  1  0.76127000  0.12567000  0.54292000  1.0
  H  H28  1  0.62005000  0.81147000  0.63497000  1.0
  H  H29  1  0.54398000  0.84551000  0.58976000  1.0
  H  H30  1  0.65605000  0.90127000  0.61368000  1.0
  H  H31  1  0.89232000  0.61022000  0.47190000  1.0
  H  H32  1  0.79904000  0.50511000  0.42514000  1.0
  H  H33  1  0.87022000  0.56639000  0.53979000  1.0
  H  H34  1  0.98416000  0.23722000  0.42422000  1.0
  H  H35  1  0.05734000  0.35201000  0.47074000  1.0
  H  H36  1  0.99272000  0.31548000  0.51813000  1.0
  H  H37  1  0.06557000  0.78316000  0.53597000  1.0
  H  H38  1  0.14202000  0.85739000  0.52063000  1.0
  H  H39  1  0.17243000  0.79230000  0.56413000  1.0
  C  C40  1  0.02340000  0.62734000  0.11679000  1.0
  C  C41  1  0.22928000  0.37511000  0.20103000  1.0
  C  C42  1  0.24290000  0.43842000  0.16273000  1.0
  C  C43  1  0.16976000  0.45827000  0.17718000  1.0
  C  C44  1  0.00940000  0.68432000  0.25174000  1.0
  C  C45  1  0.01910000  0.69328000  0.18406000  1.0
  C  C46  1  0.02464000  0.76953000  0.18130000  1.0
  C  C47  1  0.01410000  0.82976000  0.23941000  1.0
  C  C48  1  0.01039000  0.82358000  0.31135000  1.0
  C  C49  1  0.01481000  0.75210000  0.31783000  1.0
  C  C50  1  0.00865000  0.70358000  0.37000000  1.0
  C  C51  1  0.10330000  0.46638000  0.11445000  1.0
  C  C52  1  0.98067000  0.62206000  0.28476000  1.0
  C  C53  1  0.72517000  0.42989000  0.78007000  1.0
  C  C54  1  0.81396000  0.46754000  0.80270000  1.0
  C  C55  1  0.83560000  0.50457000  0.75247000  1.0
  C  C56  1  0.77140000  0.50692000  0.68767000  1.0
  C  C57  1  0.68214000  0.46635000  0.66529000  1.0
  C  C58  1  0.66161000  0.42814000  0.71346000  1.0
  C  C59  1  0.58837000  0.38145000  0.72713000  1.0
  C  C60  1  0.66214000  0.38650000  0.80769000  1.0
  C  C61  1  0.99571000  0.26563000  0.79905000  1.0
  C  C62  1  0.06132000  0.42150000  0.89780000  1.0
  C  C63  1  0.06562000  0.34964000  0.83653000  1.0
  C  C64  1  0.13045000  0.35507000  0.81002000  1.0
  C  C65  1  0.12280000  0.27925000  0.74873000  1.0
  C  C66  1  0.04616000  0.19778000  0.70495000  1.0
  C  C67  1  0.98461000  0.19424000  0.73291000  1.0
  C  C68  1  0.89437000  0.13430000  0.71558000  1.0
  C  C69  1  0.91058000  0.21545000  0.79597000  1.0
  C  C70  1  0.60126000  0.63161000  0.50869000  1.0
  C  C71  1  0.37818000  0.45874000  0.35905000  1.0
  C  C72  1  0.37696000  0.41423000  0.52971000  1.0
  C  C73  1  0.87844000  0.47109000  0.87840000  1.0
  C  C74  1  0.61616000  0.47110000  0.59727000  1.0
  C  C75  1  0.06536000  0.11932000  0.45890000  1.0
  C  C76  1  0.99757000  0.88297000  0.37565000  1.0
  C  C77  1  0.82300000  0.88561000  0.44784000  1.0
  C  C78  1  0.02489000  0.11737000  0.62984000  1.0
  C  C79  1  0.70440000  0.68080000  0.45332000  1.0
  C  C80  1  0.64855000  0.69422000  0.48539000  1.0
  C  C81  1  0.63710000  0.76684000  0.48855000  1.0
  C  C82  1  0.68543000  0.82533000  0.46658000  1.0
  C  C83  1  0.75208000  0.81799000  0.44869000  1.0
  C  C84  1  0.24522000  0.53679000  0.26917000  1.0
  C  C85  1  0.75589000  0.74179000  0.43898000  1.0
  C  C86  1  0.80002000  0.69208000  0.41097000  1.0
  C  C87  1  0.74189000  0.62113000  0.42875000  1.0
  C  C88  1  0.27419000  0.25830000  0.46514000  1.0
  C  C89  1  0.29463000  0.34455000  0.51322000  1.0
  C  C90  1  0.23283000  0.35423000  0.53946000  1.0
  C  C91  1  0.15475000  0.28090000  0.51536000  1.0
  C  C92  1  0.13938000  0.19528000  0.47126000  1.0
  C  C93  1  0.20154000  0.18659000  0.44783000  1.0
  C  C94  1  0.22492000  0.12221000  0.40194000  1.0
  C  C95  1  0.31568000  0.51609000  0.25339000  1.0
  C  C96  1  0.30804000  0.20280000  0.42345000  1.0
  C  C97  1  0.30205000  0.45255000  0.29242000  1.0
  C  C98  1  0.23077000  0.47369000  0.30852000  1.0
  C  C99  1  0.15797000  0.39540000  0.21631000  1.0
  C  C100  1  0.82002000  0.64086000  0.68736000  1.0
  C  C101  1  0.47706000  0.38282000  0.76482000  1.0
  C  C102  1  0.66891000  0.40131000  0.94086000  1.0
  C  C103  1  0.82517000  0.16026000  0.60104000  1.0
  C  C104  1  0.60119000  0.83810000  0.59208000  1.0
  C  C105  1  0.84078000  0.57068000  0.48149000  1.0
  C  C106  1  0.02840000  0.29948000  0.48425000  1.0
  C  C107  1  0.11851000  0.79371000  0.51833000  1.0
  I  I108  1  0.02702000  0.53180000  0.29627000  1.0
  I  I109  1  0.96132000  0.55275000  0.76233000  1.0
  I  I110  1  0.50433000  0.23771000  0.61894000  1.0
  I  I111  1  0.24076000  0.47591000  0.86150000  1.0
  I  I112  1  0.26646000  0.66554000  0.32300000  1.0
  I  I113  1  0.22547000  0.28297000  0.72079000  1.0
  I  I114  1  0.88380000  0.01752000  0.72513000  1.0
  I  I115  1  0.91926000  0.20723000  0.91055000  1.0
  I  I116  1  0.64724000  0.91737000  0.45524000  1.0
  I  I117  1  0.78049000  0.66310000  0.28252000  1.0
  I  I118  1  0.63957000  0.49219000  0.31130000  1.0
  I  I119  1  0.21958000  0.49711000  0.42070000  1.0
  I  I120  1  0.25094000  0.47521000  0.62077000  1.0
  I  I121  1  0.25130000  0.03922000  0.45361000  1.0
  I  I122  1  0.31232000  0.19937000  0.30813000  1.0
  I  I123  1  0.03812000  0.29762000  0.18953000  1.0
  I  I124  1  0.25417000  0.41199000  0.04969000  1.0
  I  I125  1  0.00572000  0.92935000  0.21242000  1.0
  O  O126  1  0.97208000  0.54790000  0.08906000  1.0
  O  O127  1  0.57923000  0.65912000  0.56634000  1.0
  O  O128  1  0.40788000  0.40668000  0.33482000  1.0
  O  O129  1  0.40947000  0.51696000  0.43536000  1.0
  O  O130  1  0.41409000  0.38822000  0.48855000  1.0
  O  O131  1  0.40618000  0.49465000  0.58168000  1.0
  O  O132  1  0.58760000  0.41662000  0.51894000  1.0
  O  O133  1  0.59458000  0.52836000  0.62410000  1.0
  O  O134  1  0.08688000  0.07933000  0.49746000  1.0
  O  O135  1  0.98582000  0.09887000  0.41017000  1.0
  O  O136  1  0.04089000  0.89938000  0.45363000  1.0
  O  O137  1  0.07935000  0.65709000  0.09298000  1.0
  O  O138  1  0.94510000  0.91071000  0.35097000  1.0
  O  O139  1  0.89983000  0.90032000  0.49323000  1.0
  O  O140  1  0.80456000  0.92313000  0.40338000  1.0
  O  O141  1  0.06695000  0.07592000  0.64472000  1.0
  O  O142  1  0.96470000  0.09468000  0.55759000  1.0
  O  O143  1  0.02198000  0.41343000  0.08322000  1.0
  O  O144  1  0.13463000  0.52577000  0.09683000  1.0
  O  O145  1  0.00042000  0.39524000  0.91609000  1.0
  O  O146  1  0.11347000  0.50229000  0.92748000  1.0
  O  O147  1  0.84823000  0.41329000  0.90023000  1.0
  O  O148  1  0.95718000  0.53074000  0.91749000  1.0
  O  O149  1  0.58721000  0.55446000  0.46993000  1.0
  O  O150  1  0.79456000  0.54920000  0.64427000  1.0
  O  O151  1  0.53654000  0.41761000  0.73578000  1.0
  O  O152  1  0.67716000  0.44199000  0.88890000  1.0
  O  O153  1  0.82085000  0.10332000  0.63826000  1.0
  O  O154  1  0.57303000  0.77643000  0.50491000  1.0
  O  O155  1  0.78790000  0.61057000  0.49479000  1.0
  O  O156  1  0.09630000  0.29188000  0.54210000  1.0
  O  O157  1  0.08895000  0.72487000  0.43587000  1.0
