# generated using pymatgen
data_BiH13C6S2NCl
_symmetry_space_group_name_H-M   'P 1'
_cell_length_a   7.92343000
_cell_length_b   9.91008000
_cell_length_c   14.45150000
_cell_angle_alpha   75.54100000
_cell_angle_beta   89.99990000
_cell_angle_gamma   89.99990000
_symmetry_Int_Tables_number   1
_chemical_formula_structural   BiH13C6S2NCl
_chemical_formula_sum   'Bi4 H52 C24 S8 N4 Cl4'
_cell_volume   1098.81646287
_cell_formula_units_Z   4
loop_
 _symmetry_equiv_pos_site_id
 _symmetry_equiv_pos_as_xyz
  1  'x, y, z'
loop_
 _atom_site_type_symbol
 _atom_site_label
 _atom_site_symmetry_multiplicity
 _atom_site_fract_x
 _atom_site_fract_y
 _atom_site_fract_z
 _atom_site_occupancy
  Bi  Bi0  1  0.05578000  0.93355000  0.29491000  1.0
  Bi  Bi1  1  0.55577000  0.06646000  0.20509000  1.0
  Bi  Bi2  1  0.94422000  0.06644000  0.70509000  1.0
  Bi  Bi3  1  0.44422000  0.93356000  0.79491000  1.0
  H  H4  1  0.81961000  0.98080000  0.42915000  1.0
  H  H5  1  0.31960000  0.01920000  0.07084000  1.0
  H  H6  1  0.18039000  0.01920000  0.57085000  1.0
  H  H7  1  0.68039000  0.98080000  0.92915000  1.0
  H  H8  1  0.84157000  0.13442000  0.33214000  1.0
  H  H9  1  0.34157000  0.86558000  0.16786000  1.0
  H  H10  1  0.15843000  0.86557000  0.66786000  1.0
  H  H11  1  0.65843000  0.13443000  0.83214000  1.0
  H  H12  1  0.99751000  0.09671000  0.42466000  1.0
  H  H13  1  0.49751000  0.90330000  0.07534000  1.0
  H  H14  1  0.00250000  0.90329000  0.57534000  1.0
  H  H15  1  0.50249000  0.09671000  0.92466000  1.0
  H  H16  1  0.48529000  0.70389000  0.66454000  1.0
  H  H17  1  0.98529000  0.29611000  0.83546000  1.0
  H  H18  1  0.51471000  0.29611000  0.33546000  1.0
  H  H19  1  0.01471000  0.70389000  0.16454000  1.0
  H  H20  1  0.48518000  0.85090000  0.56524000  1.0
  H  H21  1  0.98518000  0.14910000  0.93476000  1.0
  H  H22  1  0.51482000  0.14910000  0.43476000  1.0
  H  H23  1  0.01482000  0.85089000  0.06524000  1.0
  H  H24  1  0.65517000  0.56911000  0.56872000  1.0
  H  H25  1  0.15516000  0.43089000  0.93128000  1.0
  H  H26  1  0.34483000  0.43089000  0.43128000  1.0
  H  H27  1  0.84483000  0.56911000  0.06872000  1.0
  H  H28  1  0.75943000  0.72286000  0.57924000  1.0
  H  H29  1  0.25943000  0.27715000  0.92076000  1.0
  H  H30  1  0.24057000  0.27714000  0.42076000  1.0
  H  H31  1  0.74057000  0.72286000  0.07924000  1.0
  H  H32  1  0.65596000  0.71991000  0.47027000  1.0
  H  H33  1  0.15596000  0.28009000  0.02973000  1.0
  H  H34  1  0.34403000  0.28009000  0.52973000  1.0
  H  H35  1  0.84404000  0.71991000  0.97027000  1.0
  H  H36  1  0.38106000  0.48505000  0.63693000  1.0
  H  H37  1  0.88106000  0.51495000  0.86307000  1.0
  H  H38  1  0.61894000  0.51494000  0.36306000  1.0
  H  H39  1  0.11894000  0.48505000  0.13694000  1.0
  H  H40  1  0.20037000  0.49825000  0.56357000  1.0
  H  H41  1  0.70038000  0.50175000  0.93643000  1.0
  H  H42  1  0.79962000  0.50175000  0.43643000  1.0
  H  H43  1  0.29962000  0.49824000  0.06357000  1.0
  H  H44  1  0.22737000  0.61899000  0.74074000  1.0
  H  H45  1  0.72737000  0.38101000  0.75926000  1.0
  H  H46  1  0.77263000  0.38100000  0.25926000  1.0
  H  H47  1  0.27263000  0.61900000  0.24074000  1.0
  H  H48  1  0.12400000  0.46288000  0.73442000  1.0
  H  H49  1  0.62400000  0.53712000  0.76558000  1.0
  H  H50  1  0.87600000  0.53712000  0.26558000  1.0
  H  H51  1  0.37600000  0.46288000  0.23442000  1.0
  H  H52  1  0.04497000  0.62628000  0.66689000  1.0
  H  H53  1  0.54497000  0.37372000  0.83311000  1.0
  H  H54  1  0.95503000  0.37372000  0.33311000  1.0
  H  H55  1  0.45503000  0.62628000  0.16689000  1.0
  C  C56  1  0.90845000  0.05138000  0.38313000  1.0
  C  C57  1  0.40845000  0.94862000  0.11687000  1.0
  C  C58  1  0.09155000  0.94862000  0.61687000  1.0
  C  C59  1  0.59155000  0.05138000  0.88313000  1.0
  C  C60  1  0.25552000  0.75431000  0.47265000  1.0
  C  C61  1  0.75552000  0.24569000  0.02735000  1.0
  C  C62  1  0.74448000  0.24568000  0.52736000  1.0
  C  C63  1  0.24448000  0.75432000  0.97265000  1.0
  C  C64  1  0.48926000  0.73650000  0.58606000  1.0
  C  C65  1  0.98926000  0.26350000  0.91394000  1.0
  C  C66  1  0.51074000  0.26350000  0.41394000  1.0
  C  C67  1  0.01074000  0.73650000  0.08606000  1.0
  C  C68  1  0.64893000  0.68351000  0.54841000  1.0
  C  C69  1  0.14893000  0.31649000  0.95159000  1.0
  C  C70  1  0.35107000  0.31649000  0.45159000  1.0
  C  C71  1  0.85107000  0.68351000  0.04841000  1.0
  C  C72  1  0.27084000  0.55035000  0.61003000  1.0
  C  C73  1  0.77084000  0.44965000  0.88997000  1.0
  C  C74  1  0.72916000  0.44965000  0.38997000  1.0
  C  C75  1  0.22917000  0.55035000  0.11003000  1.0
  C  C76  1  0.16001000  0.56722000  0.69265000  1.0
  C  C77  1  0.66001000  0.43278000  0.80735000  1.0
  C  C78  1  0.83999000  0.43278000  0.30735000  1.0
  C  C79  1  0.33999000  0.56723000  0.19265000  1.0
  S  S80  1  0.33162000  0.91405000  0.40810000  1.0
  S  S81  1  0.83160000  0.08595000  0.09191000  1.0
  S  S82  1  0.66839000  0.08595000  0.59190000  1.0
  S  S83  1  0.16839000  0.91405000  0.90810000  1.0
  S  S84  1  0.07052000  0.69327000  0.43532000  1.0
  S  S85  1  0.57052000  0.30673000  0.06468000  1.0
  S  S86  1  0.92948000  0.30673000  0.56468000  1.0
  S  S87  1  0.42948000  0.69327000  0.93532000  1.0
  N  N88  1  0.33475000  0.68370000  0.55138000  1.0
  N  N89  1  0.83474000  0.31630000  0.94862000  1.0
  N  N90  1  0.66525000  0.31629000  0.44862000  1.0
  N  N91  1  0.16525000  0.68370000  0.05138000  1.0
  Cl  Cl92  1  0.23092000  0.19379000  0.22614000  1.0
  Cl  Cl93  1  0.73092000  0.80622000  0.27386000  1.0
  Cl  Cl94  1  0.76908000  0.80622000  0.77386000  1.0
  Cl  Cl95  1  0.26908000  0.19378000  0.72614000  1.0
