# generated using pymatgen
data_Mn3H12C16(NO8)2
_symmetry_space_group_name_H-M   'P 1'
_cell_length_a   6.36738000
_cell_length_b   8.43541000
_cell_length_c   9.84855000
_cell_angle_alpha   110.17200000
_cell_angle_beta   95.80100000
_cell_angle_gamma   100.43800000
_symmetry_Int_Tables_number   1
_chemical_formula_structural   Mn3H12C16(NO8)2
_chemical_formula_sum   'Mn3 H12 C16 N2 O16'
_cell_volume   480.59152881
_cell_formula_units_Z   1
loop_
 _symmetry_equiv_pos_site_id
 _symmetry_equiv_pos_as_xyz
  1  'x, y, z'
loop_
 _atom_site_type_symbol
 _atom_site_label
 _atom_site_symmetry_multiplicity
 _atom_site_fract_x
 _atom_site_fract_y
 _atom_site_fract_z
 _atom_site_occupancy
  Mn  Mn0  1  0.92852000  0.93806000  0.67399000  1.0
  Mn  Mn1  1  0.07148000  0.06194000  0.32601000  1.0
  Mn  Mn2  1  0.50000000  0.50000000  0.00000000  1.0
  H  H3  1  0.70584000  0.33064000  0.21530000  1.0
  H  H4  1  0.29416000  0.66935000  0.78470000  1.0
  H  H5  1  0.63122000  0.29433000  0.63573000  1.0
  H  H6  1  0.36878000  0.70567000  0.36427000  1.0
  H  H7  1  0.70949000  0.22560000  0.92581000  1.0
  H  H8  1  0.29051000  0.77439000  0.07419000  1.0
  H  H9  1  0.45484000  0.15688000  0.87662000  1.0
  H  H10  1  0.54516000  0.84312000  0.12338000  1.0
  H  H11  1  0.00982000  0.14728000  0.97937000  1.0
  H  H12  1  0.99019000  0.85272000  0.02063000  1.0
  H  H13  1  0.04760000  0.25545000  0.87679000  1.0
  H  H14  1  0.95240000  0.74455000  0.12321000  1.0
  C  C15  1  0.78987000  0.56848000  0.40689000  1.0
  C  C16  1  0.21013000  0.43152000  0.59311000  1.0
  C  C17  1  0.85013000  0.68505000  0.32473000  1.0
  C  C18  1  0.14987000  0.31495000  0.67527000  1.0
  C  C19  1  0.78358000  0.64343000  0.79466000  1.0
  C  C20  1  0.21643000  0.35657000  0.20534000  1.0
  C  C21  1  0.71843000  0.38932000  0.33413000  1.0
  C  C22  1  0.28157000  0.61068000  0.66587000  1.0
  C  C23  1  0.67572000  0.36903000  0.56794000  1.0
  C  C24  1  0.32428000  0.63097000  0.43206000  1.0
  C  C25  1  0.58398000  0.09519000  0.34235000  1.0
  C  C26  1  0.41602000  0.90481000  0.65765000  1.0
  C  C27  1  0.66127000  0.28795000  0.41666000  1.0
  C  C28  1  0.33873000  0.71205000  0.58334000  1.0
  C  C29  1  0.75485000  0.54834000  0.63183000  1.0
  C  C30  1  0.24515000  0.45166000  0.36817000  1.0
  N  N31  1  0.81276000  0.64667000  0.55341000  1.0
  N  N32  1  0.18724000  0.35333000  0.44659000  1.0
  O  O33  1  0.95702000  0.83887000  0.40112000  1.0
  O  O34  1  0.04298000  0.16113000  0.59888000  1.0
  O  O35  1  0.79487000  0.62030000  0.18523000  1.0
  O  O36  1  0.20513000  0.37970000  0.81477000  1.0
  O  O37  1  0.94328000  0.15699000  0.88694000  1.0
  O  O38  1  0.05672000  0.84301000  0.11306000  1.0
  O  O39  1  0.40008000  0.02320000  0.35644000  1.0
  O  O40  1  0.59993000  0.97680000  0.64356000  1.0
  O  O41  1  0.86997000  0.80572000  0.84349000  1.0
  O  O42  1  0.13004000  0.19428000  0.15651000  1.0
  O  O43  1  0.56865000  0.25138000  0.95333000  1.0
  O  O44  1  0.43135000  0.74862000  0.04667000  1.0
  O  O45  1  0.71166000  0.01657000  0.26621000  1.0
  O  O46  1  0.28834000  0.98343000  0.73379000  1.0
  O  O47  1  0.72530000  0.55488000  0.87089000  1.0
  O  O48  1  0.27470000  0.44513000  0.12911000  1.0
