# generated using pymatgen
data_CdH12C12N2(ClO)2
_symmetry_space_group_name_H-M   'P 1'
_cell_length_a   3.91659000
_cell_length_b   8.02401000
_cell_length_c   9.95689000
_cell_angle_alpha   84.58810000
_cell_angle_beta   82.32260000
_cell_angle_gamma   83.97910000
_symmetry_Int_Tables_number   1
_chemical_formula_structural   CdH12C12N2(ClO)2
_chemical_formula_sum   'Cd1 H12 C12 N2 Cl2 O2'
_cell_volume   307.37178456
_cell_formula_units_Z   1
loop_
 _symmetry_equiv_pos_site_id
 _symmetry_equiv_pos_as_xyz
  1  'x, y, z'
loop_
 _atom_site_type_symbol
 _atom_site_label
 _atom_site_symmetry_multiplicity
 _atom_site_fract_x
 _atom_site_fract_y
 _atom_site_fract_z
 _atom_site_occupancy
  Cd  Cd0  1  0.50000000  0.50000000  0.50000000  1.0
  H  H1  1  0.89585000  0.11208000  0.62486000  1.0
  H  H2  1  0.10414000  0.88792000  0.37513000  1.0
  H  H3  1  0.51501000  0.10491000  0.55054000  1.0
  H  H4  1  0.48498000  0.89509000  0.44946000  1.0
  H  H5  1  0.30747000  0.90808000  0.73338000  1.0
  H  H6  1  0.69253000  0.09191000  0.26662000  1.0
  H  H7  1  0.68970000  0.91696000  0.81139000  1.0
  H  H8  1  0.31030000  0.08304000  0.18861000  1.0
  H  H9  1  0.42332000  0.59125000  0.80398000  1.0
  H  H10  1  0.57667000  0.40875000  0.19602000  1.0
  H  H11  1  0.84914000  0.20516000  0.03066000  1.0
  H  H12  1  0.15086000  0.79484000  0.96934000  1.0
  C  C13  1  0.61328000  0.11897000  0.64667000  1.0
  C  C14  1  0.38672000  0.88103000  0.35333000  1.0
  C  C15  1  0.48324000  0.99224000  0.76276000  1.0
  C  C16  1  0.51676000  0.00776000  0.23723000  1.0
  C  C17  1  0.31173000  0.26111000  0.81316000  1.0
  C  C18  1  0.68827000  0.73889000  0.18684000  1.0
  C  C19  1  0.14822000  0.38574000  0.90599000  1.0
  C  C20  1  0.85178000  0.61426000  0.09401000  1.0
  C  C21  1  0.23277000  0.55249000  0.88795000  1.0
  C  C22  1  0.76723000  0.44751000  0.11205000  1.0
  C  C23  1  0.91566000  0.33447000  0.01872000  1.0
  C  C24  1  0.08435000  0.66553000  0.98128000  1.0
  N  N25  1  0.48033000  0.28549000  0.69319000  1.0
  N  N26  1  0.51968000  0.71451000  0.30681000  1.0
  Cl  Cl27  1  0.91852000  0.67419000  0.60329000  1.0
  Cl  Cl28  1  0.08148000  0.32581000  0.39671000  1.0
  O  O29  1  0.28880000  0.09829000  0.86415000  1.0
  O  O30  1  0.71120000  0.90171000  0.13585000  1.0
