# generated using pymatgen
data_CuH18C18(N3Cl)2
_symmetry_space_group_name_H-M   'P 1'
_cell_length_a   7.81067000
_cell_length_b   9.91995000
_cell_length_c   13.53310000
_cell_angle_alpha   72.63320000
_cell_angle_beta   77.62110000
_cell_angle_gamma   83.97040000
_symmetry_Int_Tables_number   1
_chemical_formula_structural   CuH18C18(N3Cl)2
_chemical_formula_sum   'Cu2 H36 C36 N12 Cl4'
_cell_volume   976.54906004
_cell_formula_units_Z   2
loop_
 _symmetry_equiv_pos_site_id
 _symmetry_equiv_pos_as_xyz
  1  'x, y, z'
loop_
 _atom_site_type_symbol
 _atom_site_label
 _atom_site_symmetry_multiplicity
 _atom_site_fract_x
 _atom_site_fract_y
 _atom_site_fract_z
 _atom_site_occupancy
  Cu  Cu0  1  0.17213000  0.95669000  0.27392000  1.0
  Cu  Cu1  1  0.82788000  0.04332000  0.72608000  1.0
  H  H2  1  0.64001000  0.59412000  0.43395000  1.0
  H  H3  1  0.36000000  0.40587000  0.56605000  1.0
  H  H4  1  0.82213000  0.39655000  0.37716000  1.0
  H  H5  1  0.17788000  0.60345000  0.62285000  1.0
  H  H6  1  0.14630000  0.42058000  0.31698000  1.0
  H  H7  1  0.85372000  0.57941000  0.68302000  1.0
  H  H8  1  0.27389000  0.64910000  0.30539000  1.0
  H  H9  1  0.72611000  0.35089000  0.69462000  1.0
  H  H10  1  0.82767000  0.94389000  0.38780000  1.0
  H  H11  1  0.17234000  0.05610000  0.61221000  1.0
  H  H12  1  0.78201000  0.83244000  0.51778000  1.0
  H  H13  1  0.21801000  0.16757000  0.48221000  1.0
  H  H14  1  0.58845000  0.91326000  0.26611000  1.0
  H  H15  1  0.41157000  0.08673000  0.73389000  1.0
  H  H16  1  0.15712000  0.85001000  0.52173000  1.0
  H  H17  1  0.84290000  0.14999000  0.47826000  1.0
  H  H18  1  0.46772000  0.79760000  0.60055000  1.0
  H  H19  1  0.53229000  0.20240000  0.39945000  1.0
  H  H20  1  0.73634000  0.38661000  0.90026000  1.0
  H  H21  1  0.26361000  0.61340000  0.09975000  1.0
  H  H22  1  0.84056000  0.63527000  0.85030000  1.0
  H  H23  1  0.15937000  0.36474000  0.14971000  1.0
  H  H24  1  0.82480000  0.74948000  0.99393000  1.0
  H  H25  1  0.17516000  0.25054000  0.00607000  1.0
  H  H26  1  0.70756000  0.61367000  0.18061000  1.0
  H  H27  1  0.29245000  0.38632000  0.81938000  1.0
  H  H28  1  0.56204000  0.20094000  0.03590000  1.0
  H  H29  1  0.43794000  0.79907000  0.96411000  1.0
  H  H30  1  0.50485000  0.20788000  0.16931000  1.0
  H  H31  1  0.49515000  0.79211000  0.83069000  1.0
  H  H32  1  0.87903000  0.21050000  0.21528000  1.0
  H  H33  1  0.12097000  0.78951000  0.78471000  1.0
  H  H34  1  0.00180000  0.83045000  0.13066000  1.0
  H  H35  1  0.99821000  0.16957000  0.86932000  1.0
  H  H36  1  0.71040000  0.96966000  0.04608000  1.0
  H  H37  1  0.28961000  0.03035000  0.95391000  1.0
  C  C38  1  0.86367000  0.72357000  0.39902000  1.0
  C  C39  1  0.13633000  0.27642000  0.60098000  1.0
  C  C40  1  0.78124000  0.60197000  0.40529000  1.0
  C  C41  1  0.21877000  0.39802000  0.59472000  1.0
  C  C42  1  0.88259000  0.49203000  0.37431000  1.0
  C  C43  1  0.11742000  0.50797000  0.62569000  1.0
  C  C44  1  0.06320000  0.50562000  0.34013000  1.0
  C  C45  1  0.93681000  0.49437000  0.65988000  1.0
  C  C46  1  0.13435000  0.63082000  0.33516000  1.0
  C  C47  1  0.86565000  0.36917000  0.66485000  1.0
  C  C48  1  0.76733000  0.84437000  0.43627000  1.0
  C  C49  1  0.23267000  0.15562000  0.56373000  1.0
  C  C50  1  0.51194000  0.89208000  0.34566000  1.0
  C  C51  1  0.48807000  0.10792000  0.65434000  1.0
  C  C52  1  0.29274000  0.85441000  0.48032000  1.0
  C  C53  1  0.70727000  0.14559000  0.51967000  1.0
  C  C54  1  0.44434000  0.82958000  0.52044000  1.0
  C  C55  1  0.55567000  0.17042000  0.47956000  1.0
  C  C56  1  0.67144000  0.37271000  0.06618000  1.0
  C  C57  1  0.32855000  0.62728000  0.93383000  1.0
  C  C58  1  0.73488000  0.44072000  0.95982000  1.0
  C  C59  1  0.26509000  0.55928000  0.04019000  1.0
  C  C60  1  0.79234000  0.57778000  0.93250000  1.0
  C  C61  1  0.20760000  0.42223000  0.06751000  1.0
  C  C62  1  0.78343000  0.64176000  0.01238000  1.0
  C  C63  1  0.21654000  0.35825000  0.98762000  1.0
  C  C64  1  0.71810000  0.56582000  0.11641000  1.0
  C  C65  1  0.28189000  0.43417000  0.88360000  1.0
  C  C66  1  0.61054000  0.22351000  0.09927000  1.0
  C  C67  1  0.38946000  0.77648000  0.90074000  1.0
  C  C68  1  0.87431000  0.12513000  0.18156000  1.0
  C  C69  1  0.12570000  0.87487000  0.81844000  1.0
  C  C70  1  0.93048000  0.92808000  0.13716000  1.0
  C  C71  1  0.06953000  0.07194000  0.86282000  1.0
  C  C72  1  0.78860000  0.99496000  0.09478000  1.0
  C  C73  1  0.21140000  0.00505000  0.90521000  1.0
  N  N74  1  0.03676000  0.73874000  0.36223000  1.0
  N  N75  1  0.96324000  0.26126000  0.63778000  1.0
  N  N76  1  0.58122000  0.85481000  0.43429000  1.0
  N  N77  1  0.41879000  0.14519000  0.56571000  1.0
  N  N78  1  0.33775000  0.89270000  0.37155000  1.0
  N  N79  1  0.66226000  0.10730000  0.62845000  1.0
  N  N80  1  0.66328000  0.43344000  0.14397000  1.0
  N  N81  1  0.33672000  0.56656000  0.85603000  1.0
  N  N82  1  0.75541000  0.11913000  0.12345000  1.0
  N  N83  1  0.24460000  0.88087000  0.87654000  1.0
  N  N84  1  0.98281000  0.01030000  0.19085000  1.0
  N  N85  1  0.01720000  0.98970000  0.80914000  1.0
  Cl  Cl86  1  0.11385000  0.16149000  0.32972000  1.0
  Cl  Cl87  1  0.88616000  0.83851000  0.67028000  1.0
  Cl  Cl88  1  0.36606000  0.88149000  0.14091000  1.0
  Cl  Cl89  1  0.63395000  0.11850000  0.85909000  1.0
