# generated using pymatgen
data_ZnH6C5O4
_symmetry_space_group_name_H-M   'P 1'
_cell_length_a   4.82077000
_cell_length_b   9.31639000
_cell_length_c   13.84550000
_cell_angle_alpha   89.90630000
_cell_angle_beta   89.99990000
_cell_angle_gamma   89.99980000
_symmetry_Int_Tables_number   1
_chemical_formula_structural   ZnH6C5O4
_chemical_formula_sum   'Zn4 H24 C20 O16'
_cell_volume   621.83066556
_cell_formula_units_Z   4
loop_
 _symmetry_equiv_pos_site_id
 _symmetry_equiv_pos_as_xyz
  1  'x, y, z'
loop_
 _atom_site_type_symbol
 _atom_site_label
 _atom_site_symmetry_multiplicity
 _atom_site_fract_x
 _atom_site_fract_y
 _atom_site_fract_z
 _atom_site_occupancy
  Zn  Zn0  1  0.01385000  0.00388000  0.74699000  1.0
  Zn  Zn1  1  0.01385000  0.49612000  0.25301000  1.0
  Zn  Zn2  1  0.98616000  0.99612000  0.25301000  1.0
  Zn  Zn3  1  0.98615000  0.50388000  0.74699000  1.0
  H  H4  1  0.57201000  0.40087000  0.88133000  1.0
  H  H5  1  0.57202000  0.09913000  0.11867000  1.0
  H  H6  1  0.42799000  0.59913000  0.11867000  1.0
  H  H7  1  0.42798000  0.90087000  0.88133000  1.0
  H  H8  1  0.85871000  0.40411000  0.95906000  1.0
  H  H9  1  0.85871000  0.09589000  0.04094000  1.0
  H  H10  1  0.14130000  0.59589000  0.04094000  1.0
  H  H11  1  0.14129000  0.90411000  0.95906000  1.0
  H  H12  1  0.40440000  0.32757000  0.03662000  1.0
  H  H13  1  0.40440000  0.17243000  0.96338000  1.0
  H  H14  1  0.59560000  0.67243000  0.96338000  1.0
  H  H15  1  0.59560000  0.82757000  0.03662000  1.0
  H  H16  1  0.23707000  0.09417000  0.53178000  1.0
  H  H17  1  0.23708000  0.40583000  0.46822000  1.0
  H  H18  1  0.76293000  0.90583000  0.46822000  1.0
  H  H19  1  0.76293000  0.59417000  0.53178000  1.0
  H  H20  1  0.24505000  0.23809000  0.61205000  1.0
  H  H21  1  0.24505000  0.26192000  0.38795000  1.0
  H  H22  1  0.75495000  0.76191000  0.38795000  1.0
  H  H23  1  0.75495000  0.73808000  0.61205000  1.0
  H  H24  1  0.69875000  0.32290000  0.53982000  1.0
  H  H25  1  0.69875000  0.17710000  0.46018000  1.0
  H  H26  1  0.30125000  0.67710000  0.46018000  1.0
  H  H27  1  0.30125000  0.82290000  0.53982000  1.0
  C  C28  1  0.86821000  0.23979000  0.85347000  1.0
  C  C29  1  0.86822000  0.26020000  0.14653000  1.0
  C  C30  1  0.13179000  0.76021000  0.14653000  1.0
  C  C31  1  0.13179000  0.73980000  0.85347000  1.0
  C  C32  1  0.70944000  0.33117000  0.92437000  1.0
  C  C33  1  0.70944000  0.16883000  0.07563000  1.0
  C  C34  1  0.29056000  0.66883000  0.07563000  1.0
  C  C35  1  0.29056000  0.83117000  0.92437000  1.0
  C  C36  1  0.53999000  0.25000000  0.00000000  1.0
  C  C37  1  0.46001000  0.75000000  0.00000000  1.0
  C  C38  1  0.53704000  0.07576000  0.64298000  1.0
  C  C39  1  0.53705000  0.42424000  0.35702000  1.0
  C  C40  1  0.46296000  0.92424000  0.35702000  1.0
  C  C41  1  0.46295000  0.57576000  0.64298000  1.0
  C  C42  1  0.38069000  0.16578000  0.57057000  1.0
  C  C43  1  0.38069000  0.33422000  0.42943000  1.0
  C  C44  1  0.61931000  0.83422000  0.42943000  1.0
  C  C45  1  0.61931000  0.66578000  0.57057000  1.0
  C  C46  1  0.56113000  0.25000000  0.50000000  1.0
  C  C47  1  0.43887000  0.75000000  0.50000000  1.0
  O  O48  1  0.86867000  0.10347000  0.86365000  1.0
  O  O49  1  0.86867000  0.39653000  0.13635000  1.0
  O  O50  1  0.13133000  0.89653000  0.13635000  1.0
  O  O51  1  0.13133000  0.60347000  0.86365000  1.0
  O  O52  1  0.99964000  0.29817000  0.78320000  1.0
  O  O53  1  0.99964000  0.20183000  0.21680000  1.0
  O  O54  1  0.00036000  0.70183000  0.21680000  1.0
  O  O55  1  0.00036000  0.79817000  0.78320000  1.0
  O  O56  1  0.41174000  0.01759000  0.71424000  1.0
  O  O57  1  0.41174000  0.48241000  0.28576000  1.0
  O  O58  1  0.58826000  0.98241000  0.28576000  1.0
  O  O59  1  0.58826000  0.51759000  0.71424000  1.0
  O  O60  1  0.79848000  0.05967000  0.63158000  1.0
  O  O61  1  0.79848000  0.44033000  0.36842000  1.0
  O  O62  1  0.20153000  0.94033000  0.36842000  1.0
  O  O63  1  0.20151000  0.55967000  0.63158000  1.0
