# generated using pymatgen
data_Zn4H15C30I3O13
_symmetry_space_group_name_H-M   'P 1'
_cell_length_a   18.40948458
_cell_length_b   18.42878626
_cell_length_c   18.42820000
_cell_angle_alpha   90.29544151
_cell_angle_beta   119.58199296
_cell_angle_gamma   119.58017675
_symmetry_Int_Tables_number   1
_chemical_formula_structural   Zn4H15C30I3O13
_chemical_formula_sum   'Zn8 H30 C60 I6 O26'
_cell_volume   4465.15174602
_cell_formula_units_Z   2
loop_
 _symmetry_equiv_pos_site_id
 _symmetry_equiv_pos_as_xyz
  1  'x, y, z'
loop_
 _atom_site_type_symbol
 _atom_site_label
 _atom_site_symmetry_multiplicity
 _atom_site_fract_x
 _atom_site_fract_y
 _atom_site_fract_z
 _atom_site_occupancy
  Zn  Zn0  1  0.40838000  0.54269000  0.95846000  1.0
  Zn  Zn1  1  0.58753000  0.13275000  0.54613000  1.0
  Zn  Zn2  1  0.58755000  0.54614000  0.13276000  1.0
  Zn  Zn3  1  0.41126000  0.37160000  0.96283000  1.0
  Zn  Zn4  1  0.41128000  0.96282000  0.37160000  1.0
  Zn  Zn5  1  0.40840000  0.95848000  0.54271000  1.0
  Zn  Zn6  1  0.58547000  0.54614000  0.96031000  1.0
  Zn  Zn7  1  0.58548000  0.96031000  0.54614000  1.0
  H  H8  1  0.09387000  0.40598000  0.75199000  1.0
  H  H9  1  0.37580000  0.03312000  0.74743000  1.0
  H  H10  1  0.37580000  0.74743000  0.03311000  1.0
  H  H11  1  0.27904000  0.65384000  0.03482000  1.0
  H  H12  1  0.27906000  0.03484000  0.65383000  1.0
  H  H13  1  0.67198000  0.35239000  0.25776000  1.0
  H  H14  1  0.67198000  0.25775000  0.35235000  1.0
  H  H15  1  0.09393000  0.75228000  0.40606000  1.0
  H  H16  1  0.90483000  0.31336000  0.65770000  1.0
  H  H17  1  0.90490000  0.65795000  0.31348000  1.0
  H  H18  1  0.89149000  0.05521000  0.79052000  1.0
  H  H19  1  0.89143000  0.79011000  0.05489000  1.0
  H  H20  1  0.10062000  0.12376000  0.82832000  1.0
  H  H21  1  0.10060000  0.82789000  0.12365000  1.0
  H  H22  1  0.60877000  0.69986000  0.32123000  1.0
  H  H23  1  0.60878000  0.32124000  0.69988000  1.0
  H  H24  1  0.61109000  0.79973000  0.41470000  1.0
  H  H25  1  0.61109000  0.41470000  0.79975000  1.0
  H  H26  1  0.37737000  0.84848000  0.12766000  1.0
  H  H27  1  0.37735000  0.12766000  0.84847000  1.0
  H  H28  1  0.27408000  0.10855000  0.20389000  1.0
  H  H29  1  0.27406000  0.20394000  0.10861000  1.0
  H  H30  1  0.71839000  0.94805000  0.85211000  1.0
  H  H31  1  0.28105000  0.75479000  0.12984000  1.0
  H  H32  1  0.71840000  0.85213000  0.94805000  1.0
  H  H33  1  0.72911000  0.88510000  0.78875000  1.0
  H  H34  1  0.72913000  0.78877000  0.88511000  1.0
  H  H35  1  0.90722000  0.02711000  0.70870000  1.0
  H  H36  1  0.90722000  0.70823000  0.02708000  1.0
  H  H37  1  0.28105000  0.12986000  0.75477000  1.0
  C  C38  1  0.49903000  0.36295000  0.86759000  1.0
  C  C39  1  0.88843000  0.68718000  0.19527000  1.0
  C  C40  1  0.51473000  0.14467000  0.36884000  1.0
  C  C41  1  0.77563000  0.63697000  0.14053000  1.0
  C  C42  1  0.77561000  0.14052000  0.63700000  1.0
  C  C43  1  0.22088000  0.36153000  0.86006000  1.0
  C  C44  1  0.22089000  0.86010000  0.36150000  1.0
  C  C45  1  0.05009000  0.21535000  0.79148000  1.0
  C  C46  1  0.88841000  0.19526000  0.68718000  1.0
  C  C47  1  0.05009000  0.79138000  0.21529000  1.0
  C  C48  1  0.10773000  0.30400000  0.79948000  1.0
  C  C49  1  0.10775000  0.79952000  0.30398000  1.0
  C  C50  1  0.05182000  0.33703000  0.74786000  1.0
  C  C51  1  0.05186000  0.74803000  0.33708000  1.0
  C  C52  1  0.94397000  0.16218000  0.73532000  1.0
  C  C53  1  0.94396000  0.73518000  0.16212000  1.0
  C  C54  1  0.93449000  0.08167000  0.76110000  1.0
  C  C55  1  0.93445000  0.76073000  0.08152000  1.0
  C  C56  1  0.49903000  0.86757000  0.36295000  1.0
  C  C57  1  0.05367000  0.14364000  0.82847000  1.0
  C  C58  1  0.05364000  0.82814000  0.14346000  1.0
  C  C59  1  0.43166000  0.72262000  0.16111000  1.0
  C  C60  1  0.43168000  0.16112000  0.72264000  1.0
  C  C61  1  0.49391000  0.69248000  0.19735000  1.0
  C  C62  1  0.49393000  0.19736000  0.69250000  1.0
  C  C63  1  0.55892000  0.72198000  0.29053000  1.0
  C  C64  1  0.55893000  0.29053000  0.72201000  1.0
  C  C65  1  0.56031000  0.77808000  0.34294000  1.0
  C  C66  1  0.56032000  0.34294000  0.77810000  1.0
  C  C67  1  0.49696000  0.80833000  0.30571000  1.0
  C  C68  1  0.49696000  0.30571000  0.80835000  1.0
  C  C69  1  0.49333000  0.63367000  0.14131000  1.0
  C  C70  1  0.49333000  0.14131000  0.63368000  1.0
  C  C71  1  0.43306000  0.77889000  0.21370000  1.0
  C  C72  1  0.94553000  0.28479000  0.69436000  1.0
  C  C73  1  0.43307000  0.21370000  0.77891000  1.0
  C  C74  1  0.35230000  0.78279000  0.13487000  1.0
  C  C75  1  0.35231000  0.13488000  0.78279000  1.0
  C  C76  1  0.35104000  0.71937000  0.07546000  1.0
  C  C77  1  0.35106000  0.07548000  0.71937000  1.0
  C  C78  1  0.94558000  0.69452000  0.28485000  1.0
  C  C79  1  0.43785000  0.26318000  0.20998000  1.0
  C  C80  1  0.43786000  0.20995000  0.26318000  1.0
  C  C81  1  0.51925000  0.31385000  0.20359000  1.0
  C  C82  1  0.51926000  0.20356000  0.31383000  1.0
  C  C83  1  0.60443000  0.31145000  0.25777000  1.0
  C  C84  1  0.60444000  0.25776000  0.31144000  1.0
  C  C85  1  0.33455000  0.17912000  0.23988000  1.0
  C  C86  1  0.33455000  0.23987000  0.17919000  1.0
  C  C87  1  0.57555000  0.76189000  0.81518000  1.0
  C  C88  1  0.57553000  0.81517000  0.76188000  1.0
  C  C89  1  0.48671000  0.68605000  0.79670000  1.0
  C  C90  1  0.48670000  0.79669000  0.68605000  1.0
  C  C91  1  0.39515000  0.66312000  0.71728000  1.0
  C  C92  1  0.39515000  0.71729000  0.66311000  1.0
  C  C93  1  0.49359000  0.63585000  0.86095000  1.0
  C  C94  1  0.49358000  0.86094000  0.63584000  1.0
  C  C95  1  0.69041000  0.88086000  0.82028000  1.0
  C  C96  1  0.69043000  0.82030000  0.88086000  1.0
  C  C97  1  0.51472000  0.36887000  0.14471000  1.0
  I  I98  1  0.32802000  0.20542000  0.35019000  1.0
  I  I99  1  0.09907000  0.96400000  0.17364000  1.0
  I  I100  1  0.09915000  0.17418000  0.96433000  1.0
  I  I101  1  0.32809000  0.35017000  0.20571000  1.0
  I  I102  1  0.25992000  0.54102000  0.67803000  1.0
  I  I103  1  0.25992000  0.67804000  0.54102000  1.0
  O  O104  1  0.49773000  0.50166000  0.00300000  1.0
  O  O105  1  0.43568000  0.06529000  0.32918000  1.0
  O  O106  1  0.43565000  0.32923000  0.06534000  1.0
  O  O107  1  0.55963000  0.44632000  0.88874000  1.0
  O  O108  1  0.55967000  0.88876000  0.44633000  1.0
  O  O109  1  0.55456000  0.61091000  0.18066000  1.0
  O  O110  1  0.55455000  0.18066000  0.61091000  1.0
  O  O111  1  0.49773000  0.00300000  0.50166000  1.0
  O  O112  1  0.43950000  0.32343000  0.89208000  1.0
  O  O113  1  0.43946000  0.89202000  0.32341000  1.0
  O  O114  1  0.43123000  0.61138000  0.05786000  1.0
  O  O115  1  0.43125000  0.05787000  0.61141000  1.0
  O  O116  1  0.55874000  0.61752000  0.88455000  1.0
  O  O117  1  0.55871000  0.88452000  0.61750000  1.0
  O  O118  1  0.58835000  0.45006000  0.17899000  1.0
  O  O119  1  0.58834000  0.17896000  0.45004000  1.0
  O  O120  1  0.73136000  0.61772000  0.05681000  1.0
  O  O121  1  0.73135000  0.05681000  0.61781000  1.0
  O  O122  1  0.26484000  0.32198000  0.88944000  1.0
  O  O123  1  0.26485000  0.88946000  0.32196000  1.0
  O  O124  1  0.73338000  0.61975000  0.18160000  1.0
  O  O125  1  0.73335000  0.18160000  0.61971000  1.0
  O  O126  1  0.26402000  0.44480000  0.87734000  1.0
  O  O127  1  0.43827000  0.61985000  0.88894000  1.0
  O  O128  1  0.26403000  0.87739000  0.44478000  1.0
  O  O129  1  0.43827000  0.88895000  0.61985000  1.0
