# generated using pymatgen
data_AlH7C12SNO7
_symmetry_space_group_name_H-M   'P 1'
_cell_length_a   7.05414000
_cell_length_b   12.59510000
_cell_length_c   15.24150609
_cell_angle_alpha   93.96822056
_cell_angle_beta   102.59180466
_cell_angle_gamma   104.37520000
_symmetry_Int_Tables_number   1
_chemical_formula_structural   AlH7C12SNO7
_chemical_formula_sum   'Al2 H14 C24 S2 N2 O14'
_cell_volume   1269.28248918
_cell_formula_units_Z   2
loop_
 _symmetry_equiv_pos_site_id
 _symmetry_equiv_pos_as_xyz
  1  'x, y, z'
loop_
 _atom_site_type_symbol
 _atom_site_label
 _atom_site_symmetry_multiplicity
 _atom_site_fract_x
 _atom_site_fract_y
 _atom_site_fract_z
 _atom_site_occupancy
  Al  Al0  1  0.99672000  0.49305000  0.49886000  1.0
  Al  Al1  1  0.49626000  0.49062000  0.49948000  1.0
  H  H2  1  0.15701000  0.41081000  0.39136000  1.0
  H  H3  1  0.83179000  0.56429000  0.60931000  1.0
  H  H4  1  0.22196000  0.48594000  0.06577000  1.0
  H  H5  1  0.75608000  0.47914000  0.93563000  1.0
  H  H6  1  0.09603000  0.52197000  0.77242000  1.0
  H  H7  1  0.18682000  0.54724000  0.94013000  1.0
  H  H8  1  0.93807000  0.56258000  0.23374000  1.0
  H  H9  1  0.85549000  0.56722000  0.06756000  1.0
  H  H10  1  0.99263000  0.76953000  0.50048000  1.0
  H  H11  1  0.98030000  0.88644000  0.44207000  1.0
  H  H12  1  0.04544000  0.90273000  0.56204000  1.0
  H  H13  1  0.95368000  0.08256000  0.43290000  1.0
  H  H14  1  0.01855000  0.09699000  0.55283000  1.0
  H  H15  1  0.00548000  0.21489000  0.49587000  1.0
  C  C16  1  0.65647000  0.29611000  0.48719000  1.0
  C  C17  1  0.68302000  0.51485000  0.34287000  1.0
  C  C18  1  0.33984000  0.68744000  0.50988000  1.0
  C  C19  1  0.31542000  0.48194000  0.65769000  1.0
  C  C20  1  0.63236000  0.52578000  0.24391000  1.0
  C  C21  1  0.37285000  0.49170000  0.75904000  1.0
  C  C22  1  0.43363000  0.51050000  0.19425000  1.0
  C  C23  1  0.38088000  0.50502000  0.10062000  1.0
  C  C24  1  0.56001000  0.48400000  0.80818000  1.0
  C  C25  1  0.61150000  0.49112000  0.90197000  1.0
  C  C26  1  0.23998000  0.51286000  0.80964000  1.0
  C  C27  1  0.29162000  0.52534000  0.90375000  1.0
  C  C28  1  0.78199000  0.54628000  0.19550000  1.0
  C  C29  1  0.73367000  0.54671000  0.10215000  1.0
  C  C30  1  0.53161000  0.52189000  0.05214000  1.0
  C  C31  1  0.47722000  0.51290000  0.95218000  1.0
  C  C32  1  0.27895000  0.88132000  0.50112000  1.0
  C  C33  1  0.71958000  0.10199000  0.49424000  1.0
  C  C34  1  0.39532000  0.80659000  0.50489000  1.0
  C  C35  1  0.60302000  0.17662000  0.49091000  1.0
  C  C36  1  0.60011000  0.99443000  0.49791000  1.0
  C  C37  1  0.39871000  0.98865000  0.49730000  1.0
  C  C38  1  0.06257000  0.85732000  0.50126000  1.0
  C  C39  1  0.93603000  0.12680000  0.49412000  1.0
  S  S40  1  0.64383000  0.86626000  0.50328000  1.0
  S  S41  1  0.35461000  0.11662000  0.49252000  1.0
  N  N42  1  0.26809000  0.50410000  0.24017000  1.0
  N  N43  1  0.71920000  0.47333000  0.76230000  1.0
  O  O44  1  0.83633000  0.34415000  0.48325000  1.0
  O  O45  1  0.53696000  0.50449000  0.38092000  1.0
  O  O46  1  0.48225000  0.64024000  0.51210000  1.0
  O  O47  1  0.13550000  0.48172000  0.62095000  1.0
  O  O48  1  0.15887000  0.64124000  0.51307000  1.0
  O  O49  1  0.45466000  0.47586000  0.61828000  1.0
  O  O50  1  0.51263000  0.34174000  0.48720000  1.0
  O  O51  1  0.86249000  0.51340000  0.37850000  1.0
  O  O52  1  0.20389000  0.44549000  0.45408000  1.0
  O  O53  1  0.78848000  0.53772000  0.54467000  1.0
  O  O54  1  0.24919000  0.59407000  0.26914000  1.0
  O  O55  1  0.15529000  0.41207000  0.24198000  1.0
  O  O56  1  0.82449000  0.56210000  0.74744000  1.0
  O  O57  1  0.74452000  0.38128000  0.74700000  1.0
