# generated using pymatgen
data_Zn2H20C41Br2(NO3)6
_symmetry_space_group_name_H-M   'P 1'
_cell_length_a   10.93430000
_cell_length_b   15.86510000
_cell_length_c   17.10330000
_cell_angle_alpha   87.06190000
_cell_angle_beta   86.37170000
_cell_angle_gamma   87.70570000
_symmetry_Int_Tables_number   1
_chemical_formula_structural   Zn2H20C41Br2(NO3)6
_chemical_formula_sum   'Zn2 H20 C41 Br2 N6 O18'
_cell_volume   2955.11936980
_cell_formula_units_Z   1
loop_
 _symmetry_equiv_pos_site_id
 _symmetry_equiv_pos_as_xyz
  1  'x, y, z'
loop_
 _atom_site_type_symbol
 _atom_site_label
 _atom_site_symmetry_multiplicity
 _atom_site_fract_x
 _atom_site_fract_y
 _atom_site_fract_z
 _atom_site_occupancy
  Zn  Zn0  1  0.47991000  0.58992000  0.49887000  1.0
  Zn  Zn1  1  0.50610000  0.41368000  0.49090000  1.0
  H  H2  1  0.42073000  0.65907000  0.24995000  1.0
  H  H3  1  0.41552000  0.39234000  0.10840000  1.0
  H  H4  1  0.31551000  0.36708000  0.88605000  1.0
  H  H5  1  0.43883000  0.38822000  0.25397000  1.0
  H  H6  1  0.54480000  0.73064000  0.39037000  1.0
  H  H7  1  0.38501000  0.71729000  0.61688000  1.0
  H  H8  1  0.36726000  0.11823000  0.55268000  1.0
  H  H9  1  0.36639000  0.27841000  0.54321000  1.0
  H  H10  1  0.93374000  0.47330000  0.21931000  1.0
  H  H11  1  0.14710000  0.41762000  0.23747000  1.0
  H  H12  1  0.23607000  0.42713000  0.36632000  1.0
  H  H13  1  0.08708000  0.51141000  0.61949000  1.0
  H  H14  1  0.56338000  0.59178000  0.74868000  1.0
  H  H15  1  0.52926000  0.58741000  0.89553000  1.0
  H  H16  1  0.39937000  0.66363000  0.10371000  1.0
  H  H17  1  0.27182000  0.24852000  0.72657000  1.0
  H  H18  1  0.65065000  0.89079000  0.27336000  1.0
  H  H19  1  0.83244000  0.35668000  0.35536000  1.0
  H  H20  1  0.71474000  0.45608000  0.27920000  1.0
  H  H21  1  0.36253000  0.97319000  0.71080000  1.0
  C  C22  1  0.46090000  0.51887000  0.34458000  1.0
  C  C23  1  0.94177000  0.50024000  0.41710000  1.0
  C  C24  1  0.86618000  0.51871000  0.48578000  1.0
  C  C25  1  0.92005000  0.51972000  0.55685000  1.0
  C  C26  1  0.04701000  0.50611000  0.56333000  1.0
  C  C27  1  0.12000000  0.48382000  0.49849000  1.0
  C  C28  1  0.43248000  0.52342000  0.25989000  1.0
  C  C29  1  0.42809000  0.44804000  0.22041000  1.0
  C  C30  1  0.41517000  0.45005000  0.14031000  1.0
  C  C31  1  0.40714000  0.52847000  0.09812000  1.0
  C  C32  1  0.40627000  0.60387000  0.13789000  1.0
  C  C33  1  0.72825000  0.52231000  0.48475000  1.0
  C  C34  1  0.41805000  0.60127000  0.21849000  1.0
  C  C35  1  0.48943000  0.54128000  0.86054000  1.0
  C  C36  1  0.50809000  0.54340000  0.77953000  1.0
  C  C37  1  0.41849000  0.47778000  0.89888000  1.0
  C  C38  1  0.45643000  0.48368000  0.73495000  1.0
  C  C39  1  0.38570000  0.41994000  0.77349000  1.0
  C  C40  1  0.36959000  0.41616000  0.85528000  1.0
  C  C41  1  0.44482000  0.23973000  0.52161000  1.0
  C  C42  1  0.44481000  0.15245000  0.52593000  1.0
  C  C43  1  0.54714000  0.10707000  0.49455000  1.0
  C  C44  1  0.48071000  0.49014000  0.64757000  1.0
  C  C45  1  0.64731000  0.15160000  0.46113000  1.0
  C  C46  1  0.64194000  0.24022000  0.46058000  1.0
  C  C47  1  0.50751000  0.85332000  0.43910000  1.0
  C  C48  1  0.50764000  0.76538000  0.44053000  1.0
  C  C49  1  0.46214000  0.89440000  0.50695000  1.0
  C  C50  1  0.41812000  0.75750000  0.56695000  1.0
  C  C51  1  0.41642000  0.84514000  0.57252000  1.0
  C  C52  1  0.25668000  0.47803000  0.50408000  1.0
  C  C53  1  0.89661000  0.50209000  0.33998000  1.0
  C  C54  1  0.96929000  0.47010000  0.27768000  1.0
  C  C55  1  0.09107000  0.44085000  0.28738000  1.0
  C  C56  1  0.14069000  0.44665000  0.35887000  1.0
  C  C57  1  0.06860000  0.47611000  0.42467000  1.0
  C  C58  1  0.31467000  0.36201000  0.72911000  1.0
  C  C59  1  0.54529000  0.90140000  0.36458000  1.0
  C  C60  1  0.75710000  0.28732000  0.43567000  1.0
  C  C61  1  0.78618000  0.55473000  0.31718000  1.0
  C  C62  1  0.36987000  0.87774000  0.64947000  1.0
  Br  Br63  1  0.82315000  0.53653000  0.65173000  1.0
  Br  Br64  1  0.78458000  0.09367000  0.41423000  1.0
  N  N65  1  0.41027000  0.53741000  0.01557000  1.0
  N  N66  1  0.39750000  0.46968000  0.98107000  1.0
  N  N67  1  0.54127000  0.28280000  0.48922000  1.0
  N  N68  1  0.55716000  0.01773000  0.49838000  1.0
  N  N69  1  0.45590000  0.98284000  0.50607000  1.0
  N  N70  1  0.46233000  0.71896000  0.50278000  1.0
  O  O71  1  0.46267000  0.58758000  0.37978000  1.0
  O  O72  1  0.48267000  0.44507000  0.37487000  1.0
  O  O73  1  0.66910000  0.59157000  0.49203000  1.0
  O  O74  1  0.68293000  0.45047000  0.47765000  1.0
  O  O75  1  0.48596000  0.56495000  0.61745000  1.0
  O  O76  1  0.49558000  0.42204000  0.61138000  1.0
  O  O77  1  0.30313000  0.54868000  0.51341000  1.0
  O  O78  1  0.31417000  0.40749000  0.49688000  1.0
  O  O79  1  0.24522000  0.38428000  0.67831000  1.0
  O  O80  1  0.32886000  0.27949000  0.75538000  1.0
  O  O81  1  0.49950000  0.96912000  0.34225000  1.0
  O  O82  1  0.63394000  0.85795000  0.32272000  1.0
  O  O83  1  0.84206000  0.28631000  0.47814000  1.0
  O  O84  1  0.75623000  0.32491000  0.36312000  1.0
  O  O85  1  0.77239000  0.62931000  0.32995000  1.0
  O  O86  1  0.70647000  0.51757000  0.27236000  1.0
  O  O87  1  0.31583000  0.83494000  0.70080000  1.0
  O  O88  1  0.39551000  0.96009000  0.65794000  1.0
