# generated using pymatgen
data_ZnH12C10Se(NCl)2
_symmetry_space_group_name_H-M   'P 1'
_cell_length_a   10.17700000
_cell_length_b   10.26190000
_cell_length_c   12.20330000
_cell_angle_alpha   90.00000000
_cell_angle_beta   90.00000000
_cell_angle_gamma   90.00000000
_symmetry_Int_Tables_number   1
_chemical_formula_structural   ZnH12C10Se(NCl)2
_chemical_formula_sum   'Zn4 H48 C40 Se4 N8 Cl8'
_cell_volume   1274.45598354
_cell_formula_units_Z   4
loop_
 _symmetry_equiv_pos_site_id
 _symmetry_equiv_pos_as_xyz
  1  'x, y, z'
loop_
 _atom_site_type_symbol
 _atom_site_label
 _atom_site_symmetry_multiplicity
 _atom_site_fract_x
 _atom_site_fract_y
 _atom_site_fract_z
 _atom_site_occupancy
  Zn  Zn0  1  0.18428000  0.00680000  0.77465000  1.0
  Zn  Zn1  1  0.31572000  0.99320000  0.27465000  1.0
  Zn  Zn2  1  0.68428000  0.49320000  0.22535000  1.0
  Zn  Zn3  1  0.81572000  0.50680000  0.72535000  1.0
  H  H4  1  0.88892000  0.07006000  0.78913000  1.0
  H  H5  1  0.61108000  0.92994000  0.28913000  1.0
  H  H6  1  0.38892000  0.42994000  0.21087000  1.0
  H  H7  1  0.11108000  0.57006000  0.71087000  1.0
  H  H8  1  0.77855000  0.99875000  0.12524000  1.0
  H  H9  1  0.72145000  0.00125000  0.62524000  1.0
  H  H10  1  0.27855000  0.50125000  0.87476000  1.0
  H  H11  1  0.22145000  0.49876000  0.37476000  1.0
  H  H12  1  0.01613000  0.95086000  0.16508000  1.0
  H  H13  1  0.48387000  0.04915000  0.66508000  1.0
  H  H14  1  0.51613000  0.54915000  0.83492000  1.0
  H  H15  1  0.98387000  0.45085000  0.33492000  1.0
  H  H16  1  0.17745000  0.96159000  0.01126000  1.0
  H  H17  1  0.32255000  0.03841000  0.51126000  1.0
  H  H18  1  0.67745000  0.53841000  0.98874000  1.0
  H  H19  1  0.82255000  0.46159000  0.48874000  1.0
  H  H20  1  0.66366000  0.08622000  0.83730000  1.0
  H  H21  1  0.83633000  0.91378000  0.33730000  1.0
  H  H22  1  0.16367000  0.41378000  0.16270000  1.0
  H  H23  1  0.33634000  0.58622000  0.66270000  1.0
  H  H24  1  0.58069000  0.14021000  0.16137000  1.0
  H  H25  1  0.91931000  0.85979000  0.66137000  1.0
  H  H26  1  0.08069000  0.35979000  0.83863000  1.0
  H  H27  1  0.41932000  0.64021000  0.33863000  1.0
  H  H28  1  0.43828000  0.18496000  0.08932000  1.0
  H  H29  1  0.06172000  0.81504000  0.58932000  1.0
  H  H30  1  0.93828000  0.31504000  0.91068000  1.0
  H  H31  1  0.56172000  0.68496000  0.41068000  1.0
  H  H32  1  0.69918000  0.25362000  0.02077000  1.0
  H  H33  1  0.80082000  0.74638000  0.52077000  1.0
  H  H34  1  0.19918000  0.24638000  0.97923000  1.0
  H  H35  1  0.30082000  0.75362000  0.47923000  1.0
  H  H36  1  0.56053000  0.25052000  0.93156000  1.0
  H  H37  1  0.93947000  0.74949000  0.43156000  1.0
  H  H38  1  0.06053000  0.24949000  0.06844000  1.0
  H  H39  1  0.43947000  0.75052000  0.56844000  1.0
  H  H40  1  0.65973000  0.77690000  0.94977000  1.0
  H  H41  1  0.84027000  0.22310000  0.44978000  1.0
  H  H42  1  0.15973000  0.72310000  0.05022000  1.0
  H  H43  1  0.34027000  0.27690000  0.55023000  1.0
  H  H44  1  0.62174000  0.85406000  0.82240000  1.0
  H  H45  1  0.87826000  0.14595000  0.32240000  1.0
  H  H46  1  0.12174000  0.64595000  0.17760000  1.0
  H  H47  1  0.37826000  0.35406000  0.67760000  1.0
  H  H48  1  0.49173000  0.79761000  0.90777000  1.0
  H  H49  1  0.00827000  0.20239000  0.40777000  1.0
  H  H50  1  0.99173000  0.70239000  0.09223000  1.0
  H  H51  1  0.50827000  0.29761000  0.59223000  1.0
  C  C52  1  0.91162000  0.04088000  0.87308000  1.0
  C  C53  1  0.58838000  0.95912000  0.37308000  1.0
  C  C54  1  0.41162000  0.45912000  0.12691000  1.0
  C  C55  1  0.08838000  0.54088000  0.62692000  1.0
  C  C56  1  0.81444000  0.03833000  0.95355000  1.0
  C  C57  1  0.68556000  0.96167000  0.45355000  1.0
  C  C58  1  0.31444000  0.46167000  0.04645000  1.0
  C  C59  1  0.18556000  0.53833000  0.54645000  1.0
  C  C60  1  0.85189000  0.00438000  0.06029000  1.0
  C  C61  1  0.64811000  0.99562000  0.56029000  1.0
  C  C62  1  0.35189000  0.49563000  0.93971000  1.0
  C  C63  1  0.14811000  0.50438000  0.43972000  1.0
  C  C64  1  0.98287000  0.97696000  0.08294000  1.0
  C  C65  1  0.51713000  0.02304000  0.58294000  1.0
  C  C66  1  0.48287000  0.52304000  0.91706000  1.0
  C  C67  1  0.01713000  0.47696000  0.41706000  1.0
  C  C68  1  0.07341000  0.98191000  0.99755000  1.0
  C  C69  1  0.42659000  0.01809000  0.49755000  1.0
  C  C70  1  0.57341000  0.51809000  0.00245000  1.0
  C  C71  1  0.92659000  0.48191000  0.50245000  1.0
  C  C72  1  0.67377000  0.07339000  0.92620000  1.0
  C  C73  1  0.82623000  0.92661000  0.42620000  1.0
  C  C74  1  0.17377000  0.42661000  0.07380000  1.0
  C  C75  1  0.32623000  0.57339000  0.57380000  1.0
  C  C76  1  0.51240000  0.99657000  0.04728000  1.0
  C  C77  1  0.98759000  0.00343000  0.54729000  1.0
  C  C78  1  0.01241000  0.50343000  0.95271000  1.0
  C  C79  1  0.48760000  0.49657000  0.45272000  1.0
  C  C80  1  0.53344000  0.13572000  0.08016000  1.0
  C  C81  1  0.96656000  0.86428000  0.58016000  1.0
  C  C82  1  0.03344000  0.36428000  0.91984000  1.0
  C  C83  1  0.46656000  0.63572000  0.41984000  1.0
  C  C84  1  0.61991000  0.19271000  0.98828000  1.0
  C  C85  1  0.88009000  0.80729000  0.48828000  1.0
  C  C86  1  0.11991000  0.30729000  0.01172000  1.0
  C  C87  1  0.38009000  0.69271000  0.51172000  1.0
  C  C88  1  0.58993000  0.84137000  0.90741000  1.0
  C  C89  1  0.91007000  0.15863000  0.40741000  1.0
  C  C90  1  0.08992000  0.65863000  0.09259000  1.0
  C  C91  1  0.41007000  0.34137000  0.59259000  1.0
  Se  Se92  1  0.40369000  0.87626000  0.11498000  1.0
  Se  Se93  1  0.09630000  0.12374000  0.61498000  1.0
  Se  Se94  1  0.90370000  0.62374000  0.88502000  1.0
  Se  Se95  1  0.59631000  0.37626000  0.38502000  1.0
  N  N96  1  0.03823000  0.01283000  0.89455000  1.0
  N  N97  1  0.46177000  0.98717000  0.39455000  1.0
  N  N98  1  0.53823000  0.48717000  0.10545000  1.0
  N  N99  1  0.96177000  0.51283000  0.60545000  1.0
  N  N100  1  0.58502000  0.96714000  0.96135000  1.0
  N  N101  1  0.91498000  0.03286000  0.46135000  1.0
  N  N102  1  0.08502000  0.53286000  0.03865000  1.0
  N  N103  1  0.41498000  0.46714000  0.53865000  1.0
  Cl  Cl104  1  0.34300000  0.14954000  0.82673000  1.0
  Cl  Cl105  1  0.15700000  0.85046000  0.32673000  1.0
  Cl  Cl106  1  0.84300000  0.35046000  0.17327000  1.0
  Cl  Cl107  1  0.65700000  0.64954000  0.67327000  1.0
  Cl  Cl108  1  0.25234000  0.79916000  0.77474000  1.0
  Cl  Cl109  1  0.24766000  0.20084000  0.27474000  1.0
  Cl  Cl110  1  0.75234000  0.70084000  0.22526000  1.0
  Cl  Cl111  1  0.74766000  0.29916000  0.72526000  1.0
