# generated using pymatgen
data_CoH14C15SN3O5
_symmetry_space_group_name_H-M   'P 1'
_cell_length_a   11.31350000
_cell_length_b   11.41760000
_cell_length_c   17.82380000
_cell_angle_alpha   81.59480000
_cell_angle_beta   89.84600000
_cell_angle_gamma   89.94570000
_symmetry_Int_Tables_number   1
_chemical_formula_structural   CoH14C15SN3O5
_chemical_formula_sum   'Co4 H56 C60 S4 N12 O20'
_cell_volume   2277.61602414
_cell_formula_units_Z   4
loop_
 _symmetry_equiv_pos_site_id
 _symmetry_equiv_pos_as_xyz
  1  'x, y, z'
loop_
 _atom_site_type_symbol
 _atom_site_label
 _atom_site_symmetry_multiplicity
 _atom_site_fract_x
 _atom_site_fract_y
 _atom_site_fract_z
 _atom_site_occupancy
  Co  Co0  1  0.50000000  0.00000000  0.00000000  1.0
  Co  Co1  1  0.50000000  0.50000000  0.50000000  1.0
  Co  Co2  1  0.75320000  0.24943000  0.75043000  1.0
  Co  Co3  1  0.24681000  0.75057000  0.24957000  1.0
  H  H4  1  0.44289000  0.05480000  0.83674000  1.0
  H  H5  1  0.33786000  0.33719000  0.84963000  1.0
  H  H6  1  0.55801000  0.33904000  0.84329000  1.0
  H  H7  1  0.42668000  0.95326000  0.72273000  1.0
  H  H8  1  0.78600000  0.42160000  0.86802000  1.0
  H  H9  1  0.52360000  0.62819000  0.86587000  1.0
  H  H10  1  0.80761000  0.63542000  0.87214000  1.0
  H  H11  1  0.52629000  0.74201000  0.97408000  1.0
  H  H12  1  0.76244000  0.69260000  0.62857000  1.0
  H  H13  1  0.17186000  0.16635000  0.86717000  1.0
  H  H14  1  0.74587000  0.47570000  0.63506000  1.0
  H  H15  1  0.94973000  0.17144000  0.86259000  1.0
  H  H16  1  0.27724000  0.00007000  0.97841000  1.0
  H  H17  1  0.30227000  0.12925000  0.99841000  1.0
  H  H18  1  0.44473000  0.44461000  0.66379000  1.0
  H  H19  1  0.33858000  0.16233000  0.65058000  1.0
  H  H20  1  0.55867000  0.15999000  0.65683000  1.0
  H  H21  1  0.42852000  0.54601000  0.77796000  1.0
  H  H22  1  0.78072000  0.08005000  0.63158000  1.0
  H  H23  1  0.52150000  0.87187000  0.63415000  1.0
  H  H24  1  0.80562000  0.86675000  0.62754000  1.0
  H  H25  1  0.52391000  0.75818000  0.52583000  1.0
  H  H26  1  0.76144000  0.80897000  0.87131000  1.0
  H  H27  1  0.17241000  0.33333333  0.63340000  1.0
  H  H28  1  0.74069000  0.02530000  0.86500000  1.0
  H  H29  1  0.95003000  0.32816000  0.63834000  1.0
  H  H30  1  0.27809000  0.50182000  0.52302000  1.0
  H  H31  1  0.30117000  0.37338000  0.50097000  1.0
  H  H32  1  0.55711000  0.94519000  0.16326000  1.0
  H  H33  1  0.66215000  0.66280000  0.15037000  1.0
  H  H34  1  0.44200000  0.66095000  0.15670000  1.0
  H  H35  1  0.57332000  0.04673000  0.27727000  1.0
  H  H36  1  0.21400000  0.57841000  0.13199000  1.0
  H  H37  1  0.47640000  0.37180000  0.13413000  1.0
  H  H38  1  0.19238000  0.36459000  0.12786000  1.0
  H  H39  1  0.47372000  0.25799000  0.02592000  1.0
  H  H40  1  0.23756000  0.30741000  0.37142000  1.0
  H  H41  1  0.82814000  0.83365000  0.13284000  1.0
  H  H42  1  0.25412000  0.52431000  0.36494000  1.0
  H  H43  1  0.05027000  0.82857000  0.13742000  1.0
  H  H44  1  0.72277000  0.99994000  0.02159000  1.0
  H  H45  1  0.69774000  0.87075000  0.00159000  1.0
  H  H46  1  0.55527000  0.55539000  0.33621000  1.0
  H  H47  1  0.66143000  0.83766000  0.34943000  1.0
  H  H48  1  0.44134000  0.84000000  0.34317000  1.0
  H  H49  1  0.57149000  0.45398000  0.22204000  1.0
  H  H50  1  0.21928000  0.91995000  0.36842000  1.0
  H  H51  1  0.47850000  0.12813000  0.36585000  1.0
  H  H52  1  0.19438000  0.13325000  0.37246000  1.0
  H  H53  1  0.47608000  0.24182000  0.47417000  1.0
  H  H54  1  0.23856000  0.19104000  0.12868000  1.0
  H  H55  1  0.82760000  0.66661000  0.36661000  1.0
  H  H56  1  0.25931000  0.97470000  0.13500000  1.0
  H  H57  1  0.04998000  0.67184000  0.36167000  1.0
  H  H58  1  0.72190000  0.49817000  0.47697000  1.0
  H  H59  1  0.69883000  0.62661000  0.49902000  1.0
  C  C60  1  0.45934000  0.96029000  0.84015000  1.0
  C  C61  1  0.38363000  0.29815000  0.80542000  1.0
  C  C62  1  0.47550000  0.78102000  0.78356000  1.0
  C  C63  1  0.78507000  0.68634000  0.75017000  1.0
  C  C64  1  0.50629000  0.29865000  0.80242000  1.0
  C  C65  1  0.45172000  0.90281000  0.77696000  1.0
  C  C66  1  0.78250000  0.48486000  0.81600000  1.0
  C  C67  1  0.50310000  0.72244000  0.85624000  1.0
  C  C68  1  0.79322000  0.60576000  0.81753000  1.0
  C  C69  1  0.50783000  0.78608000  0.91690000  1.0
  C  C70  1  0.77010000  0.63680000  0.68330000  1.0
  C  C71  1  0.12581000  0.20457000  0.81563000  1.0
  C  C72  1  0.75984000  0.51526000  0.68616000  1.0
  C  C73  1  0.00303000  0.20558000  0.81316000  1.0
  C  C74  1  0.46034000  0.53925000  0.66030000  1.0
  C  C75  1  0.38401000  0.20106000  0.69489000  1.0
  C  C76  1  0.47547000  0.71859000  0.71682000  1.0
  C  C77  1  0.78414000  0.81561000  0.74962000  1.0
  C  C78  1  0.50671000  0.20024000  0.69786000  1.0
  C  C79  1  0.45277000  0.59664000  0.72356000  1.0
  C  C80  1  0.77849000  0.01701000  0.68374000  1.0
  C  C81  1  0.50183000  0.77746000  0.64392000  1.0
  C  C82  1  0.79102000  0.89628000  0.68222000  1.0
  C  C83  1  0.50654000  0.71393000  0.58319000  1.0
  C  C84  1  0.76840000  0.86494000  0.81659000  1.0
  C  C85  1  0.12613000  0.29491000  0.68496000  1.0
  C  C86  1  0.75598000  0.98628000  0.81378000  1.0
  C  C87  1  0.00334000  0.29392000  0.68757000  1.0
  C  C88  1  0.54066000  0.03970000  0.15985000  1.0
  C  C89  1  0.61638000  0.70184000  0.19458000  1.0
  C  C90  1  0.52449000  0.21897000  0.21645000  1.0
  C  C91  1  0.21492000  0.31366000  0.24983000  1.0
  C  C92  1  0.49371000  0.70135000  0.19758000  1.0
  C  C93  1  0.54828000  0.09719000  0.22304000  1.0
  C  C94  1  0.21749000  0.51515000  0.18400000  1.0
  C  C95  1  0.49691000  0.27755000  0.14376000  1.0
  C  C96  1  0.20677000  0.39425000  0.18247000  1.0
  C  C97  1  0.49218000  0.21392000  0.08310000  1.0
  C  C98  1  0.22989000  0.36319000  0.31670000  1.0
  C  C99  1  0.87420000  0.79543000  0.18438000  1.0
  C  C100  1  0.24015000  0.48474000  0.31384000  1.0
  C  C101  1  0.99697000  0.79444000  0.18684000  1.0
  C  C102  1  0.53966000  0.46075000  0.33970000  1.0
  C  C103  1  0.61599000  0.79893000  0.30511000  1.0
  C  C104  1  0.52453000  0.28140000  0.28317000  1.0
  C  C105  1  0.21586000  0.18440000  0.25038000  1.0
  C  C106  1  0.49329000  0.79975000  0.30213000  1.0
  C  C107  1  0.54723000  0.40335000  0.27643000  1.0
  C  C108  1  0.22151000  0.98300000  0.31626000  1.0
  C  C109  1  0.49816000  0.22254000  0.35608000  1.0
  C  C110  1  0.20897000  0.10373000  0.31778000  1.0
  C  C111  1  0.49345000  0.28607000  0.41681000  1.0
  C  C112  1  0.23160000  0.13506000  0.18341000  1.0
  C  C113  1  0.87387000  0.70508000  0.31505000  1.0
  C  C114  1  0.24402000  0.01372000  0.18622000  1.0
  C  C115  1  0.99667000  0.70608000  0.31244000  1.0
  C  C116  1  0.18953000  0.24968000  0.75025000  1.0
  C  C117  1  0.31970000  0.24960000  0.75019000  1.0
  C  C118  1  0.81047000  0.75031000  0.24976000  1.0
  C  C119  1  0.68030000  0.75038000  0.24981000  1.0
  S  S120  1  0.69879000  0.19994000  0.94201000  1.0
  S  S121  1  0.69799000  0.29977000  0.55818000  1.0
  S  S122  1  0.30121000  0.80006000  0.05799000  1.0
  S  S123  1  0.30200000  0.70022000  0.44182000  1.0
  N  N124  1  0.76456000  0.43900000  0.75136000  1.0
  N  N125  1  0.48783000  0.90361000  0.90948000  1.0
  N  N126  1  0.75949000  0.06250000  0.74848000  1.0
  N  N127  1  0.48775000  0.59620000  0.59078000  1.0
  N  N128  1  0.23543000  0.56101000  0.24864000  1.0
  N  N129  1  0.51217000  0.09638000  0.09052000  1.0
  N  N130  1  0.24052000  0.93750000  0.25152000  1.0
  N  N131  1  0.51225000  0.40380000  0.40922000  1.0
  N  N132  1  0.56761000  0.24922000  0.75021000  1.0
  N  N133  1  0.94224000  0.24976000  0.75039000  1.0
  N  N134  1  0.43240000  0.75078000  0.24979000  1.0
  N  N135  1  0.05776000  0.75025000  0.24961000  1.0
  O  O136  1  0.32657000  0.07558000  0.96365000  1.0
  O  O137  1  0.58715000  0.13081000  0.92983000  1.0
  O  O138  1  0.76050000  0.22641000  0.86613000  1.0
  O  O139  1  0.66934000  0.31172000  0.96861000  1.0
  O  O140  1  0.77845000  0.12276000  0.99418000  1.0
  O  O141  1  0.32630000  0.42515000  0.53662000  1.0
  O  O142  1  0.58556000  0.36858000  0.56957000  1.0
  O  O143  1  0.76156000  0.28276000  0.63338000  1.0
  O  O144  1  0.66932000  0.18452000  0.53614000  1.0
  O  O145  1  0.77478000  0.37373000  0.50211000  1.0
  O  O146  1  0.67343000  0.92442000  0.03635000  1.0
  O  O147  1  0.41286000  0.86920000  0.07018000  1.0
  O  O148  1  0.23950000  0.77360000  0.13388000  1.0
  O  O149  1  0.33067000  0.68828000  0.03139000  1.0
  O  O150  1  0.22155000  0.87725000  0.00582000  1.0
  O  O151  1  0.67370000  0.57485000  0.46338000  1.0
  O  O152  1  0.41444000  0.63142000  0.43042000  1.0
  O  O153  1  0.23844000  0.71725000  0.36661000  1.0
  O  O154  1  0.33067000  0.81547000  0.46387000  1.0
  O  O155  1  0.22521000  0.62625000  0.49787000  1.0
