# generated using pymatgen
data_Zn2H10C24S3Br2O11
_symmetry_space_group_name_H-M   'P 1'
_cell_length_a   7.84651000
_cell_length_b   12.52080000
_cell_length_c   34.75400000
_cell_angle_alpha   89.70320000
_cell_angle_beta   88.74190000
_cell_angle_gamma   89.93440000
_symmetry_Int_Tables_number   1
_chemical_formula_structural   Zn2H10C24S3Br2O11
_chemical_formula_sum   'Zn4 H20 C48 S6 Br4 O22'
_cell_volume   3413.52150470
_cell_formula_units_Z   2
loop_
 _symmetry_equiv_pos_site_id
 _symmetry_equiv_pos_as_xyz
  1  'x, y, z'
loop_
 _atom_site_type_symbol
 _atom_site_label
 _atom_site_symmetry_multiplicity
 _atom_site_fract_x
 _atom_site_fract_y
 _atom_site_fract_z
 _atom_site_occupancy
  Zn  Zn0  1  0.66257000  0.00433000  0.49936000  1.0
  Zn  Zn1  1  0.31596000  0.00027000  0.50168000  1.0
  Zn  Zn2  1  0.24704000  0.00895000  0.00078000  1.0
  Zn  Zn3  1  0.59352000  0.00436000  0.99831000  1.0
  H  H4  1  0.61713000  0.00421000  0.11472000  1.0
  H  H5  1  0.65056000  0.00047000  0.18502000  1.0
  H  H6  1  0.10148000  0.99168000  0.19856000  1.0
  H  H7  1  0.80780000  0.99087000  0.30168000  1.0
  H  H8  1  0.25872000  0.00027000  0.31515000  1.0
  H  H9  1  0.29205000  0.00232000  0.38545000  1.0
  H  H10  1  0.25900000  0.99482000  0.25435000  1.0
  H  H11  1  0.65035000  0.99537000  0.24590000  1.0
  H  H12  1  0.60932000  0.00665000  0.88387000  1.0
  H  H13  1  0.64562000  0.00259000  0.81353000  1.0
  H  H14  1  0.09686000  0.00348000  0.80409000  1.0
  H  H15  1  0.81056000  0.00174000  0.69614000  1.0
  H  H16  1  0.26195000  0.00070000  0.68629000  1.0
  H  H17  1  0.29938000  0.00325000  0.61592000  1.0
  H  H18  1  0.25797000  0.00216000  0.74699000  1.0
  H  H19  1  0.64890000  0.00034000  0.75303000  1.0
  H  H20  1  0.12738000  0.36417000  0.50566000  1.0
  H  H21  1  0.78262000  0.36786000  0.99440000  1.0
  H  H22  1  0.82800000  0.66243000  0.43641000  1.0
  H  H23  1  0.07998000  0.66464000  0.06350000  1.0
  C  C24  1  0.39872000  0.20187000  0.49989000  1.0
  C  C25  1  0.56083000  0.00004000  0.42722000  1.0
  C  C26  1  0.42457000  0.80054000  0.50161000  1.0
  C  C27  1  0.56970000  0.00541000  0.57233000  1.0
  C  C28  1  0.51075000  0.20603000  0.99987000  1.0
  C  C29  1  0.34841000  0.00332000  0.07295000  1.0
  C  C30  1  0.48565000  0.80478000  0.99874000  1.0
  C  C31  1  0.33984000  0.00967000  0.92769000  1.0
  C  C32  1  0.34562000  0.99991000  0.11602000  1.0
  C  C33  1  0.50549000  0.00114000  0.13383000  1.0
  C  C34  1  0.52289000  0.99916000  0.17329000  1.0
  C  C35  1  0.37699000  0.99613000  0.19771000  1.0
  C  C36  1  0.21660000  0.99438000  0.18042000  1.0
  C  C37  1  0.20042000  0.99585000  0.14052000  1.0
  C  C38  1  0.38334000  0.99534000  0.23951000  1.0
  C  C39  1  0.52597000  0.99544000  0.26071000  1.0
  C  C40  1  0.69264000  0.99344000  0.31981000  1.0
  C  C41  1  0.53227000  0.99583000  0.30251000  1.0
  C  C42  1  0.38635000  0.99852000  0.32692000  1.0
  C  C43  1  0.40372000  0.99956000  0.36637000  1.0
  C  C44  1  0.56357000  0.99753000  0.38418000  1.0
  C  C45  1  0.70880000  0.99367000  0.35970000  1.0
  C  C46  1  0.33754000  0.00777000  0.88477000  1.0
  C  C47  1  0.49820000  0.00610000  0.86573000  1.0
  C  C48  1  0.51733000  0.00377000  0.82619000  1.0
  C  C49  1  0.37247000  0.00303000  0.80288000  1.0
  C  C50  1  0.21115000  0.00430000  0.82138000  1.0
  C  C51  1  0.19303000  0.00659000  0.86140000  1.0
  C  C52  1  0.38131000  0.00174000  0.76103000  1.0
  C  C53  1  0.52561000  0.00087000  0.73897000  1.0
  C  C54  1  0.69653000  0.00220000  0.67876000  1.0
  C  C55  1  0.53494000  0.00138000  0.69713000  1.0
  C  C56  1  0.39041000  0.00172000  0.67371000  1.0
  C  C57  1  0.41015000  0.00317000  0.63417000  1.0
  C  C58  1  0.57119000  0.00440000  0.61526000  1.0
  C  C59  1  0.71527000  0.00386000  0.63874000  1.0
  C  C60  1  0.55664000  0.61096000  0.49857000  1.0
  C  C61  1  0.25988000  0.38914000  0.50317000  1.0
  C  C62  1  0.42128000  0.68297000  0.50178000  1.0
  C  C63  1  0.39595000  0.31912000  0.50014000  1.0
  C  C64  1  0.31913000  0.49590000  0.50253000  1.0
  C  C65  1  0.49863000  0.50385000  0.49898000  1.0
  C  C66  1  0.35365000  0.61534000  0.00161000  1.0
  C  C67  1  0.65013000  0.39303000  0.99685000  1.0
  C  C68  1  0.48910000  0.68721000  0.99854000  1.0
  C  C69  1  0.51384000  0.32323000  0.99970000  1.0
  C  C70  1  0.59104000  0.49989000  0.99762000  1.0
  C  C71  1  0.41152000  0.50811000  0.00111000  1.0
  S  S72  1  0.22550000  0.62019000  0.50525000  1.0
  S  S73  1  0.59462000  0.38072000  0.49646000  1.0
  S  S74  1  0.68477000  0.62413000  0.99506000  1.0
  S  S75  1  0.31527000  0.38511000  0.00336000  1.0
  S  S76  1  0.77744000  0.63861000  0.49610000  1.0
  S  S77  1  0.13269000  0.64286000  0.00390000  1.0
  Br  Br78  1  0.97238000  0.98984000  0.12291000  1.0
  Br  Br79  1  0.93674000  0.98643000  0.37735000  1.0
  Br  Br80  1  0.96444000  0.00744000  0.88084000  1.0
  Br  Br81  1  0.94413000  0.00496000  0.61948000  1.0
  O  O82  1  0.54540000  0.15830000  0.49823000  1.0
  O  O83  1  0.25587000  0.15052000  0.50133000  1.0
  O  O84  1  0.41563000  0.99701000  0.44412000  1.0
  O  O85  1  0.70398000  0.00547000  0.44455000  1.0
  O  O86  1  0.27754000  0.84759000  0.50294000  1.0
  O  O87  1  0.56761000  0.84671000  0.49995000  1.0
  O  O88  1  0.71237000  0.00961000  0.55324000  1.0
  O  O89  1  0.42460000  0.00189000  0.55668000  1.0
  O  O90  1  0.36400000  0.16273000  0.00145000  1.0
  O  O91  1  0.65351000  0.15444000  0.99847000  1.0
  O  O92  1  0.49356000  0.00052000  0.05603000  1.0
  O  O93  1  0.20524000  0.00924000  0.05559000  1.0
  O  O94  1  0.63259000  0.85176000  0.99739000  1.0
  O  O95  1  0.34256000  0.85107000  0.00043000  1.0
  O  O96  1  0.19742000  0.01422000  0.94686000  1.0
  O  O97  1  0.48520000  0.00649000  0.94324000  1.0
  O  O98  1  0.80205000  0.71105000  0.45774000  1.0
  O  O99  1  0.82801000  0.70285000  0.52768000  1.0
  O  O100  1  0.85952000  0.53696000  0.48825000  1.0
  O  O101  1  0.10666000  0.71402000  0.04226000  1.0
  O  O102  1  0.08256000  0.70807000  0.97228000  1.0
  O  O103  1  0.05098000  0.54091000  0.01163000  1.0
