# generated using pymatgen
data_NaH8(CO)5
_symmetry_space_group_name_H-M   'P 1'
_cell_length_a   4.92082000
_cell_length_b   5.81860000
_cell_length_c   11.89450000
_cell_angle_alpha   87.01930000
_cell_angle_beta   86.29670000
_cell_angle_gamma   80.04160000
_symmetry_Int_Tables_number   1
_chemical_formula_structural   NaH8(CO)5
_chemical_formula_sum   'Na2 H16 C10 O10'
_cell_volume   334.44620081
_cell_formula_units_Z   2
loop_
 _symmetry_equiv_pos_site_id
 _symmetry_equiv_pos_as_xyz
  1  'x, y, z'
loop_
 _atom_site_type_symbol
 _atom_site_label
 _atom_site_symmetry_multiplicity
 _atom_site_fract_x
 _atom_site_fract_y
 _atom_site_fract_z
 _atom_site_occupancy
  Na  Na0  1  0.46632000  0.61448000  0.35489000  1.0
  Na  Na1  1  0.53369000  0.38552000  0.64512000  1.0
  H  H2  1  0.93050000  0.91290000  0.33589000  1.0
  H  H3  1  0.06951000  0.08710000  0.66411000  1.0
  H  H4  1  0.90432000  0.78431000  0.45093000  1.0
  H  H5  1  0.09568000  0.21568000  0.54907000  1.0
  H  H6  1  0.26570000  0.84623000  0.55531000  1.0
  H  H7  1  0.73431000  0.15376000  0.44470000  1.0
  H  H8  1  0.05922000  0.67949000  0.59466000  1.0
  H  H9  1  0.94078000  0.32051000  0.40535000  1.0
  H  H10  1  0.65566000  0.02871000  0.15444000  1.0
  H  H11  1  0.34433000  0.97132000  0.84556000  1.0
  H  H12  1  0.38689000  0.21294000  0.08251000  1.0
  H  H13  1  0.61309000  0.78707000  0.91749000  1.0
  H  H14  1  0.74750000  0.17646000  0.96815000  1.0
  H  H15  1  0.25250000  0.82352000  0.03185000  1.0
  H  H16  1  0.93545000  0.70308000  0.17985000  1.0
  H  H17  1  0.06455000  0.29691000  0.82014000  1.0
  C  C18  1  0.29000000  0.16019000  0.25686000  1.0
  C  C19  1  0.71000000  0.83982000  0.74314000  1.0
  C  C20  1  0.50105000  0.18911000  0.16031000  1.0
  C  C21  1  0.49894000  0.81090000  0.83969000  1.0
  C  C22  1  0.81308000  0.43537000  0.08540000  1.0
  C  C23  1  0.18691000  0.56462000  0.91459000  1.0
  C  C24  1  0.85655000  0.31754000  0.98427000  1.0
  C  C25  1  0.14347000  0.68246000  0.01572000  1.0
  C  C26  1  0.95865000  0.61662000  0.10013000  1.0
  C  C27  1  0.04135000  0.38339000  0.89988000  1.0
  O  O28  1  0.21268000  0.32564000  0.32287000  1.0
  O  O29  1  0.78732000  0.67437000  0.67713000  1.0
  O  O30  1  0.20275000  0.96632000  0.25935000  1.0
  O  O31  1  0.79726000  0.03369000  0.74065000  1.0
  O  O32  1  0.63365000  0.38517000  0.17366000  1.0
  O  O33  1  0.36632000  0.61484000  0.82633000  1.0
  O  O34  1  0.78571000  0.86209000  0.39137000  1.0
  O  O35  1  0.21430000  0.13789000  0.60863000  1.0
  O  O36  1  0.22145000  0.69129000  0.53887000  1.0
  O  O37  1  0.77855000  0.30870000  0.46113000  1.0
