# generated using pymatgen
data_CaH12C8(NO4)2
_symmetry_space_group_name_H-M   'P 1'
_cell_length_a   5.22725000
_cell_length_b   5.87517000
_cell_length_c   19.34280000
_cell_angle_alpha   89.99930000
_cell_angle_beta   89.99960000
_cell_angle_gamma   81.87430000
_symmetry_Int_Tables_number   1
_chemical_formula_structural   CaH12C8(NO4)2
_chemical_formula_sum   'Ca2 H24 C16 N4 O16'
_cell_volume   588.07247665
_cell_formula_units_Z   2
loop_
 _symmetry_equiv_pos_site_id
 _symmetry_equiv_pos_as_xyz
  1  'x, y, z'
loop_
 _atom_site_type_symbol
 _atom_site_label
 _atom_site_symmetry_multiplicity
 _atom_site_fract_x
 _atom_site_fract_y
 _atom_site_fract_z
 _atom_site_occupancy
  Ca  Ca0  1  0.00001000  0.00000000  0.00000000  1.0
  Ca  Ca1  1  0.50000000  0.50000000  0.50000000  1.0
  H  H2  1  0.10613000  0.56309000  0.10627000  1.0
  H  H3  1  0.60611000  0.06309000  0.39373000  1.0
  H  H4  1  0.89389000  0.43692000  0.89373000  1.0
  H  H5  1  0.39388000  0.93690000  0.60627000  1.0
  H  H6  1  0.20505000  0.73187000  0.16822000  1.0
  H  H7  1  0.70506000  0.23187000  0.33178000  1.0
  H  H8  1  0.79495000  0.26813000  0.83178000  1.0
  H  H9  1  0.29494000  0.76813000  0.66822000  1.0
  H  H10  1  0.63529000  0.52767000  0.16648000  1.0
  H  H11  1  0.13529000  0.02764000  0.33353000  1.0
  H  H12  1  0.36471000  0.47233000  0.83353000  1.0
  H  H13  1  0.86471000  0.97235000  0.66647000  1.0
  H  H14  1  0.54616000  0.34265000  0.10010000  1.0
  H  H15  1  0.04614000  0.84263000  0.39990000  1.0
  H  H16  1  0.45385000  0.65735000  0.89990000  1.0
  H  H17  1  0.95385000  0.15736000  0.60010000  1.0
  H  H18  1  0.01027000  0.45928000  0.22879000  1.0
  H  H19  1  0.51026000  0.95928000  0.27121000  1.0
  H  H20  1  0.98972000  0.54073000  0.77121000  1.0
  H  H21  1  0.48974000  0.04071000  0.72879000  1.0
  H  H22  1  0.34807000  0.36906000  0.23644000  1.0
  H  H23  1  0.84806000  0.86908000  0.26356000  1.0
  H  H24  1  0.65192000  0.63093000  0.76356000  1.0
  H  H25  1  0.15193000  0.13092000  0.73644000  1.0
  C  C26  1  0.50988000  0.51730000  0.12158000  1.0
  C  C27  1  0.00988000  0.01729000  0.37843000  1.0
  C  C28  1  0.49013000  0.48269000  0.87843000  1.0
  C  C29  1  0.99012000  0.98270000  0.62157000  1.0
  C  C30  1  0.56590000  0.68372000  0.06477000  1.0
  C  C31  1  0.06591000  0.18371000  0.43523000  1.0
  C  C32  1  0.43410000  0.31628000  0.93523000  1.0
  C  C33  1  0.93409000  0.81628000  0.56477000  1.0
  C  C34  1  0.18646000  0.39186000  0.19983000  1.0
  C  C35  1  0.68645000  0.89186000  0.30017000  1.0
  C  C36  1  0.81354000  0.60814000  0.80017000  1.0
  C  C37  1  0.31355000  0.10814000  0.69983000  1.0
  C  C38  1  0.14211000  0.16451000  0.16688000  1.0
  C  C39  1  0.64212000  0.66451000  0.33312000  1.0
  C  C40  1  0.85788000  0.83550000  0.83312000  1.0
  C  C41  1  0.35788000  0.33548000  0.66687000  1.0
  N  N42  1  0.23850000  0.56263000  0.14679000  1.0
  N  N43  1  0.73849000  0.06262000  0.35321000  1.0
  N  N44  1  0.76151000  0.43737000  0.85321000  1.0
  N  N45  1  0.26150000  0.93737000  0.64679000  1.0
  O  O46  1  0.38029000  0.76701000  0.02661000  1.0
  O  O47  1  0.88028000  0.26701000  0.47339000  1.0
  O  O48  1  0.61974000  0.23300000  0.97340000  1.0
  O  O49  1  0.11971000  0.73300000  0.52661000  1.0
  O  O50  1  0.79893000  0.71980000  0.05983000  1.0
  O  O51  1  0.29891000  0.21978000  0.44017000  1.0
  O  O52  1  0.20111000  0.28020000  0.94018000  1.0
  O  O53  1  0.70109000  0.78022000  0.55982000  1.0
  O  O54  1  0.18305000  0.98735000  0.20541000  1.0
  O  O55  1  0.68308000  0.48733000  0.29458000  1.0
  O  O56  1  0.81694000  0.01266000  0.79458000  1.0
  O  O57  1  0.31693000  0.51266000  0.70542000  1.0
  O  O58  1  0.06090000  0.17281000  0.10544000  1.0
  O  O59  1  0.56090000  0.67279000  0.39455000  1.0
  O  O60  1  0.93909000  0.82721000  0.89455000  1.0
  O  O61  1  0.43910000  0.32721000  0.60544000  1.0
