# generated using pymatgen
data_Ni2H13C19N7O
_symmetry_space_group_name_H-M   'P 1'
_cell_length_a   9.42131000
_cell_length_b   9.42131000
_cell_length_c   11.31670000
_cell_angle_alpha   83.55580000
_cell_angle_beta   83.55610000
_cell_angle_gamma   73.12690000
_symmetry_Int_Tables_number   1
_chemical_formula_structural   Ni2H13C19N7O
_chemical_formula_sum   'Ni4 H26 C38 N14 O2'
_cell_volume   951.80906452
_cell_formula_units_Z   2
loop_
 _symmetry_equiv_pos_site_id
 _symmetry_equiv_pos_as_xyz
  1  'x, y, z'
loop_
 _atom_site_type_symbol
 _atom_site_label
 _atom_site_symmetry_multiplicity
 _atom_site_fract_x
 _atom_site_fract_y
 _atom_site_fract_z
 _atom_site_occupancy
  Ni  Ni0  1  0.50000000  0.00000000  0.00000000  1.0
  Ni  Ni1  1  0.00000000  0.49999000  0.50000000  1.0
  Ni  Ni2  1  0.75351000  0.24649000  0.25000000  1.0
  Ni  Ni3  1  0.24649000  0.75351000  0.75000000  1.0
  H  H4  1  0.03700000  0.06948000  0.22352000  1.0
  H  H5  1  0.06948000  0.03700000  0.72352000  1.0
  H  H6  1  0.96300000  0.93052000  0.77648000  1.0
  H  H7  1  0.93053000  0.96300000  0.27648000  1.0
  H  H8  1  0.98949000  0.20357000  0.02419000  1.0
  H  H9  1  0.20357000  0.98948000  0.52420000  1.0
  H  H10  1  0.01052000  0.79643000  0.97581000  1.0
  H  H11  1  0.79643000  0.01051000  0.47580000  1.0
  H  H12  1  0.03243000  0.36508000  0.83949000  1.0
  H  H13  1  0.36508000  0.03243000  0.33950000  1.0
  H  H14  1  0.96757000  0.63492000  0.16051000  1.0
  H  H15  1  0.63492000  0.96758000  0.66051000  1.0
  H  H16  1  0.85264000  0.61939000  0.80653000  1.0
  H  H17  1  0.61939000  0.85264000  0.30653000  1.0
  H  H18  1  0.14736000  0.38061000  0.19347000  1.0
  H  H19  1  0.38061000  0.14736000  0.69347000  1.0
  H  H20  1  0.63160000  0.69564000  0.95238000  1.0
  H  H21  1  0.69564000  0.63160000  0.45239000  1.0
  H  H22  1  0.36840000  0.30436000  0.04761000  1.0
  H  H23  1  0.30436000  0.36840000  0.54761000  1.0
  H  H24  1  0.43662000  0.73689000  0.08204000  1.0
  H  H25  1  0.73689000  0.43662000  0.58205000  1.0
  H  H26  1  0.56338000  0.26311000  0.91796000  1.0
  H  H27  1  0.26311000  0.56339000  0.41795000  1.0
  H  H28  1  0.23870000  0.76130000  0.25000000  1.0
  H  H29  1  0.76130000  0.23870000  0.75000000  1.0
  C  C30  1  0.32354000  0.04140000  0.09558000  1.0
  C  C31  1  0.04139000  0.32354000  0.59558000  1.0
  C  C32  1  0.67645000  0.95861000  0.90442000  1.0
  C  C33  1  0.95861000  0.67645000  0.40442000  1.0
  C  C34  1  0.58892000  0.07333000  0.10680000  1.0
  C  C35  1  0.07334000  0.58892000  0.60680000  1.0
  C  C36  1  0.41108000  0.92666000  0.89321000  1.0
  C  C37  1  0.92667000  0.41107000  0.39321000  1.0
  C  C38  1  0.91268000  0.31316000  0.00458000  1.0
  C  C39  1  0.31316000  0.91267000  0.50458000  1.0
  C  C40  1  0.08732000  0.68684000  0.99542000  1.0
  C  C41  1  0.68684000  0.08732000  0.49542000  1.0
  C  C42  1  0.93653000  0.40418000  0.90260000  1.0
  C  C43  1  0.40417000  0.93653000  0.40260000  1.0
  C  C44  1  0.06347000  0.59582000  0.09740000  1.0
  C  C45  1  0.59582000  0.06347000  0.59740000  1.0
  C  C46  1  0.83559000  0.54410000  0.88365000  1.0
  C  C47  1  0.54410000  0.83559000  0.38366000  1.0
  C  C48  1  0.16441000  0.45590000  0.11635000  1.0
  C  C49  1  0.45590000  0.16441000  0.61635000  1.0
  C  C50  1  0.71265000  0.58742000  0.96575000  1.0
  C  C51  1  0.58742000  0.71265000  0.46575000  1.0
  C  C52  1  0.28735000  0.41258000  0.03425000  1.0
  C  C53  1  0.41258000  0.28735000  0.53425000  1.0
  C  C54  1  0.69547000  0.49093000  0.06575000  1.0
  C  C55  1  0.49092000  0.69547000  0.56575000  1.0
  C  C56  1  0.30453000  0.50907000  0.93425000  1.0
  C  C57  1  0.50907000  0.30453000  0.43425000  1.0
  C  C58  1  0.56984000  0.52505000  0.15810000  1.0
  C  C59  1  0.52504000  0.56984000  0.65810000  1.0
  C  C60  1  0.43016000  0.47496000  0.84190000  1.0
  C  C61  1  0.47496000  0.43016000  0.34190000  1.0
  C  C62  1  0.44662000  0.65097000  0.15596000  1.0
  C  C63  1  0.65097000  0.44662000  0.65596000  1.0
  C  C64  1  0.55338000  0.34903000  0.84404000  1.0
  C  C65  1  0.34903000  0.55338000  0.34404000  1.0
  C  C66  1  0.33574000  0.66426000  0.25000000  1.0
  C  C67  1  0.66426000  0.33574000  0.75000000  1.0
  N  N68  1  0.21207000  0.06755000  0.15744000  1.0
  N  N69  1  0.06755000  0.21206000  0.65744000  1.0
  N  N70  1  0.78793000  0.93246000  0.84257000  1.0
  N  N71  1  0.93246000  0.78793000  0.34256000  1.0
  N  N72  1  0.64569000  0.12369000  0.17230000  1.0
  N  N73  1  0.12368000  0.64568000  0.67230000  1.0
  N  N74  1  0.35432000  0.87632000  0.82770000  1.0
  N  N75  1  0.87631000  0.35432000  0.32770000  1.0
  N  N76  1  0.58025000  0.41975000  0.25000000  1.0
  N  N77  1  0.41975000  0.58025000  0.75000000  1.0
  N  N78  1  0.79621000  0.35595000  0.08479000  1.0
  N  N79  1  0.35594000  0.79621000  0.58479000  1.0
  N  N80  1  0.20379000  0.64405000  0.91521000  1.0
  N  N81  1  0.64406000  0.20379000  0.41520000  1.0
  O  O82  1  0.93336000  0.06665000  0.25000000  1.0
  O  O83  1  0.06665000  0.93335000  0.75000000  1.0
