# generated using pymatgen
data_CoH8(C5N4)2
_symmetry_space_group_name_H-M   'P 1'
_cell_length_a   7.13287000
_cell_length_b   8.81236000
_cell_length_c   9.92999000
_cell_angle_alpha   111.02900000
_cell_angle_beta   101.97300000
_cell_angle_gamma   101.46700000
_symmetry_Int_Tables_number   1
_chemical_formula_structural   CoH8(C5N4)2
_chemical_formula_sum   'Co2 H16 C20 N16'
_cell_volume   543.81112055
_cell_formula_units_Z   2
loop_
 _symmetry_equiv_pos_site_id
 _symmetry_equiv_pos_as_xyz
  1  'x, y, z'
loop_
 _atom_site_type_symbol
 _atom_site_label
 _atom_site_symmetry_multiplicity
 _atom_site_fract_x
 _atom_site_fract_y
 _atom_site_fract_z
 _atom_site_occupancy
  Co  Co0  1  0.12077000  0.38951000  0.39167000  1.0
  Co  Co1  1  0.87923000  0.61050000  0.60833000  1.0
  H  H2  1  0.94757000  0.20476000  0.55703000  1.0
  H  H3  1  0.05242000  0.79524000  0.44297000  1.0
  H  H4  1  0.68802000  0.92440000  0.47626000  1.0
  H  H5  1  0.31197000  0.07561000  0.52374000  1.0
  H  H6  1  0.50539000  0.75143000  0.19661000  1.0
  H  H7  1  0.49462000  0.24857000  0.80340000  1.0
  H  H8  1  0.59360000  0.86204000  0.01411000  1.0
  H  H9  1  0.40640000  0.13795000  0.98589000  1.0
  H  H10  1  0.70088000  0.97920000  0.87319000  1.0
  H  H11  1  0.29913000  0.02080000  0.12681000  1.0
  H  H12  1  0.85878000  0.12850000  0.73751000  1.0
  H  H13  1  0.14123000  0.87149000  0.26248000  1.0
  H  H14  1  0.15453000  0.39707000  0.89100000  1.0
  H  H15  1  0.84547000  0.60293000  0.10899000  1.0
  H  H16  1  0.26584000  0.50336000  0.17191000  1.0
  H  H17  1  0.73416000  0.49664000  0.82808000  1.0
  C  C18  1  0.86469000  0.12400000  0.43865000  1.0
  C  C19  1  0.13531000  0.87600000  0.56135000  1.0
  C  C20  1  0.71859000  0.96972000  0.39201000  1.0
  C  C21  1  0.28140000  0.03028000  0.60799000  1.0
  C  C22  1  0.61798000  0.87438000  0.23768000  1.0
  C  C23  1  0.38202000  0.12562000  0.76233000  1.0
  C  C24  1  0.66709000  0.93694000  0.13513000  1.0
  C  C25  1  0.33291000  0.06306000  0.86487000  1.0
  C  C26  1  0.81715000  0.09125000  0.18873000  1.0
  C  C27  1  0.18286000  0.90874000  0.81127000  1.0
  C  C28  1  0.89410000  0.16572000  0.09452000  1.0
  C  C29  1  0.10590000  0.83427000  0.90547000  1.0
  C  C30  1  0.82330000  0.09745000  0.93669000  1.0
  C  C31  1  0.17671000  0.90255000  0.06330000  1.0
  C  C32  1  0.91333000  0.18079000  0.86063000  1.0
  C  C33  1  0.08668000  0.81921000  0.13937000  1.0
  C  C34  1  0.07485000  0.32868000  0.94433000  1.0
  C  C35  1  0.92515000  0.67132000  0.05567000  1.0
  C  C36  1  0.13985000  0.38960000  0.10117000  1.0
  C  C37  1  0.86015000  0.61040000  0.89883000  1.0
  N  N38  1  0.91450000  0.18445000  0.34003000  1.0
  N  N39  1  0.08550000  0.81555000  0.65997000  1.0
  N  N40  1  0.05155000  0.31165000  0.17608000  1.0
  N  N41  1  0.94845000  0.68835000  0.82391000  1.0
  N  N42  1  0.13699000  0.46634000  0.60334000  1.0
  N  N43  1  0.86301000  0.53367000  0.39666000  1.0
  N  N44  1  0.27913000  0.52948000  0.71655000  1.0
  N  N45  1  0.72087000  0.47052000  0.28345000  1.0
  N  N46  1  0.40411000  0.59024000  0.83388000  1.0
  N  N47  1  0.59588000  0.40975000  0.16612000  1.0
  N  N48  1  0.31888000  0.59450000  0.42530000  1.0
  N  N49  1  0.68111000  0.40552000  0.57472000  1.0
  N  N50  1  0.48203000  0.66392000  0.51608000  1.0
  N  N51  1  0.51797000  0.33608000  0.48392000  1.0
  N  N52  1  0.35391000  0.26025000  0.39883000  1.0
  N  N53  1  0.64609000  0.73974000  0.60116000  1.0
