# generated using pymatgen
data_CoH25C33N5O4
_symmetry_space_group_name_H-M   'P 1'
_cell_length_a   13.31050000
_cell_length_b   13.69910000
_cell_length_c   16.28560000
_cell_angle_alpha   90.00030000
_cell_angle_beta   90.00010000
_cell_angle_gamma   84.33940000
_symmetry_Int_Tables_number   1
_chemical_formula_structural   CoH25C33N5O4
_chemical_formula_sum   'Co4 H100 C132 N20 O16'
_cell_volume   2955.06616677
_cell_formula_units_Z   4
loop_
 _symmetry_equiv_pos_site_id
 _symmetry_equiv_pos_as_xyz
  1  'x, y, z'
loop_
 _atom_site_type_symbol
 _atom_site_label
 _atom_site_symmetry_multiplicity
 _atom_site_fract_x
 _atom_site_fract_y
 _atom_site_fract_z
 _atom_site_occupancy
  Co  Co0  1  0.87033000  0.21616000  0.76386000  1.0
  Co  Co1  1  0.62966000  0.28384000  0.26386000  1.0
  Co  Co2  1  0.12967000  0.78384000  0.23614000  1.0
  Co  Co3  1  0.37033000  0.71616000  0.73614000  1.0
  H  H4  1  0.77134000  0.06684000  0.86546000  1.0
  H  H5  1  0.68962000  0.21918000  0.65383000  1.0
  H  H6  1  0.54514000  0.95813000  0.70940000  1.0
  H  H7  1  0.80367000  0.91870000  0.89574000  1.0
  H  H8  1  0.49961000  0.88348000  0.81549000  1.0
  H  H9  1  0.64482000  0.68430000  0.99108000  1.0
  H  H10  1  0.79904000  0.77523000  0.98600000  1.0
  H  H11  1  0.64045000  0.19311000  0.53203000  1.0
  H  H12  1  0.36752000  0.14367000  0.40652000  1.0
  H  H13  1  0.30913000  0.05493000  0.52910000  1.0
  H  H14  1  0.41561000  0.03611000  0.65287000  1.0
  H  H15  1  0.79229000  0.38488000  0.63283000  1.0
  H  H16  1  0.68854000  0.57608000  0.82591000  1.0
  H  H17  1  0.76155000  0.39310000  0.88994000  1.0
  H  H18  1  0.63656000  0.62197000  0.66736000  1.0
  H  H19  1  0.70619000  0.54902000  0.59233000  1.0
  H  H20  1  0.90759000  0.54709000  0.60444000  1.0
  H  H21  1  0.04144000  0.65984000  0.61394000  1.0
  H  H22  1  0.82851000  0.88145000  0.72038000  1.0
  H  H23  1  0.69422000  0.76843000  0.71096000  1.0
  H  H24  1  0.09881000  0.80486000  0.68842000  1.0
  H  H25  1  0.03841000  0.87421000  0.60762000  1.0
  H  H26  1  0.95922000  0.04285000  0.63785000  1.0
  H  H27  1  0.96428000  0.04809000  0.89693000  1.0
  H  H28  1  0.03140000  0.85865000  0.84310000  1.0
  H  H29  1  0.72866000  0.43316000  0.36547000  1.0
  H  H30  1  0.81038000  0.28082000  0.15384000  1.0
  H  H31  1  0.95485000  0.54186000  0.20940000  1.0
  H  H32  1  0.69633000  0.58130000  0.39574000  1.0
  H  H33  1  0.00040000  0.61652000  0.31550000  1.0
  H  H34  1  0.85519000  0.81570000  0.49109000  1.0
  H  H35  1  0.70096000  0.72477000  0.48600000  1.0
  H  H36  1  0.85954000  0.30689000  0.03204000  1.0
  H  H37  1  0.13247000  0.35632000  0.90652000  1.0
  H  H38  1  0.19087000  0.44506000  0.02910000  1.0
  H  H39  1  0.08439000  0.46389000  0.15287000  1.0
  H  H40  1  0.70771000  0.11512000  0.13283000  1.0
  H  H41  1  0.81146000  0.92393000  0.32590000  1.0
  H  H42  1  0.73845000  0.10691000  0.38994000  1.0
  H  H43  1  0.86344000  0.87803000  0.16736000  1.0
  H  H44  1  0.79382000  0.95098000  0.09233000  1.0
  H  H45  1  0.59241000  0.95291000  0.10444000  1.0
  H  H46  1  0.45856000  0.84016000  0.11393000  1.0
  H  H47  1  0.67149000  0.61856000  0.22038000  1.0
  H  H48  1  0.80578000  0.73158000  0.21096000  1.0
  H  H49  1  0.40119000  0.69515000  0.18842000  1.0
  H  H50  1  0.46159000  0.62580000  0.10762000  1.0
  H  H51  1  0.54078000  0.45716000  0.13785000  1.0
  H  H52  1  0.53572000  0.45192000  0.39693000  1.0
  H  H53  1  0.46860000  0.64135000  0.34309000  1.0
  H  H54  1  0.22866000  0.93316000  0.13453000  1.0
  H  H55  1  0.31039000  0.78081000  0.34616000  1.0
  H  H56  1  0.45486000  0.04186000  0.29059000  1.0
  H  H57  1  0.19633000  0.08130000  0.10426000  1.0
  H  H58  1  0.50039000  0.11652000  0.18450000  1.0
  H  H59  1  0.35518000  0.31570000  0.00892000  1.0
  H  H60  1  0.20096000  0.22477000  0.01400000  1.0
  H  H61  1  0.35954000  0.80689000  0.46796000  1.0
  H  H62  1  0.63247000  0.85632000  0.59348000  1.0
  H  H63  1  0.69087000  0.94506000  0.47091000  1.0
  H  H64  1  0.58440000  0.96389000  0.34712000  1.0
  H  H65  1  0.20771000  0.61512000  0.36717000  1.0
  H  H66  1  0.31146000  0.42392000  0.17410000  1.0
  H  H67  1  0.23845000  0.60691000  0.11007000  1.0
  H  H68  1  0.36344000  0.37803000  0.33264000  1.0
  H  H69  1  0.29381000  0.45098000  0.40767000  1.0
  H  H70  1  0.09241000  0.45291000  0.39556000  1.0
  H  H71  1  0.95856000  0.34016000  0.38606000  1.0
  H  H72  1  0.17149000  0.11856000  0.27962000  1.0
  H  H73  1  0.30578000  0.23157000  0.28904000  1.0
  H  H74  1  0.90118000  0.19514000  0.31157000  1.0
  H  H75  1  0.96159000  0.12579000  0.39238000  1.0
  H  H76  1  0.04077000  0.95715000  0.36215000  1.0
  H  H77  1  0.03572000  0.95191000  0.10307000  1.0
  H  H78  1  0.96860000  0.14135000  0.15690000  1.0
  H  H79  1  0.27134000  0.56683000  0.63453000  1.0
  H  H80  1  0.18962000  0.71918000  0.84617000  1.0
  H  H81  1  0.04515000  0.45813000  0.79060000  1.0
  H  H82  1  0.30367000  0.41869000  0.60426000  1.0
  H  H83  1  0.99960000  0.38348000  0.68450000  1.0
  H  H84  1  0.14481000  0.18429000  0.50892000  1.0
  H  H85  1  0.29904000  0.27522000  0.51400000  1.0
  H  H86  1  0.14046000  0.69311000  0.96797000  1.0
  H  H87  1  0.86753000  0.64368000  0.09348000  1.0
  H  H88  1  0.80913000  0.55494000  0.97090000  1.0
  H  H89  1  0.91561000  0.53611000  0.84712000  1.0
  H  H90  1  0.29228000  0.88488000  0.86717000  1.0
  H  H91  1  0.18855000  0.07608000  0.67409000  1.0
  H  H92  1  0.26155000  0.89309000  0.61006000  1.0
  H  H93  1  0.13656000  0.12197000  0.83264000  1.0
  H  H94  1  0.20619000  0.04902000  0.90767000  1.0
  H  H95  1  0.40759000  0.04710000  0.89557000  1.0
  H  H96  1  0.54144000  0.15984000  0.88608000  1.0
  H  H97  1  0.32851000  0.38145000  0.77963000  1.0
  H  H98  1  0.19422000  0.26843000  0.78905000  1.0
  H  H99  1  0.59882000  0.30485000  0.81157000  1.0
  H  H100  1  0.53841000  0.37421000  0.89238000  1.0
  H  H101  1  0.45923000  0.54284000  0.86215000  1.0
  H  H102  1  0.46428000  0.54809000  0.60307000  1.0
  H  H103  1  0.53140000  0.35865000  0.65690000  1.0
  C  C104  1  0.72392000  0.07021000  0.81086000  1.0
  C  C105  1  0.67670000  0.15711000  0.69299000  1.0
  C  C106  1  0.60272000  0.09450000  0.67427000  1.0
  C  C107  1  0.59561000  0.01325000  0.72548000  1.0
  C  C108  1  0.65580000  0.00018000  0.79595000  1.0
  C  C109  1  0.65086000  0.91462000  0.85071000  1.0
  C  C110  1  0.73486000  0.88185000  0.89933000  1.0
  C  C111  1  0.56556000  0.86160000  0.85324000  1.0
  C  C112  1  0.56361000  0.77845000  0.90315000  1.0
  C  C113  1  0.64795000  0.74823000  0.95169000  1.0
  C  C114  1  0.73299000  0.79987000  0.94942000  1.0
  C  C115  1  0.47341000  0.71910000  0.90613000  1.0
  C  C116  1  0.53660000  0.11222000  0.60216000  1.0
  C  C117  1  0.56699000  0.16432000  0.53398000  1.0
  C  C118  1  0.50600000  0.17605000  0.46407000  1.0
  C  C119  1  0.41362000  0.13525000  0.46177000  1.0
  C  C120  1  0.38177000  0.08530000  0.53004000  1.0
  C  C121  1  0.44222000  0.07436000  0.59975000  1.0
  C  C122  1  0.54354000  0.22561000  0.39037000  1.0
  C  C123  1  0.77304000  0.41057000  0.69436000  1.0
  C  C124  1  0.72035000  0.50906000  0.79645000  1.0
  C  C125  1  0.75729000  0.41886000  0.82698000  1.0
  C  C126  1  0.71032000  0.58253000  0.65344000  1.0
  C  C127  1  0.79192000  0.65100000  0.65695000  1.0
  C  C128  1  0.88999000  0.62043000  0.63010000  1.0
  C  C129  1  0.96531000  0.68346000  0.63550000  1.0
  C  C130  1  0.94399000  0.77799000  0.66774000  1.0
  C  C131  1  0.84627000  0.80831000  0.69472000  1.0
  C  C132  1  0.77061000  0.74499000  0.68959000  1.0
  C  C133  1  0.02713000  0.84519000  0.66965000  1.0
  C  C134  1  0.96923000  0.01998000  0.70164000  1.0
  C  C135  1  0.97323000  0.01855000  0.83525000  1.0
  C  C136  1  0.00700000  0.92527000  0.80971000  1.0
  C  C137  1  0.77608000  0.42979000  0.31086000  1.0
  C  C138  1  0.82330000  0.34289000  0.19299000  1.0
  C  C139  1  0.89727000  0.40550000  0.17427000  1.0
  C  C140  1  0.90439000  0.48675000  0.22548000  1.0
  C  C141  1  0.84420000  0.49982000  0.29595000  1.0
  C  C142  1  0.84914000  0.58538000  0.35072000  1.0
  C  C143  1  0.76514000  0.61815000  0.39933000  1.0
  C  C144  1  0.93445000  0.63840000  0.35324000  1.0
  C  C145  1  0.93640000  0.72155000  0.40315000  1.0
  C  C146  1  0.85205000  0.75177000  0.45169000  1.0
  C  C147  1  0.76701000  0.70013000  0.44942000  1.0
  C  C148  1  0.02659000  0.78090000  0.40613000  1.0
  C  C149  1  0.96340000  0.38777000  0.10216000  1.0
  C  C150  1  0.93301000  0.33568000  0.03398000  1.0
  C  C151  1  0.99400000  0.32395000  0.96407000  1.0
  C  C152  1  0.08637000  0.36474000  0.96178000  1.0
  C  C153  1  0.11823000  0.41470000  0.03004000  1.0
  C  C154  1  0.05778000  0.42563000  0.09975000  1.0
  C  C155  1  0.95646000  0.27438000  0.89038000  1.0
  C  C156  1  0.72696000  0.08943000  0.19436000  1.0
  C  C157  1  0.77965000  0.99095000  0.29645000  1.0
  C  C158  1  0.74272000  0.08115000  0.32698000  1.0
  C  C159  1  0.78968000  0.91748000  0.15344000  1.0
  C  C160  1  0.70808000  0.84901000  0.15695000  1.0
  C  C161  1  0.61002000  0.87958000  0.13009000  1.0
  C  C162  1  0.53470000  0.81655000  0.13549000  1.0
  C  C163  1  0.55601000  0.72201000  0.16774000  1.0
  C  C164  1  0.65373000  0.69170000  0.19472000  1.0
  C  C165  1  0.72939000  0.75502000  0.18959000  1.0
  C  C166  1  0.47288000  0.65482000  0.16965000  1.0
  C  C167  1  0.53077000  0.48002000  0.20164000  1.0
  C  C168  1  0.52677000  0.48145000  0.33525000  1.0
  C  C169  1  0.49300000  0.57474000  0.30971000  1.0
  C  C170  1  0.27608000  0.92979000  0.18913000  1.0
  C  C171  1  0.32330000  0.84289000  0.30700000  1.0
  C  C172  1  0.39728000  0.90549000  0.32572000  1.0
  C  C173  1  0.40440000  0.98675000  0.27452000  1.0
  C  C174  1  0.34420000  0.99982000  0.20404000  1.0
  C  C175  1  0.34915000  0.08538000  0.14928000  1.0
  C  C176  1  0.26514000  0.11815000  0.10067000  1.0
  C  C177  1  0.43445000  0.13840000  0.14676000  1.0
  C  C178  1  0.43639000  0.22155000  0.09685000  1.0
  C  C179  1  0.35205000  0.25177000  0.04832000  1.0
  C  C180  1  0.26701000  0.20014000  0.05059000  1.0
  C  C181  1  0.52659000  0.28090000  0.09387000  1.0
  C  C182  1  0.46340000  0.88777000  0.39783000  1.0
  C  C183  1  0.43301000  0.83568000  0.46602000  1.0
  C  C184  1  0.49399000  0.82394000  0.53593000  1.0
  C  C185  1  0.58637000  0.86475000  0.53822000  1.0
  C  C186  1  0.61823000  0.91470000  0.46996000  1.0
  C  C187  1  0.55778000  0.92563000  0.40025000  1.0
  C  C188  1  0.45645000  0.77438000  0.60962000  1.0
  C  C189  1  0.22695000  0.58943000  0.30565000  1.0
  C  C190  1  0.27965000  0.49095000  0.20355000  1.0
  C  C191  1  0.24271000  0.58115000  0.17302000  1.0
  C  C192  1  0.28967000  0.41748000  0.34656000  1.0
  C  C193  1  0.20808000  0.34900000  0.34305000  1.0
  C  C194  1  0.11001000  0.37958000  0.36990000  1.0
  C  C195  1  0.03469000  0.31654000  0.36450000  1.0
  C  C196  1  0.05601000  0.22201000  0.33226000  1.0
  C  C197  1  0.15373000  0.19170000  0.30528000  1.0
  C  C198  1  0.22939000  0.25502000  0.31041000  1.0
  C  C199  1  0.97287000  0.15481000  0.33034000  1.0
  C  C200  1  0.03077000  0.98002000  0.29836000  1.0
  C  C201  1  0.02677000  0.98145000  0.16474000  1.0
  C  C202  1  0.99300000  0.07473000  0.19028000  1.0
  C  C203  1  0.22392000  0.57021000  0.68914000  1.0
  C  C204  1  0.17670000  0.65710000  0.80701000  1.0
  C  C205  1  0.10273000  0.59450000  0.82573000  1.0
  C  C206  1  0.09561000  0.51324000  0.77452000  1.0
  C  C207  1  0.15580000  0.50017000  0.70405000  1.0
  C  C208  1  0.15086000  0.41461000  0.64928000  1.0
  C  C209  1  0.23486000  0.38185000  0.60067000  1.0
  C  C210  1  0.06555000  0.36160000  0.64676000  1.0
  C  C211  1  0.06360000  0.27845000  0.59685000  1.0
  C  C212  1  0.14795000  0.24823000  0.54831000  1.0
  C  C213  1  0.23299000  0.29986000  0.55058000  1.0
  C  C214  1  0.97341000  0.21910000  0.59387000  1.0
  C  C215  1  0.03660000  0.61222000  0.89784000  1.0
  C  C216  1  0.06699000  0.66432000  0.96602000  1.0
  C  C217  1  0.00600000  0.67605000  0.03593000  1.0
  C  C218  1  0.91363000  0.63526000  0.03822000  1.0
  C  C219  1  0.88177000  0.58530000  0.96996000  1.0
  C  C220  1  0.94222000  0.57437000  0.90025000  1.0
  C  C221  1  0.04354000  0.72561000  0.10963000  1.0
  C  C222  1  0.27304000  0.91057000  0.80564000  1.0
  C  C223  1  0.22035000  0.00905000  0.70355000  1.0
  C  C224  1  0.25728000  0.91885000  0.67302000  1.0
  C  C225  1  0.21032000  0.08253000  0.84656000  1.0
  C  C226  1  0.29192000  0.15100000  0.84305000  1.0
  C  C227  1  0.38999000  0.12043000  0.86991000  1.0
  C  C228  1  0.46531000  0.18346000  0.86451000  1.0
  C  C229  1  0.44399000  0.27799000  0.83227000  1.0
  C  C230  1  0.34627000  0.30830000  0.80529000  1.0
  C  C231  1  0.27061000  0.24499000  0.81042000  1.0
  C  C232  1  0.52713000  0.34519000  0.83034000  1.0
  C  C233  1  0.46923000  0.51998000  0.79836000  1.0
  C  C234  1  0.47323000  0.51855000  0.66475000  1.0
  C  C235  1  0.50700000  0.42526000  0.69029000  1.0
  N  N236  1  0.73693000  0.14452000  0.75904000  1.0
  N  N237  1  0.79033000  0.35804000  0.76263000  1.0
  N  N238  1  0.73017000  0.50215000  0.71226000  1.0
  N  N239  1  0.00478000  0.92784000  0.72498000  1.0
  N  N240  1  0.95001000  0.07702000  0.76724000  1.0
  N  N241  1  0.76307000  0.35549000  0.25904000  1.0
  N  N242  1  0.70967000  0.14197000  0.26263000  1.0
  N  N243  1  0.76983000  0.99786000  0.21226000  1.0
  N  N244  1  0.49522000  0.57216000  0.22498000  1.0
  N  N245  1  0.54998000  0.42299000  0.26724000  1.0
  N  N246  1  0.26307000  0.85548000  0.24096000  1.0
  N  N247  1  0.20967000  0.64196000  0.23737000  1.0
  N  N248  1  0.26982000  0.49786000  0.28775000  1.0
  N  N249  1  0.99522000  0.07216000  0.27501000  1.0
  N  N250  1  0.04999000  0.92298000  0.23275000  1.0
  N  N251  1  0.23693000  0.64451000  0.74096000  1.0
  N  N252  1  0.29032000  0.85803000  0.73737000  1.0
  N  N253  1  0.23017000  0.00215000  0.78774000  1.0
  N  N254  1  0.50479000  0.42784000  0.77501000  1.0
  N  N255  1  0.45002000  0.57702000  0.73276000  1.0
  O  O256  1  0.62483000  0.26839000  0.39558000  1.0
  O  O257  1  0.49718000  0.22130000  0.32205000  1.0
  O  O258  1  0.47103000  0.65315000  0.95904000  1.0
  O  O259  1  0.40228000  0.74075000  0.85253000  1.0
  O  O260  1  0.87516000  0.23160000  0.89558000  1.0
  O  O261  1  0.00280000  0.27870000  0.82206000  1.0
  O  O262  1  0.02897000  0.84686000  0.45905000  1.0
  O  O263  1  0.09772000  0.75926000  0.35253000  1.0
  O  O264  1  0.37516000  0.73160000  0.60442000  1.0
  O  O265  1  0.50280000  0.77870000  0.67794000  1.0
  O  O266  1  0.52897000  0.34685000  0.04095000  1.0
  O  O267  1  0.59772000  0.25925000  0.14747000  1.0
  O  O268  1  0.12483000  0.76840000  0.10442000  1.0
  O  O269  1  0.99719000  0.72130000  0.17795000  1.0
  O  O270  1  0.97103000  0.15314000  0.54096000  1.0
  O  O271  1  0.90228000  0.24075000  0.64747000  1.0
