# generated using pymatgen
data_ZnH14C22(N3O)4
_symmetry_space_group_name_H-M   'P 1'
_cell_length_a   10.18900000
_cell_length_b   10.93140000
_cell_length_c   12.22300000
_cell_angle_alpha   92.22770000
_cell_angle_beta   98.70890000
_cell_angle_gamma   113.15100000
_symmetry_Int_Tables_number   1
_chemical_formula_structural   ZnH14C22(N3O)4
_chemical_formula_sum   'Zn2 H28 C44 N24 O8'
_cell_volume   1230.06177983
_cell_formula_units_Z   2
loop_
 _symmetry_equiv_pos_site_id
 _symmetry_equiv_pos_as_xyz
  1  'x, y, z'
loop_
 _atom_site_type_symbol
 _atom_site_label
 _atom_site_symmetry_multiplicity
 _atom_site_fract_x
 _atom_site_fract_y
 _atom_site_fract_z
 _atom_site_occupancy
  Zn  Zn0  1  0.79826000  0.23002000  0.92872000  1.0
  Zn  Zn1  1  0.20174000  0.76998000  0.07128000  1.0
  H  H2  1  0.81907000  0.29891000  0.28504000  1.0
  H  H3  1  0.18093000  0.70109000  0.71496000  1.0
  H  H4  1  0.77404000  0.91853000  0.96162000  1.0
  H  H5  1  0.22596000  0.08147000  0.03838000  1.0
  H  H6  1  0.30317000  0.64036000  0.83604000  1.0
  H  H7  1  0.69682000  0.35964000  0.16396000  1.0
  H  H8  1  0.08815000  0.48932000  0.89232000  1.0
  H  H9  1  0.91185000  0.51068000  0.10768000  1.0
  H  H10  1  0.66530000  0.29621000  0.39704000  1.0
  H  H11  1  0.33470000  0.70380000  0.60296000  1.0
  H  H12  1  0.41500000  0.29769000  0.85293000  1.0
  H  H13  1  0.58500000  0.70231000  0.14707000  1.0
  H  H14  1  0.12412000  0.12625000  0.25025000  1.0
  H  H15  1  0.87588000  0.87375000  0.74975000  1.0
  H  H16  1  0.75189000  0.69226000  0.87550000  1.0
  H  H17  1  0.24811000  0.30774000  0.12450000  1.0
  H  H18  1  0.49867000  0.05619000  0.75741000  1.0
  H  H19  1  0.50132000  0.94381000  0.24260000  1.0
  H  H20  1  0.95084000  0.07675000  0.80107000  1.0
  H  H21  1  0.04916000  0.92325000  0.19894000  1.0
  H  H22  1  0.05945000  0.22681000  0.57812000  1.0
  H  H23  1  0.94055000  0.77319000  0.42189000  1.0
  H  H24  1  0.38825000  0.94808000  0.43809000  1.0
  H  H25  1  0.61175000  0.05191000  0.56190000  1.0
  H  H26  1  0.85022000  0.47442000  0.72484000  1.0
  H  H27  1  0.14977000  0.52557000  0.27516000  1.0
  H  H28  1  0.25603000  0.18035000  0.64111000  1.0
  H  H29  1  0.74398000  0.81965000  0.35889000  1.0
  C  C30  1  0.89867000  0.26308000  0.32287000  1.0
  C  C31  1  0.10133000  0.73692000  0.67714000  1.0
  C  C32  1  0.34270000  0.45857000  0.84012000  1.0
  C  C33  1  0.65730000  0.54143000  0.15987000  1.0
  C  C34  1  0.68445000  0.92304000  0.90349000  1.0
  C  C35  1  0.31555000  0.07696000  0.09651000  1.0
  C  C36  1  0.52982000  0.67801000  0.85262000  1.0
  C  C37  1  0.47018000  0.32199000  0.14738000  1.0
  C  C38  1  0.38225000  0.59582000  0.84110000  1.0
  C  C39  1  0.61775000  0.40418000  0.15890000  1.0
  C  C40  1  0.08474000  0.39274000  0.86357000  1.0
  C  C41  1  0.91526000  0.60726000  0.13643000  1.0
  C  C42  1  0.73669000  0.33677000  0.47718000  1.0
  C  C43  1  0.26331000  0.66323000  0.52283000  1.0
  C  C44  1  0.44674000  0.40472000  0.85218000  1.0
  C  C45  1  0.55326000  0.59528000  0.14782000  1.0
  C  C46  1  0.06965000  0.16507000  0.30304000  1.0
  C  C47  1  0.93035000  0.83493000  0.69696000  1.0
  C  C48  1  0.59338000  0.48935000  0.86640000  1.0
  C  C49  1  0.40662000  0.51065000  0.13360000  1.0
  C  C50  1  0.96577000  0.20985000  0.25519000  1.0
  C  C51  1  0.03423000  0.79015000  0.74482000  1.0
  C  C52  1  0.63674000  0.62762000  0.86603000  1.0
  C  C53  1  0.36326000  0.37238000  0.13397000  1.0
  C  C54  1  0.54185000  0.99091000  0.80014000  1.0
  C  C55  1  0.45815000  0.00909000  0.19987000  1.0
  C  C56  1  0.70447000  0.43044000  0.88544000  1.0
  C  C57  1  0.29553000  0.56956000  0.11456000  1.0
  C  C58  1  0.01786000  0.18291000  0.81730000  1.0
  C  C59  1  0.98214000  0.81709000  0.18269000  1.0
  C  C60  1  0.93490000  0.26981000  0.43822000  1.0
  C  C61  1  0.06510000  0.73019000  0.56178000  1.0
  C  C62  1  0.03628000  0.22277000  0.48792000  1.0
  C  C63  1  0.96372000  0.77723000  0.51208000  1.0
  C  C64  1  0.92642000  0.19861000  0.13072000  1.0
  C  C65  1  0.07358000  0.80139000  0.86928000  1.0
  C  C66  1  0.10312000  0.17035000  0.41855000  1.0
  C  C67  1  0.89689000  0.82965000  0.58145000  1.0
  C  C68  1  0.33566000  0.00955000  0.46660000  1.0
  C  C69  1  0.66434000  0.99045000  0.53340000  1.0
  C  C70  1  0.83224000  0.42330000  0.64247000  1.0
  C  C71  1  0.16776000  0.57669000  0.35753000  1.0
  C  C72  1  0.27154000  0.12654000  0.57095000  1.0
  C  C73  1  0.72846000  0.87346000  0.42905000  1.0
  N  N74  1  0.35580000  0.05915000  0.57526000  1.0
  N  N75  1  0.64420000  0.94085000  0.42474000  1.0
  N  N76  1  0.71245000  0.39842000  0.56267000  1.0
  N  N77  1  0.28755000  0.60158000  0.43733000  1.0
  N  N78  1  0.19517000  0.36999000  0.83204000  1.0
  N  N79  1  0.80483000  0.63001000  0.16796000  1.0
  N  N80  1  0.47624000  0.85904000  0.78215000  1.0
  N  N81  1  0.52375000  0.14096000  0.21785000  1.0
  N  N82  1  0.56781000  0.81724000  0.84835000  1.0
  N  N83  1  0.43219000  0.18276000  0.15165000  1.0
  N  N84  1  0.97153000  0.27548000  0.85555000  1.0
  N  N85  1  0.02847000  0.72452000  0.14445000  1.0
  N  N86  1  0.86596000  0.32515000  0.50496000  1.0
  N  N87  1  0.13404000  0.67485000  0.49504000  1.0
  N  N88  1  0.67026000  0.03443000  0.87442000  1.0
  N  N89  1  0.32974000  0.96557000  0.12558000  1.0
  N  N90  1  0.24522000  0.04219000  0.39602000  1.0
  N  N91  1  0.75478000  0.95780000  0.60398000  1.0
  N  N92  1  0.92818000  0.38036000  0.61190000  1.0
  N  N93  1  0.07182000  0.61964000  0.38810000  1.0
  N  N94  1  0.15337000  0.23596000  0.80161000  1.0
  N  N95  1  0.84663000  0.76404000  0.19839000  1.0
  N  N96  1  0.20409000  0.11774000  0.46400000  1.0
  N  N97  1  0.79591000  0.88226000  0.53600000  1.0
  O  O98  1  0.83690000  0.50528000  0.90411000  1.0
  O  O99  1  0.16310000  0.49472000  0.09589000  1.0
  O  O100  1  0.97055000  0.13246000  0.07124000  1.0
  O  O101  1  0.02946000  0.86754000  0.92876000  1.0
  O  O102  1  0.84341000  0.25836000  0.09265000  1.0
  O  O103  1  0.15659000  0.74165000  0.90735000  1.0
  O  O104  1  0.65130000  0.30122000  0.88270000  1.0
  O  O105  1  0.34870000  0.69878000  0.11730000  1.0
