# generated using pymatgen
data_KH9C8S2N4O5
_symmetry_space_group_name_H-M   'P 1'
_cell_length_a   6.80173000
_cell_length_b   10.03420000
_cell_length_c   10.31960000
_cell_angle_alpha   69.44200000
_cell_angle_beta   89.52020000
_cell_angle_gamma   72.98400000
_symmetry_Int_Tables_number   1
_chemical_formula_structural   KH9C8S2N4O5
_chemical_formula_sum   'K2 H18 C16 S4 N8 O10'
_cell_volume   627.07626386
_cell_formula_units_Z   2
loop_
 _symmetry_equiv_pos_site_id
 _symmetry_equiv_pos_as_xyz
  1  'x, y, z'
loop_
 _atom_site_type_symbol
 _atom_site_label
 _atom_site_symmetry_multiplicity
 _atom_site_fract_x
 _atom_site_fract_y
 _atom_site_fract_z
 _atom_site_occupancy
  K  K0  1  0.72605000  0.62023000  0.82936000  1.0
  K  K1  1  0.27394000  0.37977000  0.17065000  1.0
  H  H2  1  0.49021000  0.20957000  0.50748000  1.0
  H  H3  1  0.50978000  0.79043000  0.49252000  1.0
  H  H4  1  0.16549000  0.61989000  0.54967000  1.0
  H  H5  1  0.83450000  0.38011000  0.45033000  1.0
  H  H6  1  0.50136000  0.27244000  0.89160000  1.0
  H  H7  1  0.49864000  0.72756000  0.10840000  1.0
  H  H8  1  0.91595000  0.32916000  0.69399000  1.0
  H  H9  1  0.08405000  0.67083000  0.30601000  1.0
  H  H10  1  0.27852000  0.98988000  0.04292000  1.0
  H  H11  1  0.72148000  0.01012000  0.95708000  1.0
  H  H12  1  0.15353000  0.89923000  0.71152000  1.0
  H  H13  1  0.84647000  0.10077000  0.28848000  1.0
  H  H14  1  0.35478000  0.97456000  0.65303000  1.0
  H  H15  1  0.64522000  0.02543000  0.34696000  1.0
  H  H16  1  0.82401000  0.88320000  0.58818000  1.0
  H  H17  1  0.17599000  0.11680000  0.41182000  1.0
  H  H18  1  0.70648000  0.96646000  0.68710000  1.0
  H  H19  1  0.29352000  0.03353000  0.31290000  1.0
  C  C20  1  0.52091000  0.22151000  0.71092000  1.0
  C  C21  1  0.47909000  0.77849000  0.28908000  1.0
  C  C22  1  0.32792000  0.45949000  0.73071000  1.0
  C  C23  1  0.67207000  0.54051000  0.26930000  1.0
  C  C24  1  0.44523000  0.27915000  0.56972000  1.0
  C  C25  1  0.55477000  0.72085000  0.43028000  1.0
  C  C26  1  0.31126000  0.42670000  0.50754000  1.0
  C  C27  1  0.68873000  0.57330000  0.49247000  1.0
  C  C28  1  0.22491000  0.98295000  0.71786000  1.0
  C  C29  1  0.77508000  0.01705000  0.28214000  1.0
  C  C30  1  0.08507000  0.16881000  0.87898000  1.0
  C  C31  1  0.91494000  0.83118000  0.12102000  1.0
  C  C32  1  0.30911000  0.93505000  0.86634000  1.0
  C  C33  1  0.69089000  0.06496000  0.13366000  1.0
  C  C34  1  0.07242000  0.13654000  0.65609000  1.0
  C  C35  1  0.92758000  0.86347000  0.34391000  1.0
  S  S36  1  0.26113000  0.56943000  0.82559000  1.0
  S  S37  1  0.73887000  0.43057000  0.17442000  1.0
  S  S38  1  0.99582000  0.26987000  0.97539000  1.0
  S  S39  1  0.00419000  0.73013000  0.02461000  1.0
  N  N40  1  0.45405000  0.31616000  0.78571000  1.0
  N  N41  1  0.54595000  0.68384000  0.21429000  1.0
  N  N42  1  0.25925000  0.50980000  0.59414000  1.0
  N  N43  1  0.74074000  0.49020000  0.40587000  1.0
  N  N44  1  0.22853000  0.02918000  0.93617000  1.0
  N  N45  1  0.77147000  0.97082000  0.06383000  1.0
  N  N46  1  0.01905000  0.21882000  0.73975000  1.0
  N  N47  1  0.98095000  0.78118000  0.26025000  1.0
  O  O48  1  0.64329000  0.09017000  0.77837000  1.0
  O  O49  1  0.35670000  0.90983000  0.22163000  1.0
  O  O50  1  0.23513000  0.49092000  0.38097000  1.0
  O  O51  1  0.76487000  0.50908000  0.61904000  1.0
  O  O52  1  0.99588000  0.18846000  0.53283000  1.0
  O  O53  1  0.00414000  0.81153000  0.46716000  1.0
  O  O54  1  0.44366000  0.81336000  0.92589000  1.0
  O  O55  1  0.55635000  0.18664000  0.07411000  1.0
  O  O56  1  0.70586000  0.89302000  0.64313000  1.0
  O  O57  1  0.29414000  0.10698000  0.35688000  1.0
