# generated using pymatgen
data_AlH13C20O7
_symmetry_space_group_name_H-M   'P 1'
_cell_length_a   6.74747000
_cell_length_b   25.66770000
_cell_length_c   28.81730000
_cell_angle_alpha   90.04900000
_cell_angle_beta   90.11990000
_cell_angle_gamma   89.87360000
_symmetry_Int_Tables_number   1
_chemical_formula_structural   AlH13C20O7
_chemical_formula_sum   'Al4 H52 C80 O28'
_cell_volume   4990.90197229
_cell_formula_units_Z   4
loop_
 _symmetry_equiv_pos_site_id
 _symmetry_equiv_pos_as_xyz
  1  'x, y, z'
loop_
 _atom_site_type_symbol
 _atom_site_label
 _atom_site_symmetry_multiplicity
 _atom_site_fract_x
 _atom_site_fract_y
 _atom_site_fract_z
 _atom_site_occupancy
  Al  Al0  1  0.75853000  0.75161000  0.75054000  1.0
  Al  Al1  1  0.23972000  0.24891000  0.24969000  1.0
  Al  Al2  1  0.25793000  0.74848000  0.75019000  1.0
  Al  Al3  1  0.73998000  0.25196000  0.24950000  1.0
  H  H4  1  0.31641000  0.41766000  0.42097000  1.0
  H  H5  1  0.67992000  0.58247000  0.57873000  1.0
  H  H6  1  0.68232000  0.58137000  0.91977000  1.0
  H  H7  1  0.31832000  0.41905000  0.08030000  1.0
  H  H8  1  0.81617000  0.08183000  0.07951000  1.0
  H  H9  1  0.17921000  0.92196000  0.91756000  1.0
  H  H10  1  0.21640000  0.89336000  0.55768000  1.0
  H  H11  1  0.82230000  0.08723000  0.42272000  1.0
  H  H12  1  0.67552000  0.42051000  0.41961000  1.0
  H  H13  1  0.32082000  0.57896000  0.57992000  1.0
  H  H14  1  0.32340000  0.58136000  0.92144000  1.0
  H  H15  1  0.67729000  0.42000000  0.07864000  1.0
  H  H16  1  0.17498000  0.08107000  0.07898000  1.0
  H  H17  1  0.82023000  0.91895000  0.92106000  1.0
  H  H18  1  0.79988000  0.94254000  0.60095000  1.0
  H  H19  1  0.18162000  0.07633000  0.41589000  1.0
  H  H20  1  0.67606000  0.35607000  0.35648000  1.0
  H  H21  1  0.32150000  0.64326000  0.64322000  1.0
  H  H22  1  0.32290000  0.64459000  0.85748000  1.0
  H  H23  1  0.67623000  0.35684000  0.14262000  1.0
  H  H24  1  0.17530000  0.14423000  0.14293000  1.0
  H  H25  1  0.81954000  0.85531000  0.85726000  1.0
  H  H26  1  0.79308000  0.87560000  0.66267000  1.0
  H  H27  1  0.18024000  0.14019000  0.35356000  1.0
  H  H28  1  0.72383000  0.43597000  0.49408000  1.0
  H  H29  1  0.27221000  0.56379000  0.50554000  1.0
  H  H30  1  0.27860000  0.50142000  0.94393000  1.0
  H  H31  1  0.72292000  0.49980000  0.05634000  1.0
  H  H32  1  0.21727000  0.00249000  0.05479000  1.0
  H  H33  1  0.77822000  0.99899000  0.94385000  1.0
  H  H34  1  0.82674000  0.96699000  0.53036000  1.0
  H  H35  1  0.18585000  0.03210000  0.46980000  1.0
  H  H36  1  0.72557000  0.49999000  0.55748000  1.0
  H  H37  1  0.27070000  0.49976000  0.44218000  1.0
  H  H38  1  0.27724000  0.43719000  0.00690000  1.0
  H  H39  1  0.72449000  0.56405000  0.99340000  1.0
  H  H40  1  0.21861000  0.93870000  0.99144000  1.0
  H  H41  1  0.77690000  0.06287000  0.00707000  1.0
  H  H42  1  0.82497000  0.03101000  0.46829000  1.0
  H  H43  1  0.18834000  0.96917000  0.53252000  1.0
  H  H44  1  0.32285000  0.32609000  0.33017000  1.0
  H  H45  1  0.67682000  0.67369000  0.67003000  1.0
  H  H46  1  0.67606000  0.67500000  0.83081000  1.0
  H  H47  1  0.32215000  0.32573000  0.16945000  1.0
  H  H48  1  0.82111000  0.17553000  0.16843000  1.0
  H  H49  1  0.17121000  0.82856000  0.82821000  1.0
  H  H50  1  0.07413000  0.83335000  0.59959000  1.0
  H  H51  1  0.82518000  0.17677000  0.33160000  1.0
  H  H52  1  0.51058000  0.68016000  0.74947000  1.0
  H  H53  1  0.48802000  0.32002000  0.24917000  1.0
  H  H54  1  0.01393000  0.81269000  0.72984000  1.0
  H  H55  1  0.98894000  0.18085000  0.24632000  1.0
  C  C56  1  0.50431000  0.81187000  0.68715000  1.0
  C  C57  1  0.49049000  0.18688000  0.31275000  1.0
  C  C58  1  0.48822000  0.18734000  0.18600000  1.0
  C  C59  1  0.50727000  0.81313000  0.81358000  1.0
  C  C60  1  0.01026000  0.68739000  0.81401000  1.0
  C  C61  1  0.98823000  0.31387000  0.18634000  1.0
  C  C62  1  0.98892000  0.31326000  0.31333000  1.0
  C  C63  1  0.00981000  0.68609000  0.68686000  1.0
  C  C64  1  0.17580000  0.36895000  0.37064000  1.0
  C  C65  1  0.82171000  0.63099000  0.62910000  1.0
  C  C66  1  0.82321000  0.63204000  0.87129000  1.0
  C  C67  1  0.17623000  0.36867000  0.12881000  1.0
  C  C68  1  0.67494000  0.13229000  0.12823000  1.0
  C  C69  1  0.31978000  0.87029000  0.86962000  1.0
  C  C70  1  0.33473000  0.85503000  0.61767000  1.0
  C  C71  1  0.67891000  0.13342000  0.37165000  1.0
  C  C72  1  0.17423000  0.40536000  0.40680000  1.0
  C  C73  1  0.82241000  0.59465000  0.59284000  1.0
  C  C74  1  0.82467000  0.59531000  0.90715000  1.0
  C  C75  1  0.17563000  0.40537000  0.09295000  1.0
  C  C76  1  0.67364000  0.09551000  0.09239000  1.0
  C  C77  1  0.32145000  0.90718000  0.90545000  1.0
  C  C78  1  0.34276000  0.89114000  0.58136000  1.0
  C  C79  1  0.67867000  0.09735000  0.40803000  1.0
  C  C80  1  0.99628000  0.42425000  0.42512000  1.0
  C  C81  1  0.00003000  0.57560000  0.57447000  1.0
  C  C82  1  0.00251000  0.57623000  0.92551000  1.0
  C  C83  1  0.99823000  0.42478000  0.07461000  1.0
  C  C84  1  0.49595000  0.07619000  0.07426000  1.0
  C  C85  1  0.49930000  0.92542000  0.92434000  1.0
  C  C86  1  0.50777000  0.92320000  0.57421000  1.0
  C  C87  1  0.50268000  0.07578000  0.42489000  1.0
  C  C88  1  0.81595000  0.40566000  0.40645000  1.0
  C  C89  1  0.18065000  0.59398000  0.59310000  1.0
  C  C90  1  0.18291000  0.59464000  0.90695000  1.0
  C  C91  1  0.81747000  0.40653000  0.09317000  1.0
  C  C92  1  0.31561000  0.09448000  0.09321000  1.0
  C  C93  1  0.67973000  0.90616000  0.90630000  1.0
  C  C94  1  0.67154000  0.91713000  0.60424000  1.0
  C  C95  1  0.32256000  0.09200000  0.40420000  1.0
  C  C96  1  0.81590000  0.36978000  0.37065000  1.0
  C  C97  1  0.18142000  0.62976000  0.62901000  1.0
  C  C98  1  0.18305000  0.63055000  0.87122000  1.0
  C  C99  1  0.81645000  0.37067000  0.12891000  1.0
  C  C100  1  0.31530000  0.13037000  0.12897000  1.0
  C  C101  1  0.67983000  0.86998000  0.87072000  1.0
  C  C102  1  0.66682000  0.88028000  0.63940000  1.0
  C  C103  1  0.32074000  0.12794000  0.36852000  1.0
  C  C104  1  0.99396000  0.35066000  0.35177000  1.0
  C  C105  1  0.00390000  0.64898000  0.64799000  1.0
  C  C106  1  0.00512000  0.64995000  0.85241000  1.0
  C  C107  1  0.99398000  0.35104000  0.14779000  1.0
  C  C108  1  0.49321000  0.15003000  0.14752000  1.0
  C  C109  1  0.50189000  0.85119000  0.85160000  1.0
  C  C110  1  0.50009000  0.84886000  0.64751000  1.0
  C  C111  1  0.49709000  0.14934000  0.35114000  1.0
  C  C112  1  0.84321000  0.46448000  0.49593000  1.0
  C  C113  1  0.15270000  0.53533000  0.50364000  1.0
  C  C114  1  0.15748000  0.50182000  0.96893000  1.0
  C  C115  1  0.84406000  0.49938000  0.03136000  1.0
  C  C116  1  0.33964000  0.00258000  0.03013000  1.0
  C  C117  1  0.65570000  0.99904000  0.96847000  1.0
  C  C118  1  0.68470000  0.98140000  0.51757000  1.0
  C  C119  1  0.32837000  0.01808000  0.48244000  1.0
  C  C120  1  0.84408000  0.50073000  0.53181000  1.0
  C  C121  1  0.15195000  0.49907000  0.46779000  1.0
  C  C122  1  0.15667000  0.46545000  0.00463000  1.0
  C  C123  1  0.84495000  0.53577000  0.99569000  1.0
  C  C124  1  0.34034000  0.96642000  0.99420000  1.0
  C  C125  1  0.65497000  0.03521000  0.00437000  1.0
  C  C126  1  0.68332000  0.01783000  0.48194000  1.0
  C  C127  1  0.32954000  0.98177000  0.51810000  1.0
  C  C128  1  0.99871000  0.53703000  0.53646000  1.0
  C  C129  1  0.99721000  0.46279000  0.46312000  1.0
  C  C130  1  0.99990000  0.46334000  0.03668000  1.0
  C  C131  1  0.00147000  0.53780000  0.96356000  1.0
  C  C132  1  0.49824000  0.96379000  0.96248000  1.0
  C  C133  1  0.49703000  0.03785000  0.03610000  1.0
  C  C134  1  0.50517000  0.03724000  0.46309000  1.0
  C  C135  1  0.50762000  0.96213000  0.53658000  1.0
  O  O136  1  0.33842000  0.79646000  0.79806000  1.0
  O  O137  1  0.65749000  0.20373000  0.20194000  1.0
  O  O138  1  0.65915000  0.20330000  0.29694000  1.0
  O  O139  1  0.33932000  0.79696000  0.70375000  1.0
  O  O140  1  0.84028000  0.70203000  0.70299000  1.0
  O  O141  1  0.15807000  0.29690000  0.29740000  1.0
  O  O142  1  0.15734000  0.29755000  0.20251000  1.0
  O  O143  1  0.84122000  0.70412000  0.79828000  1.0
  O  O144  1  0.67529000  0.79849000  0.70248000  1.0
  O  O145  1  0.32339000  0.20111000  0.29658000  1.0
  O  O146  1  0.32173000  0.20160000  0.20250000  1.0
  O  O147  1  0.67400000  0.79879000  0.79737000  1.0
  O  O148  1  0.17632000  0.70147000  0.79750000  1.0
  O  O149  1  0.82152000  0.29965000  0.20261000  1.0
  O  O150  1  0.82245000  0.29886000  0.29694000  1.0
  O  O151  1  0.17685000  0.70009000  0.70308000  1.0
  O  O152  1  0.51078000  0.71788000  0.75029000  1.0
  O  O153  1  0.48775000  0.28228000  0.24983000  1.0
  O  O154  1  0.00959000  0.78214000  0.74966000  1.0
  O  O155  1  0.98815000  0.21842000  0.24955000  1.0
  O  O156  1  0.35353000  0.35209000  0.35508000  1.0
  O  O157  1  0.64451000  0.64812000  0.64475000  1.0
  O  O158  1  0.64556000  0.64893000  0.85562000  1.0
  O  O159  1  0.35361000  0.35145000  0.14443000  1.0
  O  O160  1  0.85256000  0.14958000  0.14353000  1.0
  O  O161  1  0.14215000  0.85466000  0.85319000  1.0
  O  O162  1  0.17059000  0.82490000  0.62373000  1.0
  O  O163  1  0.85579000  0.15209000  0.35755000  1.0
