# generated using pymatgen
data_CaH18(C9O5)2
_symmetry_space_group_name_H-M   'P 1'
_cell_length_a   7.18465000
_cell_length_b   12.27970000
_cell_length_c   12.27950000
_cell_angle_alpha   115.86300000
_cell_angle_beta   95.37520000
_cell_angle_gamma   95.37530000
_symmetry_Int_Tables_number   1
_chemical_formula_structural   CaH18(C9O5)2
_chemical_formula_sum   'Ca2 H36 C36 O20'
_cell_volume   959.55888903
_cell_formula_units_Z   2
loop_
 _symmetry_equiv_pos_site_id
 _symmetry_equiv_pos_as_xyz
  1  'x, y, z'
loop_
 _atom_site_type_symbol
 _atom_site_label
 _atom_site_symmetry_multiplicity
 _atom_site_fract_x
 _atom_site_fract_y
 _atom_site_fract_z
 _atom_site_occupancy
  Ca  Ca0  1  0.74999000  0.47228000  0.52772000  1.0
  Ca  Ca1  1  0.25001000  0.52773000  0.47229000  1.0
  H  H2  1  0.18181000  0.91566000  0.47732000  1.0
  H  H3  1  0.31821000  0.52270000  0.08435000  1.0
  H  H4  1  0.81818000  0.08433000  0.52267000  1.0
  H  H5  1  0.68182000  0.47732000  0.91566000  1.0
  H  H6  1  0.38380000  0.99613000  0.68037000  1.0
  H  H7  1  0.11622000  0.31965000  0.00389000  1.0
  H  H8  1  0.61619000  0.00385000  0.31962000  1.0
  H  H9  1  0.88380000  0.68036000  0.99613000  1.0
  H  H10  1  0.55635000  0.20942000  0.77860000  1.0
  H  H11  1  0.94365000  0.22141000  0.79060000  1.0
  H  H12  1  0.44363000  0.79056000  0.22139000  1.0
  H  H13  1  0.05635000  0.77861000  0.20943000  1.0
  H  H14  1  0.52633000  0.34088000  0.67337000  1.0
  H  H15  1  0.97368000  0.32663000  0.65913000  1.0
  H  H16  1  0.47367000  0.65911000  0.32663000  1.0
  H  H17  1  0.02633000  0.67337000  0.34089000  1.0
  H  H18  1  0.88325000  0.96171000  0.17530000  1.0
  H  H19  1  0.61672000  0.82470000  0.03828000  1.0
  H  H20  1  0.11674000  0.03830000  0.82469000  1.0
  H  H21  1  0.38327000  0.17530000  0.96170000  1.0
  H  H22  1  0.04311000  0.94150000  0.06554000  1.0
  H  H23  1  0.45689000  0.93445000  0.05849000  1.0
  H  H24  1  0.95689000  0.05850000  0.93445000  1.0
  H  H25  1  0.54313000  0.06555000  0.94151000  1.0
  H  H26  1  0.97297000  0.08770000  0.14930000  1.0
  H  H27  1  0.52702000  0.85070000  0.91230000  1.0
  H  H28  1  0.02704000  0.91231000  0.85070000  1.0
  H  H29  1  0.47298000  0.14930000  0.08769000  1.0
  H  H30  1  0.93660000  0.25741000  0.42313000  1.0
  H  H31  1  0.56340000  0.57687000  0.74260000  1.0
  H  H32  1  0.06339000  0.74259000  0.57687000  1.0
  H  H33  1  0.43661000  0.42313000  0.25742000  1.0
  H  H34  1  0.71680000  0.20841000  0.37605000  1.0
  H  H35  1  0.78319000  0.62396000  0.79159000  1.0
  H  H36  1  0.28320000  0.79160000  0.62396000  1.0
  H  H37  1  0.21680000  0.37604000  0.20842000  1.0
  C  C38  1  0.33412000  0.20527000  0.51808000  1.0
  C  C39  1  0.16588000  0.48192000  0.79473000  1.0
  C  C40  1  0.66588000  0.79472000  0.48191000  1.0
  C  C41  1  0.83412000  0.51809000  0.20528000  1.0
  C  C42  1  0.23978000  0.08442000  0.46411000  1.0
  C  C43  1  0.26021000  0.53589000  0.91558000  1.0
  C  C44  1  0.76022000  0.91557000  0.53588000  1.0
  C  C45  1  0.73980000  0.46412000  0.08442000  1.0
  C  C46  1  0.25569000  0.00930000  0.52170000  1.0
  C  C47  1  0.24431000  0.47831000  0.99071000  1.0
  C  C48  1  0.74430000  0.99069000  0.47830000  1.0
  C  C49  1  0.75570000  0.52169000  0.00930000  1.0
  C  C50  1  0.36819000  0.05481000  0.63554000  1.0
  C  C51  1  0.13183000  0.36447000  0.94520000  1.0
  C  C52  1  0.63181000  0.94517000  0.36445000  1.0
  C  C53  1  0.86816000  0.63554000  0.05480000  1.0
  C  C54  1  0.46724000  0.17370000  0.68999000  1.0
  C  C55  1  0.03277000  0.31001000  0.82632000  1.0
  C  C56  1  0.53275000  0.82629000  0.31000000  1.0
  C  C57  1  0.96723000  0.69000000  0.17369000  1.0
  C  C58  1  0.45127000  0.24752000  0.63112000  1.0
  C  C59  1  0.04873000  0.36889000  0.75249000  1.0
  C  C60  1  0.54871000  0.75247000  0.36888000  1.0
  C  C61  1  0.95127000  0.63112000  0.24752000  1.0
  C  C62  1  0.30721000  0.29341000  0.46635000  1.0
  C  C63  1  0.19278000  0.53364000  0.70659000  1.0
  C  C64  1  0.69279000  0.70658000  0.53365000  1.0
  C  C65  1  0.80722000  0.46636000  0.29342000  1.0
  C  C66  1  0.17343000  0.03978000  0.25154000  1.0
  C  C67  1  0.32657000  0.74846000  0.96021000  1.0
  C  C68  1  0.82653000  0.96021000  0.74844000  1.0
  C  C69  1  0.67347000  0.25153000  0.03979000  1.0
  C  C70  1  0.00660000  0.00403000  0.15403000  1.0
  C  C71  1  0.49340000  0.84597000  0.99596000  1.0
  C  C72  1  0.99340000  0.99597000  0.84596000  1.0
  C  C73  1  0.50659000  0.15402000  0.00402000  1.0
  O  O74  1  0.44065000  0.38258000  0.49669000  1.0
  O  O75  1  0.05934000  0.50332000  0.61742000  1.0
  O  O76  1  0.55934000  0.61742000  0.50332000  1.0
  O  O77  1  0.94066000  0.49668000  0.38258000  1.0
  O  O78  1  0.15375000  0.28542000  0.40087000  1.0
  O  O79  1  0.34624000  0.59913000  0.71458000  1.0
  O  O80  1  0.84624000  0.71458000  0.59913000  1.0
  O  O81  1  0.65376000  0.40086000  0.28543000  1.0
  O  O82  1  0.11684000  0.03533000  0.35344000  1.0
  O  O83  1  0.38317000  0.64656000  0.96468000  1.0
  O  O84  1  0.88316000  0.96468000  0.64656000  1.0
  O  O85  1  0.61683000  0.35345000  0.03532000  1.0
  O  O86  1  0.33727000  0.06760000  0.24304000  1.0
  O  O87  1  0.16272000  0.75696000  0.93239000  1.0
  O  O88  1  0.66275000  0.93240000  0.75695000  1.0
  O  O89  1  0.83726000  0.24305000  0.06759000  1.0
  O  O90  1  0.80716000  0.26220000  0.44828000  1.0
  O  O91  1  0.69284000  0.55173000  0.73780000  1.0
  O  O92  1  0.19284000  0.73780000  0.55173000  1.0
  O  O93  1  0.30716000  0.44828000  0.26221000  1.0
