# generated using pymatgen
data_CuH20C16(NO3)2
_symmetry_space_group_name_H-M   'P 1'
_cell_length_a   8.60406000
_cell_length_b   9.35464000
_cell_length_c   10.05610000
_cell_angle_alpha   100.36300000
_cell_angle_beta   89.99990000
_cell_angle_gamma   90.00000000
_symmetry_Int_Tables_number   1
_chemical_formula_structural   CuH20C16(NO3)2
_chemical_formula_sum   'Cu2 H40 C32 N4 O12'
_cell_volume   796.19124075
_cell_formula_units_Z   2
loop_
 _symmetry_equiv_pos_site_id
 _symmetry_equiv_pos_as_xyz
  1  'x, y, z'
loop_
 _atom_site_type_symbol
 _atom_site_label
 _atom_site_symmetry_multiplicity
 _atom_site_fract_x
 _atom_site_fract_y
 _atom_site_fract_z
 _atom_site_occupancy
  Cu  Cu0  1  0.00000000  0.50000000  0.00000000  1.0
  Cu  Cu1  1  0.50000000  0.00000000  0.50000000  1.0
  H  H2  1  0.44053000  0.84087000  0.72071000  1.0
  H  H3  1  0.94053000  0.65913000  0.77930000  1.0
  H  H4  1  0.55947000  0.15913000  0.27930000  1.0
  H  H5  1  0.05947000  0.34087000  0.22070000  1.0
  H  H6  1  0.70976000  0.44527000  0.63162000  1.0
  H  H7  1  0.20976000  0.05473000  0.86838000  1.0
  H  H8  1  0.29024000  0.55473000  0.36838000  1.0
  H  H9  1  0.79024000  0.94527000  0.13162000  1.0
  H  H10  1  0.80655000  0.53297000  0.42198000  1.0
  H  H11  1  0.30656000  0.96703000  0.07803000  1.0
  H  H12  1  0.19344000  0.46703000  0.57803000  1.0
  H  H13  1  0.69344000  0.03297000  0.92197000  1.0
  H  H14  1  0.70848000  0.76795000  0.37415000  1.0
  H  H15  1  0.20848000  0.73205000  0.12585000  1.0
  H  H16  1  0.29152000  0.23205000  0.62585000  1.0
  H  H17  1  0.79152000  0.26795000  0.87414000  1.0
  H  H18  1  0.53193000  0.47335000  0.81438000  1.0
  H  H19  1  0.03193000  0.02665000  0.68562000  1.0
  H  H20  1  0.46807000  0.52665000  0.18562000  1.0
  H  H21  1  0.96807000  0.97335000  0.31438000  1.0
  H  H22  1  0.37047000  0.58748000  0.80686000  1.0
  H  H23  1  0.87047000  0.91252000  0.69314000  1.0
  H  H24  1  0.62953000  0.41252000  0.19314000  1.0
  H  H25  1  0.12953000  0.08748000  0.30686000  1.0
  H  H26  1  0.45165000  0.66830000  0.02676000  1.0
  H  H27  1  0.95165000  0.83170000  0.47324000  1.0
  H  H28  1  0.54836000  0.33170000  0.97324000  1.0
  H  H29  1  0.04835000  0.16830000  0.52676000  1.0
  H  H30  1  0.54206000  0.79577000  0.94653000  1.0
  H  H31  1  0.04206000  0.70423000  0.55347000  1.0
  H  H32  1  0.45794000  0.20423000  0.05347000  1.0
  H  H33  1  0.95794000  0.29577000  0.44653000  1.0
  H  H34  1  0.05800000  0.67336000  0.28614000  1.0
  H  H35  1  0.55801000  0.82664000  0.21386000  1.0
  H  H36  1  0.94199000  0.32664000  0.71386000  1.0
  H  H37  1  0.44199000  0.17336000  0.78613000  1.0
  H  H38  1  0.89030000  0.66289000  0.21423000  1.0
  H  H39  1  0.39030000  0.83711000  0.28577000  1.0
  H  H40  1  0.10970000  0.33711000  0.78577000  1.0
  H  H41  1  0.60970000  0.16289000  0.71423000  1.0
  C  C42  1  0.52097000  0.76726000  0.65866000  1.0
  C  C43  1  0.02098000  0.73274000  0.84134000  1.0
  C  C44  1  0.47902000  0.23274000  0.34134000  1.0
  C  C45  1  0.97902000  0.26726000  0.15866000  1.0
  C  C46  1  0.56643000  0.63529000  0.69348000  1.0
  C  C47  1  0.06643000  0.86471000  0.80652000  1.0
  C  C48  1  0.43357000  0.36471000  0.30652000  1.0
  C  C49  1  0.93357000  0.13529000  0.19348000  1.0
  C  C50  1  0.67148000  0.54899000  0.60798000  1.0
  C  C51  1  0.17149000  0.95101000  0.89202000  1.0
  C  C52  1  0.32852000  0.45101000  0.39202000  1.0
  C  C53  1  0.82852000  0.04899000  0.10798000  1.0
  C  C54  1  0.72418000  0.59528000  0.49183000  1.0
  C  C55  1  0.22419000  0.90472000  0.00818000  1.0
  C  C56  1  0.27581000  0.40472000  0.50818000  1.0
  C  C57  1  0.77582000  0.09528000  0.99182000  1.0
  C  C58  1  0.67145000  0.72721000  0.46378000  1.0
  C  C59  1  0.17145000  0.77280000  0.03623000  1.0
  C  C60  1  0.32855000  0.27279000  0.53622000  1.0
  C  C61  1  0.82855000  0.22720000  0.96377000  1.0
  C  C62  1  0.49801000  0.58661000  0.81565000  1.0
  C  C63  1  0.99801000  0.91339000  0.68435000  1.0
  C  C64  1  0.50199000  0.41340000  0.18435000  1.0
  C  C65  1  0.00199000  0.08661000  0.31565000  1.0
  C  C66  1  0.54181000  0.67926000  0.95196000  1.0
  C  C67  1  0.04181000  0.82074000  0.54804000  1.0
  C  C68  1  0.45819000  0.32074000  0.04804000  1.0
  C  C69  1  0.95819000  0.17926000  0.45196000  1.0
  C  C70  1  0.69543000  0.64595000  0.01514000  1.0
  C  C71  1  0.19543000  0.85404000  0.48486000  1.0
  C  C72  1  0.30457000  0.35404000  0.98486000  1.0
  C  C73  1  0.80457000  0.14596000  0.51514000  1.0
  N  N74  1  0.57226000  0.81184000  0.54646000  1.0
  N  N75  1  0.07226000  0.68817000  0.95354000  1.0
  N  N76  1  0.42774000  0.18816000  0.45354000  1.0
  N  N77  1  0.92774000  0.31183000  0.04646000  1.0
  O  O78  1  0.78032000  0.54603000  0.94831000  1.0
  O  O79  1  0.28032000  0.95397000  0.55169000  1.0
  O  O80  1  0.21968000  0.45397000  0.05169000  1.0
  O  O81  1  0.71968000  0.04603000  0.44831000  1.0
  O  O82  1  0.72710000  0.71895000  0.13117000  1.0
  O  O83  1  0.22710000  0.78105000  0.36884000  1.0
  O  O84  1  0.27290000  0.28105000  0.86884000  1.0
  O  O85  1  0.77290000  0.21895000  0.63116000  1.0
  O  O86  1  0.97413000  0.60602000  0.24838000  1.0
  O  O87  1  0.47413000  0.89398000  0.25162000  1.0
  O  O88  1  0.02587000  0.39398000  0.75162000  1.0
  O  O89  1  0.52587000  0.10602000  0.74838000  1.0
