# generated using pymatgen
data_CaH30C24O13
_symmetry_space_group_name_H-M   'P 1'
_cell_length_a   8.31953000
_cell_length_b   8.32197000
_cell_length_c   20.86400000
_cell_angle_alpha   90.00000000
_cell_angle_beta   90.00000000
_cell_angle_gamma   113.52700000
_symmetry_Int_Tables_number   1
_chemical_formula_structural   CaH30C24O13
_chemical_formula_sum   'Ca2 H60 C48 O26'
_cell_volume   1324.43684403
_cell_formula_units_Z   2
loop_
 _symmetry_equiv_pos_site_id
 _symmetry_equiv_pos_as_xyz
  1  'x, y, z'
loop_
 _atom_site_type_symbol
 _atom_site_label
 _atom_site_symmetry_multiplicity
 _atom_site_fract_x
 _atom_site_fract_y
 _atom_site_fract_z
 _atom_site_occupancy
  Ca  Ca0  1  0.51794000  0.48210000  0.75001000  1.0
  Ca  Ca1  1  0.48207000  0.51790000  0.25001000  1.0
  H  H2  1  0.97651000  0.00237000  0.69383000  1.0
  H  H3  1  0.02349000  0.99763000  0.19383000  1.0
  H  H4  1  0.00231000  0.97646000  0.30617000  1.0
  H  H5  1  0.99769000  0.02354000  0.80618000  1.0
  H  H6  1  0.68256000  0.02087000  0.49591000  1.0
  H  H7  1  0.31745000  0.97912000  0.99591000  1.0
  H  H8  1  0.02088000  0.68252000  0.50409000  1.0
  H  H9  1  0.97912000  0.31749000  0.00409000  1.0
  H  H10  1  0.39912000  0.99766000  0.44643000  1.0
  H  H11  1  0.60088000  0.00234000  0.94643000  1.0
  H  H12  1  0.99766000  0.39915000  0.55356000  1.0
  H  H13  1  0.00234000  0.60085000  0.05356000  1.0
  H  H14  1  0.16281000  0.01165000  0.51556000  1.0
  H  H15  1  0.83719000  0.98835000  0.01556000  1.0
  H  H16  1  0.01165000  0.16291000  0.48443000  1.0
  H  H17  1  0.98835000  0.83710000  0.98443000  1.0
  H  H18  1  0.21004000  0.05821000  0.63315000  1.0
  H  H19  1  0.78996000  0.94179000  0.13315000  1.0
  H  H20  1  0.05821000  0.21012000  0.36684000  1.0
  H  H21  1  0.94180000  0.78988000  0.86684000  1.0
  H  H22  1  0.48950000  0.08014000  0.68204000  1.0
  H  H23  1  0.51050000  0.91986000  0.18204000  1.0
  H  H24  1  0.08014000  0.48951000  0.31796000  1.0
  H  H25  1  0.91986000  0.51049000  0.81796000  1.0
  H  H26  1  0.57479000  0.13532000  0.79853000  1.0
  H  H27  1  0.42521000  0.86468000  0.29853000  1.0
  H  H28  1  0.13531000  0.57479000  0.20147000  1.0
  H  H29  1  0.86469000  0.42521000  0.70147000  1.0
  H  H30  1  0.39912000  0.04679000  0.87559000  1.0
  H  H31  1  0.60087000  0.95321000  0.37559000  1.0
  H  H32  1  0.04671000  0.39912000  0.12442000  1.0
  H  H33  1  0.95329000  0.60089000  0.62442000  1.0
  H  H34  1  0.26338000  0.12679000  0.83110000  1.0
  H  H35  1  0.73661000  0.87320000  0.33110000  1.0
  H  H36  1  0.12677000  0.26342000  0.16890000  1.0
  H  H37  1  0.87323000  0.73658000  0.66890000  1.0
  H  H38  1  0.32187000  0.26248000  0.93856000  1.0
  H  H39  1  0.67813000  0.73752000  0.43855000  1.0
  H  H40  1  0.26247000  0.32190000  0.06144000  1.0
  H  H41  1  0.73753000  0.67810000  0.56144000  1.0
  H  H42  1  0.55478000  0.34383000  0.92456000  1.0
  H  H43  1  0.44522000  0.65617000  0.42455000  1.0
  H  H44  1  0.34382000  0.55475000  0.07545000  1.0
  H  H45  1  0.65618000  0.44525000  0.57545000  1.0
  H  H46  1  0.43873000  0.70457000  0.87991000  1.0
  H  H47  1  0.56127000  0.29543000  0.37991000  1.0
  H  H48  1  0.70464000  0.43875000  0.12008000  1.0
  H  H49  1  0.29536000  0.56125000  0.62008000  1.0
  H  H50  1  0.34177000  0.56110000  0.94630000  1.0
  H  H51  1  0.65823000  0.43890000  0.44630000  1.0
  H  H52  1  0.56112000  0.34180000  0.05370000  1.0
  H  H53  1  0.43888000  0.65820000  0.55370000  1.0
  H  H54  1  0.57457000  0.64355000  0.93290000  1.0
  H  H55  1  0.42543000  0.35645000  0.43290000  1.0
  H  H56  1  0.64357000  0.57455000  0.06709000  1.0
  H  H57  1  0.35643000  0.42545000  0.56709000  1.0
  H  H58  1  0.39483000  0.76919000  0.76763000  1.0
  H  H59  1  0.60517000  0.23081000  0.26763000  1.0
  H  H60  1  0.76922000  0.39483000  0.23237000  1.0
  H  H61  1  0.23078000  0.60516000  0.73237000  1.0
  C  C62  1  0.09213000  0.28257000  0.70797000  1.0
  C  C63  1  0.90787000  0.71743000  0.20797000  1.0
  C  C64  1  0.28257000  0.09212000  0.29203000  1.0
  C  C65  1  0.71743000  0.90788000  0.79203000  1.0
  C  C66  1  0.93825000  0.10304000  0.71452000  1.0
  C  C67  1  0.06175000  0.89696000  0.21452000  1.0
  C  C68  1  0.10303000  0.93823000  0.28548000  1.0
  C  C69  1  0.89697000  0.06177000  0.78548000  1.0
  C  C70  1  0.76938000  0.05828000  0.61939000  1.0
  C  C71  1  0.23062000  0.94172000  0.11939000  1.0
  C  C72  1  0.05829000  0.76936000  0.38061000  1.0
  C  C73  1  0.94171000  0.23064000  0.88061000  1.0
  C  C74  1  0.60224000  0.04977000  0.59180000  1.0
  C  C75  1  0.39776000  0.95023000  0.09180000  1.0
  C  C76  1  0.04977000  0.60224000  0.40819000  1.0
  C  C77  1  0.95023000  0.39776000  0.90819000  1.0
  C  C78  1  0.57693000  0.02719000  0.52527000  1.0
  C  C79  1  0.42307000  0.97281000  0.02527000  1.0
  C  C80  1  0.02719000  0.57692000  0.47472000  1.0
  C  C81  1  0.97281000  0.42308000  0.97472000  1.0
  C  C82  1  0.41945000  0.01440000  0.49803000  1.0
  C  C83  1  0.58054000  0.98560000  0.99802000  1.0
  C  C84  1  0.01440000  0.41949000  0.50197000  1.0
  C  C85  1  0.98560000  0.58052000  0.00197000  1.0
  C  C86  1  0.28653000  0.02377000  0.53691000  1.0
  C  C87  1  0.71346000  0.97622000  0.03691000  1.0
  C  C88  1  0.02378000  0.28660000  0.46308000  1.0
  C  C89  1  0.97622000  0.71340000  0.96308000  1.0
  C  C90  1  0.31198000  0.04766000  0.60299000  1.0
  C  C91  1  0.68802000  0.95234000  0.10299000  1.0
  C  C92  1  0.04765000  0.31203000  0.39701000  1.0
  C  C93  1  0.95235000  0.68797000  0.89701000  1.0
  C  C94  1  0.46931000  0.06113000  0.63057000  1.0
  C  C95  1  0.53069000  0.93886000  0.13057000  1.0
  C  C96  1  0.06113000  0.46933000  0.36943000  1.0
  C  C97  1  0.93887000  0.53067000  0.86943000  1.0
  C  C98  1  0.83642000  0.60585000  0.64735000  1.0
  C  C99  1  0.16358000  0.39415000  0.14735000  1.0
  C  C100  1  0.60585000  0.83637000  0.35265000  1.0
  C  C101  1  0.39415000  0.16363000  0.85265000  1.0
  C  C102  1  0.69343000  0.57472000  0.59852000  1.0
  C  C103  1  0.30657000  0.42528000  0.09852000  1.0
  C  C104  1  0.57472000  0.69341000  0.40148000  1.0
  C  C105  1  0.42528000  0.30659000  0.90148000  1.0
  C  C106  1  0.44523000  0.59878000  0.90946000  1.0
  C  C107  1  0.55477000  0.40122000  0.40946000  1.0
  C  C108  1  0.59882000  0.44524000  0.09054000  1.0
  C  C109  1  0.40118000  0.55476000  0.59054000  1.0
  O  O110  1  0.24080000  0.28092000  0.71868000  1.0
  O  O111  1  0.75921000  0.71908000  0.21868000  1.0
  O  O112  1  0.28088000  0.24073000  0.28133000  1.0
  O  O113  1  0.71912000  0.75927000  0.78133000  1.0
  O  O114  1  0.05820000  0.41478000  0.69517000  1.0
  O  O115  1  0.94180000  0.58522000  0.19517000  1.0
  O  O116  1  0.41484000  0.05824000  0.30483000  1.0
  O  O117  1  0.58516000  0.94176000  0.80483000  1.0
  O  O118  1  0.78220000  0.09761000  0.68310000  1.0
  O  O119  1  0.21780000  0.90238000  0.18310000  1.0
  O  O120  1  0.09764000  0.78222000  0.31690000  1.0
  O  O121  1  0.90236000  0.21778000  0.81690000  1.0
  O  O122  1  0.88435000  0.03244000  0.58970000  1.0
  O  O123  1  0.11565000  0.96756000  0.08970000  1.0
  O  O124  1  0.03243000  0.88428000  0.41031000  1.0
  O  O125  1  0.96757000  0.11572000  0.91031000  1.0
  O  O126  1  0.77374000  0.47534000  0.69671000  1.0
  O  O127  1  0.22626000  0.52466000  0.19671000  1.0
  O  O128  1  0.47531000  0.77373000  0.30329000  1.0
  O  O129  1  0.52469000  0.22627000  0.80329000  1.0
  O  O130  1  0.54588000  0.58032000  0.63233000  1.0
  O  O131  1  0.45412000  0.41968000  0.13233000  1.0
  O  O132  1  0.58032000  0.54589000  0.36767000  1.0
  O  O133  1  0.41968000  0.45411000  0.86767000  1.0
  O  O134  1  0.35018000  0.64981000  0.75001000  1.0
  O  O135  1  0.64982000  0.35019000  0.25001000  1.0
