# generated using pymatgen
data_LaH5C7SO7
_symmetry_space_group_name_H-M   'P 1'
_cell_length_a   6.02439000
_cell_length_b   8.37725000
_cell_length_c   10.06590000
_cell_angle_alpha   111.76100000
_cell_angle_beta   95.32440000
_cell_angle_gamma   92.32240000
_symmetry_Int_Tables_number   1
_chemical_formula_structural   LaH5C7SO7
_chemical_formula_sum   'La2 H10 C14 S2 O14'
_cell_volume   468.22266083
_cell_formula_units_Z   2
loop_
 _symmetry_equiv_pos_site_id
 _symmetry_equiv_pos_as_xyz
  1  'x, y, z'
loop_
 _atom_site_type_symbol
 _atom_site_label
 _atom_site_symmetry_multiplicity
 _atom_site_fract_x
 _atom_site_fract_y
 _atom_site_fract_z
 _atom_site_occupancy
  La  La0  1  0.76130000  0.65101000  0.46644000  1.0
  La  La1  1  0.23870000  0.34899000  0.53356000  1.0
  H  H2  1  0.29792000  0.79505000  0.42107000  1.0
  H  H3  1  0.70208000  0.20496000  0.57892000  1.0
  H  H4  1  0.39130000  0.91173000  0.57982000  1.0
  H  H5  1  0.60870000  0.08827000  0.42017000  1.0
  H  H6  1  0.33131000  0.33115000  0.95737000  1.0
  H  H7  1  0.66869000  0.66885000  0.04263000  1.0
  H  H8  1  0.67853000  0.06249000  0.89334000  1.0
  H  H9  1  0.32148000  0.93751000  0.10666000  1.0
  H  H10  1  0.66214000  0.18634000  0.15927000  1.0
  H  H11  1  0.33786000  0.81366000  0.84073000  1.0
  C  C12  1  0.38314000  0.45599000  0.24263000  1.0
  C  C13  1  0.61685000  0.54402000  0.75737000  1.0
  C  C14  1  0.17706000  0.36421000  0.14915000  1.0
  C  C15  1  0.82294000  0.63579000  0.85086000  1.0
  C  C16  1  0.18345000  0.29946000  0.00050000  1.0
  C  C17  1  0.81656000  0.70054000  0.99950000  1.0
  C  C18  1  0.00479000  0.19048000  0.91002000  1.0
  C  C19  1  0.99521000  0.80952000  0.08998000  1.0
  C  C20  1  0.81560000  0.14918000  0.96564000  1.0
  C  C21  1  0.18441000  0.85082000  0.03436000  1.0
  C  C22  1  0.80592000  0.21851000  0.11324000  1.0
  C  C23  1  0.19408000  0.78149000  0.88676000  1.0
  C  C24  1  0.98437000  0.32780000  0.20843000  1.0
  C  C25  1  0.01563000  0.67219000  0.79157000  1.0
  S  S26  1  0.03110000  0.10039000  0.72523000  1.0
  S  S27  1  0.96891000  0.89961000  0.27477000  1.0
  O  O28  1  0.51617000  0.55381000  0.21212000  1.0
  O  O29  1  0.48383000  0.44618000  0.78788000  1.0
  O  O30  1  0.43140000  0.42526000  0.35958000  1.0
  O  O31  1  0.56860000  0.57474000  0.64042000  1.0
  O  O32  1  0.96964000  0.39751000  0.35054000  1.0
  O  O33  1  0.03036000  0.60250000  0.64946000  1.0
  O  O34  1  0.97046000  0.23357000  0.66381000  1.0
  O  O35  1  0.02954000  0.76643000  0.33619000  1.0
  O  O36  1  0.26523000  0.06589000  0.71021000  1.0
  O  O37  1  0.73477000  0.93411000  0.28979000  1.0
  O  O38  1  0.86910000  0.94797000  0.66053000  1.0
  O  O39  1  0.13090000  0.05203000  0.33947000  1.0
  O  O40  1  0.42944000  0.81660000  0.49373000  1.0
  O  O41  1  0.57056000  0.18340000  0.50627000  1.0
