# generated using pymatgen
data_Zn4H36C24O13
_symmetry_space_group_name_H-M   'P 1'
_cell_length_a   16.18650000
_cell_length_b   16.35290000
_cell_length_c   16.72390000
_cell_angle_alpha   62.08520000
_cell_angle_beta   88.78200000
_cell_angle_gamma   61.04840000
_symmetry_Int_Tables_number   1
_chemical_formula_structural   Zn4H36C24O13
_chemical_formula_sum   'Zn8 H72 C48 O26'
_cell_volume   3299.89475452
_cell_formula_units_Z   2
loop_
 _symmetry_equiv_pos_site_id
 _symmetry_equiv_pos_as_xyz
  1  'x, y, z'
loop_
 _atom_site_type_symbol
 _atom_site_label
 _atom_site_symmetry_multiplicity
 _atom_site_fract_x
 _atom_site_fract_y
 _atom_site_fract_z
 _atom_site_occupancy
  Zn  Zn0  1  0.05454000  0.95473000  0.95600000  1.0
  Zn  Zn1  1  0.02055000  0.92568000  0.14607000  1.0
  Zn  Zn2  1  0.83834000  0.09655000  0.96299000  1.0
  Zn  Zn3  1  0.00221000  0.15198000  0.98605000  1.0
  Zn  Zn4  1  0.44806000  0.15283000  0.53803000  1.0
  Zn  Zn5  1  0.42430000  0.09843000  0.37886000  1.0
  Zn  Zn6  1  0.41164000  0.96222000  0.58364000  1.0
  Zn  Zn7  1  0.61392000  0.92386000  0.55400000  1.0
  H  H8  1  0.50430000  0.46783000  0.11947000  1.0
  H  H9  1  0.52562000  0.41232000  0.24254000  1.0
  H  H10  1  0.47427000  0.55496000  0.16472000  1.0
  H  H11  1  0.37524000  0.43058000  0.17669000  1.0
  H  H12  1  0.32308000  0.57261000  0.09893000  1.0
  H  H13  1  0.38450000  0.45863000  0.31388000  1.0
  H  H14  1  0.32204000  0.60062000  0.23335000  1.0
  H  H15  1  0.21257000  0.54881000  0.31040000  1.0
  H  H16  1  0.16372000  0.60664000  0.10710000  1.0
  H  H17  1  0.08113000  0.62601000  0.17662000  1.0
  H  H18  1  0.17263000  0.42984000  0.30345000  1.0
  H  H19  1  0.22979000  0.42545000  0.21272000  1.0
  H  H20  1  0.87587000  0.68377000  0.90592000  1.0
  H  H21  1  0.74756000  0.77858000  0.85716000  1.0
  H  H22  1  0.80967000  0.77200000  0.94835000  1.0
  H  H23  1  0.83891000  0.84657000  0.74908000  1.0
  H  H24  1  0.90391000  0.83775000  0.83947000  1.0
  H  H25  1  0.67977000  0.98109000  0.76395000  1.0
  H  H26  1  0.74925000  0.97785000  0.84573000  1.0
  H  H27  1  0.69260000  0.14127000  0.69611000  1.0
  H  H28  1  0.91114000  0.99429000  0.71668000  1.0
  H  H29  1  0.84215000  0.13717000  0.66340000  1.0
  H  H30  1  0.72745000  0.15404000  0.55217000  1.0
  H  H31  1  0.81082000  0.00967000  0.60718000  1.0
  H  H32  1  0.10760000  0.99615000  0.66578000  1.0
  H  H33  1  0.11346000  0.11381000  0.59460000  1.0
  H  H34  1  0.03948000  0.11362000  0.67497000  1.0
  H  H35  1  0.26484000  0.96713000  0.73023000  1.0
  H  H36  1  0.19201000  0.96519000  0.81007000  1.0
  H  H37  1  0.19858000  0.16596000  0.66871000  1.0
  H  H38  1  0.12453000  0.16568000  0.74644000  1.0
  H  H39  1  0.25688000  0.17149000  0.79307000  1.0
  H  H40  1  0.32709000  0.93802000  0.94473000  1.0
  H  H41  1  0.30792000  0.04952000  0.95436000  1.0
  H  H42  1  0.42535000  0.04964000  0.83213000  1.0
  H  H43  1  0.41452000  0.93928000  0.85026000  1.0
  H  H44  1  0.92690000  0.94674000  0.43257000  1.0
  H  H45  1  0.80462000  0.06212000  0.38813000  1.0
  H  H46  1  0.88156000  0.05072000  0.31156000  1.0
  H  H47  1  0.80962000  0.89456000  0.41334000  1.0
  H  H48  1  0.88580000  0.88464000  0.33645000  1.0
  H  H49  1  0.67611000  0.07848000  0.28426000  1.0
  H  H50  1  0.75117000  0.07675000  0.20733000  1.0
  H  H51  1  0.62955000  0.04316000  0.17473000  1.0
  H  H52  1  0.82135000  0.82124000  0.25519000  1.0
  H  H53  1  0.72510000  0.89429000  0.15277000  1.0
  H  H54  1  0.62188000  0.88487000  0.27448000  1.0
  H  H55  1  0.73127000  0.82124000  0.35961000  1.0
  H  H56  1  0.37873000  0.69585000  0.39384000  1.0
  H  H57  1  0.41792000  0.78695000  0.32951000  1.0
  H  H58  1  0.32318000  0.79210000  0.27173000  1.0
  H  H59  1  0.30705000  0.84686000  0.42661000  1.0
  H  H60  1  0.21290000  0.85678000  0.36362000  1.0
  H  H61  1  0.30871000  0.99054000  0.28206000  1.0
  H  H62  1  0.22700000  0.99336000  0.21215000  1.0
  H  H63  1  0.15226000  0.15193000  0.23131000  1.0
  H  H64  1  0.05543000  0.02512000  0.33171000  1.0
  H  H65  1  0.00036000  0.16812000  0.25026000  1.0
  H  H66  1  0.11022000  0.14028000  0.37734000  1.0
  H  H67  1  0.17085000  0.99721000  0.43669000  1.0
  H  H68  1  0.59043000  0.55289000  0.01686000  1.0
  H  H69  1  0.65315000  0.62134000  0.96769000  1.0
  H  H70  1  0.71974000  0.47597000  0.03712000  1.0
  H  H71  1  0.56770000  0.61585000  0.84658000  1.0
  H  H72  1  0.63690000  0.47129000  0.91525000  1.0
  H  H73  1  0.72173000  0.61680000  0.82948000  1.0
  H  H74  1  0.79297000  0.47309000  0.90152000  1.0
  H  H75  1  0.78255000  0.53446000  0.73682000  1.0
  H  H76  1  0.65770000  0.43326000  0.78813000  1.0
  H  H77  1  0.74437000  0.41637000  0.72235000  1.0
  H  H78  1  0.63520000  0.61919000  0.62012000  1.0
  H  H79  1  0.56469000  0.61308000  0.70183000  1.0
  C  C80  1  0.47463000  0.48355000  0.17394000  1.0
  C  C81  1  0.37205000  0.50283000  0.16899000  1.0
  C  C82  1  0.33056000  0.52439000  0.24507000  1.0
  C  C83  1  0.23240000  0.53256000  0.25377000  1.0
  C  C84  1  0.14902000  0.62418000  0.16348000  1.0
  C  C85  1  0.12205000  0.74054000  0.12397000  1.0
  C  C86  1  0.23618000  0.42737000  0.27691000  1.0
  C  C87  1  0.32588000  0.31867000  0.34834000  1.0
  C  C88  1  0.81589000  0.76706000  0.88486000  1.0
  C  C89  1  0.83313000  0.85392000  0.81142000  1.0
  C  C90  1  0.75077000  0.96984000  0.78382000  1.0
  C  C91  1  0.75437000  0.06550000  0.70359000  1.0
  C  C92  1  0.84945000  0.06130000  0.72060000  1.0
  C  C93  1  0.88315000  0.05031000  0.81076000  1.0
  C  C94  1  0.74267000  0.07357000  0.60799000  1.0
  C  C95  1  0.66112000  0.06102000  0.58568000  1.0
  C  C96  1  0.10938000  0.06288000  0.66486000  1.0
  C  C97  1  0.19608000  0.01840000  0.74109000  1.0
  C  C98  1  0.19608000  0.11301000  0.73934000  1.0
  C  C99  1  0.27544000  0.08973000  0.81058000  1.0
  C  C100  1  0.27814000  0.02642000  0.91586000  1.0
  C  C101  1  0.18135000  0.04279000  0.93567000  1.0
  C  C102  1  0.38267000  0.02789000  0.80525000  1.0
  C  C103  1  0.39568000  0.04744000  0.70935000  1.0
  C  C104  1  0.86198000  0.00377000  0.37221000  1.0
  C  C105  1  0.82655000  0.94284000  0.35110000  1.0
  C  C106  1  0.73575000  0.02287000  0.26729000  1.0
  C  C107  1  0.69540000  0.97350000  0.23298000  1.0
  C  C108  1  0.76690000  0.90308000  0.19581000  1.0
  C  C109  1  0.82307000  0.94987000  0.13819000  1.0
  C  C110  1  0.66546000  0.90014000  0.30868000  1.0
  C  C111  1  0.60654000  0.94878000  0.36325000  1.0
  C  C112  1  0.35350000  0.77998000  0.33740000  1.0
  C  C113  1  0.27688000  0.86472000  0.35790000  1.0
  C  C114  1  0.24567000  0.98145000  0.28142000  1.0
  C  C115  1  0.15914000  0.07568000  0.28642000  1.0
  C  C116  1  0.06015000  0.08591000  0.26814000  1.0
  C  C117  1  0.04451000  0.06856000  0.19007000  1.0
  C  C118  1  0.17265000  0.06711000  0.38110000  1.0
  C  C119  1  0.26383000  0.05727000  0.41732000  1.0
  C  C120  1  0.65094000  0.54894000  0.98439000  1.0
  C  C121  1  0.63903000  0.54439000  0.89636000  1.0
  C  C122  1  0.72196000  0.54208000  0.84973000  1.0
  C  C123  1  0.72015000  0.53234000  0.76278000  1.0
  C  C124  1  0.72829000  0.42626000  0.78286000  1.0
  C  C125  1  0.80423000  0.31782000  0.86810000  1.0
  C  C126  1  0.62526000  0.62471000  0.68335000  1.0
  C  C127  1  0.58786000  0.74265000  0.65083000  1.0
  O  O128  1  0.97601000  0.03727000  0.01261000  1.0
  O  O129  1  0.11885000  0.77371000  0.18027000  1.0
  O  O130  1  0.09964000  0.79895000  0.03454000  1.0
  O  O131  1  0.37615000  0.25475000  0.31905000  1.0
  O  O132  1  0.34423000  0.29734000  0.43212000  1.0
  O  O133  1  0.81968000  0.08621000  0.85150000  1.0
  O  O134  1  0.97529000  0.00677000  0.83700000  1.0
  O  O135  1  0.68805000  0.96994000  0.59252000  1.0
  O  O136  1  0.57348000  0.14053000  0.56348000  1.0
  O  O137  1  0.12211000  0.12622000  0.94076000  1.0
  O  O138  1  0.16806000  0.96758000  0.94686000  1.0
  O  O139  1  0.40054000  0.97655000  0.69301000  1.0
  O  O140  1  0.40226000  0.12897000  0.65375000  1.0
  O  O141  1  0.77855000  0.02900000  0.05308000  1.0
  O  O142  1  0.91106000  0.90599000  0.18038000  1.0
  O  O143  1  0.65166000  0.90748000  0.44666000  1.0
  O  O144  1  0.51698000  0.02708000  0.32157000  1.0
  O  O145  1  0.02481000  0.14464000  0.10594000  1.0
  O  O146  1  0.05420000  0.97648000  0.21661000  1.0
  O  O147  1  0.28861000  0.01449000  0.50603000  1.0
  O  O148  1  0.30698000  0.09302000  0.35858000  1.0
  O  O149  1  0.89125000  0.29605000  0.88590000  1.0
  O  O150  1  0.77460000  0.25402000  0.91470000  1.0
  O  O151  1  0.49477000  0.80522000  0.62847000  1.0
  O  O152  1  0.64888000  0.77230000  0.64420000  1.0
  O  O153  1  0.47485000  0.03818000  0.51167000  1.0
