# generated using pymatgen
data_AgH4C8N4O2F3
_symmetry_space_group_name_H-M   'P 1'
_cell_length_a   7.36362000
_cell_length_b   11.25160000
_cell_length_c   12.52800000
_cell_angle_alpha   90.00030000
_cell_angle_beta   90.00000000
_cell_angle_gamma   90.00000000
_symmetry_Int_Tables_number   1
_chemical_formula_structural   AgH4C8N4O2F3
_chemical_formula_sum   'Ag4 H16 C32 N16 O8 F12'
_cell_volume   1037.97620508
_cell_formula_units_Z   4
loop_
 _symmetry_equiv_pos_site_id
 _symmetry_equiv_pos_as_xyz
  1  'x, y, z'
loop_
 _atom_site_type_symbol
 _atom_site_label
 _atom_site_symmetry_multiplicity
 _atom_site_fract_x
 _atom_site_fract_y
 _atom_site_fract_z
 _atom_site_occupancy
  Ag  Ag0  1  0.95191000  0.17950000  0.75000000  1.0
  Ag  Ag1  1  0.54809000  0.67950000  0.25000000  1.0
  Ag  Ag2  1  0.04809000  0.82050000  0.25000000  1.0
  Ag  Ag3  1  0.45191000  0.32050000  0.75000000  1.0
  H  H4  1  0.85359000  0.97990000  0.57810000  1.0
  H  H5  1  0.64641000  0.47990000  0.42190000  1.0
  H  H6  1  0.14641000  0.02010000  0.07810000  1.0
  H  H7  1  0.35359000  0.52010000  0.92190000  1.0
  H  H8  1  0.14641000  0.02010000  0.42190000  1.0
  H  H9  1  0.35359000  0.52010000  0.57810000  1.0
  H  H10  1  0.85359000  0.97990000  0.92190000  1.0
  H  H11  1  0.64641000  0.47990000  0.07810000  1.0
  H  H12  1  0.27185000  0.18565000  0.55693000  1.0
  H  H13  1  0.22815000  0.68565000  0.44308000  1.0
  H  H14  1  0.72815000  0.81435000  0.05692000  1.0
  H  H15  1  0.77185000  0.31435000  0.94307000  1.0
  H  H16  1  0.72815000  0.81435000  0.44307000  1.0
  H  H17  1  0.77185000  0.31435000  0.55692000  1.0
  H  H18  1  0.27185000  0.18565000  0.94308000  1.0
  H  H19  1  0.22815000  0.68565000  0.05693000  1.0
  C  C20  1  0.71959000  0.02027000  0.56888000  1.0
  C  C21  1  0.78041000  0.52027000  0.43112000  1.0
  C  C22  1  0.28041000  0.97973000  0.06888000  1.0
  C  C23  1  0.21959000  0.47973000  0.93113000  1.0
  C  C24  1  0.28041000  0.97973000  0.43112000  1.0
  C  C25  1  0.21959000  0.47973000  0.56888000  1.0
  C  C26  1  0.71959000  0.02027000  0.93112000  1.0
  C  C27  1  0.78041000  0.52026000  0.06888000  1.0
  C  C28  1  0.58312000  0.97004000  0.50328000  1.0
  C  C29  1  0.91688000  0.47004000  0.49672000  1.0
  C  C30  1  0.41689000  0.02996000  0.00328000  1.0
  C  C31  1  0.08312000  0.52996000  0.99672000  1.0
  C  C32  1  0.41688000  0.02996000  0.49672000  1.0
  C  C33  1  0.08311000  0.52996000  0.50328000  1.0
  C  C34  1  0.58312000  0.97004000  0.99672000  1.0
  C  C35  1  0.91688000  0.47004000  0.00328000  1.0
  C  C36  1  0.39806000  0.13530000  0.55700000  1.0
  C  C37  1  0.10194000  0.63530000  0.44300000  1.0
  C  C38  1  0.60194000  0.86470000  0.05700000  1.0
  C  C39  1  0.89806000  0.36470000  0.94300000  1.0
  C  C40  1  0.60193000  0.86470000  0.44300000  1.0
  C  C41  1  0.89806000  0.36470000  0.55700000  1.0
  C  C42  1  0.39806000  0.13530000  0.94300000  1.0
  C  C43  1  0.10194000  0.63530000  0.05700000  1.0
  C  C44  1  0.15322000  0.95380000  0.75001000  1.0
  C  C45  1  0.34678000  0.45380000  0.24999000  1.0
  C  C46  1  0.84678000  0.04620000  0.25000000  1.0
  C  C47  1  0.65322000  0.54620000  0.75000000  1.0
  C  C48  1  0.28816000  0.84677000  0.75000000  1.0
  C  C49  1  0.21184000  0.34677000  0.25000000  1.0
  C  C50  1  0.71184000  0.15323000  0.25000000  1.0
  C  C51  1  0.78817000  0.65323000  0.75000000  1.0
  N  N52  1  0.69382000  0.11961000  0.62266000  1.0
  N  N53  1  0.80618000  0.61961000  0.37734000  1.0
  N  N54  1  0.30618000  0.88039000  0.12266000  1.0
  N  N55  1  0.19382000  0.38039000  0.87734000  1.0
  N  N56  1  0.30618000  0.88039000  0.37734000  1.0
  N  N57  1  0.19382000  0.38039000  0.62266000  1.0
  N  N58  1  0.69382000  0.11961000  0.87734000  1.0
  N  N59  1  0.80618000  0.61961000  0.12266000  1.0
  N  N60  1  0.53061000  0.17776000  0.61689000  1.0
  N  N61  1  0.96939000  0.67776000  0.38311000  1.0
  N  N62  1  0.46939000  0.82224000  0.11689000  1.0
  N  N63  1  0.03061000  0.32224000  0.88311000  1.0
  N  N64  1  0.46939000  0.82224000  0.38311000  1.0
  N  N65  1  0.03061000  0.32224000  0.61689000  1.0
  N  N66  1  0.53061000  0.17776000  0.88311000  1.0
  N  N67  1  0.96939000  0.67776000  0.11689000  1.0
  O  O68  1  0.11058000  0.99326000  0.65940000  1.0
  O  O69  1  0.38942000  0.49326000  0.34059000  1.0
  O  O70  1  0.88941000  0.00674000  0.15940000  1.0
  O  O71  1  0.61058000  0.50674000  0.84059000  1.0
  O  O72  1  0.88942000  0.00674000  0.34059000  1.0
  O  O73  1  0.61059000  0.50674000  0.65940000  1.0
  O  O74  1  0.11059000  0.99325000  0.84059000  1.0
  O  O75  1  0.38942000  0.49325000  0.15941000  1.0
  F  F76  1  0.46298000  0.89052000  0.75000000  1.0
  F  F77  1  0.03702000  0.39052000  0.25000000  1.0
  F  F78  1  0.53702000  0.10948000  0.25000000  1.0
  F  F79  1  0.96298000  0.60948000  0.75000000  1.0
  F  F80  1  0.27291000  0.77538000  0.66247000  1.0
  F  F81  1  0.22709000  0.27538000  0.33753000  1.0
  F  F82  1  0.72709000  0.22462000  0.16247000  1.0
  F  F83  1  0.77291000  0.72462000  0.83753000  1.0
  F  F84  1  0.72709000  0.22462000  0.33753000  1.0
  F  F85  1  0.77291000  0.72462000  0.66247000  1.0
  F  F86  1  0.27291000  0.77538000  0.83753000  1.0
  F  F87  1  0.22709000  0.27538000  0.16247000  1.0
