# generated using pymatgen
data_GdH2C4N3O5
_symmetry_space_group_name_H-M   'P 1'
_cell_length_a   8.47925132
_cell_length_b   8.47897000
_cell_length_c   9.73348000
_cell_angle_alpha   89.99570000
_cell_angle_beta   90.00020002
_cell_angle_gamma   59.99929259
_symmetry_Int_Tables_number   1
_chemical_formula_structural   GdH2C4N3O5
_chemical_formula_sum   'Gd3 H6 C12 N9 O15'
_cell_volume   606.03301124
_cell_formula_units_Z   3
loop_
 _symmetry_equiv_pos_site_id
 _symmetry_equiv_pos_as_xyz
  1  'x, y, z'
loop_
 _atom_site_type_symbol
 _atom_site_label
 _atom_site_symmetry_multiplicity
 _atom_site_fract_x
 _atom_site_fract_y
 _atom_site_fract_z
 _atom_site_occupancy
  Gd  Gd0  1  0.00000000  0.78158000  0.83335000  1.0
  Gd  Gd1  1  0.78158000  0.21842000  0.16664000  1.0
  Gd  Gd2  1  0.21844000  1.00000000  0.50000000  1.0
  H  H3  1  0.63850000  0.09426000  0.96114000  1.0
  H  H4  1  0.09426000  0.26725000  0.29448000  1.0
  H  H5  1  0.26725000  0.63846000  0.62784000  1.0
  H  H6  1  0.36151000  0.73280000  0.70554000  1.0
  H  H7  1  0.90566000  0.36154000  0.37218000  1.0
  H  H8  1  0.73281000  0.90569000  0.03888000  1.0
  C  C9  1  0.30463000  0.65872000  0.09980000  1.0
  C  C10  1  0.65872000  0.03666000  0.43310000  1.0
  C  C11  1  0.03662000  0.30464000  0.76641000  1.0
  C  C12  1  0.69538000  0.96334000  0.56689000  1.0
  C  C13  1  0.34127000  0.69538000  0.23358000  1.0
  C  C14  1  0.96335000  0.34127000  0.90019000  1.0
  C  C15  1  0.39208000  0.51224000  0.99448000  1.0
  C  C16  1  0.51223000  0.09565000  0.32777000  1.0
  C  C17  1  0.09569000  0.39207000  0.66110000  1.0
  C  C18  1  0.60788000  0.90436000  0.67223000  1.0
  C  C19  1  0.48776000  0.60793000  0.33889000  1.0
  C  C20  1  0.90432000  0.48775000  0.00551000  1.0
  N  N21  1  0.14120000  0.80214000  0.06320000  1.0
  N  N22  1  0.80214000  0.05665000  0.39649000  1.0
  N  N23  1  0.05663000  0.14123000  0.72980000  1.0
  N  N24  1  0.85881000  0.94331000  0.60349000  1.0
  N  N25  1  0.19788000  0.85879000  0.27019000  1.0
  N  N26  1  0.94330000  0.19787000  0.93678000  1.0
  N  N27  1  0.07983000  0.92016000  0.16671000  1.0
  N  N28  1  0.92018000  0.99997000  0.49999000  1.0
  N  N29  1  0.99993000  0.07986000  0.83328000  1.0
  O  O30  1  0.75481000  0.99999000  0.00001000  1.0
  O  O31  1  0.99997000  0.24523000  0.33333333  1.0
  O  O32  1  0.24522000  0.75477000  0.66666667  1.0
  O  O33  1  0.55055000  0.37692000  0.01219000  1.0
  O  O34  1  0.37689000  0.07257000  0.34550000  1.0
  O  O35  1  0.07261000  0.55051000  0.67883000  1.0
  O  O36  1  0.44946000  0.92744000  0.65450000  1.0
  O  O37  1  0.62312000  0.44950000  0.32118000  1.0
  O  O38  1  0.92747000  0.62308000  0.98782000  1.0
  O  O39  1  0.29892000  0.53358000  0.88678000  1.0
  O  O40  1  0.53353000  0.16753000  0.22007000  1.0
  O  O41  1  0.16755000  0.29892000  0.55342000  1.0
  O  O42  1  0.70105000  0.83250000  0.77993000  1.0
  O  O43  1  0.46646000  0.70107000  0.44659000  1.0
  O  O44  1  0.83253000  0.46641000  0.11322000  1.0
