# generated using pymatgen
data_Ag2Mo4H12C16N4O13
_symmetry_space_group_name_H-M   'P 1'
_cell_length_a   8.22020000
_cell_length_b   12.26770000
_cell_length_c   12.74040000
_cell_angle_alpha   112.33400000
_cell_angle_beta   96.00660000
_cell_angle_gamma   102.09300000
_symmetry_Int_Tables_number   1
_chemical_formula_structural   Ag2Mo4H12C16N4O13
_chemical_formula_sum   'Ag4 Mo8 H24 C32 N8 O26'
_cell_volume   1137.66092358
_cell_formula_units_Z   2
loop_
 _symmetry_equiv_pos_site_id
 _symmetry_equiv_pos_as_xyz
  1  'x, y, z'
loop_
 _atom_site_type_symbol
 _atom_site_label
 _atom_site_symmetry_multiplicity
 _atom_site_fract_x
 _atom_site_fract_y
 _atom_site_fract_z
 _atom_site_occupancy
  Ag  Ag0  1  0.27991000  0.07870000  0.53046000  1.0
  Ag  Ag1  1  0.72009000  0.92130000  0.46954000  1.0
  Ag  Ag2  1  0.15526000  0.48818000  0.07089000  1.0
  Ag  Ag3  1  0.84474000  0.51182000  0.92911000  1.0
  Mo  Mo4  1  0.42434000  0.33065000  0.22971000  1.0
  Mo  Mo5  1  0.57566000  0.66935000  0.77029000  1.0
  Mo  Mo6  1  0.56178000  0.36315000  0.48451000  1.0
  Mo  Mo7  1  0.43822000  0.63685000  0.51549000  1.0
  Mo  Mo8  1  0.83010000  0.33268000  0.24031000  1.0
  Mo  Mo9  1  0.16990000  0.66731000  0.75969000  1.0
  Mo  Mo10  1  0.16920000  0.37268000  0.48198000  1.0
  Mo  Mo11  1  0.83080000  0.62732000  0.51802000  1.0
  H  H12  1  0.00629000  0.24483000  0.02148000  1.0
  H  H13  1  0.99371000  0.75517000  0.97852000  1.0
  H  H14  1  0.86841000  0.02105000  0.94410000  1.0
  H  H15  1  0.13158000  0.97896000  0.05590000  1.0
  H  H16  1  0.91873000  0.87842000  0.75913000  1.0
  H  H17  1  0.08127000  0.12159000  0.24087000  1.0
  H  H18  1  0.10722000  0.95700000  0.64832000  1.0
  H  H19  1  0.89278000  0.04300000  0.35168000  1.0
  H  H20  1  0.41520000  0.34563000  0.70333000  1.0
  H  H21  1  0.58480000  0.65437000  0.29667000  1.0
  H  H22  1  0.35969000  0.48893000  0.88541000  1.0
  H  H23  1  0.64031000  0.51107000  0.11459000  1.0
  H  H24  1  0.45729000  0.08487000  0.35226000  1.0
  H  H25  1  0.54271000  0.91513000  0.64774000  1.0
  H  H26  1  0.57909000  0.05813000  0.17574000  1.0
  H  H27  1  0.42090000  0.94187000  0.82426000  1.0
  H  H28  1  0.51758000  0.85234000  0.01400000  1.0
  H  H29  1  0.48242000  0.14766000  0.98600000  1.0
  H  H30  1  0.33220000  0.67065000  0.02647000  1.0
  H  H31  1  0.66779000  0.32935000  0.97353000  1.0
  H  H32  1  0.05585000  0.60945000  0.30600000  1.0
  H  H33  1  0.94416000  0.39055000  0.69400000  1.0
  H  H34  1  0.11159000  0.81629000  0.46689000  1.0
  H  H35  1  0.88842000  0.18371000  0.53311000  1.0
  C  C36  1  0.13278000  0.22826000  0.87776000  1.0
  C  C37  1  0.86722000  0.77174000  0.12224000  1.0
  C  C38  1  0.02687000  0.18138000  0.93994000  1.0
  C  C39  1  0.97313000  0.81863000  0.06006000  1.0
  C  C40  1  0.95163000  0.05734000  0.89713000  1.0
  C  C41  1  0.04837000  0.94267000  0.10287000  1.0
  C  C42  1  0.98003000  0.97595000  0.79152000  1.0
  C  C43  1  0.01997000  0.02405000  0.20848000  1.0
  C  C44  1  0.08382000  0.01903000  0.72951000  1.0
  C  C45  1  0.91618000  0.98097000  0.27049000  1.0
  C  C46  1  0.16225000  0.14563000  0.77058000  1.0
  C  C47  1  0.83775000  0.85437000  0.22942000  1.0
  C  C48  1  0.33443000  0.30981000  0.75187000  1.0
  C  C49  1  0.66557000  0.69019000  0.24813000  1.0
  C  C50  1  0.30447000  0.39089000  0.85619000  1.0
  C  C51  1  0.69553000  0.60911000  0.14381000  1.0
  C  C52  1  0.32811000  0.89310000  0.29019000  1.0
  C  C53  1  0.67189000  0.10690000  0.70981000  1.0
  C  C54  1  0.43147000  0.99504000  0.28077000  1.0
  C  C55  1  0.56853000  0.00496000  0.71923000  1.0
  C  C56  1  0.49813000  0.97967000  0.18271000  1.0
  C  C57  1  0.50187000  0.02033000  0.81728000  1.0
  C  C58  1  0.46369000  0.86248000  0.09062000  1.0
  C  C59  1  0.53631000  0.13752000  0.90938000  1.0
  C  C60  1  0.36286000  0.76145000  0.09763000  1.0
  C  C61  1  0.63714000  0.23855000  0.90237000  1.0
  C  C62  1  0.29356000  0.77408000  0.19701000  1.0
  C  C63  1  0.70644000  0.22592000  0.80299000  1.0
  C  C64  1  0.13231000  0.68970000  0.29938000  1.0
  C  C65  1  0.86770000  0.31030000  0.70062000  1.0
  C  C66  1  0.16592000  0.80669000  0.39069000  1.0
  C  C67  1  0.83408000  0.19331000  0.60931000  1.0
  N  N68  1  0.26280000  0.19018000  0.70875000  1.0
  N  N69  1  0.73721000  0.80982000  0.29125000  1.0
  N  N70  1  0.20372000  0.35174000  0.91689000  1.0
  N  N71  1  0.79628000  0.64826000  0.08311000  1.0
  N  N72  1  0.19362000  0.67387000  0.20416000  1.0
  N  N73  1  0.80638000  0.32613000  0.79584000  1.0
  N  N74  1  0.25911000  0.90669000  0.38637000  1.0
  N  N75  1  0.74089000  0.09331000  0.61363000  1.0
  O  O76  1  0.33299000  0.31760000  0.36117000  1.0
  O  O77  1  0.66701000  0.68240000  0.63883000  1.0
  O  O78  1  0.33649000  0.43688000  0.20466000  1.0
  O  O79  1  0.66350000  0.56312000  0.79534000  1.0
  O  O80  1  0.14810000  0.23796000  0.50080000  1.0
  O  O81  1  0.85190000  0.76204000  0.49920000  1.0
  O  O82  1  0.76004000  0.46589000  0.56412000  1.0
  O  O83  1  0.23996000  0.53411000  0.43588000  1.0
  O  O84  1  0.88316000  0.52889000  0.39372000  1.0
  O  O85  1  0.11684000  0.47111000  0.60628000  1.0
  O  O86  1  0.78562000  0.18173000  0.14651000  1.0
  O  O87  1  0.21438000  0.81827000  0.85349000  1.0
  O  O88  1  0.96955000  0.40638000  0.18060000  1.0
  O  O89  1  0.03045000  0.59362000  0.81940000  1.0
  O  O90  1  0.53390000  0.24274000  0.52607000  1.0
  O  O91  1  0.46610000  0.75726000  0.47393000  1.0
  O  O92  1  0.63344000  0.37340000  0.18245000  1.0
  O  O93  1  0.36656000  0.62660000  0.81755000  1.0
  O  O94  1  0.98025000  0.32434000  0.36465000  1.0
  O  O95  1  0.01975000  0.67566000  0.63535000  1.0
  O  O96  1  0.41857000  0.45555000  0.56895000  1.0
  O  O97  1  0.58143000  0.54445000  0.43105000  1.0
  O  O98  1  0.32064000  0.19085000  0.12010000  1.0
  O  O99  1  0.67937000  0.80915000  0.87990000  1.0
  O  O100  1  0.62170000  0.30106000  0.33729000  1.0
  O  O101  1  0.37830000  0.69894000  0.66271000  1.0
