# generated using pymatgen
data_CoH13C19N5O4
_symmetry_space_group_name_H-M   'P 1'
_cell_length_a   7.72256000
_cell_length_b   10.08040000
_cell_length_c   12.55860000
_cell_angle_alpha   66.84650000
_cell_angle_beta   75.86930000
_cell_angle_gamma   86.74780000
_symmetry_Int_Tables_number   1
_chemical_formula_structural   CoH13C19N5O4
_chemical_formula_sum   'Co2 H26 C38 N10 O8'
_cell_volume   870.85352543
_cell_formula_units_Z   2
loop_
 _symmetry_equiv_pos_site_id
 _symmetry_equiv_pos_as_xyz
  1  'x, y, z'
loop_
 _atom_site_type_symbol
 _atom_site_label
 _atom_site_symmetry_multiplicity
 _atom_site_fract_x
 _atom_site_fract_y
 _atom_site_fract_z
 _atom_site_occupancy
  Co  Co0  1  0.82676000  0.93847000  0.28643000  1.0
  Co  Co1  1  0.17324000  0.06149000  0.71354000  1.0
  H  H2  1  0.02853000  0.63326000  0.06901000  1.0
  H  H3  1  0.97149000  0.36680000  0.93093000  1.0
  H  H4  1  0.87321000  0.87464000  0.91753000  1.0
  H  H5  1  0.12669000  0.12543000  0.08243000  1.0
  H  H6  1  0.44985000  0.00087000  0.26624000  1.0
  H  H7  1  0.55025000  0.99920000  0.73380000  1.0
  H  H8  1  0.09539000  0.73809000  0.59789000  1.0
  H  H9  1  0.90455000  0.26192000  0.40209000  1.0
  H  H10  1  0.67089000  0.72334000  0.53728000  1.0
  H  H11  1  0.32902000  0.27657000  0.46272000  1.0
  H  H12  1  0.22640000  0.52511000  0.00396000  1.0
  H  H13  1  0.77373000  0.47492000  0.99604000  1.0
  H  H14  1  0.40121000  0.31051000  0.01655000  1.0
  H  H15  1  0.59876000  0.68947000  0.98345000  1.0
  H  H16  1  0.55413000  0.27756000  0.82793000  1.0
  H  H17  1  0.44590000  0.72241000  0.17207000  1.0
  H  H18  1  0.53369000  0.46338000  0.63289000  1.0
  H  H19  1  0.46627000  0.53657000  0.36711000  1.0
  H  H20  1  0.02927000  0.61769000  0.41374000  1.0
  H  H21  1  0.97089000  0.38235000  0.58619000  1.0
  H  H22  1  0.13611000  0.47217000  0.26164000  1.0
  H  H23  1  0.86405000  0.52785000  0.73828000  1.0
  H  H24  1  0.68775000  0.09709000  0.86930000  1.0
  H  H25  1  0.31211000  0.90289000  0.13080000  1.0
  H  H26  1  0.62529000  0.16712000  0.07008000  1.0
  H  H27  1  0.37458000  0.83284000  0.93002000  1.0
  C  C28  1  0.42889000  0.91954000  0.35669000  1.0
  C  C29  1  0.57111000  0.08051000  0.64334000  1.0
  C  C30  1  0.25412000  0.87712000  0.42573000  1.0
  C  C31  1  0.74586000  0.12296000  0.57428000  1.0
  C  C32  1  0.22975000  0.77312000  0.54192000  1.0
  C  C33  1  0.77021000  0.22693000  0.45808000  1.0
  C  C34  1  0.38048000  0.71510000  0.58482000  1.0
  C  C35  1  0.61944000  0.28486000  0.41520000  1.0
  C  C36  1  0.54942000  0.76317000  0.50766000  1.0
  C  C37  1  0.45050000  0.23677000  0.49236000  1.0
  C  C38  1  0.10659000  0.93908000  0.36422000  1.0
  C  C39  1  0.89341000  0.06102000  0.63575000  1.0
  C  C40  1  0.37382000  0.60434000  0.70592000  1.0
  C  C41  1  0.62613000  0.39561000  0.29410000  1.0
  C  C42  1  0.28339000  0.62037000  0.81231000  1.0
  C  C43  1  0.71662000  0.37962000  0.18771000  1.0
  C  C44  1  0.29574000  0.51282000  0.92217000  1.0
  C  C45  1  0.70429000  0.48716000  0.07784000  1.0
  C  C46  1  0.39508000  0.39146000  0.92933000  1.0
  C  C47  1  0.60493000  0.60851000  0.07067000  1.0
  C  C48  1  0.48015000  0.37360000  0.82464000  1.0
  C  C49  1  0.51987000  0.62638000  0.17535000  1.0
  C  C50  1  0.46872000  0.47881000  0.71449000  1.0
  C  C51  1  0.53125000  0.52114000  0.28551000  1.0
  C  C52  1  0.17854000  0.75043000  0.81506000  1.0
  C  C53  1  0.82153000  0.24958000  0.18495000  1.0
  C  C54  1  0.00871000  0.64246000  0.32573000  1.0
  C  C55  1  0.99140000  0.35756000  0.67421000  1.0
  C  C56  1  0.06239000  0.56936000  0.25102000  1.0
  C  C57  1  0.93773000  0.43064000  0.74894000  1.0
  C  C58  1  0.92081000  0.76136000  0.16260000  1.0
  C  C59  1  0.07921000  0.23860000  0.83737000  1.0
  C  C60  1  0.83823000  0.87872000  0.08878000  1.0
  C  C61  1  0.16176000  0.12125000  0.91120000  1.0
  C  C62  1  0.72061000  0.04412000  0.95464000  1.0
  C  C63  1  0.27920000  0.95585000  0.04546000  1.0
  C  C64  1  0.69209000  0.07698000  0.05427000  1.0
  C  C65  1  0.30780000  0.92298000  0.94583000  1.0
  N  N66  1  0.57404000  0.86331000  0.39572000  1.0
  N  N67  1  0.42593000  0.13665000  0.60432000  1.0
  N  N68  1  0.92004000  0.76272000  0.26962000  1.0
  N  N69  1  0.08000000  0.23726000  0.73034000  1.0
  N  N70  1  0.00500000  0.64608000  0.14885000  1.0
  N  N71  1  0.99507000  0.35390000  0.85112000  1.0
  N  N72  1  0.76784000  0.97349000  0.13767000  1.0
  N  N73  1  0.23217000  0.02646000  0.86235000  1.0
  N  N74  1  0.81259000  0.91939000  0.97802000  1.0
  N  N75  1  0.18729000  0.08060000  0.02198000  1.0
  O  O76  1  0.14835000  0.02815000  0.25744000  1.0
  O  O77  1  0.85172000  0.97198000  0.74255000  1.0
  O  O78  1  0.94413000  0.88998000  0.41917000  1.0
  O  O79  1  0.05585000  0.11008000  0.58076000  1.0
  O  O80  1  0.23890000  0.86976000  0.72707000  1.0
  O  O81  1  0.76114000  0.13021000  0.27290000  1.0
  O  O82  1  0.04765000  0.73322000  0.90313000  1.0
  O  O83  1  0.95245000  0.26684000  0.09689000  1.0
