# generated using pymatgen
data_Zn3H16C50(I2O3)4
_symmetry_space_group_name_H-M   'P 1'
_cell_length_a   21.94339153
_cell_length_b   21.94400000
_cell_length_c   21.94590000
_cell_angle_alpha   61.10400000
_cell_angle_beta   88.07154909
_cell_angle_gamma   118.89051719
_symmetry_Int_Tables_number   1
_chemical_formula_structural   Zn3H16C50(I2O3)4
_chemical_formula_sum   'Zn6 H32 C100 I16 O24'
_cell_volume   7592.67262559
_cell_formula_units_Z   2
loop_
 _symmetry_equiv_pos_site_id
 _symmetry_equiv_pos_as_xyz
  1  'x, y, z'
loop_
 _atom_site_type_symbol
 _atom_site_label
 _atom_site_symmetry_multiplicity
 _atom_site_fract_x
 _atom_site_fract_y
 _atom_site_fract_z
 _atom_site_occupancy
  Zn  Zn0  1  0.94279000  0.44278000  0.50000000  1.0
  Zn  Zn1  1  0.04156000  0.99999000  0.95844000  1.0
  Zn  Zn2  1  0.95843000  0.99999000  0.04156000  1.0
  Zn  Zn3  1  0.49999000  0.44278000  0.05721000  1.0
  Zn  Zn4  1  0.05721000  0.55721000  0.50001000  1.0
  Zn  Zn5  1  0.50000000  0.55722000  0.94279000  1.0
  H  H6  1  0.18458000  0.50487000  0.10013000  1.0
  H  H7  1  0.67950000  0.28471000  0.81519000  1.0
  H  H8  1  0.39503000  0.49517000  0.32029000  1.0
  H  H9  1  0.90010000  0.71530000  0.60518000  1.0
  H  H10  1  0.60498000  0.28469000  0.89987000  1.0
  H  H11  1  0.09991000  0.49473000  0.18479000  1.0
  H  H12  1  0.81547000  0.71532000  0.67973000  1.0
  H  H13  1  0.32048000  0.50531000  0.39479000  1.0
  H  H14  1  0.21670000  0.27222000  0.66242000  1.0
  H  H15  1  0.94451000  0.87824000  0.78379000  1.0
  H  H16  1  0.06555000  0.72781000  0.05556000  1.0
  H  H17  1  0.33796000  0.12168000  0.93384000  1.0
  H  H18  1  0.93451000  0.87900000  0.33762000  1.0
  H  H19  1  0.66201000  0.72832000  0.21618000  1.0
  H  H20  1  0.78328000  0.12093000  0.94445000  1.0
  H  H21  1  0.05549000  0.27180000  0.06615000  1.0
  H  H22  1  0.83368000  0.27525000  0.86288000  1.0
  H  H23  1  0.55830000  0.69730000  0.16552000  1.0
  H  H24  1  0.86179000  0.72468000  0.44152000  1.0
  H  H25  1  0.13717000  0.30282000  0.13884000  1.0
  H  H26  1  0.13827000  0.69667000  0.13716000  1.0
  H  H27  1  0.86283000  0.72387000  0.83445000  1.0
  H  H28  1  0.16630000  0.30338000  0.55851000  1.0
  H  H29  1  0.44170000  0.27606000  0.86113000  1.0
  H  H30  1  0.13515000  0.20590000  0.78762000  1.0
  H  H31  1  0.92931000  0.92230000  0.86497000  1.0
  H  H32  1  0.00662000  0.79412000  0.07074000  1.0
  H  H33  1  0.21272000  0.07767000  0.99303000  1.0
  H  H34  1  0.99343000  0.92270000  0.21241000  1.0
  H  H35  1  0.78725000  0.79428000  0.13503000  1.0
  H  H36  1  0.86482000  0.07725000  0.92924000  1.0
  H  H37  1  0.07070000  0.20577000  0.00694000  1.0
  C  C38  1  0.00001000  0.37931000  0.62070000  1.0
  C  C39  1  0.89674000  0.83459000  0.83497000  1.0
  C  C40  1  0.41635000  0.49999000  0.08369000  1.0
  C  C41  1  0.08362000  0.49997000  0.41633000  1.0
  C  C42  1  0.58369000  0.50002000  0.91634000  1.0
  C  C43  1  0.91632000  0.49999000  0.58364000  1.0
  C  C44  1  0.37749000  0.49156000  0.19917000  1.0
  C  C45  1  0.88601000  0.57661000  0.62260000  1.0
  C  C46  1  0.30932000  0.50847000  0.11409000  1.0
  C  C47  1  0.80074000  0.42341000  0.69055000  1.0
  C  C48  1  0.69074000  0.57665000  0.80085000  1.0
  C  C49  1  0.06152000  0.73125000  0.10333000  1.0
  C  C50  1  0.19922000  0.50867000  0.37734000  1.0
  C  C51  1  0.62256000  0.42339000  0.88594000  1.0
  C  C52  1  0.11397000  0.49134000  0.30941000  1.0
  C  C53  1  0.33042000  0.16534000  0.93794000  1.0
  C  C54  1  0.36698000  0.50001000  0.13306000  1.0
  C  C55  1  0.86694000  0.50000000  0.63300000  1.0
  C  C56  1  0.63308000  0.50002000  0.86698000  1.0
  C  C57  1  0.13300000  0.49998000  0.36696000  1.0
  C  C58  1  0.25967000  0.50366000  0.16188000  1.0
  C  C59  1  0.93853000  0.83525000  0.33017000  1.0
  C  C60  1  0.75591000  0.42155000  0.74021000  1.0
  C  C61  1  0.33448000  0.49636000  0.24400000  1.0
  C  C62  1  0.83822000  0.57846000  0.66560000  1.0
  C  C63  1  0.66555000  0.42155000  0.83812000  1.0
  C  C64  1  0.16177000  0.49616000  0.25976000  1.0
  C  C65  1  0.74037000  0.57848000  0.75601000  1.0
  C  C66  1  0.24407000  0.50386000  0.33437000  1.0
  C  C67  1  0.66955000  0.73172000  0.16500000  1.0
  C  C68  1  0.27356000  0.50001000  0.22645000  1.0
  C  C69  1  0.77356000  0.50000000  0.72643000  1.0
  C  C70  1  0.72646000  0.50001000  0.77355000  1.0
  C  C71  1  0.22643000  0.50001000  0.27356000  1.0
  C  C72  1  0.83451000  0.16470000  0.89670000  1.0
  C  C73  1  0.19588000  0.50245000  0.14890000  1.0
  C  C74  1  0.69327000  0.34478000  0.80393000  1.0
  C  C75  1  0.34867000  0.49758000  0.30657000  1.0
  C  C76  1  0.85128000  0.65523000  0.65149000  1.0
  C  C77  1  0.65134000  0.34478000  0.85109000  1.0
  C  C78  1  0.14873000  0.49724000  0.19605000  1.0
  C  C79  1  0.80415000  0.65524000  0.69344000  1.0
  C  C80  1  0.10326000  0.26837000  0.06204000  1.0
  C  C81  1  0.30672000  0.50279000  0.34849000  1.0
  C  C82  1  0.07846000  0.29388000  0.61647000  1.0
  C  C83  1  0.16547000  0.26875000  0.66987000  1.0
  C  C84  1  0.78447000  0.69434000  0.92203000  1.0
  C  C85  1  0.08975000  0.70616000  0.21547000  1.0
  C  C86  1  0.38364000  0.30562000  0.90992000  1.0
  C  C87  1  0.91029000  0.69486000  0.38354000  1.0
  C  C88  1  0.61636000  0.70651000  0.07795000  1.0
  C  C89  1  0.92152000  0.30510000  0.78456000  1.0
  C  C90  1  0.21552000  0.29356000  0.09006000  1.0
  C  C91  1  0.13974000  0.29161000  0.60942000  1.0
  C  C92  1  0.84807000  0.74838000  0.86085000  1.0
  C  C93  1  0.09910000  0.70842000  0.15194000  1.0
  C  C94  1  0.39077000  0.25155000  0.90040000  1.0
  C  C95  1  0.90095000  0.74906000  0.39060000  1.0
  C  C96  1  0.60922000  0.70893000  0.13912000  1.0
  C  C97  1  0.86024000  0.25088000  0.84810000  1.0
  C  C98  1  0.15193000  0.29117000  0.09958000  1.0
  C  C99  1  0.62066000  0.62067000  0.99999000  1.0
  C  C100  1  0.12109000  0.23349000  0.73888000  1.0
  C  C101  1  0.88764000  0.85942000  0.87918000  1.0
  C  C102  1  0.02776000  0.76652000  0.11241000  1.0
  C  C103  1  0.26139000  0.14054000  0.97184000  1.0
  C  C104  1  0.97230000  0.85990000  0.26115000  1.0
  C  C105  1  0.00001000  0.62071000  0.37931000  1.0
  C  C106  1  0.73859000  0.76682000  0.12080000  1.0
  C  C107  1  0.87888000  0.14006000  0.88759000  1.0
  C  C108  1  0.11237000  0.23324000  0.02814000  1.0
  C  C109  1  0.37933000  0.37934000  1.00000000  1.0
  C  C110  1  0.05524000  0.23158000  0.74778000  1.0
  C  C111  1  0.82365000  0.80267000  0.94496000  1.0
  C  C112  1  0.02072000  0.76844000  0.17634000  1.0
  C  C113  1  0.25236000  0.19729000  0.97905000  1.0
  C  C114  1  0.97933000  0.80299000  0.25223000  1.0
  C  C115  1  0.74763000  0.76860000  0.05504000  1.0
  C  C116  1  0.94474000  0.19700000  0.82366000  1.0
  C  C117  1  0.17634000  0.23143000  0.02093000  1.0
  C  C118  1  0.04276000  0.28041000  0.68241000  1.0
  C  C119  1  0.76230000  0.72483000  0.95748000  1.0
  C  C120  1  0.03726000  0.71962000  0.23766000  1.0
  C  C121  1  0.31769000  0.27516000  0.96254000  1.0
  C  C122  1  0.96279000  0.72513000  0.31760000  1.0
  C  C123  1  0.68231000  0.71979000  0.04251000  1.0
  C  C124  1  0.95722000  0.27485000  0.76235000  1.0
  C  C125  1  0.23769000  0.28024000  0.03744000  1.0
  C  C126  1  0.99998000  0.18253000  0.81748000  1.0
  C  C127  1  0.81741000  0.81740000  0.00000000  1.0
  C  C128  1  0.00002000  0.81746000  0.18253000  1.0
  C  C129  1  0.18259000  0.18260000  0.99999000  1.0
  C  C130  1  0.00000000  0.31034000  0.68968000  1.0
  C  C131  1  0.68963000  0.68964000  0.99999000  1.0
  C  C132  1  0.00002000  0.68967000  0.31034000  1.0
  C  C133  1  0.31037000  0.31038000  0.99999000  1.0
  C  C134  1  0.88429000  0.88429000  0.99999000  1.0
  C  C135  1  0.00001000  0.88432000  0.11567000  1.0
  C  C136  1  0.11571000  0.11572000  0.99999000  1.0
  C  C137  1  0.99999000  0.11567000  0.88433000  1.0
  I  I138  1  0.46091000  0.47564000  0.23353000  1.0
  I  I139  1  0.98544000  0.69440000  0.53934000  1.0
  I  I140  1  0.29088000  0.52441000  0.01475000  1.0
  I  I141  1  0.76620000  0.30562000  0.70888000  1.0
  I  I142  1  0.70918000  0.69442000  0.76650000  1.0
  I  I143  1  0.23377000  0.52489000  0.46058000  1.0
  I  I144  1  0.53914000  0.30561000  0.98527000  1.0
  I  I145  1  0.01452000  0.47516000  0.29106000  1.0
  I  I146  1  0.02581000  0.28800000  0.53939000  1.0
  I  I147  1  0.73757000  0.56452000  0.97494000  1.0
  I  I148  1  0.17271000  0.71210000  0.26226000  1.0
  I  I149  1  0.46056000  0.43542000  0.82702000  1.0
  I  I150  1  0.82733000  0.56511000  0.46060000  1.0
  I  I151  1  0.53946000  0.71252000  0.02504000  1.0
  I  I152  1  0.97418000  0.43484000  0.73780000  1.0
  I  I153  1  0.26242000  0.28757000  0.17296000  1.0
  O  O154  1  0.94242000  0.35611000  0.60242000  1.0
  O  O155  1  0.58627000  0.54479000  0.05758000  1.0
  O  O156  1  0.04149000  0.64391000  0.41370000  1.0
  O  O157  1  0.39761000  0.45522000  0.95851000  1.0
  O  O158  1  0.95853000  0.54484000  0.39758000  1.0
  O  O159  1  0.60239000  0.64389000  0.94239000  1.0
  O  O160  1  0.05761000  0.45518000  0.58630000  1.0
  O  O161  1  0.41371000  0.35613000  0.04149000  1.0
  O  O162  1  0.01412000  0.44344000  0.44173000  1.0
  O  O163  1  0.57069000  0.45590000  0.98584000  1.0
  O  O164  1  0.11475000  0.55649000  0.42932000  1.0
  O  O165  1  0.55829000  0.54412000  0.88519000  1.0
  O  O166  1  0.88521000  0.45589000  0.55825000  1.0
  O  O167  1  0.44174000  0.55651000  0.01419000  1.0
  O  O168  1  0.98583000  0.54411000  0.57068000  1.0
  O  O169  1  0.42931000  0.44345000  0.11484000  1.0
  O  O170  1  0.87538000  0.92583000  0.02074000  1.0
  O  O171  1  0.94956000  0.89615000  0.12458000  1.0
  O  O172  1  0.05342000  0.07416000  0.05044000  1.0
  O  O173  1  0.97924000  0.10383000  0.94661000  1.0
  O  O174  1  0.94657000  0.89612000  0.97926000  1.0
  O  O175  1  0.02073000  0.07413000  0.87543000  1.0
  O  O176  1  0.12461000  0.10388000  0.94955000  1.0
  O  O177  1  0.05044000  0.92585000  0.05339000  1.0
