# generated using pymatgen
data_CuH16C13(NO2)2
_symmetry_space_group_name_H-M   'P 1'
_cell_length_a   8.66507000
_cell_length_b   12.93640000
_cell_length_c   13.56540000
_cell_angle_alpha   90.00040000
_cell_angle_beta   90.00040000
_cell_angle_gamma   87.80860000
_symmetry_Int_Tables_number   1
_chemical_formula_structural   CuH16C13(NO2)2
_chemical_formula_sum   'Cu4 H64 C52 N8 O16'
_cell_volume   1519.49888368
_cell_formula_units_Z   4
loop_
 _symmetry_equiv_pos_site_id
 _symmetry_equiv_pos_as_xyz
  1  'x, y, z'
loop_
 _atom_site_type_symbol
 _atom_site_label
 _atom_site_symmetry_multiplicity
 _atom_site_fract_x
 _atom_site_fract_y
 _atom_site_fract_z
 _atom_site_occupancy
  Cu  Cu0  1  0.95115000  0.58593000  0.95913000  1.0
  Cu  Cu1  1  0.54885000  0.41408000  0.45913000  1.0
  Cu  Cu2  1  0.04886000  0.41408000  0.04087000  1.0
  Cu  Cu3  1  0.45115000  0.58593000  0.54087000  1.0
  H  H4  1  0.77313000  0.61136000  0.77319000  1.0
  H  H5  1  0.72689000  0.38864000  0.27320000  1.0
  H  H6  1  0.22689000  0.38864000  0.22680000  1.0
  H  H7  1  0.27312000  0.61136000  0.72681000  1.0
  H  H8  1  0.72045000  0.73891000  0.63944000  1.0
  H  H9  1  0.77956000  0.26109000  0.13945000  1.0
  H  H10  1  0.27956000  0.26109000  0.36056000  1.0
  H  H11  1  0.22044000  0.73891000  0.86056000  1.0
  H  H12  1  0.92130000  0.97004000  0.82428000  1.0
  H  H13  1  0.57869000  0.02996000  0.32428000  1.0
  H  H14  1  0.07869000  0.02996000  0.17572000  1.0
  H  H15  1  0.42130000  0.97004000  0.67572000  1.0
  H  H16  1  0.96773000  0.83076000  0.95094000  1.0
  H  H17  1  0.53226000  0.16924000  0.45093000  1.0
  H  H18  1  0.03226000  0.16923000  0.04907000  1.0
  H  H19  1  0.46774000  0.83076000  0.54907000  1.0
  H  H20  1  0.69878000  0.91347000  0.58924000  1.0
  H  H21  1  0.80121000  0.08654000  0.08923000  1.0
  H  H22  1  0.30121000  0.08654000  0.41077000  1.0
  H  H23  1  0.19878000  0.91346000  0.91077000  1.0
  H  H24  1  0.72137000  0.01415000  0.67716000  1.0
  H  H25  1  0.77864000  0.98585000  0.17715000  1.0
  H  H26  1  0.27864000  0.98585000  0.32285000  1.0
  H  H27  1  0.22135000  0.01415000  0.82284000  1.0
  H  H28  1  0.80976000  0.12764000  0.55982000  1.0
  H  H29  1  0.69024000  0.87236000  0.05982000  1.0
  H  H30  1  0.19024000  0.87235000  0.44018000  1.0
  H  H31  1  0.30976000  0.12764000  0.94018000  1.0
  H  H32  1  0.78199000  0.03109000  0.46810000  1.0
  H  H33  1  0.71800000  0.96890000  0.96809000  1.0
  H  H34  1  0.21800000  0.96890000  0.53190000  1.0
  H  H35  1  0.28199000  0.03110000  0.03190000  1.0
  H  H36  1  0.91662000  0.86088000  0.48680000  1.0
  H  H37  1  0.58338000  0.13912000  0.98681000  1.0
  H  H38  1  0.08337000  0.13912000  0.51319000  1.0
  H  H39  1  0.41662000  0.86088000  0.01319000  1.0
  H  H40  1  0.03968000  0.83943000  0.59109000  1.0
  H  H41  1  0.46031000  0.16056000  0.09109000  1.0
  H  H42  1  0.96031000  0.16056000  0.40891000  1.0
  H  H43  1  0.53967000  0.83943000  0.90891000  1.0
  H  H44  1  0.40453000  0.70893000  0.04314000  1.0
  H  H45  1  0.09547000  0.29108000  0.54314000  1.0
  H  H46  1  0.59548000  0.29108000  0.95686000  1.0
  H  H47  1  0.90453000  0.70893000  0.45686000  1.0
  H  H48  1  0.50284000  0.60054000  0.98972000  1.0
  H  H49  1  0.99715000  0.39946000  0.48972000  1.0
  H  H50  1  0.49715000  0.39946000  0.01028000  1.0
  H  H51  1  0.00284000  0.60054000  0.51028000  1.0
  H  H52  1  0.59729000  0.62618000  0.15755000  1.0
  H  H53  1  0.90271000  0.37383000  0.65755000  1.0
  H  H54  1  0.40272000  0.37382000  0.84244000  1.0
  H  H55  1  0.09729000  0.62618000  0.34246000  1.0
  H  H56  1  0.50421000  0.50707000  0.15052000  1.0
  H  H57  1  0.99579000  0.49294000  0.65052000  1.0
  H  H58  1  0.49580000  0.49293000  0.84947000  1.0
  H  H59  1  0.00421000  0.50706000  0.34948000  1.0
  H  H60  1  0.36068000  0.70866000  0.23734000  1.0
  H  H61  1  0.13932000  0.29135000  0.73733000  1.0
  H  H62  1  0.63934000  0.29134000  0.76266000  1.0
  H  H63  1  0.86068000  0.70866000  0.26266000  1.0
  H  H64  1  0.26002000  0.59404000  0.21686000  1.0
  H  H65  1  0.23997000  0.40597000  0.71686000  1.0
  H  H66  1  0.73999000  0.40596000  0.78314000  1.0
  H  H67  1  0.76003000  0.59403000  0.28314000  1.0
  C  C68  1  0.80431000  0.69165000  0.78179000  1.0
  C  C69  1  0.69570000  0.30835000  0.28180000  1.0
  C  C70  1  0.19569000  0.30835000  0.21821000  1.0
  C  C71  1  0.30431000  0.69164000  0.71821000  1.0
  C  C72  1  0.77471000  0.76370000  0.70746000  1.0
  C  C73  1  0.72530000  0.23629000  0.20747000  1.0
  C  C74  1  0.22529000  0.23629000  0.29254000  1.0
  C  C75  1  0.27470000  0.76370000  0.79254000  1.0
  C  C76  1  0.81605000  0.86614000  0.72096000  1.0
  C  C77  1  0.68395000  0.13385000  0.22096000  1.0
  C  C78  1  0.18395000  0.13385000  0.27904000  1.0
  C  C79  1  0.31604000  0.86614000  0.77904000  1.0
  C  C80  1  0.88700000  0.89121000  0.80997000  1.0
  C  C81  1  0.61300000  0.10879000  0.30997000  1.0
  C  C82  1  0.11300000  0.10879000  0.19003000  1.0
  C  C83  1  0.38699000  0.89120000  0.69003000  1.0
  C  C84  1  0.91281000  0.81424000  0.88050000  1.0
  C  C85  1  0.58719000  0.18576000  0.38050000  1.0
  C  C86  1  0.08719000  0.18576000  0.11951000  1.0
  C  C87  1  0.41281000  0.81424000  0.61951000  1.0
  C  C88  1  0.78083000  0.94641000  0.64283000  1.0
  C  C89  1  0.71917000  0.05358000  0.14283000  1.0
  C  C90  1  0.21917000  0.05359000  0.35717000  1.0
  C  C91  1  0.28082000  0.94642000  0.85717000  1.0
  C  C92  1  0.86735000  0.06256000  0.52033000  1.0
  C  C93  1  0.63265000  0.93744000  0.02033000  1.0
  C  C94  1  0.13266000  0.93744000  0.47967000  1.0
  C  C95  1  0.36734000  0.06256000  0.97967000  1.0
  C  C96  1  0.99744000  0.89836000  0.53826000  1.0
  C  C97  1  0.50256000  0.10163000  0.03826000  1.0
  C  C98  1  0.00256000  0.10163000  0.46174000  1.0
  C  C99  1  0.49743000  0.89837000  0.96174000  1.0
  C  C100  1  0.26586000  0.57777000  0.02509000  1.0
  C  C101  1  0.23413000  0.42223000  0.52509000  1.0
  C  C102  1  0.73414000  0.42224000  0.97491000  1.0
  C  C103  1  0.76586000  0.57777000  0.47491000  1.0
  C  C104  1  0.42011000  0.62454000  0.04783000  1.0
  C  C105  1  0.07990000  0.37546000  0.54782000  1.0
  C  C106  1  0.57990000  0.37546000  0.95217000  1.0
  C  C107  1  0.92010000  0.62454000  0.45217000  1.0
  C  C108  1  0.48456000  0.59136000  0.14830000  1.0
  C  C109  1  0.01545000  0.40865000  0.64830000  1.0
  C  C110  1  0.51545000  0.40864000  0.85169000  1.0
  C  C111  1  0.98456000  0.59135000  0.35170000  1.0
  C  C112  1  0.37511000  0.62410000  0.23207000  1.0
  C  C113  1  0.12489000  0.37590000  0.73206000  1.0
  C  C114  1  0.62490000  0.37590000  0.76793000  1.0
  C  C115  1  0.87512000  0.62410000  0.26793000  1.0
  C  C116  1  0.42037000  0.58160000  0.33295000  1.0
  C  C117  1  0.07963000  0.41841000  0.83295000  1.0
  C  C118  1  0.57963000  0.41841000  0.66705000  1.0
  C  C119  1  0.92038000  0.58159000  0.16704000  1.0
  N  N120  1  0.87263000  0.71592000  0.86729000  1.0
  N  N121  1  0.62737000  0.28408000  0.36729000  1.0
  N  N122  1  0.12737000  0.28408000  0.13271000  1.0
  N  N123  1  0.37264000  0.71591000  0.63272000  1.0
  N  N124  1  0.91710000  0.98286000  0.59144000  1.0
  N  N125  1  0.58290000  0.01713000  0.09144000  1.0
  N  N126  1  0.08290000  0.01713000  0.40856000  1.0
  N  N127  1  0.41709000  0.98286000  0.90856000  1.0
  O  O128  1  0.16335000  0.63621000  0.98351000  1.0
  O  O129  1  0.33664000  0.36380000  0.48350000  1.0
  O  O130  1  0.83665000  0.36380000  0.01650000  1.0
  O  O131  1  0.66335000  0.63621000  0.51649000  1.0
  O  O132  1  0.25027000  0.48400000  0.05068000  1.0
  O  O133  1  0.24974000  0.51600000  0.55069000  1.0
  O  O134  1  0.74974000  0.51600000  0.94931000  1.0
  O  O135  1  0.75026000  0.48401000  0.44932000  1.0
  O  O136  1  0.39426000  0.64073000  0.40675000  1.0
  O  O137  1  0.10573000  0.35927000  0.90675000  1.0
  O  O138  1  0.60573000  0.35927000  0.59325000  1.0
  O  O139  1  0.89426000  0.64073000  0.09325000  1.0
  O  O140  1  0.47706000  0.48935000  0.33561000  1.0
  O  O141  1  0.02294000  0.51066000  0.83561000  1.0
  O  O142  1  0.52295000  0.51065000  0.66439000  1.0
  O  O143  1  0.97708000  0.48935000  0.16439000  1.0
