# generated using pymatgen
data_MnH28C28S2(N3O)2
_symmetry_space_group_name_H-M   'P 1'
_cell_length_a   7.16002000
_cell_length_b   12.06550000
_cell_length_c   17.09940000
_cell_angle_alpha   90.00100000
_cell_angle_beta   90.00040000
_cell_angle_gamma   87.47050000
_symmetry_Int_Tables_number   1
_chemical_formula_structural   MnH28C28S2(N3O)2
_chemical_formula_sum   'Mn2 H56 C56 S4 N12 O4'
_cell_volume   1475.76450861
_cell_formula_units_Z   2
loop_
 _symmetry_equiv_pos_site_id
 _symmetry_equiv_pos_as_xyz
  1  'x, y, z'
loop_
 _atom_site_type_symbol
 _atom_site_label
 _atom_site_symmetry_multiplicity
 _atom_site_fract_x
 _atom_site_fract_y
 _atom_site_fract_z
 _atom_site_occupancy
  Mn  Mn0  1  0.99998000  0.00000000  0.00000000  1.0
  Mn  Mn1  1  0.00001000  0.50001000  0.50000000  1.0
  H  H2  1  0.86474000  0.91182000  0.85517000  1.0
  H  H3  1  0.86476000  0.41182000  0.64482000  1.0
  H  H4  1  0.13524000  0.08819000  0.14483000  1.0
  H  H5  1  0.13525000  0.58818000  0.35517000  1.0
  H  H6  1  0.54401000  0.29732000  0.86370000  1.0
  H  H7  1  0.54400000  0.79731000  0.63629000  1.0
  H  H8  1  0.45599000  0.70268000  0.13630000  1.0
  H  H9  1  0.45601000  0.20269000  0.36371000  1.0
  H  H10  1  0.71768000  0.11560000  0.88061000  1.0
  H  H11  1  0.71770000  0.61560000  0.61939000  1.0
  H  H12  1  0.28229000  0.88440000  0.11940000  1.0
  H  H13  1  0.28232000  0.38440000  0.38061000  1.0
  H  H14  1  0.68105000  0.36872000  0.10545000  1.0
  H  H15  1  0.68108000  0.86873000  0.39455000  1.0
  H  H16  1  0.31893000  0.63128000  0.89455000  1.0
  H  H17  1  0.31894000  0.13128000  0.60545000  1.0
  H  H18  1  0.84033000  0.18352000  0.11155000  1.0
  H  H19  1  0.84038000  0.68354000  0.38845000  1.0
  H  H20  1  0.15963000  0.81647000  0.88846000  1.0
  H  H21  1  0.15965000  0.31647000  0.61155000  1.0
  H  H22  1  0.43973000  0.47347000  0.91549000  1.0
  H  H23  1  0.43972000  0.97347000  0.58451000  1.0
  H  H24  1  0.56027000  0.52652000  0.08451000  1.0
  H  H25  1  0.56029000  0.02653000  0.41549000  1.0
  H  H26  1  0.60335000  0.82982000  0.87356000  1.0
  H  H27  1  0.60338000  0.32983000  0.62644000  1.0
  H  H28  1  0.39664000  0.17016000  0.12644000  1.0
  H  H29  1  0.39664000  0.67017000  0.37355000  1.0
  H  H30  1  0.64925000  0.81797000  0.97650000  1.0
  H  H31  1  0.64929000  0.31796000  0.52349000  1.0
  H  H32  1  0.35073000  0.18202000  0.02349000  1.0
  H  H33  1  0.35073000  0.68204000  0.47650000  1.0
  H  H34  1  0.55219000  0.94467000  0.93705000  1.0
  H  H35  1  0.55221000  0.44467000  0.56294000  1.0
  H  H36  1  0.44778000  0.05531000  0.06294000  1.0
  H  H37  1  0.44781000  0.55533000  0.43706000  1.0
  H  H38  1  0.06100000  0.76651000  0.75730000  1.0
  H  H39  1  0.06102000  0.26649000  0.74269000  1.0
  H  H40  1  0.93900000  0.23351000  0.24269000  1.0
  H  H41  1  0.93899000  0.73350000  0.25731000  1.0
  H  H42  1  0.82194000  0.10216000  0.62051000  1.0
  H  H43  1  0.82197000  0.60214000  0.87950000  1.0
  H  H44  1  0.17805000  0.89786000  0.37950000  1.0
  H  H45  1  0.17805000  0.39784000  0.12050000  1.0
  H  H46  1  0.75301000  0.06635000  0.75974000  1.0
  H  H47  1  0.75307000  0.56635000  0.74025000  1.0
  H  H48  1  0.24696000  0.93365000  0.24026000  1.0
  H  H49  1  0.24696000  0.43364000  0.25975000  1.0
  H  H50  1  0.13811000  0.78714000  0.61704000  1.0
  H  H51  1  0.13811000  0.28711000  0.88296000  1.0
  H  H52  1  0.86190000  0.21288000  0.38296000  1.0
  H  H53  1  0.86189000  0.71286000  0.11704000  1.0
  H  H54  1  0.11294000  0.88807000  0.49816000  1.0
  H  H55  1  0.11295000  0.38805000  0.00184000  1.0
  H  H56  1  0.88707000  0.11196000  0.50184000  1.0
  H  H57  1  0.88706000  0.61193000  0.99816000  1.0
  C  C58  1  0.50487000  0.45929000  0.97265000  1.0
  C  C59  1  0.50487000  0.95929000  0.52735000  1.0
  C  C60  1  0.49513000  0.54071000  0.02735000  1.0
  C  C61  1  0.49513000  0.04071000  0.47265000  1.0
  C  C62  1  0.70658000  0.17494000  0.92863000  1.0
  C  C63  1  0.70659000  0.67495000  0.57137000  1.0
  C  C64  1  0.29340000  0.82505000  0.07138000  1.0
  C  C65  1  0.29342000  0.32506000  0.42863000  1.0
  C  C66  1  0.68507000  0.31673000  0.05329000  1.0
  C  C67  1  0.68510000  0.81674000  0.44671000  1.0
  C  C68  1  0.31490000  0.68326000  0.94672000  1.0
  C  C69  1  0.31491000  0.18327000  0.55329000  1.0
  C  C70  1  0.59998000  0.35168000  0.98258000  1.0
  C  C71  1  0.59998000  0.85168000  0.51742000  1.0
  C  C72  1  0.40001000  0.64832000  0.01742000  1.0
  C  C73  1  0.40003000  0.14832000  0.48258000  1.0
  C  C74  1  0.61035000  0.27657000  0.91958000  1.0
  C  C75  1  0.61036000  0.77657000  0.58042000  1.0
  C  C76  1  0.38964000  0.72343000  0.08042000  1.0
  C  C77  1  0.38965000  0.22343000  0.41958000  1.0
  C  C78  1  0.76317000  0.92374000  0.15366000  1.0
  C  C79  1  0.76316000  0.42374000  0.34634000  1.0
  C  C80  1  0.23681000  0.07625000  0.84635000  1.0
  C  C81  1  0.23687000  0.57626000  0.65366000  1.0
  C  C82  1  0.77552000  0.21319000  0.05737000  1.0
  C  C83  1  0.77557000  0.71320000  0.44263000  1.0
  C  C84  1  0.22445000  0.78681000  0.94263000  1.0
  C  C85  1  0.22446000  0.28681000  0.55737000  1.0
  C  C86  1  0.65073000  0.87376000  0.92584000  1.0
  C  C87  1  0.65076000  0.37376000  0.57416000  1.0
  C  C88  1  0.34925000  0.12623000  0.07416000  1.0
  C  C89  1  0.34925000  0.62624000  0.42584000  1.0
  C  C90  1  0.02899000  0.95715000  0.52306000  1.0
  C  C91  1  0.02900000  0.45713000  0.97694000  1.0
  C  C92  1  0.97101000  0.04287000  0.47695000  1.0
  C  C93  1  0.97101000  0.54284000  0.02305000  1.0
  C  C94  1  0.00987000  0.84002000  0.72511000  1.0
  C  C95  1  0.00989000  0.34001000  0.77488000  1.0
  C  C96  1  0.99013000  0.15999000  0.27489000  1.0
  C  C97  1  0.99012000  0.65998000  0.22512000  1.0
  C  C98  1  0.98750000  0.94694000  0.60573000  1.0
  C  C99  1  0.98751000  0.44692000  0.89428000  1.0
  C  C100  1  0.01250000  0.05308000  0.39428000  1.0
  C  C101  1  0.01250000  0.55305000  0.10572000  1.0
  C  C102  1  0.87860000  0.02644000  0.64798000  1.0
  C  C103  1  0.87862000  0.52642000  0.85202000  1.0
  C  C104  1  0.12140000  0.97358000  0.35202000  1.0
  C  C105  1  0.12139000  0.47356000  0.14798000  1.0
  C  C106  1  0.84044000  0.00725000  0.72613000  1.0
  C  C107  1  0.84047000  0.50725000  0.77387000  1.0
  C  C108  1  0.15954000  0.99275000  0.27387000  1.0
  C  C109  1  0.15954000  0.49274000  0.22614000  1.0
  C  C110  1  0.05472000  0.85227000  0.64662000  1.0
  C  C111  1  0.05473000  0.35226000  0.85338000  1.0
  C  C112  1  0.94528000  0.14775000  0.35338000  1.0
  C  C113  1  0.94528000  0.64772000  0.14662000  1.0
  S  S114  1  0.64072000  0.90691000  0.23204000  1.0
  S  S115  1  0.64068000  0.40692000  0.26797000  1.0
  S  S116  1  0.35925000  0.09309000  0.76798000  1.0
  S  S117  1  0.35933000  0.59309000  0.73203000  1.0
  N  N118  1  0.85366000  0.93400000  0.09590000  1.0
  N  N119  1  0.85366000  0.43400000  0.40410000  1.0
  N  N120  1  0.14630000  0.06599000  0.90411000  1.0
  N  N121  1  0.14636000  0.56600000  0.59590000  1.0
  N  N122  1  0.78947000  0.14296000  0.99601000  1.0
  N  N123  1  0.78951000  0.64297000  0.50399000  1.0
  N  N124  1  0.21049000  0.85703000  0.00400000  1.0
  N  N125  1  0.21052000  0.35704000  0.49601000  1.0
  N  N126  1  0.90324000  0.91558000  0.76444000  1.0
  N  N127  1  0.90327000  0.41557000  0.73555000  1.0
  N  N128  1  0.09675000  0.08443000  0.23556000  1.0
  N  N129  1  0.09674000  0.58442000  0.26444000  1.0
  O  O130  1  0.83660000  0.90902000  0.91450000  1.0
  O  O131  1  0.83662000  0.40903000  0.58550000  1.0
  O  O132  1  0.16338000  0.09098000  0.08550000  1.0
  O  O133  1  0.16339000  0.59097000  0.41450000  1.0
