# generated using pymatgen
data_KHC8(N2O)2
_symmetry_space_group_name_H-M   'P 1'
_cell_length_a   4.17748000
_cell_length_b   9.40114000
_cell_length_c   21.59406385
_cell_angle_alpha   89.99976122
_cell_angle_beta   84.58617922
_cell_angle_gamma   89.99980000
_symmetry_Int_Tables_number   1
_chemical_formula_structural   KHC8(N2O)2
_chemical_formula_sum   'K4 H4 C32 N16 O8'
_cell_volume   844.28225469
_cell_formula_units_Z   4
loop_
 _symmetry_equiv_pos_site_id
 _symmetry_equiv_pos_as_xyz
  1  'x, y, z'
loop_
 _atom_site_type_symbol
 _atom_site_label
 _atom_site_symmetry_multiplicity
 _atom_site_fract_x
 _atom_site_fract_y
 _atom_site_fract_z
 _atom_site_occupancy
  K  K0  1  0.74558000  0.88574000  0.40313000  1.0
  K  K1  1  0.24558000  0.61426000  0.90313000  1.0
  K  K2  1  0.25442000  0.11426000  0.59687000  1.0
  K  K3  1  0.75442000  0.38574000  0.09687000  1.0
  H  H4  1  0.66052000  0.15066000  0.26909000  1.0
  H  H5  1  0.16052000  0.34934000  0.76909000  1.0
  H  H6  1  0.33948000  0.84934000  0.73091000  1.0
  H  H7  1  0.83948000  0.65066000  0.23091000  1.0
  C  C8  1  0.54421000  0.37634000  0.28065000  1.0
  C  C9  1  0.04421000  0.12366000  0.78065000  1.0
  C  C10  1  0.45580000  0.62367000  0.71935000  1.0
  C  C11  1  0.95580000  0.87633000  0.21935000  1.0
  C  C12  1  0.32599000  0.44379000  0.32878000  1.0
  C  C13  1  0.82599000  0.05621000  0.82878000  1.0
  C  C14  1  0.67402000  0.55622000  0.67122000  1.0
  C  C15  1  0.17401000  0.94378000  0.17122000  1.0
  C  C16  1  0.18905000  0.33924000  0.36915000  1.0
  C  C17  1  0.68905000  0.16076000  0.86915000  1.0
  C  C18  1  0.81095000  0.66077000  0.63085000  1.0
  C  C19  1  0.31095000  0.83923000  0.13085000  1.0
  C  C20  1  0.32895000  0.19908000  0.34570000  1.0
  C  C21  1  0.82896000  0.30092000  0.84570000  1.0
  C  C22  1  0.67104000  0.80092000  0.65430000  1.0
  C  C23  1  0.17104000  0.69908000  0.15430000  1.0
  C  C24  1  0.29075000  0.59122000  0.33299000  1.0
  C  C25  1  0.79075000  0.90878000  0.83299000  1.0
  C  C26  1  0.70925000  0.40878000  0.66701000  1.0
  C  C27  1  0.20925000  0.09122000  0.16701000  1.0
  C  C28  1  0.96768000  0.34958000  0.42158000  1.0
  C  C29  1  0.46767000  0.15043000  0.92159000  1.0
  C  C30  1  0.03232000  0.65043000  0.57842000  1.0
  C  C31  1  0.53233000  0.84957000  0.07841000  1.0
  C  C32  1  0.83182000  0.48340000  0.43827000  1.0
  C  C33  1  0.33182000  0.01660000  0.93827000  1.0
  C  C34  1  0.16818000  0.51661000  0.56173000  1.0
  C  C35  1  0.66818000  0.98340000  0.06173000  1.0
  C  C36  1  0.86975000  0.23364000  0.46046000  1.0
  C  C37  1  0.36976000  0.26636000  0.96046000  1.0
  C  C38  1  0.13025000  0.76636000  0.53954000  1.0
  C  C39  1  0.63024000  0.73364000  0.03954000  1.0
  N  N40  1  0.53709000  0.22909000  0.29421000  1.0
  N  N41  1  0.03709000  0.27091000  0.79421000  1.0
  N  N42  1  0.46291000  0.77091000  0.70579000  1.0
  N  N43  1  0.96291000  0.72909000  0.20579000  1.0
  N  N44  1  0.26773000  0.71528000  0.33676000  1.0
  N  N45  1  0.76773000  0.78472000  0.83676000  1.0
  N  N46  1  0.73227000  0.28472000  0.66324000  1.0
  N  N47  1  0.23227000  0.21527000  0.16324000  1.0
  N  N48  1  0.72354000  0.59624000  0.44945000  1.0
  N  N49  1  0.22353000  0.90376000  0.94945000  1.0
  N  N50  1  0.27646000  0.40376000  0.55055000  1.0
  N  N51  1  0.77647000  0.09624000  0.05055000  1.0
  N  N52  1  0.77618000  0.14432000  0.49545000  1.0
  N  N53  1  0.27619000  0.35568000  0.99545000  1.0
  N  N54  1  0.22382000  0.85568000  0.50455000  1.0
  N  N55  1  0.72381000  0.64432000  0.00455000  1.0
  O  O56  1  0.26925000  0.08089000  0.36849000  1.0
  O  O57  1  0.76925000  0.41911000  0.86849000  1.0
  O  O58  1  0.73075000  0.91911000  0.63151000  1.0
  O  O59  1  0.23075000  0.58089000  0.13151000  1.0
  O  O60  1  0.71012000  0.43294000  0.23723000  1.0
  O  O61  1  0.21014000  0.06706000  0.73722000  1.0
  O  O62  1  0.28987000  0.56706000  0.76278000  1.0
  O  O63  1  0.78988000  0.93294000  0.26277000  1.0
