# generated using pymatgen
data_Zn4H6C12O13
_symmetry_space_group_name_H-M   'P 1'
_cell_length_a   13.59000000
_cell_length_b   14.57653085
_cell_length_c   15.77743063
_cell_angle_alpha   68.97915897
_cell_angle_beta   67.21884605
_cell_angle_gamma   65.32281762
_symmetry_Int_Tables_number   1
_chemical_formula_structural   Zn4H6C12O13
_chemical_formula_sum   'Zn8 H12 C24 O26'
_cell_volume   2545.00007488
_cell_formula_units_Z   2
loop_
 _symmetry_equiv_pos_site_id
 _symmetry_equiv_pos_as_xyz
  1  'x, y, z'
loop_
 _atom_site_type_symbol
 _atom_site_label
 _atom_site_symmetry_multiplicity
 _atom_site_fract_x
 _atom_site_fract_y
 _atom_site_fract_z
 _atom_site_occupancy
  Zn  Zn0  1  0.92436000  0.98351000  0.14024000  1.0
  Zn  Zn1  1  0.92260000  0.17053000  0.95245000  1.0
  Zn  Zn2  1  0.89824000  0.95920000  0.95708000  1.0
  Zn  Zn3  1  0.13450000  0.95983000  0.95401000  1.0
  Zn  Zn4  1  0.51313000  0.55649000  0.36302000  1.0
  Zn  Zn5  1  0.51589000  0.36827000  0.54985000  1.0
  Zn  Zn6  1  0.30449000  0.57950000  0.55011000  1.0
  Zn  Zn7  1  0.54162000  0.57872000  0.54616000  1.0
  H  H8  1  0.71997000  0.36483000  0.16485000  1.0
  H  H9  1  0.71700000  0.17604000  0.33636000  1.0
  H  H10  1  0.67061000  0.78486000  0.17147000  1.0
  H  H11  1  0.76674000  0.75535000  0.33136000  1.0
  H  H12  1  0.31833000  0.73870000  0.16711000  1.0
  H  H13  1  0.11817000  0.80218000  0.33851000  1.0
  H  H14  1  0.73117000  0.16780000  0.72965000  1.0
  H  H15  1  0.70989000  0.36776000  0.77188000  1.0
  H  H16  1  0.32650000  0.17641000  0.76343000  1.0
  H  H17  1  0.11173000  0.36266000  0.73793000  1.0
  H  H18  1  0.32144000  0.80777000  0.72384000  1.0
  H  H19  1  0.11996000  0.72963000  0.78096000  1.0
  C  C20  1  0.81074000  0.20506000  0.14585000  1.0
  C  C21  1  0.73891000  0.28358000  0.20345000  1.0
  C  C22  1  0.69812000  0.25730000  0.29783000  1.0
  C  C23  1  0.62656000  0.33555000  0.35572000  1.0
  C  C24  1  0.78534000  0.86720000  0.14965000  1.0
  C  C25  1  0.71839000  0.79586000  0.20676000  1.0
  C  C26  1  0.71892000  0.74430000  0.29614000  1.0
  C  C27  1  0.65227000  0.67267000  0.35327000  1.0
  C  C28  1  0.15706000  0.85569000  0.14716000  1.0
  C  C29  1  0.23386000  0.77964000  0.20545000  1.0
  C  C30  1  0.20258000  0.76125000  0.30009000  1.0
  C  C31  1  0.27970000  0.68507000  0.35808000  1.0
  C  C32  1  0.80182000  0.16052000  0.83698000  1.0
  C  C33  1  0.74125000  0.21596000  0.76297000  1.0
  C  C34  1  0.69962000  0.31986000  0.73844000  1.0
  C  C35  1  0.63876000  0.37585000  0.66466000  1.0
  C  C36  1  0.15782000  0.16531000  0.84720000  1.0
  C  C37  1  0.23686000  0.22053000  0.77549000  1.0
  C  C38  1  0.20137000  0.31844000  0.72596000  1.0
  C  C39  1  0.28062000  0.37370000  0.65466000  1.0
  C  C40  1  0.32602000  0.70006000  0.65296000  1.0
  C  C41  1  0.27209000  0.76590000  0.72230000  1.0
  C  C42  1  0.16918000  0.77158000  0.78255000  1.0
  C  C43  1  0.11496000  0.83741000  0.85188000  1.0
  O  O44  1  0.96973000  0.01914000  0.00147000  1.0
  O  O45  1  0.83997000  0.24218000  0.05652000  1.0
  O  O46  1  0.83659000  0.10934000  0.18925000  1.0
  O  O47  1  0.59728000  0.29792000  0.44494000  1.0
  O  O48  1  0.60112000  0.43143000  0.31280000  1.0
  O  O49  1  0.78959000  0.89873000  0.06188000  1.0
  O  O50  1  0.83307000  0.89009000  0.19117000  1.0
  O  O51  1  0.64904000  0.64030000  0.44083000  1.0
  O  O52  1  0.60390000  0.65033000  0.31189000  1.0
  O  O53  1  0.20058000  0.86640000  0.05777000  1.0
  O  O54  1  0.05653000  0.90312000  0.18965000  1.0
  O  O55  1  0.23707000  0.67481000  0.44750000  1.0
  O  O56  1  0.37974000  0.63703000  0.31524000  1.0
  O  O57  1  0.82794000  0.06159000  0.85849000  1.0
  O  O58  1  0.82196000  0.21445000  0.87269000  1.0
  O  O59  1  0.61341000  0.47472000  0.64324000  1.0
  O  O60  1  0.61755000  0.32250000  0.62911000  1.0
  O  O61  1  0.20417000  0.06936000  0.88182000  1.0
  O  O62  1  0.05262000  0.21650000  0.86765000  1.0
  O  O63  1  0.23456000  0.46992000  0.62061000  1.0
  O  O64  1  0.38576000  0.32228000  0.63414000  1.0
  O  O65  1  0.26651000  0.65776000  0.64364000  1.0
  O  O66  1  0.42961000  0.69076000  0.60885000  1.0
  O  O67  1  0.17409000  0.87998000  0.86132000  1.0
  O  O68  1  0.01140000  0.84643000  0.89588000  1.0
  O  O69  1  0.46907000  0.51980000  0.50180000  1.0
