# generated using pymatgen
data_Zn2H13C32Br8N7O8
_symmetry_space_group_name_H-M   'P 1'
_cell_length_a   10.92650000
_cell_length_b   16.24240000
_cell_length_c   17.25010000
_cell_angle_alpha   96.79610000
_cell_angle_beta   92.50840000
_cell_angle_gamma   93.21980000
_symmetry_Int_Tables_number   1
_chemical_formula_structural   Zn2H13C32Br8N7O8
_chemical_formula_sum   'Zn2 H13 C32 Br8 N7 O8'
_cell_volume   3031.18376752
_cell_formula_units_Z   1
loop_
 _symmetry_equiv_pos_site_id
 _symmetry_equiv_pos_as_xyz
  1  'x, y, z'
loop_
 _atom_site_type_symbol
 _atom_site_label
 _atom_site_symmetry_multiplicity
 _atom_site_fract_x
 _atom_site_fract_y
 _atom_site_fract_z
 _atom_site_occupancy
  Zn  Zn0  1  0.49834000  0.41076000  0.50338000  1.0
  Zn  Zn1  1  0.51736000  0.59004000  0.50668000  1.0
  H  H2  1  0.37865000  0.70804000  0.43808000  1.0
  H  H3  1  0.36079000  0.86247000  0.43539000  1.0
  H  H4  1  0.33778000  0.10710000  0.38370000  1.0
  H  H5  1  0.62040000  0.11521000  0.56773000  1.0
  H  H6  1  0.41620000  0.60327000  0.25946000  1.0
  H  H7  1  0.40608000  0.59015000  0.11245000  1.0
  H  H8  1  0.53832000  0.65639000  0.91496000  1.0
  H  H9  1  0.41253000  0.39877000  0.88260000  1.0
  H  H10  1  0.89108000  0.35354000  0.49960000  1.0
  H  H11  1  0.88480000  0.61599000  0.48939000  1.0
  H  H12  1  0.12169000  0.36677000  0.50395000  1.0
  H  H13  1  0.21564000  0.65109000  0.49886000  1.0
  H  H14  1  0.07429000  0.69687000  0.50335000  1.0
  C  C15  1  0.50538000  0.50359000  0.35329000  1.0
  C  C16  1  0.26992000  0.50007000  0.50134000  1.0
  C  C17  1  0.49855000  0.52362000  0.65552000  1.0
  C  C18  1  0.73842000  0.48144000  0.49752000  1.0
  C  C19  1  0.44517000  0.75395000  0.46962000  1.0
  C  C20  1  0.43613000  0.83836000  0.46752000  1.0
  C  C21  1  0.52594000  0.89341000  0.50924000  1.0
  C  C22  1  0.62331000  0.86104000  0.54952000  1.0
  C  C23  1  0.62512000  0.77437000  0.54819000  1.0
  C  C24  1  0.40031000  0.14120000  0.42854000  1.0
  C  C25  1  0.47738000  0.09995000  0.47540000  1.0
  C  C26  1  0.55813000  0.14604000  0.53146000  1.0
  C  C27  1  0.55758000  0.23211000  0.53867000  1.0
  C  C28  1  0.40545000  0.22787000  0.44126000  1.0
  C  C29  1  0.50772000  0.49086000  0.26534000  1.0
  C  C30  1  0.45377000  0.55090000  0.22500000  1.0
  C  C31  1  0.44821000  0.54408000  0.14425000  1.0
  C  C32  1  0.49726000  0.47616000  0.10088000  1.0
  C  C33  1  0.55201000  0.41520000  0.14024000  1.0
  C  C34  1  0.55836000  0.42287000  0.22239000  1.0
  C  C35  1  0.51228000  0.60016000  0.87558000  1.0
  C  C36  1  0.48125000  0.52699000  0.90718000  1.0
  C  C37  1  0.44199000  0.45465000  0.85767000  1.0
  C  C38  1  0.44040000  0.45633000  0.77735000  1.0
  C  C39  1  0.48154000  0.52736000  0.74251000  1.0
  C  C40  1  0.51273000  0.59986000  0.79490000  1.0
  C  C41  1  0.13361000  0.49749000  0.49746000  1.0
  C  C42  1  0.87539000  0.48507000  0.49523000  1.0
  C  C43  1  0.06686000  0.56985000  0.49279000  1.0
  C  C44  1  0.94086000  0.41323000  0.49792000  1.0
  C  C45  1  0.93785000  0.56146000  0.49234000  1.0
  C  C46  1  0.06802000  0.42074000  0.49981000  1.0
  Br  Br47  1  0.75412000  0.72861000  0.60065000  1.0
  Br  Br48  1  0.74921000  0.93425000  0.60059000  1.0
  Br  Br49  1  0.29733000  0.28119000  0.37847000  1.0
  Br  Br50  1  0.66805000  0.29050000  0.61547000  1.0
  Br  Br51  1  0.64320000  0.34464000  0.27407000  1.0
  Br  Br52  1  0.62254000  0.32676000  0.07961000  1.0
  Br  Br53  1  0.56145000  0.70483000  0.76310000  1.0
  Br  Br54  1  0.36886000  0.35805000  0.71649000  1.0
  N  N55  1  0.53678000  0.72259000  0.51007000  1.0
  N  N56  1  0.52189000  0.98037000  0.51804000  1.0
  N  N57  1  0.47436000  0.01168000  0.46127000  1.0
  N  N58  1  0.48263000  0.27399000  0.49479000  1.0
  N  N59  1  0.49139000  0.46598000  0.01836000  1.0
  N  N60  1  0.49137000  0.53416000  0.98958000  1.0
  N  N61  1  0.12303000  0.64680000  0.48817000  1.0
  O  O62  1  0.48242000  0.44034000  0.38777000  1.0
  O  O63  1  0.52294000  0.57846000  0.38525000  1.0
  O  O64  1  0.32907000  0.56779000  0.48939000  1.0
  O  O65  1  0.32068000  0.43450000  0.51671000  1.0
  O  O66  1  0.48202000  0.58881000  0.62331000  1.0
  O  O67  1  0.53197000  0.45549000  0.62195000  1.0
  O  O68  1  0.68102000  0.41026000  0.48779000  1.0
  O  O69  1  0.68903000  0.55080000  0.51025000  1.0
