# generated using pymatgen
data_CuH7C7NO6
_symmetry_space_group_name_H-M   'P 1'
_cell_length_a   7.06903000
_cell_length_b   9.06675000
_cell_length_c   13.62480000
_cell_angle_alpha   90.00000000
_cell_angle_beta   89.99970000
_cell_angle_gamma   106.92000000
_symmetry_Int_Tables_number   1
_chemical_formula_structural   CuH7C7NO6
_chemical_formula_sum   'Cu4 H28 C28 N4 O24'
_cell_volume   835.45458425
_cell_formula_units_Z   4
loop_
 _symmetry_equiv_pos_site_id
 _symmetry_equiv_pos_as_xyz
  1  'x, y, z'
loop_
 _atom_site_type_symbol
 _atom_site_label
 _atom_site_symmetry_multiplicity
 _atom_site_fract_x
 _atom_site_fract_y
 _atom_site_fract_z
 _atom_site_occupancy
  Cu  Cu0  1  0.85000000  0.15690000  0.93586000  1.0
  Cu  Cu1  1  0.65000000  0.34310000  0.43586000  1.0
  Cu  Cu2  1  0.15000000  0.84310000  0.06414000  1.0
  Cu  Cu3  1  0.35000000  0.65690000  0.56415000  1.0
  H  H4  1  0.58865000  0.36783000  0.02191000  1.0
  H  H5  1  0.91135000  0.13216000  0.52191000  1.0
  H  H6  1  0.41136000  0.63216000  0.97809000  1.0
  H  H7  1  0.08865000  0.86784000  0.47809000  1.0
  H  H8  1  0.16559000  0.24702000  0.25931000  1.0
  H  H9  1  0.33441000  0.25299000  0.75931000  1.0
  H  H10  1  0.83441000  0.75298000  0.74069000  1.0
  H  H11  1  0.66559000  0.74701000  0.24069000  1.0
  H  H12  1  0.30192000  0.27528000  0.90545000  1.0
  H  H13  1  0.19808000  0.22471000  0.40544000  1.0
  H  H14  1  0.69808000  0.72471000  0.09455000  1.0
  H  H15  1  0.80192000  0.77529000  0.59456000  1.0
  H  H16  1  0.48525000  0.01238000  0.89391000  1.0
  H  H17  1  0.01475000  0.48762000  0.39391000  1.0
  H  H18  1  0.51475000  0.98762000  0.10609000  1.0
  H  H19  1  0.98525000  0.51238000  0.60609000  1.0
  H  H20  1  0.63091000  0.06698000  0.79815000  1.0
  H  H21  1  0.86909000  0.43303000  0.29815000  1.0
  H  H22  1  0.36909000  0.93303000  0.20185000  1.0
  H  H23  1  0.13091000  0.56697000  0.70185000  1.0
  H  H24  1  0.81829000  0.41429000  0.84507000  1.0
  H  H25  1  0.68171000  0.08572000  0.34508000  1.0
  H  H26  1  0.18171000  0.58571000  0.15492000  1.0
  H  H27  1  0.31829000  0.91429000  0.65493000  1.0
  H  H28  1  0.01949000  0.47314000  0.89886000  1.0
  H  H29  1  0.48051000  0.02686000  0.39886000  1.0
  H  H30  1  0.98051000  0.52686000  0.10114000  1.0
  H  H31  1  0.51949000  0.97315000  0.60114000  1.0
  C  C32  1  0.05599000  0.20373000  0.11314000  1.0
  C  C33  1  0.44401000  0.29628000  0.61314000  1.0
  C  C34  1  0.94401000  0.79627000  0.88685000  1.0
  C  C35  1  0.55599000  0.70372000  0.38686000  1.0
  C  C36  1  0.43823000  0.32370000  0.04971000  1.0
  C  C37  1  0.06177000  0.17630000  0.54971000  1.0
  C  C38  1  0.56177000  0.67630000  0.95028000  1.0
  C  C39  1  0.93823000  0.82370000  0.45029000  1.0
  C  C40  1  0.84381000  0.13414000  0.14097000  1.0
  C  C41  1  0.65618000  0.36587000  0.64097000  1.0
  C  C42  1  0.15619000  0.86586000  0.85903000  1.0
  C  C43  1  0.34382000  0.63413000  0.35904000  1.0
  C  C44  1  0.39942000  0.31686000  0.15039000  1.0
  C  C45  1  0.10058000  0.18314000  0.65038000  1.0
  C  C46  1  0.60058000  0.68314000  0.84961000  1.0
  C  C47  1  0.89942000  0.81686000  0.34962000  1.0
  C  C48  1  0.56160000  0.37072000  0.22532000  1.0
  C  C49  1  0.93839000  0.12928000  0.72532000  1.0
  C  C50  1  0.43840000  0.62928000  0.77468000  1.0
  C  C51  1  0.06160000  0.87072000  0.27468000  1.0
  C  C52  1  0.20431000  0.25485000  0.18205000  1.0
  C  C53  1  0.29569000  0.24516000  0.68205000  1.0
  C  C54  1  0.79569000  0.74515000  0.81795000  1.0
  C  C55  1  0.70431000  0.75484000  0.31796000  1.0
  C  C56  1  0.28066000  0.27133000  0.98452000  1.0
  C  C57  1  0.21933000  0.22867000  0.48452000  1.0
  C  C58  1  0.71934000  0.72867000  0.01548000  1.0
  C  C59  1  0.78067000  0.77133000  0.51548000  1.0
  N  N60  1  0.09400000  0.21337000  0.01592000  1.0
  N  N61  1  0.40600000  0.28663000  0.51592000  1.0
  N  N62  1  0.90600000  0.78663000  0.98408000  1.0
  N  N63  1  0.59400000  0.71336000  0.48408000  1.0
  O  O64  1  0.72118000  0.10572000  0.06680000  1.0
  O  O65  1  0.77882000  0.39429000  0.56680000  1.0
  O  O66  1  0.27882000  0.89428000  0.93320000  1.0
  O  O67  1  0.22118000  0.60571000  0.43320000  1.0
  O  O68  1  0.79447000  0.10546000  0.22777000  1.0
  O  O69  1  0.70554000  0.39456000  0.72777000  1.0
  O  O70  1  0.20553000  0.89454000  0.77223000  1.0
  O  O71  1  0.29447000  0.60545000  0.27223000  1.0
  O  O72  1  0.50089000  0.34114000  0.31410000  1.0
  O  O73  1  0.99910000  0.15886000  0.81410000  1.0
  O  O74  1  0.49911000  0.65886000  0.68590000  1.0
  O  O75  1  0.00089000  0.84114000  0.18590000  1.0
  O  O76  1  0.73644000  0.43644000  0.19815000  1.0
  O  O77  1  0.76356000  0.06356000  0.69815000  1.0
  O  O78  1  0.26357000  0.56355000  0.80185000  1.0
  O  O79  1  0.23643000  0.93645000  0.30186000  1.0
  O  O80  1  0.59855000  0.09649000  0.86613000  1.0
  O  O81  1  0.90145000  0.40351000  0.36613000  1.0
  O  O82  1  0.40145000  0.90351000  0.13387000  1.0
  O  O83  1  0.09855000  0.59649000  0.63387000  1.0
  O  O84  1  0.87951000  0.42018000  0.91061000  1.0
  O  O85  1  0.62049000  0.07982000  0.41061000  1.0
  O  O86  1  0.12049000  0.57983000  0.08939000  1.0
  O  O87  1  0.37951000  0.92018000  0.58939000  1.0
