# generated using pymatgen
data_Zn2H32C41(N5O)2
_symmetry_space_group_name_H-M   'P 1'
_cell_length_a   19.70560000
_cell_length_b   19.73410000
_cell_length_c   20.80930000
_cell_angle_alpha   105.70100000
_cell_angle_beta   108.60500000
_cell_angle_gamma   111.91500000
_symmetry_Int_Tables_number   1
_chemical_formula_structural   Zn2H32C41(N5O)2
_chemical_formula_sum   'Zn4 H64 C82 N20 O4'
_cell_volume   6378.08614207
_cell_formula_units_Z   2
loop_
 _symmetry_equiv_pos_site_id
 _symmetry_equiv_pos_as_xyz
  1  'x, y, z'
loop_
 _atom_site_type_symbol
 _atom_site_label
 _atom_site_symmetry_multiplicity
 _atom_site_fract_x
 _atom_site_fract_y
 _atom_site_fract_z
 _atom_site_occupancy
  Zn  Zn0  1  0.39949000  0.40012000  0.50669000  1.0
  Zn  Zn1  1  0.60850000  0.60912000  0.50856000  1.0
  Zn  Zn2  1  0.40521000  0.49569000  0.39922000  1.0
  Zn  Zn3  1  0.60131000  0.49770000  0.60324000  1.0
  H  H4  1  0.37586000  0.23602000  0.39108000  1.0
  H  H5  1  0.83838000  0.22465000  0.28530000  1.0
  H  H6  1  0.92419000  0.50425000  0.44926000  1.0
  H  H7  1  0.93580000  0.45474000  0.31386000  1.0
  H  H8  1  0.77240000  0.32029000  0.24211000  1.0
  H  H9  1  0.41923000  0.64179000  0.20260000  1.0
  H  H10  1  0.39078000  0.53049000  0.24808000  1.0
  H  H11  1  0.41295000  0.66042000  0.08727000  1.0
  H  H12  1  0.33658000  0.55276000  0.85019000  1.0
  H  H13  1  0.34488000  0.52145000  0.72954000  1.0
  H  H14  1  0.59246000  0.74116000  0.97210000  1.0
  H  H15  1  0.61563000  0.75278000  0.63300000  1.0
  H  H16  1  0.64019000  0.65857000  0.13235000  1.0
  H  H17  1  0.59894000  0.71736000  0.85124000  1.0
  H  H18  1  0.88938000  0.75384000  0.86928000  1.0
  H  H19  1  0.02682000  0.86517000  0.97681000  1.0
  H  H20  1  0.23003000  0.99444000  0.16124000  1.0
  H  H21  1  0.33049000  0.11981000  0.28264000  1.0
  H  H22  1  0.94371000  0.85512000  0.72049000  1.0
  H  H23  1  0.24554000  0.13811000  0.03840000  1.0
  H  H24  1  0.07919000  0.96919000  0.82999000  1.0
  H  H25  1  0.34498000  0.26383000  0.15861000  1.0
  H  H26  1  0.79880000  0.62287000  0.74955000  1.0
  H  H27  1  0.65512000  0.68628000  0.39322000  1.0
  H  H28  1  0.35575000  0.23427000  0.53871000  1.0
  H  H29  1  0.61174000  0.35334000  0.49671000  1.0
  H  H30  1  0.41889000  0.38139000  0.26945000  1.0
  H  H31  1  0.35790000  0.51499000  0.61301000  1.0
  H  H32  1  0.14270000  0.39953000  0.24639000  1.0
  H  H33  1  0.18122000  0.49740000  0.31731000  1.0
  H  H34  1  0.24889000  0.47515000  0.28732000  1.0
  H  H35  1  0.85166000  0.89922000  0.73929000  1.0
  H  H36  1  0.74232000  0.84655000  0.70777000  1.0
  H  H37  1  0.35058000  0.61402000  0.48408000  1.0
  H  H38  1  0.78185000  0.89886000  0.65830000  1.0
  H  H39  1  0.08670000  0.29073000  0.46143000  1.0
  H  H40  1  0.14810000  0.39650000  0.52633000  1.0
  H  H41  1  0.15722000  0.32228000  0.55772000  1.0
  H  H42  1  0.68303000  0.68340000  0.79332000  1.0
  H  H43  1  0.63549000  0.61985000  0.83040000  1.0
  H  H44  1  0.66973000  0.58433000  0.76615000  1.0
  H  H45  1  0.65515000  0.07313000  0.58262000  1.0
  H  H46  1  0.56636000  0.01113000  0.49058000  1.0
  H  H47  1  0.64802000  0.98783000  0.51555000  1.0
  H  H48  1  0.42365000  0.97386000  0.48894000  1.0
  H  H49  1  0.75505000  0.54080000  0.40414000  1.0
  H  H50  1  0.65726000  0.52315000  0.34348000  1.0
  H  H51  1  0.72005000  0.60898000  0.43376000  1.0
  H  H52  1  0.85690000  0.23025000  0.44595000  1.0
  H  H53  1  0.81034000  0.28573000  0.47638000  1.0
  H  H54  1  0.75493000  0.20391000  0.38421000  1.0
  H  H55  1  0.94402000  0.40460000  0.56963000  1.0
  H  H56  1  0.99413000  0.50282000  0.57207000  1.0
  H  H57  1  0.05491000  0.46642000  0.62000000  1.0
  H  H58  1  0.63967000  0.57727000  0.26754000  1.0
  H  H59  1  0.33505000  0.87644000  0.54405000  1.0
  H  H60  1  0.69501000  0.61713000  0.22136000  1.0
  H  H61  1  0.71162000  0.68258000  0.30915000  1.0
  H  H62  1  0.66778000  0.36568000  0.71596000  1.0
  H  H63  1  0.65724000  0.30749000  0.62846000  1.0
  H  H64  1  0.68885000  0.41256000  0.65711000  1.0
  H  H65  1  0.38980000  0.02018000  0.67172000  1.0
  H  H66  1  0.52943000  0.00979000  0.75109000  1.0
  H  H67  1  0.61985000  0.10811000  0.69773000  1.0
  C  C68  1  0.39087000  0.28263000  0.37140000  1.0
  C  C69  1  0.22302000  0.37438000  0.44432000  1.0
  C  C70  1  0.55705000  0.58468000  0.71508000  1.0
  C  C71  1  0.66295000  0.49472000  0.43725000  1.0
  C  C72  1  0.41655000  0.63668000  0.51451000  1.0
  C  C73  1  0.48455000  0.58315000  0.71524000  1.0
  C  C74  1  0.48013000  0.71365000  0.57454000  1.0
  C  C75  1  0.17028000  0.38786000  0.39092000  1.0
  C  C76  1  0.82572000  0.73138000  0.72470000  1.0
  C  C77  1  0.52585000  0.97687000  0.59176000  1.0
  C  C78  1  0.44755000  0.98111000  0.54703000  1.0
  C  C79  1  0.66463000  0.42390000  0.43872000  1.0
  C  C80  1  0.48358000  0.19290000  0.60682000  1.0
  C  C81  1  0.47571000  0.78464000  0.60163000  1.0
  C  C82  1  0.55672000  0.05596000  0.66328000  1.0
  C  C83  1  0.45416000  0.56582000  0.29358000  1.0
  C  C84  1  0.47891000  0.06157000  0.61840000  1.0
  C  C85  1  0.50634000  0.00225000  0.69292000  1.0
  C  C86  1  0.47570000  0.92179000  0.62187000  1.0
  C  C87  1  0.42865000  0.00693000  0.64884000  1.0
  C  C88  1  0.39824000  0.92846000  0.57781000  1.0
  C  C89  1  0.48164000  0.13308000  0.61452000  1.0
  C  C90  1  0.52671000  0.61738000  0.29407000  1.0
  C  C91  1  0.47452000  0.84835000  0.61731000  1.0
  C  C92  1  0.85721000  0.28686000  0.32188000  1.0
  C  C93  1  0.85168000  0.31263000  0.39741000  1.0
  C  C94  1  0.70739000  0.39168000  0.41021000  1.0
  C  C95  1  0.55970000  0.33444000  0.61846000  1.0
  C  C96  1  0.09006000  0.37403000  0.37432000  1.0
  C  C97  1  0.82132000  0.33976000  0.29799000  1.0
  C  C98  1  0.81551000  0.36716000  0.37417000  1.0
  C  C99  1  0.91105000  0.41464000  0.33788000  1.0
  C  C100  1  0.94854000  0.36169000  0.36172000  1.0
  C  C101  1  0.48751000  0.26186000  0.59716000  1.0
  C  C102  1  0.90659000  0.44231000  0.41340000  1.0
  C  C103  1  0.94204000  0.38885000  0.43735000  1.0
  C  C104  1  0.75231000  0.37547000  0.38783000  1.0
  C  C105  1  0.02132000  0.36409000  0.36209000  1.0
  C  C106  1  0.47449000  0.61294000  0.78191000  1.0
  C  C107  1  0.58906000  0.64413000  0.36689000  1.0
  C  C108  1  0.54217000  0.67879000  0.85088000  1.0
  C  C109  1  0.53860000  0.69360000  0.91844000  1.0
  C  C110  1  0.46530000  0.64493000  0.91857000  1.0
  C  C111  1  0.39383000  0.58784000  0.84928000  1.0
  C  C112  1  0.42313000  0.53333000  0.63921000  1.0
  C  C113  1  0.39888000  0.57112000  0.78219000  1.0
  C  C114  1  0.46347000  0.65536000  0.12249000  1.0
  C  C115  1  0.46713000  0.64412000  0.18618000  1.0
  C  C116  1  0.52675000  0.66028000  0.10321000  1.0
  C  C117  1  0.53138000  0.63571000  0.23142000  1.0
  C  C118  1  0.59558000  0.64154000  0.21231000  1.0
  C  C119  1  0.42204000  0.27461000  0.56312000  1.0
  C  C120  1  0.59252000  0.65527000  0.14938000  1.0
  C  C121  1  0.34291000  0.20185000  0.23026000  1.0
  C  C122  1  0.32104000  0.20485000  0.15974000  1.0
  C  C123  1  0.55212000  0.70744000  0.59098000  1.0
  C  C124  1  0.26549000  0.13508000  0.09227000  1.0
  C  C125  1  0.22979000  0.05871000  0.09282000  1.0
  C  C126  1  0.25682000  0.05419000  0.16195000  1.0
  C  C127  1  0.31276000  0.12447000  0.22942000  1.0
  C  C128  1  0.00804000  0.86157000  0.92020000  1.0
  C  C129  1  0.93192000  0.79969000  0.85995000  1.0
  C  C130  1  0.06169000  0.92348000  0.90964000  1.0
  C  C131  1  0.62408000  0.40317000  0.48103000  1.0
  C  C132  1  0.90662000  0.79636000  0.78700000  1.0
  C  C133  1  0.96138000  0.85771000  0.77678000  1.0
  C  C134  1  0.21907000  0.42210000  0.35849000  1.0
  C  C135  1  0.03718000  0.92080000  0.83732000  1.0
  C  C136  1  0.41267000  0.35658000  0.30924000  1.0
  C  C137  1  0.38495000  0.27607000  0.30029000  1.0
  C  C138  1  0.19694000  0.45006000  0.29936000  1.0
  C  C139  1  0.79013000  0.86333000  0.68935000  1.0
  C  C140  1  0.14696000  0.33813000  0.51030000  1.0
  C  C141  1  0.64067000  0.62020000  0.77951000  1.0
  C  C142  1  0.61273000  0.01048000  0.53685000  1.0
  C  C143  1  0.70056000  0.54476000  0.40290000  1.0
  C  C144  1  0.81682000  0.25526000  0.42780000  1.0
  C  C145  1  0.78137000  0.65083000  0.71365000  1.0
  C  C146  1  0.99897000  0.44847000  0.56998000  1.0
  C  C147  1  0.66399000  0.62908000  0.25483000  1.0
  C  C148  1  0.64798000  0.35641000  0.65701000  1.0
  C  C149  1  0.77332000  0.73150000  0.65985000  1.0
  N  N150  1  0.41771000  0.35993000  0.41706000  1.0
  N  N151  1  0.52921000  0.66609000  0.03795000  1.0
  N  N152  1  0.16277000  0.98637000  0.03015000  1.0
  N  N153  1  0.62382000  0.51282000  0.47567000  1.0
  N  N154  1  0.13666000  0.99223000  0.96863000  1.0
  N  N155  1  0.47217000  0.56219000  0.36009000  1.0
  N  N156  1  0.53743000  0.38520000  0.59830000  1.0
  N  N157  1  0.55627000  0.61140000  0.40614000  1.0
  N  N158  1  0.45233000  0.34841000  0.56421000  1.0
  N  N159  1  0.60086000  0.45768000  0.50336000  1.0
  N  N160  1  0.43128000  0.40564000  0.37903000  1.0
  N  N161  1  0.53251000  0.63362000  0.54321000  1.0
  N  N162  1  0.45609000  0.50747000  0.59735000  1.0
  N  N163  1  0.29284000  0.42706000  0.38949000  1.0
  N  N164  1  0.71030000  0.60698000  0.64823000  1.0
  N  N165  1  0.70506000  0.65775000  0.61505000  1.0
  N  N166  1  0.29543000  0.39754000  0.44293000  1.0
  N  N167  1  0.53805000  0.53928000  0.64382000  1.0
  N  N168  1  0.44943000  0.59043000  0.49650000  1.0
  N  N169  1  0.46001000  0.64410000  0.98437000  1.0
  O  O170  1  0.78112000  0.79132000  0.63688000  1.0
  O  O171  1  0.21384000  0.34345000  0.49350000  1.0
  O  O172  1  0.57380000  0.95613000  0.56395000  1.0
  O  O173  1  0.00784000  0.41301000  0.50546000  1.0
