# generated using pymatgen
data_InH17C7S2
_symmetry_space_group_name_H-M   'P 1'
_cell_length_a   7.77141000
_cell_length_b   8.76692000
_cell_length_c   9.13456000
_cell_angle_alpha   70.40970000
_cell_angle_beta   89.26160000
_cell_angle_gamma   64.99870000
_symmetry_Int_Tables_number   1
_chemical_formula_structural   InH17C7S2
_chemical_formula_sum   'In2 H34 C14 S4'
_cell_volume   525.30223535
_cell_formula_units_Z   2
loop_
 _symmetry_equiv_pos_site_id
 _symmetry_equiv_pos_as_xyz
  1  'x, y, z'
loop_
 _atom_site_type_symbol
 _atom_site_label
 _atom_site_symmetry_multiplicity
 _atom_site_fract_x
 _atom_site_fract_y
 _atom_site_fract_z
 _atom_site_occupancy
  In  In0  1  0.69572000  0.66391000  0.75419000  1.0
  In  In1  1  0.30429000  0.33610000  0.24581000  1.0
  H  H2  1  0.36493000  0.44863000  0.69802000  1.0
  H  H3  1  0.63507000  0.55137000  0.30197000  1.0
  H  H4  1  0.52471000  0.32171000  0.87919000  1.0
  H  H5  1  0.47529000  0.67830000  0.12080000  1.0
  H  H6  1  0.47421000  0.16935000  0.63120000  1.0
  H  H7  1  0.52579000  0.83065000  0.36880000  1.0
  H  H8  1  0.37989000  0.13992000  0.81222000  1.0
  H  H9  1  0.62010000  0.86009000  0.18778000  1.0
  H  H10  1  0.01423000  0.19736000  0.70473000  1.0
  H  H11  1  0.98577000  0.80264000  0.29528000  1.0
  H  H12  1  0.91424000  0.17000000  0.88324000  1.0
  H  H13  1  0.08575000  0.83001000  0.11676000  1.0
  H  H14  1  0.02936000  0.88933000  0.81151000  1.0
  H  H15  1  0.97064000  0.11067000  0.18850000  1.0
  H  H16  1  0.86860000  0.02062000  0.63165000  1.0
  H  H17  1  0.13141000  0.97937000  0.36835000  1.0
  H  H18  1  0.31694000  0.77344000  0.63702000  1.0
  H  H19  1  0.68306000  0.22655000  0.36298000  1.0
  H  H20  1  0.36571000  0.96504000  0.56704000  1.0
  H  H21  1  0.63428000  0.03496000  0.43295000  1.0
  H  H22  1  0.32211000  0.88820000  0.76408000  1.0
  H  H23  1  0.67788000  0.11179000  0.23592000  1.0
  H  H24  1  0.04491000  0.52799000  0.65258000  1.0
  H  H25  1  0.95510000  0.47199000  0.34744000  1.0
  H  H26  1  0.96636000  0.76478000  0.59609000  1.0
  H  H27  1  0.03366000  0.23521000  0.40393000  1.0
  H  H28  1  0.86694000  0.68001000  0.48550000  1.0
  H  H29  1  0.13308000  0.31997000  0.51451000  1.0
  H  H30  1  0.69585000  0.40244000  0.03421000  1.0
  H  H31  1  0.30414000  0.59757000  0.96578000  1.0
  H  H32  1  0.93588000  0.35996000  0.99755000  1.0
  H  H33  1  0.06412000  0.64005000  0.00244000  1.0
  H  H34  1  0.80785000  0.52456000  0.07948000  1.0
  H  H35  1  0.19215000  0.47544000  0.92052000  1.0
  C  C36  1  0.50165000  0.33006000  0.75779000  1.0
  C  C37  1  0.49835000  0.66995000  0.24221000  1.0
  C  C38  1  0.49687000  0.16014000  0.75292000  1.0
  C  C39  1  0.50313000  0.83987000  0.24707000  1.0
  C  C40  1  0.89561000  0.17804000  0.76142000  1.0
  C  C41  1  0.10438000  0.82197000  0.23858000  1.0
  C  C42  1  0.89241000  0.00861000  0.75417000  1.0
  C  C43  1  0.10759000  0.99138000  0.24583000  1.0
  C  C44  1  0.38861000  0.84448000  0.66934000  1.0
  C  C45  1  0.61138000  0.15552000  0.33066000  1.0
  C  C46  1  0.91971000  0.66077000  0.60421000  1.0
  C  C47  1  0.08031000  0.33922000  0.39580000  1.0
  C  C48  1  0.79289000  0.46492000  0.99531000  1.0
  C  C49  1  0.20711000  0.53509000  0.00468000  1.0
  S  S50  1  0.71274000  0.95543000  0.85853000  1.0
  S  S51  1  0.28726000  0.04457000  0.14147000  1.0
  S  S52  1  0.68096000  0.38067000  0.65135000  1.0
  S  S53  1  0.31904000  0.61933000  0.34864000  1.0
