# generated using pymatgen
data_YbH5C6(NO3)2
_symmetry_space_group_name_H-M   'P 1'
_cell_length_a   5.98659000
_cell_length_b   11.75590000
_cell_length_c   12.33520000
_cell_angle_alpha   77.16170000
_cell_angle_beta   75.94520000
_cell_angle_gamma   75.24550000
_symmetry_Int_Tables_number   1
_chemical_formula_structural   YbH5C6(NO3)2
_chemical_formula_sum   'Yb4 H20 C24 N8 O24'
_cell_volume   802.38095511
_cell_formula_units_Z   4
loop_
 _symmetry_equiv_pos_site_id
 _symmetry_equiv_pos_as_xyz
  1  'x, y, z'
loop_
 _atom_site_type_symbol
 _atom_site_label
 _atom_site_symmetry_multiplicity
 _atom_site_fract_x
 _atom_site_fract_y
 _atom_site_fract_z
 _atom_site_occupancy
  Yb  Yb0  1  0.32390000  0.97186000  0.63855000  1.0
  Yb  Yb1  1  0.93436000  0.52819000  0.86145000  1.0
  Yb  Yb2  1  0.67610000  0.02814000  0.36144000  1.0
  Yb  Yb3  1  0.06564000  0.47181000  0.13855000  1.0
  H  H4  1  0.17743000  0.06055000  0.42754000  1.0
  H  H5  1  0.66544000  0.43955000  0.07251000  1.0
  H  H6  1  0.82256000  0.93945000  0.57246000  1.0
  H  H7  1  0.33456000  0.56045000  0.92749000  1.0
  H  H8  1  0.26466000  0.14000000  0.78830000  1.0
  H  H9  1  0.19297000  0.35996000  0.71175000  1.0
  H  H10  1  0.73534000  0.86000000  0.21170000  1.0
  H  H11  1  0.80703000  0.64004000  0.28825000  1.0
  H  H12  1  0.50302000  0.15560000  0.69436000  1.0
  H  H13  1  0.35298000  0.34439000  0.80567000  1.0
  H  H14  1  0.49698000  0.84440000  0.30564000  1.0
  H  H15  1  0.64702000  0.65562000  0.19433000  1.0
  H  H16  1  0.38930000  0.44556000  0.54348000  1.0
  H  H17  1  0.37894000  0.05466000  0.95643000  1.0
  H  H18  1  0.61070000  0.55444000  0.45652000  1.0
  H  H19  1  0.62107000  0.94534000  0.04357000  1.0
  H  H20  1  0.37285000  0.51414000  0.33310000  1.0
  H  H21  1  0.22053000  0.98592000  0.16682000  1.0
  H  H22  1  0.62714000  0.48586000  0.66689000  1.0
  H  H23  1  0.77947000  0.01408000  0.83318000  1.0
  C  C24  1  0.03301000  0.31910000  0.40586000  1.0
  C  C25  1  0.75830000  0.18089000  0.09412000  1.0
  C  C26  1  0.96699000  0.68089000  0.59414000  1.0
  C  C27  1  0.24170000  0.81912000  0.90588000  1.0
  C  C28  1  0.03166000  0.28667000  0.52301000  1.0
  C  C29  1  0.84163000  0.21327000  0.97697000  1.0
  C  C30  1  0.96834000  0.71333000  0.47699000  1.0
  C  C31  1  0.15837000  0.78674000  0.02303000  1.0
  C  C32  1  0.28432000  0.41135000  0.50269000  1.0
  C  C33  1  0.19885000  0.08871000  0.99724000  1.0
  C  C34  1  0.71568000  0.58864000  0.49731000  1.0
  C  C35  1  0.80115000  0.91129000  0.00276000  1.0
  C  C36  1  0.27826000  0.44769000  0.38773000  1.0
  C  C37  1  0.11410000  0.05231000  0.11218000  1.0
  C  C38  1  0.72174000  0.55231000  0.61227000  1.0
  C  C39  1  0.88590000  0.94769000  0.88782000  1.0
  C  C40  1  0.91365000  0.26416000  0.34227000  1.0
  C  C41  1  0.52034000  0.23583000  0.15774000  1.0
  C  C42  1  0.08635000  0.73584000  0.65773000  1.0
  C  C43  1  0.47966000  0.76417000  0.84226000  1.0
  C  C44  1  0.87771000  0.20588000  0.60327000  1.0
  C  C45  1  0.68700000  0.29406000  0.89680000  1.0
  C  C46  1  0.12229000  0.79411000  0.39674000  1.0
  C  C47  1  0.31300000  0.70594000  0.10320000  1.0
  N  N48  1  0.15745000  0.33482000  0.57053000  1.0
  N  N49  1  0.06314000  0.16518000  0.92943000  1.0
  N  N50  1  0.84256000  0.66518000  0.42947000  1.0
  N  N51  1  0.93686000  0.83482000  0.07058000  1.0
  N  N52  1  0.14801000  0.40261000  0.34076000  1.0
  N  N53  1  0.89174000  0.09740000  0.15919000  1.0
  N  N54  1  0.85199000  0.59739000  0.65924000  1.0
  N  N55  1  0.10826000  0.90260000  0.84081000  1.0
  O  O56  1  0.85379000  0.16595000  0.39040000  1.0
  O  O57  1  0.41005000  0.33392000  0.10959000  1.0
  O  O58  1  0.14621000  0.83405000  0.60960000  1.0
  O  O59  1  0.58995000  0.66608000  0.89041000  1.0
  O  O60  1  0.88678000  0.31900000  0.24439000  1.0
  O  O61  1  0.45057000  0.18102000  0.25565000  1.0
  O  O62  1  0.11321000  0.68100000  0.75561000  1.0
  O  O63  1  0.54943000  0.81898000  0.74435000  1.0
  O  O64  1  0.66042000  0.24947000  0.61952000  1.0
  O  O65  1  0.52945000  0.25055000  0.88057000  1.0
  O  O66  1  0.33958000  0.75053000  0.38049000  1.0
  O  O67  1  0.47056000  0.74945000  0.11944000  1.0
  O  O68  1  0.97740000  0.10454000  0.65114000  1.0
  O  O69  1  0.73323000  0.39542000  0.84897000  1.0
  O  O70  1  0.02261000  0.89546000  0.34886000  1.0
  O  O71  1  0.26676000  0.60459000  0.15104000  1.0
  O  O72  1  0.32117000  0.03354000  0.45791000  1.0
  O  O73  1  0.81259000  0.46652000  0.04211000  1.0
  O  O74  1  0.67882000  0.96645000  0.54209000  1.0
  O  O75  1  0.18741000  0.53348000  0.95789000  1.0
  O  O76  1  0.39526000  0.09833000  0.73475000  1.0
  O  O77  1  0.22840000  0.40166000  0.76524000  1.0
  O  O78  1  0.60474000  0.90167000  0.26525000  1.0
  O  O79  1  0.77160000  0.59834000  0.23476000  1.0
