# generated using pymatgen
data_NiH30C22(N3O2)2
_symmetry_space_group_name_H-M   'P 1'
_cell_length_a   11.01720000
_cell_length_b   15.46895687
_cell_length_c   15.47320000
_cell_angle_alpha   114.55766829
_cell_angle_beta   103.71300000
_cell_angle_gamma   103.72380195
_symmetry_Int_Tables_number   1
_chemical_formula_structural   NiH30C22(N3O2)2
_chemical_formula_sum   'Ni3 H90 C66 N18 O12'
_cell_volume   2155.33089350
_cell_formula_units_Z   3
loop_
 _symmetry_equiv_pos_site_id
 _symmetry_equiv_pos_as_xyz
  1  'x, y, z'
loop_
 _atom_site_type_symbol
 _atom_site_label
 _atom_site_symmetry_multiplicity
 _atom_site_fract_x
 _atom_site_fract_y
 _atom_site_fract_z
 _atom_site_occupancy
  Ni  Ni0  1  0.50000000  1.00000000  0.50000000  1.0
  Ni  Ni1  1  0.50000000  0.50000000  1.00000000  1.0
  Ni  Ni2  1  0.00000000  0.50000000  0.50000000  1.0
  H  H3  1  0.60279000  0.03235000  0.67666000  1.0
  H  H4  1  0.57053000  0.64443000  0.96780000  1.0
  H  H5  1  0.92603000  0.32324000  0.35569000  1.0
  H  H6  1  0.42947000  0.35557000  0.03220000  1.0
  H  H7  1  0.07397000  0.67676000  0.64431000  1.0
  H  H8  1  0.39721000  0.96765000  0.32334000  1.0
  H  H9  1  0.27001000  0.00884000  0.48721000  1.0
  H  H10  1  0.26113000  0.47835000  0.99124000  1.0
  H  H11  1  0.78284000  0.51296000  0.52160000  1.0
  H  H12  1  0.73887000  0.52165000  0.00876000  1.0
  H  H13  1  0.21716000  0.48704000  0.47840000  1.0
  H  H14  1  0.72999000  0.99116000  0.51279000  1.0
  H  H15  1  0.42235000  0.14726000  0.67246000  1.0
  H  H16  1  0.27532000  0.52520000  0.85291000  1.0
  H  H17  1  0.74993000  0.32765000  0.47492000  1.0
  H  H18  1  0.72468000  0.47480000  0.14710000  1.0
  H  H19  1  0.25007000  0.67235000  0.52508000  1.0
  H  H20  1  0.57765000  0.85274000  0.32754000  1.0
  H  H21  1  0.46078000  0.10527000  0.76281000  1.0
  H  H22  1  0.35559000  0.65756000  0.89483000  1.0
  H  H23  1  0.69797000  0.23717000  0.34259000  1.0
  H  H24  1  0.64441000  0.34244000  0.10517000  1.0
  H  H25  1  0.30202000  0.76282000  0.65740000  1.0
  H  H26  1  0.53922000  0.89473000  0.23718000  1.0
  H  H27  1  0.35242000  0.92146000  0.61668000  1.0
  H  H28  1  0.43094000  0.69523000  0.07863000  1.0
  H  H29  1  0.73564000  0.38319000  0.30478000  1.0
  H  H30  1  0.56906000  0.30477000  0.92137000  1.0
  H  H31  1  0.26436000  0.61681000  0.69522000  1.0
  H  H32  1  0.64758000  0.07854000  0.38333000  1.0
  H  H33  1  0.23662000  0.98463000  0.62515000  1.0
  H  H34  1  0.25202000  0.64053000  0.01545000  1.0
  H  H35  1  0.61151000  0.37493000  0.35962000  1.0
  H  H36  1  0.74799000  0.35947000  0.98455000  1.0
  H  H37  1  0.38849000  0.62507000  0.64038000  1.0
  H  H38  1  0.76338000  0.01537000  0.37485000  1.0
  H  H39  1  0.11351000  0.83799000  0.42888000  1.0
  H  H40  1  0.27528000  0.59077000  0.16205000  1.0
  H  H41  1  0.68465000  0.57116000  0.40896000  1.0
  H  H42  1  0.72472000  0.40923000  0.83796000  1.0
  H  H43  1  0.31535000  0.42884000  0.59104000  1.0
  H  H44  1  0.88649000  0.16201000  0.57112000  1.0
  H  H45  1  0.25541000  0.80174000  0.44274000  1.0
  H  H46  1  0.45341000  0.64091000  0.19830000  1.0
  H  H47  1  0.81279000  0.55724000  0.35893000  1.0
  H  H48  1  0.54659000  0.35909000  0.80171000  1.0
  H  H49  1  0.18721000  0.44275000  0.64106000  1.0
  H  H50  1  0.74459000  0.19826000  0.55726000  1.0
  H  H51  1  0.17162000  0.88513000  0.29915000  1.0
  H  H52  1  0.28624000  0.41390000  0.11495000  1.0
  H  H53  1  0.87235000  0.70087000  0.58588000  1.0
  H  H54  1  0.71376000  0.58610000  0.88505000  1.0
  H  H55  1  0.12765000  0.29913000  0.41412000  1.0
  H  H56  1  0.82838000  0.11487000  0.70085000  1.0
  H  H57  1  0.11235000  0.75346000  0.26070000  1.0
  H  H58  1  0.35877000  0.50712000  0.24657000  1.0
  H  H59  1  0.85169000  0.73941000  0.49276000  1.0
  H  H60  1  0.64123000  0.49288000  0.75343000  1.0
  H  H61  1  0.14831000  0.26059000  0.50724000  1.0
  H  H62  1  0.88766000  0.24655000  0.73931000  1.0
  H  H63  1  0.64267000  0.23295000  0.68965000  1.0
  H  H64  1  0.41005000  0.45690000  0.76722000  1.0
  H  H65  1  0.95302000  0.31039000  0.54331000  1.0
  H  H66  1  0.58995000  0.54310000  0.23278000  1.0
  H  H67  1  0.04698000  0.68961000  0.45669000  1.0
  H  H68  1  0.35733000  0.76705000  0.31035000  1.0
  H  H69  1  0.70918000  0.21820000  0.79700000  1.0
  H  H70  1  0.49127000  0.57905000  0.78202000  1.0
  H  H71  1  0.91227000  0.20298000  0.42126000  1.0
  H  H72  1  0.50873000  0.42095000  0.21798000  1.0
  H  H73  1  0.08774000  0.79702000  0.57874000  1.0
  H  H74  1  0.29082000  0.78180000  0.20300000  1.0
  H  H75  1  0.72958000  0.80088000  0.68972000  1.0
  H  H76  1  0.92895000  0.88866000  0.19917000  1.0
  H  H77  1  0.03986000  0.31026000  0.11113000  1.0
  H  H78  1  0.07105000  0.11134000  0.80084000  1.0
  H  H79  1  0.96014000  0.68975000  0.88887000  1.0
  H  H80  1  0.27043000  0.19912000  0.31028000  1.0
  H  H81  1  0.68476000  0.61834000  0.65461000  1.0
  H  H82  1  0.06655000  0.03624000  0.38166000  1.0
  H  H83  1  0.03009000  0.34529000  0.96365000  1.0
  H  H84  1  0.93345000  0.96376000  0.61834000  1.0
  H  H85  1  0.96991000  0.65472000  0.03635000  1.0
  H  H86  1  0.31524000  0.38166000  0.34539000  1.0
  H  H87  1  0.39777000  0.67681000  0.40567000  1.0
  H  H88  1  0.72118000  0.72877000  0.32339000  1.0
  H  H89  1  0.99191000  0.59438000  0.27106000  1.0
  H  H90  1  0.27882000  0.27123000  0.67661000  1.0
  H  H91  1  0.00809000  0.40562000  0.72895000  1.0
  H  H92  1  0.60222000  0.32318000  0.59432000  1.0
  C  C93  1  0.44582000  0.08601000  0.68273000  1.0
  C  C94  1  0.35995000  0.59675000  0.91412000  1.0
  C  C95  1  0.76309000  0.31728000  0.40337000  1.0
  C  C96  1  0.64005000  0.40325000  0.08588000  1.0
  C  C97  1  0.23690000  0.68271000  0.59662000  1.0
  C  C98  1  0.55418000  0.91399000  0.31727000  1.0
  C  C99  1  0.32805000  0.98322000  0.60813000  1.0
  C  C100  1  0.34486000  0.62492000  0.01687000  1.0
  C  C101  1  0.71992000  0.39187000  0.37515000  1.0
  C  C102  1  0.65514000  0.37508000  0.98313000  1.0
  C  C103  1  0.28008000  0.60813000  0.62485000  1.0
  C  C104  1  0.67195000  0.01678000  0.39187000  1.0
  C  C105  1  0.21381000  0.85236000  0.42358000  1.0
  C  C106  1  0.36123000  0.57111000  0.14767000  1.0
  C  C107  1  0.79025000  0.57645000  0.42869000  1.0
  C  C108  1  0.63877000  0.42889000  0.85234000  1.0
  C  C109  1  0.20975000  0.42355000  0.57131000  1.0
  C  C110  1  0.78619000  0.14764000  0.57643000  1.0
  C  C111  1  0.19821000  0.82709000  0.31401000  1.0
  C  C112  1  0.37090000  0.48677000  0.17289000  1.0
  C  C113  1  0.88416000  0.68602000  0.51302000  1.0
  C  C114  1  0.62910000  0.51322000  0.82710000  1.0
  C  C115  1  0.11584000  0.31397000  0.48697000  1.0
  C  C116  1  0.80179000  0.17291000  0.68599000  1.0
  C  C117  1  0.67902000  0.18243000  0.71266000  1.0
  C  C118  1  0.49688000  0.53042000  0.81775000  1.0
  C  C119  1  0.96639000  0.28735000  0.46980000  1.0
  C  C120  1  0.50312000  0.46958000  0.18226000  1.0
  C  C121  1  0.03361000  0.71265000  0.53020000  1.0
  C  C122  1  0.32098000  0.81757000  0.28734000  1.0
  C  C123  1  0.58949000  0.85912000  0.56898000  1.0
  C  C124  1  0.73046000  0.70986000  0.14104000  1.0
  C  C125  1  0.02059000  0.43107000  0.29009000  1.0
  C  C126  1  0.26954000  0.29014000  0.85896000  1.0
  C  C127  1  0.97941000  0.56893000  0.70991000  1.0
  C  C128  1  0.41051000  0.14088000  0.43102000  1.0
  C  C129  1  0.56700000  0.75177000  0.55001000  1.0
  C  C130  1  0.81552000  0.79818000  0.24840000  1.0
  C  C131  1  0.01696000  0.45000000  0.20167000  1.0
  C  C132  1  0.18448000  0.20182000  0.75160000  1.0
  C  C133  1  0.98304000  0.55000000  0.79833000  1.0
  C  C134  1  0.43300000  0.24823000  0.44999000  1.0
  C  C135  1  0.64790000  0.73488000  0.62105000  1.0
  C  C136  1  0.91334000  0.88606000  0.26521000  1.0
  C  C137  1  0.02685000  0.37893000  0.11377000  1.0
  C  C138  1  0.08666000  0.11394000  0.73479000  1.0
  C  C139  1  0.97314000  0.62107000  0.88622000  1.0
  C  C140  1  0.35210000  0.26512000  0.37895000  1.0
  C  C141  1  0.62277000  0.63498000  0.60208000  1.0
  C  C142  1  0.98797000  0.96705000  0.36504000  1.0
  C  C143  1  0.02061000  0.39783000  0.03282000  1.0
  C  C144  1  0.01202000  0.03294000  0.63495000  1.0
  C  C145  1  0.97938000  0.60217000  0.96717000  1.0
  C  C146  1  0.37723000  0.36502000  0.39792000  1.0
  C  C147  1  0.51564000  0.55387000  0.51195000  1.0
  C  C148  1  0.96185000  0.95804000  0.44613000  1.0
  C  C149  1  0.00364000  0.48800000  0.04188000  1.0
  C  C150  1  0.03815000  0.04196000  0.55387000  1.0
  C  C151  1  0.99637000  0.51201000  0.95812000  1.0
  C  C152  1  0.48436000  0.44613000  0.48805000  1.0
  C  C153  1  0.46272000  0.66578000  0.46233000  1.0
  C  C154  1  0.79714000  0.79645000  0.33437000  1.0
  C  C155  1  0.00023000  0.53769000  0.20339000  1.0
  C  C156  1  0.20286000  0.20355000  0.66563000  1.0
  C  C157  1  0.99977000  0.46231000  0.79661000  1.0
  C  C158  1  0.53728000  0.33422000  0.53767000  1.0
  N  N159  1  0.56701000  0.08216000  0.66023000  1.0
  N  N160  1  0.48503000  0.57817000  0.91799000  1.0
  N  N161  1  0.90676000  0.33975000  0.42195000  1.0
  N  N162  1  0.51497000  0.42183000  0.08202000  1.0
  N  N163  1  0.09324000  0.66025000  0.57805000  1.0
  N  N164  1  0.43299000  0.91784000  0.33977000  1.0
  N  N165  1  0.30656000  0.95896000  0.50149000  1.0
  N  N166  1  0.34754000  0.54249000  0.04110000  1.0
  N  N167  1  0.80509000  0.49855000  0.45742000  1.0
  N  N168  1  0.65246000  0.45751000  0.95890000  1.0
  N  N169  1  0.19491000  0.50145000  0.54258000  1.0
  N  N170  1  0.69344000  0.04104000  0.49851000  1.0
  N  N171  1  0.43604000  0.56931000  0.44313000  1.0
  N  N172  1  0.86690000  0.87378000  0.43078000  1.0
  N  N173  1  0.99280000  0.55686000  0.12612000  1.0
  N  N174  1  0.13310000  0.12622000  0.56922000  1.0
  N  N175  1  0.00721000  0.44315000  0.87389000  1.0
  N  N176  1  0.56396000  0.43069000  0.55687000  1.0
  O  O177  1  0.51001000  0.86474000  0.49758000  1.0
  O  O178  1  0.64529000  0.63293000  0.13550000  1.0
  O  O179  1  0.01261000  0.50256000  0.36711000  1.0
  O  O180  1  0.35470000  0.36707000  0.86449000  1.0
  O  O181  1  0.98739000  0.49744000  0.63289000  1.0
  O  O182  1  0.48999000  0.13526000  0.50242000  1.0
  O  O183  1  0.68036000  0.93332000  0.65202000  1.0
  O  O184  1  0.74712000  0.71877000  0.06684000  1.0
  O  O185  1  0.02841000  0.34797000  0.28120000  1.0
  O  O186  1  0.25289000  0.28123000  0.93316000  1.0
  O  O187  1  0.97159000  0.65203000  0.71880000  1.0
  O  O188  1  0.31964000  0.06668000  0.34798000  1.0
