# generated using pymatgen
data_CdH14C12(NO2)3
_symmetry_space_group_name_H-M   'P 1'
_cell_length_a   8.83536000
_cell_length_b   9.94603000
_cell_length_c   10.19960000
_cell_angle_alpha   99.67940000
_cell_angle_beta   107.45500000
_cell_angle_gamma   114.87900000
_symmetry_Int_Tables_number   1
_chemical_formula_structural   CdH14C12(NO2)3
_chemical_formula_sum   'Cd2 H28 C24 N6 O12'
_cell_volume   729.44832761
_cell_formula_units_Z   2
loop_
 _symmetry_equiv_pos_site_id
 _symmetry_equiv_pos_as_xyz
  1  'x, y, z'
loop_
 _atom_site_type_symbol
 _atom_site_label
 _atom_site_symmetry_multiplicity
 _atom_site_fract_x
 _atom_site_fract_y
 _atom_site_fract_z
 _atom_site_occupancy
  Cd  Cd0  1  0.31772000  0.74741000  0.09022000  1.0
  Cd  Cd1  1  0.68228000  0.25259000  0.90977000  1.0
  H  H2  1  0.53151000  0.09529000  0.20032000  1.0
  H  H3  1  0.46849000  0.90471000  0.79968000  1.0
  H  H4  1  0.46917000  0.01992000  0.31435000  1.0
  H  H5  1  0.53083000  0.98007000  0.68564000  1.0
  H  H6  1  0.15644000  0.45279000  0.11718000  1.0
  H  H7  1  0.84357000  0.54722000  0.88283000  1.0
  H  H8  1  0.11188000  0.41502000  0.95394000  1.0
  H  H9  1  0.88813000  0.58498000  0.04607000  1.0
  H  H10  1  0.60480000  0.75966000  0.92040000  1.0
  H  H11  1  0.39519000  0.24033000  0.07959000  1.0
  H  H12  1  0.05021000  0.03021000  0.33455000  1.0
  H  H13  1  0.94978000  0.96979000  0.66544000  1.0
  H  H14  1  0.95135000  0.82580000  0.94947000  1.0
  H  H15  1  0.04864000  0.17420000  0.05052000  1.0
  H  H16  1  0.13170000  0.97088000  0.11563000  1.0
  H  H17  1  0.86829000  0.02912000  0.88436000  1.0
  H  H18  1  0.80931000  0.62501000  0.22177000  1.0
  H  H19  1  0.19069000  0.37500000  0.77823000  1.0
  H  H20  1  0.78587000  0.60521000  0.63328000  1.0
  H  H21  1  0.21413000  0.39478000  0.36672000  1.0
  H  H22  1  0.29401000  0.74444000  0.58852000  1.0
  H  H23  1  0.70599000  0.25556000  0.41148000  1.0
  H  H24  1  0.49474000  0.43235000  0.36116000  1.0
  H  H25  1  0.50526000  0.56765000  0.63884000  1.0
  H  H26  1  0.52237000  0.53165000  0.23270000  1.0
  H  H27  1  0.47763000  0.46835000  0.76730000  1.0
  H  H28  1  0.53295000  0.62767000  0.39997000  1.0
  H  H29  1  0.46705000  0.37232000  0.60004000  1.0
  C  C30  1  0.68405000  0.81908000  0.03721000  1.0
  C  C31  1  0.31593000  0.18091000  0.96278000  1.0
  C  C32  1  0.91134000  0.95879000  0.25035000  1.0
  C  C33  1  0.08865000  0.04121000  0.74964000  1.0
  C  C34  1  0.99636000  0.93580000  0.03346000  1.0
  C  C35  1  0.00363000  0.06420000  0.96653000  1.0
  C  C36  1  0.17605000  0.72700000  0.30994000  1.0
  C  C37  1  0.82395000  0.27301000  0.69007000  1.0
  C  C38  1  0.06493000  0.69299000  0.39789000  1.0
  C  C39  1  0.93508000  0.30701000  0.60211000  1.0
  C  C40  1  0.87703000  0.64119000  0.33637000  1.0
  C  C41  1  0.12297000  0.35881000  0.66363000  1.0
  C  C42  1  0.77310000  0.60767000  0.41865000  1.0
  C  C43  1  0.22690000  0.39233000  0.58136000  1.0
  C  C44  1  0.86284000  0.63058000  0.56615000  1.0
  C  C45  1  0.13716000  0.36942000  0.43385000  1.0
  C  C46  1  0.05099000  0.68324000  0.62967000  1.0
  C  C47  1  0.94902000  0.31675000  0.37033000  1.0
  C  C48  1  0.15028000  0.71143000  0.54404000  1.0
  C  C49  1  0.84973000  0.28856000  0.45596000  1.0
  C  C50  1  0.14540000  0.70909000  0.78717000  1.0
  C  C51  1  0.85460000  0.29092000  0.21283000  1.0
  C  C52  1  0.57042000  0.54679000  0.34934000  1.0
  C  C53  1  0.42958000  0.45321000  0.65067000  1.0
  N  N54  1  0.61701000  0.82228000  0.13686000  1.0
  N  N55  1  0.38298000  0.17772000  0.86314000  1.0
  N  N56  1  0.76064000  0.91088000  0.27275000  1.0
  N  N57  1  0.23934000  0.08912000  0.72724000  1.0
  N  N58  1  0.87008000  0.90447000  0.10424000  1.0
  N  N59  1  0.12990000  0.09552000  0.89575000  1.0
  O  O60  1  0.34428000  0.77020000  0.36586000  1.0
  O  O61  1  0.65573000  0.22984000  0.63416000  1.0
  O  O62  1  0.09243000  0.71126000  0.17530000  1.0
  O  O63  1  0.90758000  0.28874000  0.82471000  1.0
  O  O64  1  0.32096000  0.77966000  0.84894000  1.0
  O  O65  1  0.67905000  0.22034000  0.15105000  1.0
  O  O66  1  0.05117000  0.66207000  0.86012000  1.0
  O  O67  1  0.94885000  0.33794000  0.13989000  1.0
  O  O68  1  0.42328000  0.01858000  0.21392000  1.0
  O  O69  1  0.57672000  0.98142000  0.78607000  1.0
  O  O70  1  0.21900000  0.48019000  0.05192000  1.0
  O  O71  1  0.78101000  0.51982000  0.94810000  1.0
