# generated using pymatgen
data_CaH12C9O10
_symmetry_space_group_name_H-M   'P 1'
_cell_length_a   7.37478000
_cell_length_b   10.12430000
_cell_length_c   16.44170000
_cell_angle_alpha   89.99980000
_cell_angle_beta   89.99980000
_cell_angle_gamma   102.28900000
_symmetry_Int_Tables_number   1
_chemical_formula_structural   CaH12C9O10
_chemical_formula_sum   'Ca4 H48 C36 O40'
_cell_volume   1199.48214455
_cell_formula_units_Z   4
loop_
 _symmetry_equiv_pos_site_id
 _symmetry_equiv_pos_as_xyz
  1  'x, y, z'
loop_
 _atom_site_type_symbol
 _atom_site_label
 _atom_site_symmetry_multiplicity
 _atom_site_fract_x
 _atom_site_fract_y
 _atom_site_fract_z
 _atom_site_occupancy
  Ca  Ca0  1  0.62373000  0.75240000  0.59411000  1.0
  Ca  Ca1  1  0.87626000  0.24761000  0.09411000  1.0
  Ca  Ca2  1  0.37626000  0.24761000  0.40589000  1.0
  Ca  Ca3  1  0.12374000  0.75239000  0.90589000  1.0
  H  H4  1  0.81328000  0.98221000  0.24132000  1.0
  H  H5  1  0.68673000  0.01779000  0.74132000  1.0
  H  H6  1  0.18673000  0.01779000  0.75868000  1.0
  H  H7  1  0.31327000  0.98220000  0.25868000  1.0
  H  H8  1  0.55497000  0.63120000  0.10411000  1.0
  H  H9  1  0.94504000  0.36881000  0.60411000  1.0
  H  H10  1  0.44504000  0.36880000  0.89589000  1.0
  H  H11  1  0.05496000  0.63120000  0.39589000  1.0
  H  H12  1  0.54796000  0.61662000  0.36527000  1.0
  H  H13  1  0.95203000  0.38339000  0.86527000  1.0
  H  H14  1  0.45203000  0.38339000  0.63473000  1.0
  H  H15  1  0.04796000  0.61661000  0.13473000  1.0
  H  H16  1  0.67939000  0.92001000  0.97614000  1.0
  H  H17  1  0.82061000  0.08000000  0.47614000  1.0
  H  H18  1  0.32061000  0.08000000  0.02386000  1.0
  H  H19  1  0.17939000  0.92000000  0.52386000  1.0
  H  H20  1  0.93560000  0.60461000  0.59246000  1.0
  H  H21  1  0.56440000  0.39539000  0.09246000  1.0
  H  H22  1  0.06441000  0.39539000  0.40754000  1.0
  H  H23  1  0.43560000  0.60461000  0.90754000  1.0
  H  H24  1  0.92801000  0.68496000  0.51118000  1.0
  H  H25  1  0.57199000  0.31504000  0.01118000  1.0
  H  H26  1  0.07199000  0.31503000  0.48882000  1.0
  H  H27  1  0.42801000  0.68496000  0.98882000  1.0
  H  H28  1  0.31002000  0.52025000  0.50327000  1.0
  H  H29  1  0.18998000  0.47975000  0.00327000  1.0
  H  H30  1  0.68998000  0.47975000  0.49673000  1.0
  H  H31  1  0.81001000  0.52025000  0.99673000  1.0
  H  H32  1  0.26451000  0.57257000  0.58786000  1.0
  H  H33  1  0.23549000  0.42743000  0.08786000  1.0
  H  H34  1  0.73549000  0.42743000  0.41214000  1.0
  H  H35  1  0.76451000  0.57257000  0.91214000  1.0
  H  H36  1  0.32763000  0.88545000  0.64963000  1.0
  H  H37  1  0.17237000  0.11455000  0.14963000  1.0
  H  H38  1  0.67237000  0.11455000  0.35037000  1.0
  H  H39  1  0.82763000  0.88545000  0.85037000  1.0
  H  H40  1  0.25614000  0.72934000  0.67236000  1.0
  H  H41  1  0.24386000  0.27066000  0.17236000  1.0
  H  H42  1  0.74387000  0.27066000  0.32764000  1.0
  H  H43  1  0.75613000  0.72934000  0.82764000  1.0
  H  H44  1  0.89685000  0.83526000  0.72700000  1.0
  H  H45  1  0.60315000  0.16474000  0.22700000  1.0
  H  H46  1  0.10315000  0.16474000  0.27300000  1.0
  H  H47  1  0.39685000  0.83526000  0.77300000  1.0
  H  H48  1  0.00825000  0.91356000  0.65048000  1.0
  H  H49  1  0.49175000  0.08644000  0.15048000  1.0
  H  H50  1  0.99175000  0.08644000  0.34952000  1.0
  H  H51  1  0.50825000  0.91356000  0.84952000  1.0
  C  C52  1  0.72540000  0.87306000  0.39481000  1.0
  C  C53  1  0.77460000  0.12694000  0.89481000  1.0
  C  C54  1  0.27460000  0.12694000  0.60519000  1.0
  C  C55  1  0.22540000  0.87306000  0.10519000  1.0
  C  C56  1  0.68442000  0.80751000  0.31284000  1.0
  C  C57  1  0.81558000  0.19249000  0.81284000  1.0
  C  C58  1  0.31558000  0.19249000  0.68716000  1.0
  C  C59  1  0.18442000  0.80751000  0.18716000  1.0
  C  C60  1  0.73764000  0.87758000  0.24051000  1.0
  C  C61  1  0.76236000  0.12242000  0.74052000  1.0
  C  C62  1  0.26236000  0.12242000  0.75948000  1.0
  C  C63  1  0.23763000  0.87758000  0.25948000  1.0
  C  C64  1  0.69034000  0.81496000  0.16510000  1.0
  C  C65  1  0.80967000  0.18504000  0.66510000  1.0
  C  C66  1  0.30966000  0.18504000  0.83490000  1.0
  C  C67  1  0.19034000  0.81496000  0.33490000  1.0
  C  C68  1  0.59182000  0.68086000  0.16228000  1.0
  C  C69  1  0.90818000  0.31914000  0.66228000  1.0
  C  C70  1  0.40818000  0.31914000  0.83772000  1.0
  C  C71  1  0.09182000  0.68086000  0.33772000  1.0
  C  C72  1  0.54248000  0.60877000  0.23441000  1.0
  C  C73  1  0.95751000  0.39124000  0.73441000  1.0
  C  C74  1  0.45751000  0.39123000  0.76559000  1.0
  C  C75  1  0.04248000  0.60876000  0.26559000  1.0
  C  C76  1  0.58800000  0.67261000  0.30923000  1.0
  C  C77  1  0.91201000  0.32740000  0.80923000  1.0
  C  C78  1  0.41201000  0.32739000  0.69077000  1.0
  C  C79  1  0.08799000  0.67260000  0.19077000  1.0
  C  C80  1  0.74279000  0.89669000  0.09010000  1.0
  C  C81  1  0.75722000  0.10331000  0.59011000  1.0
  C  C82  1  0.25722000  0.10331000  0.90989000  1.0
  C  C83  1  0.24278000  0.89669000  0.40989000  1.0
  C  C84  1  0.43824000  0.46423000  0.23267000  1.0
  C  C85  1  0.06176000  0.53578000  0.73267000  1.0
  C  C86  1  0.56176000  0.53577000  0.76733000  1.0
  C  C87  1  0.93823000  0.46422000  0.26734000  1.0
  O  O88  1  0.69188000  0.80047000  0.45697000  1.0
  O  O89  1  0.80812000  0.19953000  0.95698000  1.0
  O  O90  1  0.30812000  0.19953000  0.54302000  1.0
  O  O91  1  0.19188000  0.80047000  0.04302000  1.0
  O  O92  1  0.79341000  0.00212000  0.39660000  1.0
  O  O93  1  0.70659000  0.99788000  0.89660000  1.0
  O  O94  1  0.20659000  0.99788000  0.60340000  1.0
  O  O95  1  0.29341000  0.00212000  0.10340000  1.0
  O  O96  1  0.86645000  0.00068000  0.09007000  1.0
  O  O97  1  0.63356000  0.99932000  0.59007000  1.0
  O  O98  1  0.13356000  0.99932000  0.90993000  1.0
  O  O99  1  0.36645000  0.00068000  0.40993000  1.0
  O  O100  1  0.39944000  0.40900000  0.16209000  1.0
  O  O101  1  0.10056000  0.59100000  0.66210000  1.0
  O  O102  1  0.60056000  0.59100000  0.83790000  1.0
  O  O103  1  0.89944000  0.40900000  0.33791000  1.0
  O  O104  1  0.39206000  0.40390000  0.29855000  1.0
  O  O105  1  0.10793000  0.59609000  0.79855000  1.0
  O  O106  1  0.60793000  0.59609000  0.70145000  1.0
  O  O107  1  0.89206000  0.40390000  0.20145000  1.0
  O  O108  1  0.64360000  0.85169000  0.02439000  1.0
  O  O109  1  0.85640000  0.14832000  0.52440000  1.0
  O  O110  1  0.35640000  0.14831000  0.97560000  1.0
  O  O111  1  0.14360000  0.85169000  0.47560000  1.0
  O  O112  1  0.85059000  0.61987000  0.54769000  1.0
  O  O113  1  0.64941000  0.38013000  0.04769000  1.0
  O  O114  1  0.14941000  0.38012000  0.45231000  1.0
  O  O115  1  0.35059000  0.61987000  0.95231000  1.0
  O  O116  1  0.36235000  0.58611000  0.54573000  1.0
  O  O117  1  0.13764000  0.41389000  0.04573000  1.0
  O  O118  1  0.63764000  0.41389000  0.45427000  1.0
  O  O119  1  0.86235000  0.58611000  0.95427000  1.0
  O  O120  1  0.36950000  0.80605000  0.67211000  1.0
  O  O121  1  0.13050000  0.19395000  0.17211000  1.0
  O  O122  1  0.63051000  0.19395000  0.32789000  1.0
  O  O123  1  0.86950000  0.80605000  0.82789000  1.0
  O  O124  1  0.89027000  0.85432000  0.66772000  1.0
  O  O125  1  0.60973000  0.14568000  0.16772000  1.0
  O  O126  1  0.10973000  0.14567000  0.33228000  1.0
  O  O127  1  0.39027000  0.85432000  0.83228000  1.0
