# generated using pymatgen
data_Cu2H22C24N4O7
_symmetry_space_group_name_H-M   'P 1'
_cell_length_a   8.52138000
_cell_length_b   9.65800000
_cell_length_c   15.55050000
_cell_angle_alpha   85.24700000
_cell_angle_beta   78.50620000
_cell_angle_gamma   74.85070000
_symmetry_Int_Tables_number   1
_chemical_formula_structural   Cu2H22C24N4O7
_chemical_formula_sum   'Cu4 H44 C48 N8 O14'
_cell_volume   1209.90861731
_cell_formula_units_Z   2
loop_
 _symmetry_equiv_pos_site_id
 _symmetry_equiv_pos_as_xyz
  1  'x, y, z'
loop_
 _atom_site_type_symbol
 _atom_site_label
 _atom_site_symmetry_multiplicity
 _atom_site_fract_x
 _atom_site_fract_y
 _atom_site_fract_z
 _atom_site_occupancy
  Cu  Cu0  1  0.83239000  0.48401000  0.47318000  1.0
  Cu  Cu1  1  0.16761000  0.51600000  0.52682000  1.0
  Cu  Cu2  1  0.08823000  0.92359000  0.93406000  1.0
  Cu  Cu3  1  0.91177000  0.07639000  0.06594000  1.0
  H  H4  1  0.12312000  0.33156000  0.33345000  1.0
  H  H5  1  0.87688000  0.66845000  0.66656000  1.0
  H  H6  1  0.16437000  0.31602000  0.16912000  1.0
  H  H7  1  0.83563000  0.68398000  0.83088000  1.0
  H  H8  1  0.94296000  0.46171000  0.09157000  1.0
  H  H9  1  0.05704000  0.53829000  0.90844000  1.0
  H  H10  1  0.69450000  0.62616000  0.17860000  1.0
  H  H11  1  0.30551000  0.37384000  0.82140000  1.0
  H  H12  1  0.26327000  0.81913000  0.60078000  1.0
  H  H13  1  0.73673000  0.18087000  0.39922000  1.0
  H  H14  1  0.08882000  0.92717000  0.74004000  1.0
  H  H15  1  0.91118000  0.07282000  0.25996000  1.0
  H  H16  1  0.61017000  0.56624000  0.75513000  1.0
  H  H17  1  0.38983000  0.43376000  0.24487000  1.0
  H  H18  1  0.41493000  0.67970000  0.89007000  1.0
  H  H19  1  0.58507000  0.32030000  0.10994000  1.0
  H  H20  1  0.30364000  0.73621000  0.42017000  1.0
  H  H21  1  0.69636000  0.26380000  0.57983000  1.0
  H  H22  1  0.10374000  0.94534000  0.36835000  1.0
  H  H23  1  0.89626000  0.05467000  0.63165000  1.0
  H  H24  1  0.19660000  0.09902000  0.24275000  1.0
  H  H25  1  0.80340000  0.90098000  0.75725000  1.0
  H  H26  1  0.49785000  0.04963000  0.17467000  1.0
  H  H27  1  0.50215000  0.95038000  0.82533000  1.0
  H  H28  1  0.69776000  0.84834000  0.22843000  1.0
  H  H29  1  0.30224000  0.15166000  0.77157000  1.0
  H  H30  1  0.18735000  0.00419000  0.52067000  1.0
  H  H31  1  0.81265000  0.99581000  0.47934000  1.0
  H  H32  1  0.19111000  0.13474000  0.59585000  1.0
  H  H33  1  0.80889000  0.86526000  0.40415000  1.0
  H  H34  1  0.30841000  0.13185000  0.48839000  1.0
  H  H35  1  0.69159000  0.86815000  0.51162000  1.0
  H  H36  1  0.28789000  0.59655000  0.13359000  1.0
  H  H37  1  0.71212000  0.40343000  0.86641000  1.0
  H  H38  1  0.13202000  0.67577000  0.22443000  1.0
  H  H39  1  0.86798000  0.32423000  0.77557000  1.0
  H  H40  1  0.30901000  0.74264000  0.19052000  1.0
  H  H41  1  0.69099000  0.25736000  0.80948000  1.0
  H  H42  1  0.68033000  0.68540000  0.98833000  1.0
  H  H43  1  0.31965000  0.31460000  0.01166000  1.0
  H  H44  1  0.55089000  0.85274000  0.95936000  1.0
  H  H45  1  0.44911000  0.14726000  0.04063000  1.0
  H  H46  1  0.55135000  0.80555000  0.07162000  1.0
  H  H47  1  0.44865000  0.19445000  0.92837000  1.0
  C  C48  1  0.03299000  0.39577000  0.29596000  1.0
  C  C49  1  0.96702000  0.60423000  0.70404000  1.0
  C  C50  1  0.05557000  0.38856000  0.20505000  1.0
  C  C51  1  0.94443000  0.61144000  0.79495000  1.0
  C  C52  1  0.93229000  0.47103000  0.16198000  1.0
  C  C53  1  0.06771000  0.52897000  0.83802000  1.0
  C  C54  1  0.79370000  0.56183000  0.21020000  1.0
  C  C55  1  0.20630000  0.43817000  0.78980000  1.0
  C  C56  1  0.77916000  0.56631000  0.30132000  1.0
  C  C57  1  0.22084000  0.43370000  0.69869000  1.0
  C  C58  1  0.63619000  0.65425000  0.35977000  1.0
  C  C59  1  0.36381000  0.34575000  0.64023000  1.0
  C  C60  1  0.56516000  0.62506000  0.58666000  1.0
  C  C61  1  0.43484000  0.37494000  0.41334000  1.0
  C  C62  1  0.45318000  0.68745000  0.66737000  1.0
  C  C63  1  0.54682000  0.31255000  0.33263000  1.0
  C  C64  1  0.30372000  0.78872000  0.66313000  1.0
  C  C65  1  0.69628000  0.21127000  0.33687000  1.0
  C  C66  1  0.20507000  0.84630000  0.74060000  1.0
  C  C67  1  0.79493000  0.15369000  0.25940000  1.0
  C  C68  1  0.49554000  0.64644000  0.75003000  1.0
  C  C69  1  0.50446000  0.35356000  0.24998000  1.0
  C  C70  1  0.38828000  0.70888000  0.82416000  1.0
  C  C71  1  0.61172000  0.29112000  0.17584000  1.0
  C  C72  1  0.51466000  0.77451000  0.32735000  1.0
  C  C73  1  0.48534000  0.22550000  0.67265000  1.0
  C  C74  1  0.34590000  0.80457000  0.36639000  1.0
  C  C75  1  0.65410000  0.19544000  0.63361000  1.0
  C  C76  1  0.23315000  0.92112000  0.33631000  1.0
  C  C77  1  0.76685000  0.07888000  0.66369000  1.0
  C  C78  1  0.28609000  0.00950000  0.26694000  1.0
  C  C79  1  0.71391000  0.99051000  0.73306000  1.0
  C  C80  1  0.45325000  0.98180000  0.22833000  1.0
  C  C81  1  0.54675000  0.01820000  0.77167000  1.0
  C  C82  1  0.56729000  0.86558000  0.25820000  1.0
  C  C83  1  0.43271000  0.13442000  0.74180000  1.0
  C  C84  1  0.04651000  0.21621000  0.49496000  1.0
  C  C85  1  0.95349000  0.78379000  0.50504000  1.0
  C  C86  1  0.19195000  0.11469000  0.52728000  1.0
  C  C87  1  0.80805000  0.88531000  0.47272000  1.0
  C  C88  1  0.13577000  0.80421000  0.10394000  1.0
  C  C89  1  0.86423000  0.19577000  0.89606000  1.0
  C  C90  1  0.22121000  0.69640000  0.16674000  1.0
  C  C91  1  0.77879000  0.30359000  0.83325000  1.0
  C  C92  1  0.76768000  0.87170000  0.00292000  1.0
  C  C93  1  0.23232000  0.12829000  0.99707000  1.0
  C  C94  1  0.62970000  0.79795000  0.00629000  1.0
  C  C95  1  0.37029000  0.20205000  0.99370000  1.0
  N  N96  1  0.89829000  0.48046000  0.34234000  1.0
  N  N97  1  0.10171000  0.51954000  0.65766000  1.0
  N  N98  1  0.63513000  0.61494000  0.44312000  1.0
  N  N99  1  0.36487000  0.38507000  0.55688000  1.0
  N  N100  1  0.52014000  0.67847000  0.50998000  1.0
  N  N101  1  0.47986000  0.32153000  0.49002000  1.0
  N  N102  1  0.24568000  0.80814000  0.82001000  1.0
  N  N103  1  0.75432000  0.19186000  0.17999000  1.0
  O  O104  1  0.69794000  0.52807000  0.59462000  1.0
  O  O105  1  0.30207000  0.47193000  0.40538000  1.0
  O  O106  1  0.01768000  0.35106000  0.51491000  1.0
  O  O107  1  0.98232000  0.64894000  0.48509000  1.0
  O  O108  1  0.96017000  0.17429000  0.45198000  1.0
  O  O109  1  0.03983000  0.82571000  0.54803000  1.0
  O  O110  1  0.74157000  0.96940000  0.05798000  1.0
  O  O111  1  0.25845000  0.03057000  0.94203000  1.0
  O  O112  1  0.89741000  0.83158000  0.94486000  1.0
  O  O113  1  0.10258000  0.16842000  0.05513000  1.0
  O  O114  1  0.18247000  0.77941000  0.02224000  1.0
  O  O115  1  0.81752000  0.22057000  0.97776000  1.0
  O  O116  1  0.02615000  0.91249000  0.13763000  1.0
  O  O117  1  0.97386000  0.08751000  0.86236000  1.0
