# generated using pymatgen
data_CdH40C28S2(N2O5)2
_symmetry_space_group_name_H-M   'P 1'
_cell_length_a   7.47025000
_cell_length_b   9.91759000
_cell_length_c   11.83471976
_cell_angle_alpha   88.76435813
_cell_angle_beta   72.18917670
_cell_angle_gamma   84.14290000
_symmetry_Int_Tables_number   1
_chemical_formula_structural   CdH40C28S2(N2O5)2
_chemical_formula_sum   'Cd1 H40 C28 S2 N4 O10'
_cell_volume   830.37291540
_cell_formula_units_Z   1
loop_
 _symmetry_equiv_pos_site_id
 _symmetry_equiv_pos_as_xyz
  1  'x, y, z'
loop_
 _atom_site_type_symbol
 _atom_site_label
 _atom_site_symmetry_multiplicity
 _atom_site_fract_x
 _atom_site_fract_y
 _atom_site_fract_z
 _atom_site_occupancy
  Cd  Cd0  1  0.11938000  0.50100000  0.60159000  1.0
  H  H1  1  0.54121000  0.41741000  0.55894000  1.0
  H  H2  1  0.85818000  0.43523000  0.41511000  1.0
  H  H3  1  0.57987000  0.62252000  0.17270000  1.0
  H  H4  1  0.27445000  0.60164000  0.32880000  1.0
  H  H5  1  0.20880000  0.67189000  0.94087000  1.0
  H  H6  1  0.04016000  0.34682000  0.26964000  1.0
  H  H7  1  0.98302000  0.77592000  0.91583000  1.0
  H  H8  1  0.65595000  0.95287000  0.08401000  1.0
  H  H9  1  0.76465000  0.98651000  0.93298000  1.0
  H  H10  1  0.53580000  0.74496000  0.03177000  1.0
  H  H11  1  0.65922000  0.76382000  0.87966000  1.0
  H  H12  1  0.46886000  0.88354000  0.95203000  1.0
  H  H13  1  0.16449000  0.86420000  0.04497000  1.0
  H  H14  1  0.95903000  0.97334000  0.11899000  1.0
  H  H15  1  0.07877000  0.99496000  0.96505000  1.0
  H  H16  1  0.27294000  0.26220000  0.30528000  1.0
  H  H17  1  0.38284000  0.06553000  0.09444000  1.0
  H  H18  1  0.15268000  0.13020000  0.17802000  1.0
  H  H19  1  0.19679000  0.00430000  0.35917000  1.0
  H  H20  1  0.41884000  0.92832000  0.26952000  1.0
  H  H21  1  0.20931000  0.89545000  0.24001000  1.0
  H  H22  1  0.61049000  0.27484000  0.27334000  1.0
  H  H23  1  0.67274000  0.14747000  0.16059000  1.0
  H  H24  1  0.55899000  0.10618000  0.31101000  1.0
  H  H25  1  0.67262000  0.42080000  0.04244000  1.0
  H  H26  1  0.97317000  0.42983000  0.87867000  1.0
  H  H27  1  0.69061000  0.56213000  0.63984000  1.0
  H  H28  1  0.37696000  0.55478000  0.79243000  1.0
  H  H29  1  0.65208000  0.81851000  0.45536000  1.0
  H  H30  1  0.84916000  0.81198000  0.32024000  1.0
  H  H31  1  0.78090000  0.96571000  0.40759000  1.0
  H  H32  1  0.89212000  0.82804000  0.69544000  1.0
  H  H33  1  0.67338000  0.84109000  0.65835000  1.0
  H  H34  1  0.82071000  0.98071000  0.62922000  1.0
  H  H35  1  0.53902000  0.15257000  0.55514000  1.0
  H  H36  1  0.31466000  0.16342000  0.52560000  1.0
  H  H37  1  0.39136000  0.01350000  0.59341000  1.0
  H  H38  1  0.39212000  0.19748000  0.89060000  1.0
  H  H39  1  0.58040000  0.18727000  0.75117000  1.0
  H  H40  1  0.45509000  0.04079000  0.80715000  1.0
  C  C41  1  0.55695000  0.46243000  0.47204000  1.0
  C  C42  1  0.73313000  0.47107000  0.39050000  1.0
  C  C43  1  0.75005000  0.52671000  0.27784000  1.0
  C  C44  1  0.57961000  0.57671000  0.25691000  1.0
  C  C45  1  0.40784000  0.56531000  0.34389000  1.0
  C  C46  1  0.93920000  0.52326000  0.18943000  1.0
  C  C47  1  0.98941000  0.61749000  0.09580000  1.0
  C  C48  1  0.17043000  0.60153000  0.01407000  1.0
  C  C49  1  0.30898000  0.49928000  0.02415000  1.0
  C  C50  1  0.26239000  0.40935000  0.12103000  1.0
  C  C51  1  0.07860000  0.42034000  0.19898000  1.0
  C  C52  1  0.90981000  0.82646000  0.00198000  1.0
  C  C53  1  0.72591000  0.90400000  0.99705000  1.0
  C  C54  1  0.59075000  0.81949000  0.96336000  1.0
  C  C55  1  0.03579000  0.91981000  0.03515000  1.0
  C  C56  1  0.37368000  0.21604000  0.22368000  1.0
  C  C57  1  0.29377000  0.09551000  0.18472000  1.0
  C  C58  1  0.27972000  0.97475000  0.26789000  1.0
  C  C59  1  0.56540000  0.18409000  0.24311000  1.0
  C  C60  1  0.49560000  0.49062000  0.93285000  1.0
  C  C61  1  0.66856000  0.45211000  0.95476000  1.0
  C  C62  1  0.83719000  0.45698000  0.86367000  1.0
  C  C63  1  0.67918000  0.53064000  0.73034000  1.0
  C  C64  1  0.50551000  0.52852000  0.81622000  1.0
  C  C65  1  0.79004000  0.85456000  0.41028000  1.0
  C  C66  1  0.81831000  0.87000000  0.63343000  1.0
  C  C67  1  0.39379000  0.12396000  0.58548000  1.0
  C  C68  1  0.44430000  0.15177000  0.80148000  1.0
  S  S69  1  0.95452000  0.80141000  0.49001000  1.0
  S  S70  1  0.26966000  0.20007000  0.72802000  1.0
  N  N71  1  0.39496000  0.50812000  0.44999000  1.0
  N  N72  1  0.84371000  0.49625000  0.75300000  1.0
  N  N73  1  0.28019000  0.77120000  0.68436000  1.0
  N  N74  1  0.94419000  0.22775000  0.53202000  1.0
  O  O75  1  0.85729000  0.72205000  0.09180000  1.0
  O  O76  1  0.40416000  0.31563000  0.12930000  1.0
  O  O77  1  0.95321000  0.64703000  0.49819000  1.0
  O  O78  1  0.27544000  0.35338000  0.71084000  1.0
  O  O79  1  0.16450000  0.67990000  0.72393000  1.0
  O  O80  1  0.34090000  0.79179000  0.57463000  1.0
  O  O81  1  0.32766000  0.83710000  0.75856000  1.0
  O  O82  1  0.05866000  0.31909000  0.48890000  1.0
  O  O83  1  0.88005000  0.16835000  0.46193000  1.0
  O  O84  1  0.90184000  0.20064000  0.64067000  1.0
