# generated using pymatgen
data_CuH9C17NO4
_symmetry_space_group_name_H-M   'P 1'
_cell_length_a   11.55940000
_cell_length_b   14.71790000
_cell_length_c   21.75000000
_cell_angle_alpha   89.99990000
_cell_angle_beta   90.00030000
_cell_angle_gamma   89.99970000
_symmetry_Int_Tables_number   1
_chemical_formula_structural   CuH9C17NO4
_chemical_formula_sum   'Cu8 H72 C136 N8 O32'
_cell_volume   3700.32952830
_cell_formula_units_Z   8
loop_
 _symmetry_equiv_pos_site_id
 _symmetry_equiv_pos_as_xyz
  1  'x, y, z'
loop_
 _atom_site_type_symbol
 _atom_site_label
 _atom_site_symmetry_multiplicity
 _atom_site_fract_x
 _atom_site_fract_y
 _atom_site_fract_z
 _atom_site_occupancy
  Cu  Cu0  1  0.98634000  0.04683000  0.94835000  1.0
  Cu  Cu1  1  0.01365000  0.45317000  0.44835000  1.0
  Cu  Cu2  1  0.48634000  0.95317000  0.55165000  1.0
  Cu  Cu3  1  0.51366000  0.54683000  0.05164000  1.0
  Cu  Cu4  1  0.01365000  0.95317000  0.05165000  1.0
  Cu  Cu5  1  0.98633000  0.54683000  0.55165000  1.0
  Cu  Cu6  1  0.51366000  0.04683000  0.44835000  1.0
  Cu  Cu7  1  0.48634000  0.45317000  0.94835000  1.0
  H  H8  1  0.98360000  0.50688000  0.32157000  1.0
  H  H9  1  0.01640000  0.99312000  0.82157000  1.0
  H  H10  1  0.48360000  0.49312000  0.17843000  1.0
  H  H11  1  0.51640000  0.00688000  0.67843000  1.0
  H  H12  1  0.01640000  0.49311000  0.67843000  1.0
  H  H13  1  0.98360000  0.00688000  0.17843000  1.0
  H  H14  1  0.51639000  0.50688000  0.82157000  1.0
  H  H15  1  0.48360000  0.99311000  0.32157000  1.0
  H  H16  1  0.03511000  0.46966000  0.21307000  1.0
  H  H17  1  0.96490000  0.03034000  0.71308000  1.0
  H  H18  1  0.53510000  0.53034000  0.28692000  1.0
  H  H19  1  0.46490000  0.96966000  0.78692000  1.0
  H  H20  1  0.96491000  0.53034000  0.78693000  1.0
  H  H21  1  0.03511000  0.96966000  0.28693000  1.0
  H  H22  1  0.46490000  0.46966000  0.71307000  1.0
  H  H23  1  0.53509000  0.03034000  0.21307000  1.0
  H  H24  1  0.09216000  0.26734000  0.44232000  1.0
  H  H25  1  0.90784000  0.23265000  0.94233000  1.0
  H  H26  1  0.59216000  0.73265000  0.05767000  1.0
  H  H27  1  0.40785000  0.76734000  0.55768000  1.0
  H  H28  1  0.90784000  0.73265000  0.55767000  1.0
  H  H29  1  0.09216000  0.76736000  0.05768000  1.0
  H  H30  1  0.40785000  0.26735000  0.94232000  1.0
  H  H31  1  0.59216000  0.23265000  0.44233000  1.0
  H  H32  1  0.21060000  0.12669000  0.42739000  1.0
  H  H33  1  0.78939000  0.37330000  0.92740000  1.0
  H  H34  1  0.71061000  0.87330000  0.07260000  1.0
  H  H35  1  0.28940000  0.62669000  0.57261000  1.0
  H  H36  1  0.78939000  0.87330000  0.57260000  1.0
  H  H37  1  0.21060000  0.62670000  0.07261000  1.0
  H  H38  1  0.28940000  0.12670000  0.92740000  1.0
  H  H39  1  0.71061000  0.37330000  0.42740000  1.0
  H  H40  1  0.28768000  0.08859000  0.32466000  1.0
  H  H41  1  0.71232000  0.41140000  0.82466000  1.0
  H  H42  1  0.78768000  0.91140000  0.17534000  1.0
  H  H43  1  0.21232000  0.58859000  0.67535000  1.0
  H  H44  1  0.71231000  0.91140000  0.67534000  1.0
  H  H45  1  0.28768000  0.58860000  0.17534000  1.0
  H  H46  1  0.21231000  0.08860000  0.82466000  1.0
  H  H47  1  0.78768000  0.41140000  0.32466000  1.0
  H  H48  1  0.24039000  0.18386000  0.23422000  1.0
  H  H49  1  0.75962000  0.31615000  0.73422000  1.0
  H  H50  1  0.74038000  0.81615000  0.26577000  1.0
  H  H51  1  0.25960000  0.68386000  0.76578000  1.0
  H  H52  1  0.75962000  0.81614000  0.76577000  1.0
  H  H53  1  0.24039000  0.68385000  0.26578000  1.0
  H  H54  1  0.25961000  0.18386000  0.73422000  1.0
  H  H55  1  0.74038000  0.31614000  0.23422000  1.0
  H  H56  1  0.23987000  0.44486000  0.16100000  1.0
  H  H57  1  0.76014000  0.05514000  0.66101000  1.0
  H  H58  1  0.73988000  0.55515000  0.33899000  1.0
  H  H59  1  0.26013000  0.94486000  0.83900000  1.0
  H  H60  1  0.76013000  0.55515000  0.83899000  1.0
  H  H61  1  0.23988000  0.94485000  0.33900000  1.0
  H  H62  1  0.26012000  0.44485000  0.66101000  1.0
  H  H63  1  0.73987000  0.05515000  0.16101000  1.0
  H  H64  1  0.21357000  0.27982000  0.99854000  1.0
  H  H65  1  0.78644000  0.22017000  0.49854000  1.0
  H  H66  1  0.71357000  0.72018000  0.50146000  1.0
  H  H67  1  0.28643000  0.77983000  0.00146000  1.0
  H  H68  1  0.78643000  0.72018000  0.00146000  1.0
  H  H69  1  0.21356000  0.77982000  0.50146000  1.0
  H  H70  1  0.28643000  0.27982000  0.49854000  1.0
  H  H71  1  0.71357000  0.22018000  0.99854000  1.0
  H  H72  1  0.06103000  0.18787000  0.16809000  1.0
  H  H73  1  0.93896000  0.31214000  0.66810000  1.0
  H  H74  1  0.56104000  0.81213000  0.33190000  1.0
  H  H75  1  0.43896000  0.68787000  0.83191000  1.0
  H  H76  1  0.93896000  0.81214000  0.83190000  1.0
  H  H77  1  0.06104000  0.68786000  0.33191000  1.0
  H  H78  1  0.43896000  0.18786000  0.66810000  1.0
  H  H79  1  0.56104000  0.31214000  0.16809000  1.0
  C  C80  1  0.02615000  0.44264000  0.31068000  1.0
  C  C81  1  0.97386000  0.05736000  0.81068000  1.0
  C  C82  1  0.52614000  0.55736000  0.18932000  1.0
  C  C83  1  0.47385000  0.94264000  0.68932000  1.0
  C  C84  1  0.97386000  0.55736000  0.68932000  1.0
  C  C85  1  0.02615000  0.94264000  0.18932000  1.0
  C  C86  1  0.47385000  0.44264000  0.81068000  1.0
  C  C87  1  0.52614000  0.05736000  0.31068000  1.0
  C  C88  1  0.05647000  0.42195000  0.24971000  1.0
  C  C89  1  0.94353000  0.07805000  0.74971000  1.0
  C  C90  1  0.55647000  0.57805000  0.25029000  1.0
  C  C91  1  0.44353000  0.92195000  0.75029000  1.0
  C  C92  1  0.94353000  0.57805000  0.75029000  1.0
  C  C93  1  0.05647000  0.92195000  0.25030000  1.0
  C  C94  1  0.44353000  0.42195000  0.74971000  1.0
  C  C95  1  0.55646000  0.07805000  0.24971000  1.0
  C  C96  1  0.11232000  0.34088000  0.23651000  1.0
  C  C97  1  0.88768000  0.15912000  0.73651000  1.0
  C  C98  1  0.61232000  0.65912000  0.26349000  1.0
  C  C99  1  0.38768000  0.84088000  0.76349000  1.0
  C  C100  1  0.88768000  0.65912000  0.76349000  1.0
  C  C101  1  0.11232000  0.84088000  0.26349000  1.0
  C  C102  1  0.38768000  0.34088000  0.73651000  1.0
  C  C103  1  0.61232000  0.15912000  0.23651000  1.0
  C  C104  1  0.13957000  0.28162000  0.28643000  1.0
  C  C105  1  0.86044000  0.21838000  0.78643000  1.0
  C  C106  1  0.63956000  0.71838000  0.21356000  1.0
  C  C107  1  0.36043000  0.78162000  0.71357000  1.0
  C  C108  1  0.86043000  0.71838000  0.71357000  1.0
  C  C109  1  0.13956000  0.78162000  0.21357000  1.0
  C  C110  1  0.36043000  0.28162000  0.78643000  1.0
  C  C111  1  0.63956000  0.21838000  0.28643000  1.0
  C  C112  1  0.10164000  0.30709000  0.34704000  1.0
  C  C113  1  0.89836000  0.19291000  0.84704000  1.0
  C  C114  1  0.60164000  0.69291000  0.15296000  1.0
  C  C115  1  0.39836000  0.80709000  0.65297000  1.0
  C  C116  1  0.89836000  0.69291000  0.65296000  1.0
  C  C117  1  0.10164000  0.80709000  0.15296000  1.0
  C  C118  1  0.39836000  0.30709000  0.84704000  1.0
  C  C119  1  0.60164000  0.19291000  0.34704000  1.0
  C  C120  1  0.12482000  0.24828000  0.39721000  1.0
  C  C121  1  0.87518000  0.25172000  0.89721000  1.0
  C  C122  1  0.62482000  0.75172000  0.10279000  1.0
  C  C123  1  0.37518000  0.74827000  0.60280000  1.0
  C  C124  1  0.87517000  0.75172000  0.60279000  1.0
  C  C125  1  0.12482000  0.74828000  0.10280000  1.0
  C  C126  1  0.37518000  0.24828000  0.89721000  1.0
  C  C127  1  0.62482000  0.25172000  0.39721000  1.0
  C  C128  1  0.18942000  0.17053000  0.38863000  1.0
  C  C129  1  0.81058000  0.32947000  0.88863000  1.0
  C  C130  1  0.68942000  0.82947000  0.11136000  1.0
  C  C131  1  0.31058000  0.67053000  0.61137000  1.0
  C  C132  1  0.81057000  0.82946000  0.61137000  1.0
  C  C133  1  0.18942000  0.67053000  0.11137000  1.0
  C  C134  1  0.31058000  0.17053000  0.88863000  1.0
  C  C135  1  0.68942000  0.32947000  0.38863000  1.0
  C  C136  1  0.23241000  0.14802000  0.32972000  1.0
  C  C137  1  0.76759000  0.35198000  0.82972000  1.0
  C  C138  1  0.73241000  0.85198000  0.17027000  1.0
  C  C139  1  0.26759000  0.64802000  0.67029000  1.0
  C  C140  1  0.76759000  0.85198000  0.67027000  1.0
  C  C141  1  0.23241000  0.64802000  0.17028000  1.0
  C  C142  1  0.26759000  0.14802000  0.82972000  1.0
  C  C143  1  0.73241000  0.35198000  0.32972000  1.0
  C  C144  1  0.20682000  0.20149000  0.27951000  1.0
  C  C145  1  0.79319000  0.29851000  0.77951000  1.0
  C  C146  1  0.70682000  0.79851000  0.22048000  1.0
  C  C147  1  0.29318000  0.70149000  0.72049000  1.0
  C  C148  1  0.79319000  0.79851000  0.72049000  1.0
  C  C149  1  0.20682000  0.70149000  0.22049000  1.0
  C  C150  1  0.29318000  0.20149000  0.77951000  1.0
  C  C151  1  0.70682000  0.29851000  0.27951000  1.0
  C  C152  1  0.14377000  0.32003000  0.17206000  1.0
  C  C153  1  0.85624000  0.17997000  0.67206000  1.0
  C  C154  1  0.64377000  0.67997000  0.32794000  1.0
  C  C155  1  0.35623000  0.82004000  0.82794000  1.0
  C  C156  1  0.85624000  0.67997000  0.82794000  1.0
  C  C157  1  0.14377000  0.82003000  0.32795000  1.0
  C  C158  1  0.35623000  0.32003000  0.67206000  1.0
  C  C159  1  0.64376000  0.17997000  0.17206000  1.0
  C  C160  1  0.20799000  0.38367000  0.13857000  1.0
  C  C161  1  0.79203000  0.11633000  0.63857000  1.0
  C  C162  1  0.70798000  0.61633000  0.36142000  1.0
  C  C163  1  0.29202000  0.88368000  0.86143000  1.0
  C  C164  1  0.79202000  0.61633000  0.86142000  1.0
  C  C165  1  0.20799000  0.88366000  0.36143000  1.0
  C  C166  1  0.29201000  0.38366000  0.63857000  1.0
  C  C167  1  0.70798000  0.11633000  0.13858000  1.0
  C  C168  1  0.23515000  0.36861000  0.07677000  1.0
  C  C169  1  0.76485000  0.13140000  0.57677000  1.0
  C  C170  1  0.73515000  0.63140000  0.42323000  1.0
  C  C171  1  0.26485000  0.86861000  0.92323000  1.0
  C  C172  1  0.76485000  0.63141000  0.92323000  1.0
  C  C173  1  0.23515000  0.86860000  0.42323000  1.0
  C  C174  1  0.26485000  0.36860000  0.57677000  1.0
  C  C175  1  0.73515000  0.13140000  0.07677000  1.0
  C  C176  1  0.19472000  0.29063000  0.04704000  1.0
  C  C177  1  0.80528000  0.20937000  0.54705000  1.0
  C  C178  1  0.69472000  0.70937000  0.45295000  1.0
  C  C179  1  0.30528000  0.79064000  0.95296000  1.0
  C  C180  1  0.80528000  0.70937000  0.95295000  1.0
  C  C181  1  0.19472000  0.79063000  0.45296000  1.0
  C  C182  1  0.30528000  0.29063000  0.54705000  1.0
  C  C183  1  0.69472000  0.20937000  0.04705000  1.0
  C  C184  1  0.13328000  0.22550000  0.08048000  1.0
  C  C185  1  0.86672000  0.27450000  0.58048000  1.0
  C  C186  1  0.63328000  0.77450000  0.41952000  1.0
  C  C187  1  0.36672000  0.72551000  0.91952000  1.0
  C  C188  1  0.86672000  0.77451000  0.91952000  1.0
  C  C189  1  0.13328000  0.72550000  0.41952000  1.0
  C  C190  1  0.36672000  0.22550000  0.58048000  1.0
  C  C191  1  0.63328000  0.27450000  0.08048000  1.0
  C  C192  1  0.10929000  0.23942000  0.14289000  1.0
  C  C193  1  0.89071000  0.26058000  0.64290000  1.0
  C  C194  1  0.60929000  0.76058000  0.35710000  1.0
  C  C195  1  0.39071000  0.73942000  0.85710000  1.0
  C  C196  1  0.89072000  0.76059000  0.85710000  1.0
  C  C197  1  0.10929000  0.73941000  0.35711000  1.0
  C  C198  1  0.39071000  0.23941000  0.64289000  1.0
  C  C199  1  0.60928000  0.26059000  0.14290000  1.0
  C  C200  1  0.31764000  0.43102000  0.04474000  1.0
  C  C201  1  0.68237000  0.06897000  0.54475000  1.0
  C  C202  1  0.81764000  0.56898000  0.45525000  1.0
  C  C203  1  0.18236000  0.93103000  0.95526000  1.0
  C  C204  1  0.68237000  0.56898000  0.95525000  1.0
  C  C205  1  0.31764000  0.93102000  0.45526000  1.0
  C  C206  1  0.18236000  0.43102000  0.54474000  1.0
  C  C207  1  0.81763000  0.06898000  0.04475000  1.0
  C  C208  1  0.09171000  0.14077000  0.04924000  1.0
  C  C209  1  0.90827000  0.35924000  0.54924000  1.0
  C  C210  1  0.59172000  0.85924000  0.45076000  1.0
  C  C211  1  0.40828000  0.64077000  0.95076000  1.0
  C  C212  1  0.90828000  0.85924000  0.95076000  1.0
  C  C213  1  0.09172000  0.64076000  0.45076000  1.0
  C  C214  1  0.40828000  0.14076000  0.54924000  1.0
  C  C215  1  0.59172000  0.35924000  0.04924000  1.0
  N  N216  1  0.04600000  0.38778000  0.35793000  1.0
  N  N217  1  0.95400000  0.11222000  0.85793000  1.0
  N  N218  1  0.54600000  0.61222000  0.14207000  1.0
  N  N219  1  0.45401000  0.88778000  0.64207000  1.0
  N  N220  1  0.95401000  0.61222000  0.64207000  1.0
  N  N221  1  0.04599000  0.88779000  0.14207000  1.0
  N  N222  1  0.45401000  0.38778000  0.85793000  1.0
  N  N223  1  0.54599000  0.11222000  0.35793000  1.0
  O  O224  1  0.36321000  0.49341000  0.07759000  1.0
  O  O225  1  0.63678000  0.00661000  0.57760000  1.0
  O  O226  1  0.86321000  0.50660000  0.42240000  1.0
  O  O227  1  0.13678000  0.99341000  0.92240000  1.0
  O  O228  1  0.63677000  0.50661000  0.92240000  1.0
  O  O229  1  0.36321000  0.99340000  0.42241000  1.0
  O  O230  1  0.13677000  0.49339000  0.57760000  1.0
  O  O231  1  0.86321000  0.00660000  0.07760000  1.0
  O  O232  1  0.34043000  0.41338000  0.98876000  1.0
  O  O233  1  0.65960000  0.08660000  0.48875000  1.0
  O  O234  1  0.84042000  0.58661000  0.51124000  1.0
  O  O235  1  0.15958000  0.91340000  0.01125000  1.0
  O  O236  1  0.65960000  0.58660000  0.01125000  1.0
  O  O237  1  0.34042000  0.91338000  0.51125000  1.0
  O  O238  1  0.15958000  0.41339000  0.48876000  1.0
  O  O239  1  0.84041000  0.08661000  0.98876000  1.0
  O  O240  1  0.08376000  0.06988000  0.08251000  1.0
  O  O241  1  0.91621000  0.43013000  0.58251000  1.0
  O  O242  1  0.58377000  0.93013000  0.41749000  1.0
  O  O243  1  0.41622000  0.56988000  0.91750000  1.0
  O  O244  1  0.91622000  0.93014000  0.91749000  1.0
  O  O245  1  0.08377000  0.56987000  0.41750000  1.0
  O  O246  1  0.41622000  0.06986000  0.58251000  1.0
  O  O247  1  0.58376000  0.43013000  0.08251000  1.0
  O  O248  1  0.06664000  0.14803000  0.99238000  1.0
  O  O249  1  0.93335000  0.35198000  0.49238000  1.0
  O  O250  1  0.56665000  0.85198000  0.50762000  1.0
  O  O251  1  0.43337000  0.64803000  0.00762000  1.0
  O  O252  1  0.93336000  0.85198000  0.00762000  1.0
  O  O253  1  0.06664000  0.64802000  0.50763000  1.0
  O  O254  1  0.43337000  0.14802000  0.49238000  1.0
  O  O255  1  0.56666000  0.35199000  0.99238000  1.0
