# generated using pymatgen
data_CuH6C4O7
_symmetry_space_group_name_H-M   'P 1'
_cell_length_a   8.27265000
_cell_length_b   8.69761000
_cell_length_c   10.42020000
_cell_angle_alpha   89.99670000
_cell_angle_beta   92.82070000
_cell_angle_gamma   89.99990000
_symmetry_Int_Tables_number   1
_chemical_formula_structural   CuH6C4O7
_chemical_formula_sum   'Cu4 H24 C16 O28'
_cell_volume   748.84879375
_cell_formula_units_Z   4
loop_
 _symmetry_equiv_pos_site_id
 _symmetry_equiv_pos_as_xyz
  1  'x, y, z'
loop_
 _atom_site_type_symbol
 _atom_site_label
 _atom_site_symmetry_multiplicity
 _atom_site_fract_x
 _atom_site_fract_y
 _atom_site_fract_z
 _atom_site_occupancy
  Cu  Cu0  1  0.67662000  0.09095000  0.99789000  1.0
  Cu  Cu1  1  0.32335000  0.59098000  0.00213000  1.0
  Cu  Cu2  1  0.83735000  0.08816000  0.51543000  1.0
  Cu  Cu3  1  0.16265000  0.58814000  0.48457000  1.0
  H  H4  1  0.55882000  0.92667000  0.57573000  1.0
  H  H5  1  0.44119000  0.42659000  0.42424000  1.0
  H  H6  1  0.94547000  0.94691000  0.90518000  1.0
  H  H7  1  0.05454000  0.44699000  0.09480000  1.0
  H  H8  1  0.93225000  0.99286000  0.11809000  1.0
  H  H9  1  0.06775000  0.49289000  0.88190000  1.0
  H  H10  1  0.75514000  0.00074000  0.28981000  1.0
  H  H11  1  0.24487000  0.50074000  0.71017000  1.0
  H  H12  1  0.85054000  0.11723000  0.75119000  1.0
  H  H13  1  0.14946000  0.61725000  0.24881000  1.0
  H  H14  1  0.51363000  0.29834000  0.90396000  1.0
  H  H15  1  0.48637000  0.79829000  0.09604000  1.0
  H  H16  1  0.66301000  0.70441000  0.64805000  1.0
  H  H17  1  0.33693000  0.20436000  0.35191000  1.0
  H  H18  1  0.84672000  0.71865000  0.85044000  1.0
  H  H19  1  0.15322000  0.21870000  0.14952000  1.0
  H  H20  1  0.87936000  0.43629000  0.69124000  1.0
  H  H21  1  0.12067000  0.93628000  0.30877000  1.0
  H  H22  1  0.64848000  0.47516000  0.81525000  1.0
  H  H23  1  0.35159000  0.97515000  0.18476000  1.0
  H  H24  1  0.80021000  0.86485000  0.13983000  1.0
  H  H25  1  0.19982000  0.36493000  0.86018000  1.0
  H  H26  1  0.60105000  0.98108000  0.37796000  1.0
  H  H27  1  0.39892000  0.48104000  0.62200000  1.0
  C  C28  1  0.90038000  0.79109000  0.61003000  1.0
  C  C29  1  0.09961000  0.29107000  0.38997000  1.0
  C  C30  1  0.73460000  0.80762000  0.67324000  1.0
  C  C31  1  0.26538000  0.30759000  0.32673000  1.0
  C  C32  1  0.76662000  0.81441000  0.81964000  1.0
  C  C33  1  0.23334000  0.31443000  0.18034000  1.0
  C  C34  1  0.60879000  0.79231000  0.89026000  1.0
  C  C35  1  0.39120000  0.29235000  0.10973000  1.0
  C  C36  1  0.67852000  0.35438000  0.58065000  1.0
  C  C37  1  0.32152000  0.85434000  0.41938000  1.0
  C  C38  1  0.79500000  0.33872000  0.70021000  1.0
  C  C39  1  0.20501000  0.83871000  0.29980000  1.0
  C  C40  1  0.70859000  0.36219000  0.82488000  1.0
  C  C41  1  0.29148000  0.86217000  0.17514000  1.0
  C  C42  1  0.82165000  0.37134000  0.94531000  1.0
  C  C43  1  0.17838000  0.87137000  0.05471000  1.0
  O  O44  1  0.65042000  0.94531000  0.63862000  1.0
  O  O45  1  0.34960000  0.44527000  0.36136000  1.0
  O  O46  1  0.96424000  0.90702000  0.55638000  1.0
  O  O47  1  0.03574000  0.40702000  0.44360000  1.0
  O  O48  1  0.96718000  0.66111000  0.61892000  1.0
  O  O49  1  0.03278000  0.16110000  0.38110000  1.0
  O  O50  1  0.84237000  0.95917000  0.85219000  1.0
  O  O51  1  0.15762000  0.45920000  0.14780000  1.0
  O  O52  1  0.56413000  0.89680000  0.97037000  1.0
  O  O53  1  0.43585000  0.39684000  0.02963000  1.0
  O  O54  1  0.53206000  0.66946000  0.87387000  1.0
  O  O55  1  0.46792000  0.16948000  0.12614000  1.0
  O  O56  1  0.81663000  0.97588000  0.14288000  1.0
  O  O57  1  0.18336000  0.47595000  0.85712000  1.0
  O  O58  1  0.72009000  0.96614000  0.37442000  1.0
  O  O59  1  0.27989000  0.46607000  0.62558000  1.0
  O  O60  1  0.89055000  0.20046000  0.69470000  1.0
  O  O61  1  0.10947000  0.70045000  0.30532000  1.0
  O  O62  1  0.68884000  0.25699000  0.48993000  1.0
  O  O63  1  0.31115000  0.75691000  0.51009000  1.0
  O  O64  1  0.58328000  0.46727000  0.57325000  1.0
  O  O65  1  0.41676000  0.96724000  0.42679000  1.0
  O  O66  1  0.58672000  0.24595000  0.84379000  1.0
  O  O67  1  0.41327000  0.74595000  0.15623000  1.0
  O  O68  1  0.81809000  0.26445000  0.02880000  1.0
  O  O69  1  0.18191000  0.76448000  0.97123000  1.0
  O  O70  1  0.91415000  0.48694000  0.96188000  1.0
  O  O71  1  0.08589000  0.98699000  0.03814000  1.0
