# generated using pymatgen
data_CuH28C22S2BrO4
_symmetry_space_group_name_H-M   'P 1'
_cell_length_a   11.33310000
_cell_length_b   11.35950000
_cell_length_c   24.34060000
_cell_angle_alpha   85.50090000
_cell_angle_beta   82.07440000
_cell_angle_gamma   66.16250000
_symmetry_Int_Tables_number   1
_chemical_formula_structural   CuH28C22S2BrO4
_chemical_formula_sum   'Cu4 H112 C88 S8 Br4 O16'
_cell_volume   2837.98939708
_cell_formula_units_Z   4
loop_
 _symmetry_equiv_pos_site_id
 _symmetry_equiv_pos_as_xyz
  1  'x, y, z'
loop_
 _atom_site_type_symbol
 _atom_site_label
 _atom_site_symmetry_multiplicity
 _atom_site_fract_x
 _atom_site_fract_y
 _atom_site_fract_z
 _atom_site_occupancy
  Cu  Cu0  1  0.52303000  0.09344000  0.52361000  1.0
  Cu  Cu1  1  0.47697000  0.90655000  0.47639000  1.0
  Cu  Cu2  1  0.91121000  0.97148000  0.97654000  1.0
  Cu  Cu3  1  0.08879000  0.02853000  0.02346000  1.0
  H  H4  1  0.07424000  0.60225000  0.45366000  1.0
  H  H5  1  0.92576000  0.39775000  0.54634000  1.0
  H  H6  1  0.92864000  0.74565000  0.45578000  1.0
  H  H7  1  0.07137000  0.25435000  0.54422000  1.0
  H  H8  1  0.88682000  0.63313000  0.53481000  1.0
  H  H9  1  0.11317000  0.36687000  0.46519000  1.0
  H  H10  1  0.94531000  0.73747000  0.56256000  1.0
  H  H11  1  0.05468000  0.26253000  0.43744000  1.0
  H  H12  1  0.85937000  0.63801000  0.62876000  1.0
  H  H13  1  0.14063000  0.36199000  0.37123000  1.0
  H  H14  1  0.83171000  0.53311000  0.71890000  1.0
  H  H15  1  0.16829000  0.46688000  0.28110000  1.0
  H  H16  1  0.00891000  0.32954000  0.74813000  1.0
  H  H17  1  0.99109000  0.67046000  0.25187000  1.0
  H  H18  1  0.21364000  0.23231000  0.68418000  1.0
  H  H19  1  0.78636000  0.76768000  0.31582000  1.0
  H  H20  1  0.30565000  0.40151000  0.56268000  1.0
  H  H21  1  0.69435000  0.59849000  0.43732000  1.0
  H  H22  1  0.25164000  0.28792000  0.54317000  1.0
  H  H23  1  0.74837000  0.71208000  0.45683000  1.0
  H  H24  1  0.59269000  0.20079000  0.63732000  1.0
  H  H25  1  0.40732000  0.79921000  0.36268000  1.0
  H  H26  1  0.53077000  0.33029000  0.58904000  1.0
  H  H27  1  0.46924000  0.66970000  0.41096000  1.0
  H  H28  1  0.38451000  0.32134000  0.70412000  1.0
  H  H29  1  0.61549000  0.67866000  0.29588000  1.0
  H  H30  1  0.50604000  0.38617000  0.69339000  1.0
  H  H31  1  0.49397000  0.61383000  0.30661000  1.0
  H  H32  1  0.32394000  0.57980000  0.72501000  1.0
  H  H33  1  0.67606000  0.42019000  0.27499000  1.0
  H  H34  1  0.19931000  0.52309000  0.71984000  1.0
  H  H35  1  0.80070000  0.47690000  0.28016000  1.0
  H  H36  1  0.12681000  0.68240000  0.63989000  1.0
  H  H37  1  0.87319000  0.31759000  0.36011000  1.0
  H  H38  1  0.10753000  0.75278000  0.70552000  1.0
  H  H39  1  0.89247000  0.24722000  0.29448000  1.0
  H  H40  1  0.14941000  0.95386000  0.66295000  1.0
  H  H41  1  0.85059000  0.04614000  0.33705000  1.0
  H  H42  1  0.10706000  0.88856000  0.60839000  1.0
  H  H43  1  0.89294000  0.11143000  0.39161000  1.0
  H  H44  1  0.37582000  0.89796000  0.60357000  1.0
  H  H45  1  0.62418000  0.10204000  0.39643000  1.0
  H  H46  1  0.24186000  0.03092000  0.58020000  1.0
  H  H47  1  0.75814000  0.96908000  0.41980000  1.0
  H  H48  1  0.08879000  0.95955000  0.52137000  1.0
  H  H49  1  0.91122000  0.04045000  0.47863000  1.0
  H  H50  1  0.17383000  0.05562000  0.48911000  1.0
  H  H51  1  0.82618000  0.94438000  0.51089000  1.0
  H  H52  1  0.22493000  0.05989000  0.39129000  1.0
  H  H53  1  0.77508000  0.94011000  0.60871000  1.0
  H  H54  1  0.20099000  0.00167000  0.29779000  1.0
  H  H55  1  0.79902000  0.99833000  0.70221000  1.0
  H  H56  1  0.12494000  0.82557000  0.29034000  1.0
  H  H57  1  0.87507000  0.17443000  0.70966000  1.0
  H  H58  1  0.07156000  0.71283000  0.37406000  1.0
  H  H59  1  0.92845000  0.28716000  0.62595000  1.0
  H  H60  1  0.71994000  0.45793000  0.06836000  1.0
  H  H61  1  0.28006000  0.54207000  0.93164000  1.0
  H  H62  1  0.62263000  0.39126000  0.04114000  1.0
  H  H63  1  0.37736000  0.60874000  0.95886000  1.0
  H  H64  1  0.75304000  0.41365000  0.96203000  1.0
  H  H65  1  0.24695000  0.58635000  0.03798000  1.0
  H  H66  1  0.60923000  0.55764000  0.95873000  1.0
  H  H67  1  0.39077000  0.44237000  0.04128000  1.0
  H  H68  1  0.73534000  0.53711000  0.87913000  1.0
  H  H69  1  0.26465000  0.46289000  0.12087000  1.0
  H  H70  1  0.86481000  0.57144000  0.79485000  1.0
  H  H71  1  0.13517000  0.42856000  0.20515000  1.0
  H  H72  1  0.03879000  0.65005000  0.80026000  1.0
  H  H73  1  0.96120000  0.34995000  0.19974000  1.0
  H  H74  1  0.07778000  0.69850000  0.89318000  1.0
  H  H75  1  0.92222000  0.30150000  0.10682000  1.0
  H  H76  1  0.05478000  0.67044000  0.99077000  1.0
  H  H77  1  0.94522000  0.32956000  0.00922000  1.0
  H  H78  1  0.95028000  0.59544000  0.02459000  1.0
  H  H79  1  0.04972000  0.40456000  0.97541000  1.0
  H  H80  1  0.01316000  0.76166000  0.08058000  1.0
  H  H81  1  0.98684000  0.23834000  0.91941000  1.0
  H  H82  1  0.87588000  0.90158000  0.10373000  1.0
  H  H83  1  0.12412000  0.09842000  0.89626000  1.0
  H  H84  1  0.86294000  0.63541000  0.11016000  1.0
  H  H85  1  0.13707000  0.36459000  0.88984000  1.0
  H  H86  1  0.91751000  0.68976000  0.16418000  1.0
  H  H87  1  0.08249000  0.31025000  0.83581000  1.0
  H  H88  1  0.70529000  0.65820000  0.20577000  1.0
  H  H89  1  0.29472000  0.34180000  0.79423000  1.0
  H  H90  1  0.64749000  0.66644000  0.14022000  1.0
  H  H91  1  0.35251000  0.33356000  0.85977000  1.0
  H  H92  1  0.53045000  0.88095000  0.22539000  1.0
  H  H93  1  0.46955000  0.11905000  0.77461000  1.0
  H  H94  1  0.47236000  0.75671000  0.22128000  1.0
  H  H95  1  0.52764000  0.24329000  0.77872000  1.0
  H  H96  1  0.33996000  0.05691000  0.19306000  1.0
  H  H97  1  0.66004000  0.94309000  0.80695000  1.0
  H  H98  1  0.27392000  0.93688000  0.20547000  1.0
  H  H99  1  0.72608000  0.06311000  0.79453000  1.0
  H  H100  1  0.30866000  0.05291000  0.08918000  1.0
  H  H101  1  0.69134000  0.94708000  0.91082000  1.0
  H  H102  1  0.16724000  0.12685000  0.13648000  1.0
  H  H103  1  0.83276000  0.87315000  0.86352000  1.0
  H  H104  1  0.27698000  0.76060000  0.04597000  1.0
  H  H105  1  0.72302000  0.23940000  0.95404000  1.0
  H  H106  1  0.38666000  0.81937000  0.06486000  1.0
  H  H107  1  0.61333000  0.18063000  0.93514000  1.0
  H  H108  1  0.19033000  0.76684000  0.18781000  1.0
  H  H109  1  0.80966000  0.23316000  0.81219000  1.0
  H  H110  1  0.27436000  0.58608000  0.25615000  1.0
  H  H111  1  0.72564000  0.41393000  0.74386000  1.0
  H  H112  1  0.48026000  0.39626000  0.22956000  1.0
  H  H113  1  0.51973000  0.60376000  0.77045000  1.0
  H  H114  1  0.60323000  0.39142000  0.13689000  1.0
  H  H115  1  0.39677000  0.60858000  0.86311000  1.0
  C  C116  1  0.01512000  0.69014000  0.47701000  1.0
  C  C117  1  0.98488000  0.30986000  0.52299000  1.0
  C  C118  1  0.97264000  0.65558000  0.53513000  1.0
  C  C119  1  0.02736000  0.34442000  0.46487000  1.0
  C  C120  1  0.05361000  0.49478000  0.60558000  1.0
  C  C121  1  0.94639000  0.50522000  0.39442000  1.0
  C  C122  1  0.93789000  0.54983000  0.64078000  1.0
  C  C123  1  0.06211000  0.45016000  0.35922000  1.0
  C  C124  1  0.92259000  0.48973000  0.69202000  1.0
  C  C125  1  0.07740000  0.51027000  0.30798000  1.0
  C  C126  1  0.02105000  0.37623000  0.70812000  1.0
  C  C127  1  0.97895000  0.62377000  0.29188000  1.0
  C  C128  1  0.13610000  0.32171000  0.67226000  1.0
  C  C129  1  0.86390000  0.67828000  0.32774000  1.0
  C  C130  1  0.15469000  0.37925000  0.62091000  1.0
  C  C131  1  0.84531000  0.62074000  0.37909000  1.0
  C  C132  1  0.27340000  0.32537000  0.57924000  1.0
  C  C133  1  0.72661000  0.67463000  0.42076000  1.0
  C  C134  1  0.50354000  0.27780000  0.62498000  1.0
  C  C135  1  0.49646000  0.72220000  0.37501000  1.0
  C  C136  1  0.43421000  0.36723000  0.67287000  1.0
  C  C137  1  0.56580000  0.63277000  0.32713000  1.0
  C  C138  1  0.26308000  0.56664000  0.69613000  1.0
  C  C139  1  0.73692000  0.43336000  0.30386000  1.0
  C  C140  1  0.18020000  0.69566000  0.67202000  1.0
  C  C141  1  0.81980000  0.30434000  0.32798000  1.0
  C  C142  1  0.19020000  0.88568000  0.62835000  1.0
  C  C143  1  0.80980000  0.11432000  0.37165000  1.0
  C  C144  1  0.28176000  0.92606000  0.58768000  1.0
  C  C145  1  0.71825000  0.07394000  0.41232000  1.0
  C  C146  1  0.17053000  0.96012000  0.49154000  1.0
  C  C147  1  0.82947000  0.03987000  0.50846000  1.0
  C  C148  1  0.16091000  0.92166000  0.43556000  1.0
  C  C149  1  0.83909000  0.07834000  0.56444000  1.0
  C  C150  1  0.19019000  0.98458000  0.38723000  1.0
  C  C151  1  0.80982000  0.01542000  0.61277000  1.0
  C  C152  1  0.17769000  0.95122000  0.33488000  1.0
  C  C153  1  0.82231000  0.04877000  0.66512000  1.0
  C  C154  1  0.13546000  0.85299000  0.33077000  1.0
  C  C155  1  0.86454000  0.14701000  0.66924000  1.0
  C  C156  1  0.10493000  0.78868000  0.37831000  1.0
  C  C157  1  0.89507000  0.21132000  0.62169000  1.0
  C  C158  1  0.11773000  0.82282000  0.43058000  1.0
  C  C159  1  0.88228000  0.17717000  0.56942000  1.0
  C  C160  1  0.64425000  0.47759000  0.04082000  1.0
  C  C161  1  0.35574000  0.52242000  0.95918000  1.0
  C  C162  1  0.69208000  0.50544000  0.98241000  1.0
  C  C163  1  0.30791000  0.49456000  0.01759000  1.0
  C  C164  1  0.83324000  0.59859000  0.93464000  1.0
  C  C165  1  0.16675000  0.40142000  0.06536000  1.0
  C  C166  1  0.81005000  0.57233000  0.88280000  1.0
  C  C167  1  0.18994000  0.42767000  0.11720000  1.0
  C  C168  1  0.88364000  0.59218000  0.83485000  1.0
  C  C169  1  0.11634000  0.40782000  0.16515000  1.0
  C  C170  1  0.98095000  0.63611000  0.83790000  1.0
  C  C171  1  0.01904000  0.36390000  0.16210000  1.0
  C  C172  1  0.00348000  0.66209000  0.88977000  1.0
  C  C173  1  0.99652000  0.33791000  0.11022000  1.0
  C  C174  1  0.93059000  0.64445000  0.93853000  1.0
  C  C175  1  0.06940000  0.35555000  0.06147000  1.0
  C  C176  1  0.95797000  0.66880000  0.99387000  1.0
  C  C177  1  0.04203000  0.33121000  0.00613000  1.0
  C  C178  1  0.90649000  0.80402000  0.08835000  1.0
  C  C179  1  0.09351000  0.19599000  0.91165000  1.0
  C  C180  1  0.85662000  0.72293000  0.12957000  1.0
  C  C181  1  0.14339000  0.27707000  0.87043000  1.0
  C  C182  1  0.65540000  0.72497000  0.17265000  1.0
  C  C183  1  0.34460000  0.27504000  0.82735000  1.0
  C  C184  1  0.52169000  0.81394000  0.19706000  1.0
  C  C185  1  0.47831000  0.18605000  0.80294000  1.0
  C  C186  1  0.32618000  0.97904000  0.17355000  1.0
  C  C187  1  0.67382000  0.02095000  0.82645000  1.0
  C  C188  1  0.24761000  0.03482000  0.12519000  1.0
  C  C189  1  0.75239000  0.96517000  0.87481000  1.0
  C  C190  1  0.30601000  0.79206000  0.08170000  1.0
  C  C191  1  0.69398000  0.20794000  0.91830000  1.0
  C  C192  1  0.34932000  0.68551000  0.12482000  1.0
  C  C193  1  0.65067000  0.31450000  0.87518000  1.0
  C  C194  1  0.28137000  0.68457000  0.17699000  1.0
  C  C195  1  0.71862000  0.31543000  0.82301000  1.0
  C  C196  1  0.32805000  0.58236000  0.21514000  1.0
  C  C197  1  0.67195000  0.41764000  0.78486000  1.0
  C  C198  1  0.44338000  0.47715000  0.20044000  1.0
  C  C199  1  0.55662000  0.52285000  0.79956000  1.0
  C  C200  1  0.51344000  0.47436000  0.14812000  1.0
  C  C201  1  0.48656000  0.52565000  0.85188000  1.0
  C  C202  1  0.46713000  0.57868000  0.11086000  1.0
  C  C203  1  0.53286000  0.42133000  0.88914000  1.0
  S  S204  1  0.41270000  0.19254000  0.60301000  1.0
  S  S205  1  0.58730000  0.80746000  0.39699000  1.0
  S  S206  1  0.31810000  0.85022000  0.52069000  1.0
  S  S207  1  0.68191000  0.14977000  0.47931000  1.0
  S  S208  1  0.84360000  0.82439000  0.02175000  1.0
  S  S209  1  0.15640000  0.17562000  0.97825000  1.0
  S  S210  1  0.16787000  0.93793000  0.10375000  1.0
  S  S211  1  0.83212000  0.06207000  0.89625000  1.0
  Br  Br212  1  0.36860000  0.14472000  0.45297000  1.0
  Br  Br213  1  0.63140000  0.85527000  0.54703000  1.0
  Br  Br214  1  0.84522000  0.14341000  0.04582000  1.0
  Br  Br215  1  0.15478000  0.85658000  0.95418000  1.0
  O  O216  1  0.08783000  0.76727000  0.47939000  1.0
  O  O217  1  0.91217000  0.23274000  0.52061000  1.0
  O  O218  1  0.07732000  0.54547000  0.55448000  1.0
  O  O219  1  0.92268000  0.45453000  0.44552000  1.0
  O  O220  1  0.34304000  0.48480000  0.65246000  1.0
  O  O221  1  0.65697000  0.51519000  0.34754000  1.0
  O  O222  1  0.26138000  0.75919000  0.64873000  1.0
  O  O223  1  0.73863000  0.24080000  0.35127000  1.0
  O  O224  1  0.52915000  0.58664000  0.05919000  1.0
  O  O225  1  0.47084000  0.41337000  0.94082000  1.0
  O  O226  1  0.76811000  0.57978000  0.98390000  1.0
  O  O227  1  0.23189000  0.42023000  0.01610000  1.0
  O  O228  1  0.72582000  0.79973000  0.14976000  1.0
  O  O229  1  0.27418000  0.20028000  0.85023000  1.0
  O  O230  1  0.44862000  0.88394000  0.15346000  1.0
  O  O231  1  0.55138000  0.11605000  0.84654000  1.0
