# generated using pymatgen
data_AlH9C20Cl4O5
_symmetry_space_group_name_H-M   'P 1'
_cell_length_a   6.63078000
_cell_length_b   25.33690000
_cell_length_c   29.18140000
_cell_angle_alpha   89.99970000
_cell_angle_beta   90.00520000
_cell_angle_gamma   89.99080000
_symmetry_Int_Tables_number   1
_chemical_formula_structural   AlH9C20Cl4O5
_chemical_formula_sum   'Al4 H36 C80 Cl16 O20'
_cell_volume   4902.57461875
_cell_formula_units_Z   4
loop_
 _symmetry_equiv_pos_site_id
 _symmetry_equiv_pos_as_xyz
  1  'x, y, z'
loop_
 _atom_site_type_symbol
 _atom_site_label
 _atom_site_symmetry_multiplicity
 _atom_site_fract_x
 _atom_site_fract_y
 _atom_site_fract_z
 _atom_site_occupancy
  Al  Al0  1  0.79965000  0.74862000  0.74998000  1.0
  Al  Al1  1  0.20035000  0.25138000  0.25002000  1.0
  Al  Al2  1  0.29966000  0.75136000  0.75000000  1.0
  Al  Al3  1  0.70034000  0.24864000  0.25000000  1.0
  H  H4  1  0.19334000  0.36983000  0.45495000  1.0
  H  H5  1  0.80667000  0.63017000  0.54505000  1.0
  H  H6  1  0.80542000  0.62998000  0.95474000  1.0
  H  H7  1  0.19459000  0.37002000  0.04526000  1.0
  H  H8  1  0.69600000  0.12962000  0.04551000  1.0
  H  H9  1  0.30399000  0.87038000  0.95449000  1.0
  H  H10  1  0.30669000  0.86987000  0.54505000  1.0
  H  H11  1  0.69330000  0.13014000  0.45495000  1.0
  H  H12  1  0.73721000  0.46547000  0.38965000  1.0
  H  H13  1  0.26279000  0.53453000  0.61034000  1.0
  H  H14  1  0.26434000  0.53485000  0.88993000  1.0
  H  H15  1  0.73566000  0.46515000  0.11007000  1.0
  H  H16  1  0.23342000  0.03528000  0.10980000  1.0
  H  H17  1  0.76656000  0.96472000  0.89021000  1.0
  H  H18  1  0.76261000  0.96547000  0.61041000  1.0
  H  H19  1  0.23740000  0.03452000  0.38959000  1.0
  H  H20  1  0.93857000  0.52957000  0.42014000  1.0
  H  H21  1  0.06143000  0.47043000  0.57985000  1.0
  H  H22  1  0.06292000  0.47049000  0.92019000  1.0
  H  H23  1  0.93708000  0.52951000  0.07981000  1.0
  H  H24  1  0.43349000  0.97056000  0.07968000  1.0
  H  H25  1  0.56650000  0.02944000  0.92032000  1.0
  H  H26  1  0.56164000  0.02958000  0.57984000  1.0
  H  H27  1  0.43836000  0.97042000  0.42016000  1.0
  H  H28  1  0.96503000  0.59533000  0.48202000  1.0
  H  H29  1  0.03498000  0.40468000  0.51797000  1.0
  H  H30  1  0.03648000  0.40471000  0.98205000  1.0
  H  H31  1  0.96353000  0.59529000  0.01795000  1.0
  H  H32  1  0.46067000  0.90477000  0.01786000  1.0
  H  H33  1  0.53932000  0.09524000  0.98215000  1.0
  H  H34  1  0.53510000  0.09532000  0.51796000  1.0
  H  H35  1  0.46490000  0.90468000  0.48204000  1.0
  H  H36  1  0.54270000  0.68020000  0.74991000  1.0
  H  H37  1  0.45731000  0.31980000  0.25009000  1.0
  H  H38  1  0.04262000  0.81977000  0.74997000  1.0
  H  H39  1  0.95739000  0.18023000  0.25003000  1.0
  C  C40  1  0.55203000  0.81265000  0.68718000  1.0
  C  C41  1  0.44796000  0.18734000  0.31282000  1.0
  C  C42  1  0.44757000  0.18737000  0.18718000  1.0
  C  C43  1  0.55243000  0.81263000  0.81282000  1.0
  C  C44  1  0.05240000  0.68734000  0.81281000  1.0
  C  C45  1  0.94760000  0.31266000  0.18719000  1.0
  C  C46  1  0.94781000  0.31266000  0.31284000  1.0
  C  C47  1  0.05220000  0.68733000  0.68716000  1.0
  C  C48  1  0.07772000  0.34157000  0.39096000  1.0
  C  C49  1  0.92229000  0.65843000  0.60904000  1.0
  C  C50  1  0.92167000  0.65833000  0.89085000  1.0
  C  C51  1  0.07834000  0.34167000  0.10915000  1.0
  C  C52  1  0.57910000  0.15816000  0.10927000  1.0
  C  C53  1  0.42090000  0.84184000  0.89073000  1.0
  C  C54  1  0.42215000  0.84159000  0.60905000  1.0
  C  C55  1  0.57785000  0.15841000  0.39095000  1.0
  C  C56  1  0.08761000  0.37733000  0.42715000  1.0
  C  C57  1  0.91240000  0.62267000  0.57284000  1.0
  C  C58  1  0.91172000  0.62257000  0.92705000  1.0
  C  C59  1  0.08828000  0.37743000  0.07295000  1.0
  C  C60  1  0.58894000  0.12239000  0.07308000  1.0
  C  C61  1  0.41105000  0.87761000  0.92692000  1.0
  C  C62  1  0.41237000  0.87736000  0.57285000  1.0
  C  C63  1  0.58763000  0.12264000  0.42715000  1.0
  C  C64  1  0.96869000  0.42305000  0.42702000  1.0
  C  C65  1  0.03132000  0.57696000  0.57297000  1.0
  C  C66  1  0.03137000  0.57700000  0.92704000  1.0
  C  C67  1  0.96863000  0.42300000  0.07296000  1.0
  C  C68  1  0.46819000  0.07703000  0.07294000  1.0
  C  C69  1  0.53179000  0.92297000  0.92706000  1.0
  C  C70  1  0.53130000  0.92305000  0.57299000  1.0
  C  C71  1  0.46870000  0.07695000  0.42701000  1.0
  C  C72  1  0.83571000  0.43110000  0.39037000  1.0
  C  C73  1  0.16429000  0.56890000  0.60962000  1.0
  C  C74  1  0.16521000  0.56910000  0.89053000  1.0
  C  C75  1  0.83478000  0.43090000  0.10947000  1.0
  C  C76  1  0.33337000  0.06935000  0.10929000  1.0
  C  C77  1  0.66666667  0.93064000  0.89071000  1.0
  C  C78  1  0.66413000  0.93111000  0.60967000  1.0
  C  C79  1  0.33587000  0.06889000  0.39033000  1.0
  C  C80  1  0.82505000  0.39484000  0.35457000  1.0
  C  C81  1  0.17495000  0.60515000  0.64543000  1.0
  C  C82  1  0.17598000  0.60535000  0.85474000  1.0
  C  C83  1  0.82402000  0.39465000  0.14526000  1.0
  C  C84  1  0.32275000  0.10561000  0.14510000  1.0
  C  C85  1  0.67724000  0.89439000  0.85490000  1.0
  C  C86  1  0.67462000  0.89487000  0.64549000  1.0
  C  C87  1  0.32537000  0.10513000  0.35451000  1.0
  C  C88  1  0.94805000  0.34948000  0.35320000  1.0
  C  C89  1  0.05196000  0.65052000  0.64680000  1.0
  C  C90  1  0.05215000  0.65055000  0.85321000  1.0
  C  C91  1  0.94785000  0.34944000  0.14679000  1.0
  C  C92  1  0.44768000  0.15060000  0.14678000  1.0
  C  C93  1  0.55231000  0.84940000  0.85322000  1.0
  C  C94  1  0.55173000  0.84950000  0.64682000  1.0
  C  C95  1  0.44826000  0.15050000  0.35318000  1.0
  C  C96  1  0.96232000  0.51634000  0.45531000  1.0
  C  C97  1  0.03769000  0.48367000  0.54468000  1.0
  C  C98  1  0.03853000  0.48370000  0.95535000  1.0
  C  C99  1  0.96148000  0.51630000  0.04466000  1.0
  C  C100  1  0.45953000  0.98375000  0.04458000  1.0
  C  C101  1  0.54046000  0.01625000  0.95542000  1.0
  C  C102  1  0.53781000  0.01634000  0.54468000  1.0
  C  C103  1  0.46219000  0.98366000  0.45532000  1.0
  C  C104  1  0.97763000  0.55345000  0.49025000  1.0
  C  C105  1  0.02238000  0.44655000  0.50975000  1.0
  C  C106  1  0.02322000  0.44657000  0.99026000  1.0
  C  C107  1  0.97679000  0.55343000  0.00974000  1.0
  C  C108  1  0.47521000  0.94660000  0.00968000  1.0
  C  C109  1  0.52478000  0.05340000  0.99032000  1.0
  C  C110  1  0.52245000  0.05345000  0.50974000  1.0
  C  C111  1  0.47755000  0.94655000  0.49026000  1.0
  C  C112  1  0.01580000  0.53786000  0.53564000  1.0
  C  C113  1  0.98421000  0.46214000  0.46435000  1.0
  C  C114  1  0.98421000  0.46212000  0.03563000  1.0
  C  C115  1  0.01580000  0.53788000  0.96436000  1.0
  C  C116  1  0.51615000  0.96211000  0.96438000  1.0
  C  C117  1  0.48384000  0.03789000  0.03562000  1.0
  C  C118  1  0.48416000  0.03786000  0.46435000  1.0
  C  C119  1  0.51584000  0.96214000  0.53565000  1.0
  Cl  Cl120  1  0.22877000  0.28615000  0.39484000  1.0
  Cl  Cl121  1  0.77125000  0.71386000  0.60516000  1.0
  Cl  Cl122  1  0.76970000  0.71360000  0.89458000  1.0
  Cl  Cl123  1  0.23031000  0.28640000  0.10542000  1.0
  Cl  Cl124  1  0.73238000  0.21317000  0.10564000  1.0
  Cl  Cl125  1  0.26762000  0.78682000  0.89436000  1.0
  Cl  Cl126  1  0.27109000  0.78618000  0.60515000  1.0
  Cl  Cl127  1  0.72890000  0.21382000  0.39484000  1.0
  Cl  Cl128  1  0.65839000  0.40953000  0.31068000  1.0
  Cl  Cl129  1  0.34160000  0.59046000  0.68932000  1.0
  Cl  Cl130  1  0.34409000  0.59086000  0.81109000  1.0
  Cl  Cl131  1  0.65591000  0.40914000  0.18891000  1.0
  Cl  Cl132  1  0.15344000  0.09134000  0.18855000  1.0
  Cl  Cl133  1  0.84655000  0.90866000  0.81145000  1.0
  Cl  Cl134  1  0.84079000  0.90959000  0.68946000  1.0
  Cl  Cl135  1  0.15921000  0.09041000  0.31054000  1.0
  O  O136  1  0.38107000  0.80146000  0.79604000  1.0
  O  O137  1  0.61893000  0.19854000  0.20396000  1.0
  O  O138  1  0.61935000  0.19868000  0.29617000  1.0
  O  O139  1  0.38064000  0.80132000  0.70383000  1.0
  O  O140  1  0.88076000  0.69866000  0.70381000  1.0
  O  O141  1  0.11924000  0.30134000  0.29619000  1.0
  O  O142  1  0.11894000  0.30148000  0.20396000  1.0
  O  O143  1  0.88107000  0.69852000  0.79604000  1.0
  O  O144  1  0.72156000  0.79679000  0.70176000  1.0
  O  O145  1  0.27843000  0.20321000  0.29824000  1.0
  O  O146  1  0.27811000  0.20336000  0.20171000  1.0
  O  O147  1  0.72189000  0.79664000  0.79830000  1.0
  O  O148  1  0.22188000  0.70331000  0.79831000  1.0
  O  O149  1  0.77813000  0.29669000  0.20169000  1.0
  O  O150  1  0.77833000  0.29681000  0.29823000  1.0
  O  O151  1  0.22167000  0.70318000  0.70177000  1.0
  O  O152  1  0.54753000  0.71840000  0.74999000  1.0
  O  O153  1  0.45248000  0.28160000  0.25001000  1.0
  O  O154  1  0.04750000  0.78157000  0.74999000  1.0
  O  O155  1  0.95250000  0.21843000  0.25001000  1.0
