# generated using pymatgen
data_CdH16C16Br2(NO2)2
_symmetry_space_group_name_H-M   'P 1'
_cell_length_a   7.20031000
_cell_length_b   10.27170000
_cell_length_c   14.26380000
_cell_angle_alpha   75.31290000
_cell_angle_beta   75.39000000
_cell_angle_gamma   69.48370000
_symmetry_Int_Tables_number   1
_chemical_formula_structural   CdH16C16Br2(NO2)2
_chemical_formula_sum   'Cd2 H32 C32 Br4 N4 O8'
_cell_volume   940.07666859
_cell_formula_units_Z   2
loop_
 _symmetry_equiv_pos_site_id
 _symmetry_equiv_pos_as_xyz
  1  'x, y, z'
loop_
 _atom_site_type_symbol
 _atom_site_label
 _atom_site_symmetry_multiplicity
 _atom_site_fract_x
 _atom_site_fract_y
 _atom_site_fract_z
 _atom_site_occupancy
  Cd  Cd0  1  0.15791000  0.25016000  0.74998000  1.0
  Cd  Cd1  1  0.84212000  0.74982000  0.25003000  1.0
  H  H2  1  0.61740000  0.30230000  0.61815000  1.0
  H  H3  1  0.53794000  0.19754000  0.88177000  1.0
  H  H4  1  0.38261000  0.69769000  0.38186000  1.0
  H  H5  1  0.46206000  0.80246000  0.11822000  1.0
  H  H6  1  0.68587000  0.55274000  0.45794000  1.0
  H  H7  1  0.69657000  0.94719000  0.04206000  1.0
  H  H8  1  0.31414000  0.44726000  0.54206000  1.0
  H  H9  1  0.30341000  0.05281000  0.95794000  1.0
  H  H10  1  0.54223000  0.56146000  0.57812000  1.0
  H  H11  1  0.68169000  0.93839000  0.92190000  1.0
  H  H12  1  0.45777000  0.43854000  0.42188000  1.0
  H  H13  1  0.31830000  0.06161000  0.07810000  1.0
  H  H14  1  0.60867000  0.14430000  0.54978000  1.0
  H  H15  1  0.30240000  0.35533000  0.95047000  1.0
  H  H16  1  0.39133000  0.85570000  0.45023000  1.0
  H  H17  1  0.69758000  0.64467000  0.04953000  1.0
  H  H18  1  0.74293000  0.99100000  0.41926000  1.0
  H  H19  1  0.15311000  0.50843000  0.08112000  1.0
  H  H20  1  0.25706000  0.00900000  0.58074000  1.0
  H  H21  1  0.84688000  0.49157000  0.91888000  1.0
  H  H22  1  0.02781000  0.03100000  0.28499000  1.0
  H  H23  1  0.34439000  0.46862000  0.21512000  1.0
  H  H24  1  0.97219000  0.96900000  0.71501000  1.0
  H  H25  1  0.65561000  0.53138000  0.78488000  1.0
  H  H26  1  0.16552000  0.22582000  0.28397000  1.0
  H  H27  1  0.67636000  0.27415000  0.21575000  1.0
  H  H28  1  0.83448000  0.77418000  0.71603000  1.0
  H  H29  1  0.32364000  0.72584000  0.78425000  1.0
  H  H30  1  0.01188000  0.37435000  0.41374000  1.0
  H  H31  1  0.80068000  0.12584000  0.08589000  1.0
  H  H32  1  0.98812000  0.62565000  0.58626000  1.0
  H  H33  1  0.19931000  0.87415000  0.91411000  1.0
  C  C34  1  0.87824000  0.35544000  0.61364000  1.0
  C  C35  1  0.84739000  0.14440000  0.88628000  1.0
  C  C36  1  0.12176000  0.64456000  0.38636000  1.0
  C  C37  1  0.15261000  0.85560000  0.11372000  1.0
  C  C38  1  0.71631000  0.35440000  0.56054000  1.0
  C  C39  1  0.63140000  0.14547000  0.93937000  1.0
  C  C40  1  0.28369000  0.64560000  0.43947000  1.0
  C  C41  1  0.36860000  0.85453000  0.06063000  1.0
  C  C42  1  0.59024000  0.50136000  0.51802000  1.0
  C  C43  1  0.60965000  0.99857000  0.98197000  1.0
  C  C44  1  0.40976000  0.49864000  0.48199000  1.0
  C  C45  1  0.39033000  0.00143000  0.01803000  1.0
  C  C46  1  0.72835000  0.15877000  0.48748000  1.0
  C  C47  1  0.37464000  0.34098000  0.01262000  1.0
  C  C48  1  0.27165000  0.84124000  0.51252000  1.0
  C  C49  1  0.62535000  0.65902000  0.98738000  1.0
  C  C50  1  0.80566000  0.07446000  0.41624000  1.0
  C  C51  1  0.29653000  0.42520000  0.08393000  1.0
  C  C52  1  0.19434000  0.92555000  0.58376000  1.0
  C  C53  1  0.70347000  0.57480000  0.91607000  1.0
  C  C54  1  0.96545000  0.09657000  0.34164000  1.0
  C  C55  1  0.40419000  0.40316000  0.15840000  1.0
  C  C56  1  0.03455000  0.90343000  0.65836000  1.0
  C  C57  1  0.59581000  0.59683000  0.84160000  1.0
  C  C58  1  0.04152000  0.20463000  0.34064000  1.0
  C  C59  1  0.58755000  0.29532000  0.15919000  1.0
  C  C60  1  0.95848000  0.79536000  0.65936000  1.0
  C  C61  1  0.41245000  0.70468000  0.84081000  1.0
  C  C62  1  0.95913000  0.28737000  0.41278000  1.0
  C  C63  1  0.65985000  0.21272000  0.08697000  1.0
  C  C64  1  0.04087000  0.71263000  0.58723000  1.0
  C  C65  1  0.34015000  0.78728000  0.91303000  1.0
  Br  Br66  1  0.49511000  0.04388000  0.73184000  1.0
  Br  Br67  1  0.27083000  0.45626000  0.76829000  1.0
  Br  Br68  1  0.50499000  0.95615000  0.26816000  1.0
  Br  Br69  1  0.72912000  0.54376000  0.23171000  1.0
  N  N70  1  0.80590000  0.26265000  0.48496000  1.0
  N  N71  1  0.55374000  0.23728000  0.01494000  1.0
  N  N72  1  0.19410000  0.73736000  0.51504000  1.0
  N  N73  1  0.44625000  0.76273000  0.98506000  1.0
  O  O74  1  0.02117000  0.23894000  0.62629000  1.0
  O  O75  1  0.88632000  0.26093000  0.87353000  1.0
  O  O76  1  0.97883000  0.76107000  0.37372000  1.0
  O  O77  1  0.11368000  0.73907000  0.12647000  1.0
  O  O78  1  0.85292000  0.46435000  0.64564000  1.0
  O  O79  1  0.96297000  0.03545000  0.85438000  1.0
  O  O80  1  0.14709000  0.53566000  0.35436000  1.0
  O  O81  1  0.03704000  0.96454000  0.14562000  1.0
