# generated using pymatgen
data_CdH15C19(NO3)2
_symmetry_space_group_name_H-M   'P 1'
_cell_length_a   7.51723000
_cell_length_b   10.41783850
_cell_length_c   12.46590000
_cell_angle_alpha   71.08035341
_cell_angle_beta   80.64280000
_cell_angle_gamma   69.44701968
_symmetry_Int_Tables_number   1
_chemical_formula_structural   CdH15C19(NO3)2
_chemical_formula_sum   'Cd2 H30 C38 N4 O12'
_cell_volume   863.40933442
_cell_formula_units_Z   2
loop_
 _symmetry_equiv_pos_site_id
 _symmetry_equiv_pos_as_xyz
  1  'x, y, z'
loop_
 _atom_site_type_symbol
 _atom_site_label
 _atom_site_symmetry_multiplicity
 _atom_site_fract_x
 _atom_site_fract_y
 _atom_site_fract_z
 _atom_site_occupancy
  Cd  Cd0  1  0.54251000  0.86857000  0.34205000  1.0
  Cd  Cd1  1  0.45749000  0.13143000  0.65795000  1.0
  H  H2  1  0.07892000  0.92074000  0.32968000  1.0
  H  H3  1  0.92109000  0.07921000  0.67033000  1.0
  H  H4  1  0.99650000  0.71419000  0.05104000  1.0
  H  H5  1  0.00349000  0.28579000  0.94896000  1.0
  H  H6  1  0.40051000  0.30112000  0.04443000  1.0
  H  H7  1  0.59947000  0.69888000  0.95558000  1.0
  H  H8  1  0.10343000  0.36275000  0.35788000  1.0
  H  H9  1  0.89657000  0.63726000  0.64213000  1.0
  H  H10  1  0.32827000  0.92659000  0.93948000  1.0
  H  H11  1  0.67172000  0.07351000  0.06050000  1.0
  H  H12  1  0.53772000  0.84815000  0.09765000  1.0
  H  H13  1  0.46229000  0.15191000  0.90234000  1.0
  H  H14  1  0.31355000  0.40077000  0.85884000  1.0
  H  H15  1  0.68645000  0.59918000  0.14117000  1.0
  H  H16  1  0.50252000  0.44316000  0.89487000  1.0
  H  H17  1  0.49749000  0.55682000  0.10512000  1.0
  H  H18  1  0.21763000  0.89945000  0.54157000  1.0
  H  H19  1  0.78237000  0.10055000  0.45843000  1.0
  H  H20  1  0.14958000  0.76727000  0.74161000  1.0
  H  H21  1  0.85042000  0.23270000  0.25839000  1.0
  H  H22  1  0.84871000  0.00769000  0.18315000  1.0
  H  H23  1  0.15126000  0.99227000  0.81686000  1.0
  H  H24  1  0.63229000  0.40691000  0.69801000  1.0
  H  H25  1  0.36772000  0.59307000  0.30200000  1.0
  H  H26  1  0.68658000  0.55366000  0.50316000  1.0
  H  H27  1  0.31342000  0.44633000  0.49686000  1.0
  H  H28  1  0.77138000  0.85888000  0.51308000  1.0
  H  H29  1  0.22864000  0.14108000  0.48693000  1.0
  H  H30  1  0.87485000  0.76156000  0.42662000  1.0
  H  H31  1  0.12515000  0.23845000  0.57339000  1.0
  C  C32  1  0.12961000  0.92467000  0.24199000  1.0
  C  C33  1  0.87040000  0.07534000  0.75799000  1.0
  C  C34  1  0.07107000  0.60298000  0.09473000  1.0
  C  C35  1  0.92891000  0.39701000  0.90527000  1.0
  C  C36  1  0.25878000  0.31616000  0.20567000  1.0
  C  C37  1  0.74122000  0.68383000  0.79433000  1.0
  C  C38  1  0.29654000  0.37179000  0.08882000  1.0
  C  C39  1  0.70347000  0.62818000  0.91118000  1.0
  C  C40  1  0.06600000  0.97557000  0.04592000  1.0
  C  C41  1  0.93400000  0.02448000  0.95407000  1.0
  C  C42  1  0.91179000  0.64309000  0.28053000  1.0
  C  C43  1  0.08823000  0.35692000  0.71945000  1.0
  C  C44  1  0.13058000  0.40380000  0.26692000  1.0
  C  C45  1  0.86945000  0.59618000  0.73308000  1.0
  C  C46  1  0.03908000  0.54785000  0.21150000  1.0
  C  C47  1  0.96093000  0.45214000  0.78850000  1.0
  C  C48  1  0.26408000  0.92879000  0.02403000  1.0
  C  C49  1  0.73590000  0.07131000  0.97597000  1.0
  C  C50  1  0.38530000  0.57576000  0.73644000  1.0
  C  C51  1  0.61469000  0.42422000  0.26357000  1.0
  C  C52  1  0.36315000  0.16323000  0.26368000  1.0
  C  C53  1  0.63684000  0.83678000  0.73632000  1.0
  C  C54  1  0.20176000  0.51496000  0.03335000  1.0
  C  C55  1  0.79824000  0.48501000  0.96666000  1.0
  C  C56  1  0.38348000  0.88335000  0.11228000  1.0
  C  C57  1  0.61649000  0.11672000  0.88772000  1.0
  C  C58  1  0.36269000  0.48971000  0.85702000  1.0
  C  C59  1  0.63728000  0.51027000  0.14299000  1.0
  C  C60  1  0.30447000  0.78922000  0.57897000  1.0
  C  C61  1  0.69552000  0.21077000  0.42103000  1.0
  C  C62  1  0.26705000  0.71539000  0.69055000  1.0
  C  C63  1  0.73295000  0.28459000  0.30945000  1.0
  C  C64  1  0.99975000  0.97318000  0.15845000  1.0
  C  C65  1  0.00027000  0.02685000  0.84152000  1.0
  C  C66  1  0.53440000  0.51489000  0.66654000  1.0
  C  C67  1  0.46560000  0.48510000  0.33346000  1.0
  C  C68  1  0.56440000  0.59585000  0.55670000  1.0
  C  C69  1  0.43559000  0.40415000  0.44331000  1.0
  N  N70  1  0.45155000  0.73156000  0.51312000  1.0
  N  N71  1  0.54843000  0.26844000  0.48689000  1.0
  N  N72  1  0.31901000  0.88028000  0.22009000  1.0
  N  N73  1  0.68096000  0.11974000  0.77991000  1.0
  O  O74  1  0.30261000  0.10099000  0.36205000  1.0
  O  O75  1  0.69740000  0.89901000  0.63795000  1.0
  O  O76  1  0.96012000  0.61967000  0.37933000  1.0
  O  O77  1  0.03989000  0.38037000  0.62065000  1.0
  O  O78  1  0.22958000  0.57871000  0.91994000  1.0
  O  O79  1  0.77043000  0.42128000  0.08005000  1.0
  O  O80  1  0.76382000  0.74116000  0.23334000  1.0
  O  O81  1  0.23619000  0.25886000  0.76664000  1.0
  O  O82  1  0.80187000  0.86131000  0.43175000  1.0
  O  O83  1  0.19811000  0.13870000  0.56826000  1.0
  O  O84  1  0.50936000  0.09721000  0.21176000  1.0
  O  O85  1  0.49066000  0.90278000  0.78825000  1.0
