# generated using pymatgen
data_Li2NpH10C14(NO6)2
_symmetry_space_group_name_H-M   'P 1'
_cell_length_a   7.02243000
_cell_length_b   8.28688000
_cell_length_c   8.49400000
_cell_angle_alpha   83.29230000
_cell_angle_beta   70.96790000
_cell_angle_gamma   70.19000000
_symmetry_Int_Tables_number   1
_chemical_formula_structural   Li2NpH10C14(NO6)2
_chemical_formula_sum   'Li2 Np1 H10 C14 N2 O12'
_cell_volume   439.61588072
_cell_formula_units_Z   1
loop_
 _symmetry_equiv_pos_site_id
 _symmetry_equiv_pos_as_xyz
  1  'x, y, z'
loop_
 _atom_site_type_symbol
 _atom_site_label
 _atom_site_symmetry_multiplicity
 _atom_site_fract_x
 _atom_site_fract_y
 _atom_site_fract_z
 _atom_site_occupancy
  Li  Li0  1  0.77714000  0.34828000  0.91094000  1.0
  Li  Li1  1  0.22286000  0.65172000  0.08906000  1.0
  Np  Np2  1  0.00002000  0.50000000  0.50000000  1.0
  H  H3  1  0.94787000  0.21135000  0.13134000  1.0
  H  H4  1  0.05209000  0.78867000  0.86869000  1.0
  H  H5  1  0.90490000  0.40667000  0.15082000  1.0
  H  H6  1  0.09500000  0.59334000  0.84925000  1.0
  H  H7  1  0.31488000  0.76881000  0.55399000  1.0
  H  H8  1  0.68513000  0.23118000  0.44600000  1.0
  H  H9  1  0.59419000  0.70921000  0.27456000  1.0
  H  H10  1  0.40583000  0.29079000  0.72544000  1.0
  H  H11  1  0.63943000  0.96057000  0.08295000  1.0
  H  H12  1  0.36058000  0.03943000  0.91705000  1.0
  C  C13  1  0.05178000  0.09471000  0.67534000  1.0
  C  C14  1  0.94826000  0.90528000  0.32466000  1.0
  C  C15  1  0.39300000  0.29853000  0.15233000  1.0
  C  C16  1  0.60701000  0.70146000  0.84765000  1.0
  C  C17  1  0.21619000  0.04192000  0.51016000  1.0
  C  C18  1  0.78383000  0.95807000  0.48983000  1.0
  C  C19  1  0.34014000  0.87240000  0.46682000  1.0
  C  C20  1  0.65986000  0.12760000  0.53317000  1.0
  C  C21  1  0.49385000  0.83978000  0.31099000  1.0
  C  C22  1  0.50616000  0.16022000  0.68900000  1.0
  C  C23  1  0.51847000  0.97734000  0.20425000  1.0
  C  C24  1  0.48154000  0.02266000  0.79574000  1.0
  C  C25  1  0.38451000  0.14207000  0.25675000  1.0
  C  C26  1  0.61550000  0.85793000  0.74323000  1.0
  N  N27  1  0.23689000  0.17443000  0.40654000  1.0
  N  N28  1  0.76311000  0.82557000  0.59345000  1.0
  O  O29  1  0.19631000  0.51881000  0.58342000  1.0
  O  O30  1  0.80370000  0.48119000  0.41658000  1.0
  O  O31  1  0.93210000  0.32183000  0.06915000  1.0
  O  O32  1  0.06780000  0.67820000  0.93091000  1.0
  O  O33  1  0.96255000  0.25957000  0.69004000  1.0
  O  O34  1  0.03751000  0.74043000  0.30996000  1.0
  O  O35  1  0.00741000  0.99016000  0.78707000  1.0
  O  O36  1  0.99261000  0.00982000  0.21292000  1.0
  O  O37  1  0.25310000  0.43911000  0.22136000  1.0
  O  O38  1  0.74692000  0.56089000  0.77862000  1.0
  O  O39  1  0.52495000  0.28944000  0.01125000  1.0
  O  O40  1  0.47505000  0.71055000  0.98872000  1.0
