# generated using pymatgen
data_Cu2H26C19(N3O4)2
_symmetry_space_group_name_H-M   'P 1'
_cell_length_a   8.83834000
_cell_length_b   9.12611000
_cell_length_c   15.43310000
_cell_angle_alpha   97.30800000
_cell_angle_beta   99.70650000
_cell_angle_gamma   94.03660000
_symmetry_Int_Tables_number   1
_chemical_formula_structural   Cu2H26C19(N3O4)2
_chemical_formula_sum   'Cu4 H52 C38 N12 O16'
_cell_volume   1211.65914231
_cell_formula_units_Z   2
loop_
 _symmetry_equiv_pos_site_id
 _symmetry_equiv_pos_as_xyz
  1  'x, y, z'
loop_
 _atom_site_type_symbol
 _atom_site_label
 _atom_site_symmetry_multiplicity
 _atom_site_fract_x
 _atom_site_fract_y
 _atom_site_fract_z
 _atom_site_occupancy
  Cu  Cu0  1  0.89251000  0.89998000  0.45508000  1.0
  Cu  Cu1  1  0.10749000  0.10003000  0.54492000  1.0
  Cu  Cu2  1  0.52080000  0.53064000  0.08740000  1.0
  Cu  Cu3  1  0.47922000  0.46937000  0.91261000  1.0
  H  H4  1  0.08744000  0.49724000  0.70804000  1.0
  H  H5  1  0.91254000  0.50276000  0.29195000  1.0
  H  H6  1  0.92413000  0.57980000  0.65895000  1.0
  H  H7  1  0.07585000  0.42020000  0.34103000  1.0
  H  H8  1  0.04710000  0.50090000  0.59128000  1.0
  H  H9  1  0.95288000  0.49909000  0.40871000  1.0
  H  H10  1  0.30195000  0.67248000  0.78236000  1.0
  H  H11  1  0.69803000  0.32752000  0.21764000  1.0
  H  H12  1  0.33215000  0.85462000  0.74077000  1.0
  H  H13  1  0.66782000  0.14538000  0.25922000  1.0
  H  H14  1  0.67456000  0.27088000  0.77725000  1.0
  H  H15  1  0.32546000  0.72912000  0.22276000  1.0
  H  H16  1  0.85781000  0.30287000  0.73458000  1.0
  H  H17  1  0.14220000  0.69711000  0.26542000  1.0
  H  H18  1  0.48873000  0.06387000  0.70506000  1.0
  H  H19  1  0.51127000  0.93613000  0.29494000  1.0
  H  H20  1  0.48457000  0.03242000  0.58858000  1.0
  H  H21  1  0.51543000  0.96758000  0.41143000  1.0
  H  H22  1  0.57122000  0.90834000  0.65516000  1.0
  H  H23  1  0.42876000  0.09165000  0.34484000  1.0
  H  H24  1  0.88388000  0.70913000  0.88966000  1.0
  H  H25  1  0.11612000  0.29084000  0.11033000  1.0
  H  H26  1  0.05410000  0.69627000  0.84207000  1.0
  H  H27  1  0.94592000  0.30370000  0.15793000  1.0
  H  H28  1  0.94915000  0.53354000  0.85854000  1.0
  H  H29  1  0.05087000  0.46643000  0.14145000  1.0
  H  H30  1  0.92636000  0.78144000  0.04463000  1.0
  H  H31  1  0.07365000  0.21856000  0.95537000  1.0
  H  H32  1  0.10359000  0.73692000  0.11684000  1.0
  H  H33  1  0.89641000  0.26307000  0.88316000  1.0
  H  H34  1  0.24139000  0.86911000  0.93913000  1.0
  H  H35  1  0.75858000  0.13091000  0.06089000  1.0
  H  H36  1  0.28429000  0.01978000  0.87359000  1.0
  H  H37  1  0.71569000  0.98022000  0.12642000  1.0
  H  H38  1  0.33887000  0.91250000  0.10248000  1.0
  H  H39  1  0.66112000  0.08751000  0.89755000  1.0
  H  H40  1  0.43032000  0.09071000  0.15251000  1.0
  H  H41  1  0.56969000  0.90929000  0.84751000  1.0
  H  H42  1  0.22697000  0.05964000  0.12960000  1.0
  H  H43  1  0.77303000  0.94038000  0.87041000  1.0
  H  H44  1  0.87063000  0.81653000  0.27895000  1.0
  H  H45  1  0.12938000  0.18347000  0.72105000  1.0
  H  H46  1  0.74526000  0.74407000  0.17791000  1.0
  H  H47  1  0.25475000  0.25593000  0.82208000  1.0
  H  H48  1  0.60464000  0.57545000  0.54737000  1.0
  H  H49  1  0.39536000  0.42457000  0.45263000  1.0
  H  H50  1  0.76938000  0.69716000  0.54210000  1.0
  H  H51  1  0.23062000  0.30286000  0.45789000  1.0
  H  H52  1  0.31805000  0.34492000  0.29039000  1.0
  H  H53  1  0.68196000  0.65508000  0.70961000  1.0
  H  H54  1  0.36121000  0.37058000  0.18751000  1.0
  H  H55  1  0.63879000  0.62942000  0.81249000  1.0
  C  C56  1  0.48430000  0.51006000  0.29425000  1.0
  C  C57  1  0.51571000  0.48994000  0.70575000  1.0
  C  C58  1  0.63230000  0.62466000  0.42382000  1.0
  C  C59  1  0.36771000  0.37536000  0.57617000  1.0
  C  C60  1  0.68501000  0.67964000  0.29053000  1.0
  C  C61  1  0.31500000  0.32036000  0.70947000  1.0
  C  C62  1  0.09668000  0.81882000  0.60743000  1.0
  C  C63  1  0.90332000  0.18118000  0.39256000  1.0
  C  C64  1  0.14239000  0.70997000  0.67009000  1.0
  C  C65  1  0.85760000  0.29002000  0.32990000  1.0
  C  C66  1  0.04570000  0.56436000  0.65656000  1.0
  C  C67  1  0.95428000  0.43564000  0.34343000  1.0
  C  C68  1  0.26578000  0.74761000  0.73495000  1.0
  C  C69  1  0.73419000  0.25239000  0.26504000  1.0
  C  C70  1  0.81292000  0.07806000  0.60385000  1.0
  C  C71  1  0.18707000  0.92193000  0.39615000  1.0
  C  C72  1  0.70580000  0.11920000  0.66677000  1.0
  C  C73  1  0.29420000  0.88080000  0.33324000  1.0
  C  C74  1  0.74857000  0.23665000  0.73012000  1.0
  C  C75  1  0.25143000  0.76333000  0.26988000  1.0
  C  C76  1  0.55483000  0.02644000  0.65370000  1.0
  C  C77  1  0.44517000  0.97355000  0.34630000  1.0
  C  C78  1  0.23131000  0.59387000  0.98847000  1.0
  C  C79  1  0.76870000  0.40613000  0.01154000  1.0
  C  C80  1  0.07903000  0.65961000  0.97896000  1.0
  C  C81  1  0.92097000  0.34036000  0.02104000  1.0
  C  C82  1  0.98667000  0.64933000  0.88731000  1.0
  C  C83  1  0.01335000  0.35064000  0.11269000  1.0
  C  C84  1  0.03395000  0.72903000  0.05095000  1.0
  C  C85  1  0.96605000  0.27096000  0.94905000  1.0
  C  C86  1  0.38964000  0.23290000  0.00824000  1.0
  C  C87  1  0.61039000  0.76711000  0.99177000  1.0
  C  C88  1  0.33123000  0.07677000  0.01388000  1.0
  C  C89  1  0.66879000  0.92324000  0.98613000  1.0
  C  C90  1  0.28275000  0.98377000  0.93802000  1.0
  C  C91  1  0.71724000  0.01625000  0.06200000  1.0
  C  C92  1  0.33250000  0.03231000  0.10441000  1.0
  C  C93  1  0.66751000  0.96770000  0.89561000  1.0
  N  N94  1  0.77509000  0.75227000  0.24496000  1.0
  N  N95  1  0.22492000  0.24771000  0.75503000  1.0
  N  N96  1  0.66816000  0.63798000  0.51218000  1.0
  N  N97  1  0.33183000  0.36203000  0.48782000  1.0
  N  N98  1  0.36394000  0.41209000  0.25231000  1.0
  N  N99  1  0.63606000  0.58791000  0.74769000  1.0
  N  N100  1  0.51077000  0.52768000  0.38310000  1.0
  N  N101  1  0.48922000  0.47233000  0.61689000  1.0
  N  N102  1  0.71975000  0.70740000  0.38009000  1.0
  N  N103  1  0.28025000  0.29260000  0.61991000  1.0
  N  N104  1  0.56719000  0.58186000  0.24326000  1.0
  N  N105  1  0.43281000  0.41814000  0.75674000  1.0
  O  O106  1  0.17162000  0.94631000  0.62103000  1.0
  O  O107  1  0.82837000  0.05369000  0.37896000  1.0
  O  O108  1  0.98208000  0.77388000  0.54457000  1.0
  O  O109  1  0.01792000  0.22612000  0.45542000  1.0
  O  O110  1  0.94906000  0.14501000  0.61995000  1.0
  O  O111  1  0.05095000  0.85501000  0.38005000  1.0
  O  O112  1  0.75961000  0.97667000  0.53892000  1.0
  O  O113  1  0.24039000  0.02334000  0.46109000  1.0
  O  O114  1  0.27274000  0.54300000  0.91579000  1.0
  O  O115  1  0.72728000  0.45700000  0.08422000  1.0
  O  O116  1  0.30877000  0.59668000  0.06657000  1.0
  O  O117  1  0.69123000  0.40333000  0.93345000  1.0
  O  O118  1  0.39634000  0.26902000  0.93162000  1.0
  O  O119  1  0.60367000  0.73098000  0.06838000  1.0
  O  O120  1  0.43147000  0.32022000  0.08138000  1.0
  O  O121  1  0.56857000  0.67979000  0.91863000  1.0
