# generated using pymatgen
data_AlH39(C6O)6
_symmetry_space_group_name_H-M   'P 1'
_cell_length_a   4.01112000
_cell_length_b   28.61590000
_cell_length_c   28.63279949
_cell_angle_alpha   119.96545110
_cell_angle_beta   89.97188578
_cell_angle_gamma   89.86790000
_symmetry_Int_Tables_number   1
_chemical_formula_structural   AlH39(C6O)6
_chemical_formula_sum   'Al2 H78 C72 O12'
_cell_volume   2847.19139454
_cell_formula_units_Z   2
loop_
 _symmetry_equiv_pos_site_id
 _symmetry_equiv_pos_as_xyz
  1  'x, y, z'
loop_
 _atom_site_type_symbol
 _atom_site_label
 _atom_site_symmetry_multiplicity
 _atom_site_fract_x
 _atom_site_fract_y
 _atom_site_fract_z
 _atom_site_occupancy
  Al  Al0  1  0.00567000  0.99871000  0.50034000  1.0
  Al  Al1  1  0.02146000  0.33180000  0.16649000  1.0
  H  H2  1  0.17903000  0.65803000  0.29254000  1.0
  H  H3  1  0.77972000  0.66868000  0.36271000  1.0
  H  H4  1  0.16408000  0.20420000  0.36464000  1.0
  H  H5  1  0.78420000  0.13710000  0.30912000  1.0
  H  H6  1  0.77983000  0.13992000  0.83621000  1.0
  H  H7  1  0.17156000  0.19897000  0.82659000  1.0
  H  H8  1  0.54267000  0.47241000  0.11903000  1.0
  H  H9  1  0.74393000  0.42654000  0.13413000  1.0
  H  H10  1  0.95807000  0.48432000  0.14359000  1.0
  H  H11  1  0.82740000  0.61872000  0.22398000  1.0
  H  H12  1  0.41787000  0.60955000  0.19864000  1.0
  H  H13  1  0.73070000  0.56146000  0.16100000  1.0
  H  H14  1  0.41460000  0.49038000  0.35536000  1.0
  H  H15  1  0.34179000  0.43064000  0.29312000  1.0
  H  H16  1  0.01764000  0.47821000  0.32458000  1.0
  H  H17  1  0.20543000  0.63269000  0.38531000  1.0
  H  H18  1  0.38374000  0.58284000  0.39723000  1.0
  H  H19  1  0.97408000  0.57435000  0.37180000  1.0
  H  H20  1  0.09587000  0.73339000  0.28095000  1.0
  H  H21  1  0.49521000  0.70286000  0.26699000  1.0
  H  H22  1  0.43639000  0.76611000  0.27061000  1.0
  H  H23  1  0.48511000  0.85626000  0.32034000  1.0
  H  H24  1  0.24563000  0.89960000  0.37787000  1.0
  H  H25  1  0.06956000  0.83917000  0.32663000  1.0
  H  H26  1  0.01830000  0.73504000  0.45491000  1.0
  H  H27  1  0.62196000  0.70416000  0.44437000  1.0
  H  H28  1  0.69652000  0.76711000  0.50270000  1.0
  H  H29  1  0.57027000  0.85442000  0.54324000  1.0
  H  H30  1  0.75137000  0.90362000  0.53100000  1.0
  H  H31  1  0.98917000  0.84740000  0.52088000  1.0
  H  H32  1  0.56590000  0.37817000  0.35610000  1.0
  H  H33  1  0.74504000  0.36386000  0.29381000  1.0
  H  H34  1  0.97626000  0.35164000  0.33891000  1.0
  H  H35  1  0.79342000  0.26949000  0.39638000  1.0
  H  H36  1  0.41428000  0.30553000  0.41185000  1.0
  H  H37  1  0.77682000  0.33282000  0.39930000  1.0
  H  H38  1  0.41005000  0.14286000  0.13595000  1.0
  H  H39  1  0.34084000  0.20529000  0.13849000  1.0
  H  H40  1  0.01426000  0.17438000  0.15454000  1.0
  H  H41  1  0.19699000  0.11300000  0.24818000  1.0
  H  H42  1  0.35913000  0.10117000  0.18554000  1.0
  H  H43  1  0.95488000  0.12847000  0.20566000  1.0
  H  H44  1  0.07503000  0.21669000  0.45610000  1.0
  H  H45  1  0.45835000  0.23175000  0.43591000  1.0
  H  H46  1  0.43295000  0.22888000  0.49631000  1.0
  H  H47  1  0.46641000  0.17967000  0.53740000  1.0
  H  H48  1  0.23797000  0.12132000  0.52353000  1.0
  H  H49  1  0.05220000  0.17134000  0.51314000  1.0
  H  H50  1  0.03276000  0.04462000  0.28444000  1.0
  H  H51  1  0.64195000  0.05540000  0.26240000  1.0
  H  H52  1  0.71057000  0.99680000  0.26700000  1.0
  H  H53  1  0.57863000  0.95623000  0.31287000  1.0
  H  H54  1  0.74616000  0.96776000  0.37485000  1.0
  H  H55  1  0.99615000  0.97835000  0.33025000  1.0
  H  H56  1  0.58504000  0.14491000  0.02271000  1.0
  H  H57  1  0.77735000  0.20574000  0.07079000  1.0
  H  H58  1  0.00358000  0.15862000  0.01367000  1.0
  H  H59  1  0.03441000  0.11449000  0.90387000  1.0
  H  H60  1  0.64312000  0.09362000  0.87118000  1.0
  H  H61  1  0.70778000  0.09757000  0.93408000  1.0
  H  H62  1  0.49034000  0.36897000  0.02370000  1.0
  H  H63  1  0.26000000  0.35534000  0.06820000  1.0
  H  H64  1  0.07336000  0.34603000  0.00833000  1.0
  H  H65  1  0.08901000  0.28739000  0.90394000  1.0
  H  H66  1  0.47956000  0.26908000  0.87059000  1.0
  H  H67  1  0.43891000  0.32892000  0.93405000  1.0
  H  H68  1  0.20181000  0.08141000  0.80185000  1.0
  H  H69  1  0.36703000  0.01882000  0.75132000  1.0
  H  H70  1  0.95993000  0.03801000  0.74432000  1.0
  H  H71  1  0.40703000  0.96837000  0.65953000  1.0
  H  H72  1  0.32817000  0.97069000  0.59979000  1.0
  H  H73  1  0.00824000  0.98716000  0.64804000  1.0
  H  H74  1  0.79624000  0.22898000  0.78906000  1.0
  H  H75  1  0.40040000  0.24435000  0.77339000  1.0
  H  H76  1  0.74155000  0.23254000  0.72949000  1.0
  H  H77  1  0.53488000  0.18802000  0.64242000  1.0
  H  H78  1  0.71163000  0.12577000  0.59398000  1.0
  H  H79  1  0.94969000  0.17128000  0.65011000  1.0
  C  C80  1  0.50342000  0.04228000  0.58328000  1.0
  C  C81  1  0.50806000  0.91555000  0.46045000  1.0
  C  C82  1  0.50568000  0.03862000  0.45711000  1.0
  C  C83  1  0.51742000  0.41478000  0.20511000  1.0
  C  C84  1  0.51988000  0.29292000  0.21063000  1.0
  C  C85  1  0.52242000  0.28782000  0.08341000  1.0
  C  C86  1  0.50106000  0.47505000  0.23352000  1.0
  C  C87  1  0.38780000  0.50316000  0.28701000  1.0
  C  C88  1  0.35510000  0.55974000  0.31285000  1.0
  C  C89  1  0.43505000  0.58661000  0.28436000  1.0
  C  C90  1  0.55045000  0.55752000  0.23053000  1.0
  C  C91  1  0.58587000  0.50123000  0.20470000  1.0
  C  C92  1  0.38734000  0.64565000  0.30856000  1.0
  C  C93  1  0.57803000  0.68348000  0.34787000  1.0
  C  C94  1  0.63760000  0.77203000  0.43012000  1.0
  C  C95  1  0.54707000  0.74259000  0.37488000  1.0
  C  C96  1  0.44293000  0.77038000  0.34799000  1.0
  C  C97  1  0.42162000  0.82709000  0.37670000  1.0
  C  C98  1  0.51585000  0.85520000  0.43111000  1.0
  C  C99  1  0.62684000  0.82868000  0.45833000  1.0
  C  C100  1  0.50312000  0.26434000  0.24234000  1.0
  C  C101  1  0.38477000  0.21119000  0.21701000  1.0
  C  C102  1  0.34784000  0.18540000  0.24774000  1.0
  C  C103  1  0.43080000  0.21350000  0.30292000  1.0
  C  C104  1  0.55295000  0.26686000  0.32757000  1.0
  C  C105  1  0.59088000  0.29274000  0.29718000  1.0
  C  C106  1  0.37926000  0.18917000  0.33757000  1.0
  C  C107  1  0.57619000  0.15107000  0.33757000  1.0
  C  C108  1  0.64172000  0.06915000  0.34436000  1.0
  C  C109  1  0.54459000  0.12418000  0.36976000  1.0
  C  C110  1  0.43340000  0.15091000  0.42403000  1.0
  C  C111  1  0.41299000  0.12224000  0.45207000  1.0
  C  C112  1  0.51265000  0.06799000  0.42612000  1.0
  C  C113  1  0.62895000  0.04089000  0.37270000  1.0
  C  C114  1  0.52655000  0.25721000  0.02309000  1.0
  C  C115  1  0.42760000  0.28368000  0.99528000  1.0
  C  C116  1  0.44472000  0.25590000  0.93859000  1.0
  C  C117  1  0.55085000  0.20132000  0.91056000  1.0
  C  C118  1  0.64806000  0.17541000  0.93971000  1.0
  C  C119  1  0.64023000  0.20360000  0.99630000  1.0
  C  C120  1  0.57709000  0.16939000  0.85144000  1.0
  C  C121  1  0.38115000  0.17072000  0.81398000  1.0
  C  C122  1  0.54020000  0.16021000  0.72554000  1.0
  C  C123  1  0.42634000  0.13577000  0.75497000  1.0
  C  C124  1  0.34625000  0.08047000  0.72850000  1.0
  C  C125  1  0.37826000  0.04942000  0.67196000  1.0
  C  C126  1  0.48990000  0.07450000  0.64349000  1.0
  C  C127  1  0.57361000  0.12950000  0.66926000  1.0
  C  C128  1  0.71342000  0.46942000  0.14754000  1.0
  C  C129  1  0.63647000  0.58797000  0.20182000  1.0
  C  C130  1  0.28714000  0.47387000  0.31625000  1.0
  C  C131  1  0.22312000  0.58922000  0.36970000  1.0
  C  C132  1  0.36456000  0.74159000  0.28864000  1.0
  C  C133  1  0.29975000  0.85719000  0.34922000  1.0
  C  C134  1  0.74781000  0.74302000  0.45937000  1.0
  C  C135  1  0.73913000  0.86027000  0.51624000  1.0
  C  C136  1  0.72506000  0.34944000  0.32262000  1.0
  C  C137  1  0.64008000  0.29532000  0.38663000  1.0
  C  C138  1  0.28400000  0.18220000  0.15853000  1.0
  C  C139  1  0.20819000  0.12911000  0.22070000  1.0
  C  C140  1  0.34655000  0.21006000  0.45440000  1.0
  C  C141  1  0.28655000  0.14977000  0.50934000  1.0
  C  C142  1  0.76122000  0.04015000  0.28661000  1.0
  C  C143  1  0.74266000  0.98294000  0.34656000  1.0
  C  C144  1  0.75656000  0.17706000  0.02759000  1.0
  C  C145  1  0.76271000  0.11735000  0.91059000  1.0
  C  C146  1  0.30697000  0.34132000  0.02557000  1.0
  C  C147  1  0.35971000  0.28669000  0.91017000  1.0
  C  C148  1  0.21259000  0.05361000  0.75835000  1.0
  C  C149  1  0.27713000  0.99095000  0.64311000  1.0
  C  C150  1  0.62483000  0.21939000  0.75553000  1.0
  C  C151  1  0.69795000  0.15474000  0.63719000  1.0
  O  O152  1  0.26981000  0.00535000  0.44802000  1.0
  O  O153  1  0.26971000  0.05057000  0.55801000  1.0
  O  O154  1  0.27106000  0.93974000  0.49368000  1.0
  O  O155  1  0.73988000  0.04885000  0.49102000  1.0
  O  O156  1  0.74200000  0.93935000  0.45028000  1.0
  O  O157  1  0.74156000  0.00876000  0.56071000  1.0
  O  O158  1  0.28765000  0.27878000  0.10788000  1.0
  O  O159  1  0.28603000  0.38925000  0.17127000  1.0
  O  O160  1  0.28782000  0.32683000  0.21890000  1.0
  O  O161  1  0.75783000  0.32147000  0.10680000  1.0
  O  O162  1  0.75971000  0.28208000  0.17749000  1.0
  O  O163  1  0.75689000  0.39249000  0.21607000  1.0
