# generated using pymatgen
data_ZnH24C34(NO3)2
_symmetry_space_group_name_H-M   'P 1'
_cell_length_a   8.94406000
_cell_length_b   9.86788000
_cell_length_c   17.12200000
_cell_angle_alpha   80.01290000
_cell_angle_beta   84.09090000
_cell_angle_gamma   73.89220000
_symmetry_Int_Tables_number   1
_chemical_formula_structural   ZnH24C34(NO3)2
_chemical_formula_sum   'Zn2 H48 C68 N4 O12'
_cell_volume   1427.43953294
_cell_formula_units_Z   2
loop_
 _symmetry_equiv_pos_site_id
 _symmetry_equiv_pos_as_xyz
  1  'x, y, z'
loop_
 _atom_site_type_symbol
 _atom_site_label
 _atom_site_symmetry_multiplicity
 _atom_site_fract_x
 _atom_site_fract_y
 _atom_site_fract_z
 _atom_site_occupancy
  Zn  Zn0  1  0.07257000  0.14225000  0.07385000  1.0
  Zn  Zn1  1  0.26014000  0.28448000  0.23136000  1.0
  H  H2  1  0.50774000  0.99726000  0.64651000  1.0
  H  H3  1  0.66666667  0.16603000  0.59070000  1.0
  H  H4  1  0.61815000  0.39634000  0.64260000  1.0
  H  H5  1  0.41087000  0.45951000  0.74683000  1.0
  H  H6  1  0.29607000  0.93646000  0.73654000  1.0
  H  H7  1  0.08295000  0.00019000  0.83774000  1.0
  H  H8  1  0.85360000  0.16210000  0.84270000  1.0
  H  H9  1  0.76308000  0.29066000  0.90494000  1.0
  H  H10  1  0.93478000  0.42581000  0.75014000  1.0
  H  H11  1  0.68066000  0.59894000  0.72639000  1.0
  H  H12  1  0.61158000  0.83127000  0.77944000  1.0
  H  H13  1  0.79806000  0.88419000  0.85989000  1.0
  H  H14  1  0.29557000  0.63249000  0.95653000  1.0
  H  H15  1  0.04437000  0.80843000  0.92732000  1.0
  H  H16  1  0.47537000  0.44795000  0.99784000  1.0
  H  H17  1  0.54566000  0.26422000  0.98598000  1.0
  H  H18  1  0.64993000  0.62947000  0.49962000  1.0
  H  H19  1  0.82611000  0.70073000  0.58016000  1.0
  H  H20  1  0.08032000  0.53137000  0.61691000  1.0
  H  H21  1  0.16321000  0.29501000  0.57327000  1.0
  H  H22  1  0.60229000  0.45989000  0.42306000  1.0
  H  H23  1  0.68863000  0.23172000  0.37086000  1.0
  H  H24  1  0.80656000  0.05703000  0.31361000  1.0
  H  H25  1  0.96513000  0.90238000  0.32337000  1.0
  H  H26  1  0.94354000  0.01074000  0.58537000  1.0
  H  H27  1  0.98505000  0.79602000  0.68813000  1.0
  H  H28  1  0.25068000  0.63589000  0.70753000  1.0
  H  H29  1  0.47823000  0.68934000  0.62432000  1.0
  H  H30  1  0.54366000  0.07397000  0.42116000  1.0
  H  H31  1  0.58657000  0.85330000  0.51956000  1.0
  H  H32  1  0.42075000  0.32968000  0.44562000  1.0
  H  H33  1  0.23089000  0.44576000  0.43303000  1.0
  H  H34  1  0.79981000  0.26445000  0.18882000  1.0
  H  H35  1  0.57530000  0.47607000  0.19106000  1.0
  H  H36  1  0.75305000  0.64433000  0.96002000  1.0
  H  H37  1  0.97457000  0.42761000  0.97067000  1.0
  H  H38  1  0.36496000  0.61703000  0.16483000  1.0
  H  H39  1  0.15240000  0.84264000  0.16018000  1.0
  H  H40  1  0.38952000  0.05334000  0.98098000  1.0
  H  H41  1  0.61536000  0.84417000  0.98051000  1.0
  H  H42  1  0.31997000  0.96498000  0.31027000  1.0
  H  H43  1  0.52852000  0.73987000  0.30546000  1.0
  H  H44  1  0.79362000  0.98473000  0.14042000  1.0
  H  H45  1  0.56950000  0.19731000  0.15086000  1.0
  H  H46  1  0.77046000  0.62377000  0.34626000  1.0
  H  H47  1  0.99401000  0.40798000  0.34159000  1.0
  H  H48  1  0.12203000  0.54903000  0.10919000  1.0
  H  H49  1  0.90319000  0.77125000  0.10282000  1.0
  C  C50  1  0.48669000  0.09909000  0.66789000  1.0
  C  C51  1  0.57518000  0.19238000  0.63719000  1.0
  C  C52  1  0.54653000  0.32355000  0.66620000  1.0
  C  C53  1  0.42905000  0.35981000  0.72375000  1.0
  C  C54  1  0.33197000  0.26856000  0.75486000  1.0
  C  C55  1  0.36416000  0.13382000  0.72665000  1.0
  C  C56  1  0.27158000  0.03901000  0.75765000  1.0
  C  C57  1  0.15145000  0.07511000  0.81359000  1.0
  C  C58  1  0.11721000  0.20933000  0.83992000  1.0
  C  C59  1  0.20374000  0.30720000  0.81114000  1.0
  C  C60  1  0.86324000  0.19769000  0.89890000  1.0
  C  C61  1  0.84799000  0.07924000  0.96787000  1.0
  C  C62  1  0.90515000  0.52517000  0.77484000  1.0
  C  C63  1  0.76291000  0.62301000  0.76124000  1.0
  C  C64  1  0.72359000  0.75412000  0.79120000  1.0
  C  C65  1  0.82778000  0.78428000  0.83538000  1.0
  C  C66  1  0.97354000  0.68409000  0.85212000  1.0
  C  C67  1  0.01490000  0.55145000  0.82077000  1.0
  C  C68  1  0.16023000  0.44868000  0.83889000  1.0
  C  C69  1  0.25814000  0.48067000  0.88705000  1.0
  C  C70  1  0.21700000  0.61082000  0.91854000  1.0
  C  C71  1  0.07751000  0.70984000  0.90151000  1.0
  C  C72  1  0.44243000  0.35671000  0.98269000  1.0
  C  C73  1  0.31910000  0.31675000  0.04442000  1.0
  C  C74  1  0.76326000  0.55801000  0.51549000  1.0
  C  C75  1  0.86011000  0.59688000  0.56005000  1.0
  C  C76  1  0.00509000  0.50062000  0.58091000  1.0
  C  C77  1  0.05198000  0.36874000  0.55609000  1.0
  C  C78  1  0.95751000  0.32780000  0.50729000  1.0
  C  C79  1  0.80889000  0.42386000  0.48803000  1.0
  C  C80  1  0.71374000  0.38510000  0.43929000  1.0
  C  C81  1  0.76266000  0.25773000  0.40959000  1.0
  C  C82  1  0.90961000  0.16304000  0.42804000  1.0
  C  C83  1  0.00722000  0.19743000  0.47527000  1.0
  C  C84  1  0.93122000  0.01744000  0.32584000  1.0
  C  C85  1  0.02445000  0.09047000  0.25947000  1.0
  C  C86  1  0.06018000  0.94006000  0.59380000  1.0
  C  C87  1  0.08340000  0.82044000  0.65086000  1.0
  C  C88  1  0.23498000  0.72960000  0.66196000  1.0
  C  C89  1  0.36115000  0.75974000  0.61589000  1.0
  C  C90  1  0.34148000  0.88321000  0.55723000  1.0
  C  C91  1  0.18738000  0.97502000  0.54588000  1.0
  C  C92  1  0.16522000  0.10128000  0.48856000  1.0
  C  C93  1  0.29346000  0.13476000  0.44545000  1.0
  C  C94  1  0.44577000  0.04474000  0.45652000  1.0
  C  C95  1  0.46877000  0.92159000  0.51093000  1.0
  C  C96  1  0.32630000  0.37044000  0.40424000  1.0
  C  C97  1  0.38653000  0.45037000  0.32853000  1.0
  C  C98  1  0.78590000  0.35230000  0.13976000  1.0
  C  C99  1  0.66009000  0.47173000  0.14041000  1.0
  C  C100  1  0.64335000  0.58120000  0.07501000  1.0
  C  C101  1  0.75883000  0.56449000  0.01292000  1.0
  C  C102  1  0.88314000  0.44303000  0.01784000  1.0
  C  C103  1  0.51008000  0.70927000  0.07213000  1.0
  C  C104  1  0.37591000  0.71097000  0.12288000  1.0
  C  C105  1  0.25659000  0.83602000  0.12057000  1.0
  C  C106  1  0.38874000  0.95457000  0.02067000  1.0
  C  C107  1  0.51403000  0.83446000  0.01971000  1.0
  C  C108  1  0.42724000  0.96442000  0.27380000  1.0
  C  C109  1  0.54650000  0.83957000  0.27232000  1.0
  C  C110  1  0.68329000  0.84383000  0.22492000  1.0
  C  C111  1  0.69155000  0.97435000  0.17918000  1.0
  C  C112  1  0.56728000  0.09374000  0.18466000  1.0
  C  C113  1  0.81580000  0.71568000  0.22432000  1.0
  C  C114  1  0.84423000  0.61150000  0.29197000  1.0
  C  C115  1  0.96919000  0.49127000  0.29017000  1.0
  C  C116  1  0.04065000  0.57040000  0.16022000  1.0
  C  C117  1  0.91866000  0.69390000  0.15723000  1.0
  N  N118  1  0.89609000  0.33632000  0.07977000  1.0
  N  N119  1  0.26253000  0.95685000  0.07109000  1.0
  N  N120  1  0.43686000  0.09029000  0.23127000  1.0
  N  N121  1  0.06585000  0.47004000  0.22518000  1.0
  O  O122  1  0.99961000  0.24781000  0.89664000  1.0
  O  O123  1  0.94229000  0.04486000  0.02434000  1.0
  O  O124  1  0.73951000  0.02375000  0.96437000  1.0
  O  O125  1  0.39685000  0.37974000  0.90314000  1.0
  O  O126  1  0.22429000  0.25970000  0.02167000  1.0
  O  O127  1  0.32762000  0.34334000  0.11337000  1.0
  O  O128  1  0.96130000  0.03119000  0.40355000  1.0
  O  O129  1  0.01487000  0.06256000  0.19071000  1.0
  O  O130  1  0.09838000  0.17021000  0.27856000  1.0
  O  O131  1  0.27065000  0.25518000  0.38775000  1.0
  O  O132  1  0.39367000  0.40168000  0.26278000  1.0
  O  O133  1  0.42831000  0.55797000  0.33611000  1.0
