# generated using pymatgen
data_TbH6(C2N3)3
_symmetry_space_group_name_H-M   'P 1'
_cell_length_a   9.33953000
_cell_length_b   9.33954000
_cell_length_c   12.65970000
_cell_angle_alpha   91.66020000
_cell_angle_beta   91.66020000
_cell_angle_gamma   119.55600000
_symmetry_Int_Tables_number   1
_chemical_formula_structural   TbH6(C2N3)3
_chemical_formula_sum   'Tb4 H24 C24 N36'
_cell_volume   958.98029516
_cell_formula_units_Z   4
loop_
 _symmetry_equiv_pos_site_id
 _symmetry_equiv_pos_as_xyz
  1  'x, y, z'
loop_
 _atom_site_type_symbol
 _atom_site_label
 _atom_site_symmetry_multiplicity
 _atom_site_fract_x
 _atom_site_fract_y
 _atom_site_fract_z
 _atom_site_occupancy
  Tb  Tb0  1  0.74273000  0.48071000  0.57222000  1.0
  Tb  Tb1  1  0.51929000  0.25727000  0.92778000  1.0
  Tb  Tb2  1  0.25727000  0.51929000  0.42778000  1.0
  Tb  Tb3  1  0.48071000  0.74273000  0.07222000  1.0
  H  H4  1  0.70776000  0.77991000  0.76465000  1.0
  H  H5  1  0.22009000  0.29224000  0.73534000  1.0
  H  H6  1  0.29224000  0.22009000  0.23534000  1.0
  H  H7  1  0.77991000  0.70776000  0.26466000  1.0
  H  H8  1  0.46457000  0.86723000  0.72772000  1.0
  H  H9  1  0.13277000  0.53543000  0.77228000  1.0
  H  H10  1  0.53543000  0.13277000  0.27228000  1.0
  H  H11  1  0.86723000  0.46457000  0.22772000  1.0
  H  H12  1  0.74493000  0.09947000  0.66448000  1.0
  H  H13  1  0.90053000  0.25506000  0.83552000  1.0
  H  H14  1  0.25506000  0.90053000  0.33552000  1.0
  H  H15  1  0.09947000  0.74494000  0.16448000  1.0
  H  H16  1  0.98723000  0.02713000  0.60009000  1.0
  H  H17  1  0.97287000  0.01277000  0.89991000  1.0
  H  H18  1  0.01277000  0.97287000  0.39991000  1.0
  H  H19  1  0.02713000  0.98723000  0.10009000  1.0
  H  H20  1  0.11455000  0.84065000  0.84034000  1.0
  H  H21  1  0.15935000  0.88545000  0.65966000  1.0
  H  H22  1  0.88545000  0.15935000  0.15966000  1.0
  H  H23  1  0.84065000  0.11455000  0.34034000  1.0
  H  H24  1  0.92368000  0.63448000  0.99601000  1.0
  H  H25  1  0.36552000  0.07632000  0.50399000  1.0
  H  H26  1  0.07633000  0.36552000  0.00399000  1.0
  H  H27  1  0.63448000  0.92368000  0.49601000  1.0
  C  C28  1  0.61069000  0.73731000  0.70303000  1.0
  C  C29  1  0.26269000  0.38931000  0.79697000  1.0
  C  C30  1  0.38931000  0.26269000  0.29697000  1.0
  C  C31  1  0.73731000  0.61069000  0.20303000  1.0
  C  C32  1  0.49009000  0.78127000  0.68432000  1.0
  C  C33  1  0.21873000  0.50991000  0.81568000  1.0
  C  C34  1  0.50991000  0.21873000  0.31568000  1.0
  C  C35  1  0.78127000  0.49009000  0.18432000  1.0
  C  C36  1  0.85200000  0.16919000  0.61877000  1.0
  C  C37  1  0.83081000  0.14800000  0.88123000  1.0
  C  C38  1  0.14800000  0.83081000  0.38123000  1.0
  C  C39  1  0.16919000  0.85200000  0.11877000  1.0
  C  C40  1  0.97266000  0.13341000  0.58659000  1.0
  C  C41  1  0.86658000  0.02734000  0.91341000  1.0
  C  C42  1  0.02734000  0.86658000  0.41341000  1.0
  C  C43  1  0.13341000  0.97266000  0.08659000  1.0
  C  C44  1  0.00078000  0.72345000  0.83306000  1.0
  C  C45  1  0.27655000  0.99922000  0.66694000  1.0
  C  C46  1  0.99922000  0.27655000  0.16694000  1.0
  C  C47  1  0.72345000  0.00078000  0.33306000  1.0
  C  C48  1  0.90672000  0.62064000  0.91072000  1.0
  C  C49  1  0.37936000  0.09328000  0.58928000  1.0
  C  C50  1  0.09328000  0.37936000  0.08928000  1.0
  C  C51  1  0.62064000  0.90672000  0.41072000  1.0
  N  N52  1  0.58837000  0.62104000  0.62764000  1.0
  N  N53  1  0.37896000  0.41163000  0.87236000  1.0
  N  N54  1  0.41163000  0.37896000  0.37236000  1.0
  N  N55  1  0.62104000  0.58837000  0.12764000  1.0
  N  N56  1  0.45817000  0.59466000  0.56638000  1.0
  N  N57  1  0.40534000  0.54183000  0.93362000  1.0
  N  N58  1  0.54183000  0.40534000  0.43362000  1.0
  N  N59  1  0.59466000  0.45817000  0.06638000  1.0
  N  N60  1  0.39671000  0.68969000  0.59827000  1.0
  N  N61  1  0.31031000  0.60329000  0.90173000  1.0
  N  N62  1  0.60329000  0.31031000  0.40173000  1.0
  N  N63  1  0.68969000  0.39671000  0.09827000  1.0
  N  N64  1  0.88674000  0.31645000  0.58075000  1.0
  N  N65  1  0.68355000  0.11326000  0.91925000  1.0
  N  N66  1  0.11326000  0.68355000  0.41925000  1.0
  N  N67  1  0.31645000  0.88674000  0.08075000  1.0
  N  N68  1  0.02356000  0.36790000  0.52753000  1.0
  N  N69  1  0.63210000  0.97643000  0.97247000  1.0
  N  N70  1  0.97643000  0.63210000  0.47247000  1.0
  N  N71  1  0.36790000  0.02357000  0.02753000  1.0
  N  N72  1  0.07808000  0.26019000  0.52945000  1.0
  N  N73  1  0.73981000  0.92192000  0.97055000  1.0
  N  N74  1  0.92192000  0.73981000  0.47055000  1.0
  N  N75  1  0.26020000  0.07808000  0.02945000  1.0
  N  N76  1  0.92635000  0.64840000  0.73813000  1.0
  N  N77  1  0.35160000  0.07365000  0.76187000  1.0
  N  N78  1  0.07365000  0.35160000  0.26187000  1.0
  N  N79  1  0.64840000  0.92635000  0.23813000  1.0
  N  N80  1  0.79317000  0.50617000  0.75787000  1.0
  N  N81  1  0.49383000  0.20683000  0.74213000  1.0
  N  N82  1  0.20683000  0.49383000  0.24213000  1.0
  N  N83  1  0.50617000  0.79317000  0.25787000  1.0
  N  N84  1  0.77741000  0.48611000  0.86168000  1.0
  N  N85  1  0.51389000  0.22259000  0.63832000  1.0
  N  N86  1  0.22259000  0.51389000  0.13832000  1.0
  N  N87  1  0.48611000  0.77741000  0.36168000  1.0
