# generated using pymatgen
data_CuH28C20(N5O4)2
_symmetry_space_group_name_H-M   'P 1'
_cell_length_a   8.62807000
_cell_length_b   8.80374766
_cell_length_c   10.32170000
_cell_angle_alpha   73.51138383
_cell_angle_beta   65.88860000
_cell_angle_gamma   60.71380058
_symmetry_Int_Tables_number   1
_chemical_formula_structural   CuH28C20(N5O4)2
_chemical_formula_sum   'Cu1 H28 C20 N10 O8'
_cell_volume   620.67559336
_cell_formula_units_Z   1
loop_
 _symmetry_equiv_pos_site_id
 _symmetry_equiv_pos_as_xyz
  1  'x, y, z'
loop_
 _atom_site_type_symbol
 _atom_site_label
 _atom_site_symmetry_multiplicity
 _atom_site_fract_x
 _atom_site_fract_y
 _atom_site_fract_z
 _atom_site_occupancy
  Cu  Cu0  1  0.50000000  0.50000000  0.50000000  1.0
  H  H1  1  0.24532000  0.92013000  0.43687000  1.0
  H  H2  1  0.75468000  0.07987000  0.56313000  1.0
  H  H3  1  0.83142000  0.62132000  0.34933000  1.0
  H  H4  1  0.16858000  0.37868000  0.65067000  1.0
  H  H5  1  0.75454000  0.97436000  0.27912000  1.0
  H  H6  1  0.24546000  0.02564000  0.72087000  1.0
  H  H7  1  0.43156000  0.25669000  0.34064000  1.0
  H  H8  1  0.56845000  0.74330000  0.65936000  1.0
  H  H9  1  0.22346000  0.22623000  0.40180000  1.0
  H  H10  1  0.77655000  0.77376000  0.59820000  1.0
  H  H11  1  0.27352000  0.38523000  0.15894000  1.0
  H  H12  1  0.72647000  0.61478000  0.84106000  1.0
  H  H13  1  0.49154000  0.20288000  0.09188000  1.0
  H  H14  1  0.50846000  0.79712000  0.90812000  1.0
  H  H15  1  0.35698000  0.11486000  0.94975000  1.0
  H  H16  1  0.64302000  0.88515000  0.05025000  1.0
  H  H17  1  0.17950000  0.32910000  0.99085000  1.0
  H  H18  1  0.82049000  0.67091000  0.00915000  1.0
  H  H19  1  0.06796000  0.12795000  0.95238000  1.0
  H  H20  1  0.93204000  0.87205000  0.04762000  1.0
  H  H21  1  0.11311000  0.99598000  0.11217000  1.0
  H  H22  1  0.88690000  0.00402000  0.88783000  1.0
  H  H23  1  0.92117000  0.20630000  0.34481000  1.0
  H  H24  1  0.07883000  0.79370000  0.65519000  1.0
  H  H25  1  0.46164000  0.55370000  0.19523000  1.0
  H  H26  1  0.53836000  0.44629000  0.80477000  1.0
  H  H27  1  0.75763000  0.35676000  0.97553000  1.0
  H  H28  1  0.24237000  0.64324000  0.02447000  1.0
  C  C29  1  0.39459000  0.88325000  0.40427000  1.0
  C  C30  1  0.60541000  0.11675000  0.59573000  1.0
  C  C31  1  0.69909000  0.73515000  0.35414000  1.0
  C  C32  1  0.30092000  0.26485000  0.64586000  1.0
  C  C33  1  0.66258000  0.90926000  0.31767000  1.0
  C  C34  1  0.33742000  0.09074000  0.68233000  1.0
  C  C35  1  0.36466000  0.18930000  0.32333000  1.0
  C  C36  1  0.63534000  0.81070000  0.67667000  1.0
  C  C37  1  0.35091000  0.24152000  0.17390000  1.0
  C  C38  1  0.64909000  0.75848000  0.82610000  1.0
  C  C39  1  0.22547000  0.18861000  0.03090000  1.0
  C  C40  1  0.77453000  0.81139000  0.96910000  1.0
  C  C41  1  0.07721000  0.12858000  0.05501000  1.0
  C  C42  1  0.92279000  0.87142000  0.94499000  1.0
  C  C43  1  0.83451000  0.27563000  0.27612000  1.0
  C  C44  1  0.16550000  0.72436000  0.72388000  1.0
  C  C45  1  0.60174000  0.45491000  0.19268000  1.0
  C  C46  1  0.39826000  0.54509000  0.80732000  1.0
  C  C47  1  0.74506000  0.35871000  0.08407000  1.0
  C  C48  1  0.25495000  0.64128000  0.91593000  1.0
  N  N49  1  0.53051000  0.72135000  0.40892000  1.0
  N  N50  1  0.46951000  0.27864000  0.59108000  1.0
  N  N51  1  0.46994000  0.00063000  0.35018000  1.0
  N  N52  1  0.53006000  0.99937000  0.64982000  1.0
  N  N53  1  0.89092000  0.24648000  0.13811000  1.0
  N  N54  1  0.10908000  0.75352000  0.86189000  1.0
  N  N55  1  0.65941000  0.40098000  0.31145000  1.0
  N  N56  1  0.34058000  0.59902000  0.68855000  1.0
  N  N57  1  0.11823000  0.72733000  0.35821000  1.0
  N  N58  1  0.88177000  0.27268000  0.64179000  1.0
  O  O59  1  0.20445000  0.58919000  0.42834000  1.0
  O  O60  1  0.79554000  0.41081000  0.57165000  1.0
  O  O61  1  0.01559000  0.87006000  0.41407000  1.0
  O  O62  1  0.98440000  0.12994000  0.58594000  1.0
  O  O63  1  0.13568000  0.72218000  0.23043000  1.0
  O  O64  1  0.86433000  0.27784000  0.76956000  1.0
  O  O65  1  0.25253000  0.15632000  0.16475000  1.0
  O  O66  1  0.74747000  0.84368000  0.83526000  1.0
