# generated using pymatgen
data_CdH10C14(NO2)2
_symmetry_space_group_name_H-M   'P 1'
_cell_length_a   9.80196000
_cell_length_b   9.80195000
_cell_length_c   16.02260000
_cell_angle_alpha   90.00000000
_cell_angle_beta   90.00000000
_cell_angle_gamma   106.54200000
_symmetry_Int_Tables_number   1
_chemical_formula_structural   CdH10C14(NO2)2
_chemical_formula_sum   'Cd4 H40 C56 N8 O16'
_cell_volume   1475.70971370
_cell_formula_units_Z   4
loop_
 _symmetry_equiv_pos_site_id
 _symmetry_equiv_pos_as_xyz
  1  'x, y, z'
loop_
 _atom_site_type_symbol
 _atom_site_label
 _atom_site_symmetry_multiplicity
 _atom_site_fract_x
 _atom_site_fract_y
 _atom_site_fract_z
 _atom_site_occupancy
  Cd  Cd0  1  0.58692000  0.41308000  0.59086000  1.0
  Cd  Cd1  1  0.91308000  0.08692000  0.09086000  1.0
  Cd  Cd2  1  0.08692000  0.91308000  0.90914000  1.0
  Cd  Cd3  1  0.41308000  0.58692000  0.40914000  1.0
  H  H4  1  0.92595000  0.90843000  0.69201000  1.0
  H  H5  1  0.57405000  0.59157000  0.19201000  1.0
  H  H6  1  0.59158000  0.57405000  0.80799000  1.0
  H  H7  1  0.90842000  0.92595000  0.30799000  1.0
  H  H8  1  0.07405000  0.09158000  0.30799000  1.0
  H  H9  1  0.42595000  0.40843000  0.80799000  1.0
  H  H10  1  0.40843000  0.42595000  0.19201000  1.0
  H  H11  1  0.09158000  0.07405000  0.69201000  1.0
  H  H12  1  0.71158000  0.70094000  0.68243000  1.0
  H  H13  1  0.78842000  0.79906000  0.18243000  1.0
  H  H14  1  0.79906000  0.78842000  0.81757000  1.0
  H  H15  1  0.70094000  0.71158000  0.31757000  1.0
  H  H16  1  0.28842000  0.29906000  0.31757000  1.0
  H  H17  1  0.21158000  0.20094000  0.81757000  1.0
  H  H18  1  0.20094000  0.21158000  0.18243000  1.0
  H  H19  1  0.29906000  0.28842000  0.68243000  1.0
  H  H20  1  0.08598000  0.74408000  0.47235000  1.0
  H  H21  1  0.41402000  0.75592000  0.97235000  1.0
  H  H22  1  0.75592000  0.41402000  0.02765000  1.0
  H  H23  1  0.74408000  0.08598000  0.52765000  1.0
  H  H24  1  0.91402000  0.25592000  0.52765000  1.0
  H  H25  1  0.58598000  0.24408000  0.02765000  1.0
  H  H26  1  0.24408000  0.58598000  0.97235000  1.0
  H  H27  1  0.25592000  0.91402000  0.47235000  1.0
  H  H28  1  0.87216000  0.12784000  0.69847000  1.0
  H  H29  1  0.62784000  0.37216000  0.19847000  1.0
  H  H30  1  0.37216000  0.62784000  0.80153000  1.0
  H  H31  1  0.12784000  0.87216000  0.30153000  1.0
  H  H32  1  0.86676000  0.54113000  0.47604000  1.0
  H  H33  1  0.63324000  0.95887000  0.97604000  1.0
  H  H34  1  0.95888000  0.63324000  0.02396000  1.0
  H  H35  1  0.54113000  0.86676000  0.52396000  1.0
  H  H36  1  0.13324000  0.45887000  0.52396000  1.0
  H  H37  1  0.36676000  0.04113000  0.02396000  1.0
  H  H38  1  0.04112000  0.36676000  0.97604000  1.0
  H  H39  1  0.45887000  0.13324000  0.47604000  1.0
  H  H40  1  0.76038000  0.23962000  0.85653000  1.0
  H  H41  1  0.73962000  0.26038000  0.35653000  1.0
  H  H42  1  0.26038000  0.73962000  0.64346000  1.0
  H  H43  1  0.23962000  0.76038000  0.14347000  1.0
  C  C44  1  0.73252000  0.26748000  0.68778000  1.0
  C  C45  1  0.76748000  0.23252000  0.18778000  1.0
  C  C46  1  0.23252000  0.76748000  0.81222000  1.0
  C  C47  1  0.26748000  0.73252000  0.31222000  1.0
  C  C48  1  0.02520000  0.84857000  0.58120000  1.0
  C  C49  1  0.47480000  0.65144000  0.08120000  1.0
  C  C50  1  0.65143000  0.47480000  0.91880000  1.0
  C  C51  1  0.84857000  0.02520000  0.41880000  1.0
  C  C52  1  0.97480000  0.15143000  0.41880000  1.0
  C  C53  1  0.52520000  0.34857000  0.91880000  1.0
  C  C54  1  0.34857000  0.52520000  0.08120000  1.0
  C  C55  1  0.15143000  0.97480000  0.58120000  1.0
  C  C56  1  0.91751000  0.83237000  0.64136000  1.0
  C  C57  1  0.58249000  0.66763000  0.14136000  1.0
  C  C58  1  0.66763000  0.58249000  0.85864000  1.0
  C  C59  1  0.83237000  0.91751000  0.35864000  1.0
  C  C60  1  0.08249000  0.16763000  0.35864000  1.0
  C  C61  1  0.41751000  0.33237000  0.85864000  1.0
  C  C62  1  0.33237000  0.41751000  0.14136000  1.0
  C  C63  1  0.16763000  0.08249000  0.64136000  1.0
  C  C64  1  0.79807000  0.71554000  0.63756000  1.0
  C  C65  1  0.70193000  0.78446000  0.13756000  1.0
  C  C66  1  0.78446000  0.70193000  0.86244000  1.0
  C  C67  1  0.71554000  0.79807000  0.36244000  1.0
  C  C68  1  0.20193000  0.28446000  0.36244000  1.0
  C  C69  1  0.29807000  0.21554000  0.86244000  1.0
  C  C70  1  0.21554000  0.29807000  0.13756000  1.0
  C  C71  1  0.28446000  0.20193000  0.63756000  1.0
  C  C72  1  0.00653000  0.74093000  0.52065000  1.0
  C  C73  1  0.49347000  0.75907000  0.02065000  1.0
  C  C74  1  0.75907000  0.49347000  0.97935000  1.0
  C  C75  1  0.74093000  0.00653000  0.47935000  1.0
  C  C76  1  0.99347000  0.25907000  0.47935000  1.0
  C  C77  1  0.50653000  0.24093000  0.97935000  1.0
  C  C78  1  0.24093000  0.50653000  0.02065000  1.0
  C  C79  1  0.25907000  0.99347000  0.52065000  1.0
  C  C80  1  0.81380000  0.18620000  0.73536000  1.0
  C  C81  1  0.68620000  0.31380000  0.23536000  1.0
  C  C82  1  0.31380000  0.68620000  0.76463000  1.0
  C  C83  1  0.18620000  0.81380000  0.26464000  1.0
  C  C84  1  0.88418000  0.62636000  0.52209000  1.0
  C  C85  1  0.61582000  0.87364000  0.02209000  1.0
  C  C86  1  0.87364000  0.61582000  0.97791000  1.0
  C  C87  1  0.62636000  0.88418000  0.47791000  1.0
  C  C88  1  0.11582000  0.37364000  0.47791000  1.0
  C  C89  1  0.38418000  0.12636000  0.97791000  1.0
  C  C90  1  0.12636000  0.38418000  0.02209000  1.0
  C  C91  1  0.37364000  0.11582000  0.52209000  1.0
  C  C92  1  0.81828000  0.18172000  0.81893000  1.0
  C  C93  1  0.68172000  0.31828000  0.31893000  1.0
  C  C94  1  0.31828000  0.68172000  0.68107000  1.0
  C  C95  1  0.18172000  0.81828000  0.18107000  1.0
  C  C96  1  0.90102000  0.09898000  0.86423000  1.0
  C  C97  1  0.59898000  0.40102000  0.36423000  1.0
  C  C98  1  0.40102000  0.59898000  0.63577000  1.0
  C  C99  1  0.09898000  0.90102000  0.13577000  1.0
  N  N100  1  0.78041000  0.61370000  0.57896000  1.0
  N  N101  1  0.71959000  0.88630000  0.07896000  1.0
  N  N102  1  0.88630000  0.71959000  0.92104000  1.0
  N  N103  1  0.61370000  0.78041000  0.42104000  1.0
  N  N104  1  0.21959000  0.38630000  0.42104000  1.0
  N  N105  1  0.28041000  0.11370000  0.92104000  1.0
  N  N106  1  0.11370000  0.28041000  0.07896000  1.0
  N  N107  1  0.38630000  0.21959000  0.57896000  1.0
  O  O108  1  0.66179000  0.33821000  0.72576000  1.0
  O  O109  1  0.83821000  0.16179000  0.22576000  1.0
  O  O110  1  0.16179000  0.83821000  0.77424000  1.0
  O  O111  1  0.33821000  0.66179000  0.27424000  1.0
  O  O112  1  0.73879000  0.26121000  0.60763000  1.0
  O  O113  1  0.76121000  0.23879000  0.10763000  1.0
  O  O114  1  0.23879000  0.76121000  0.89237000  1.0
  O  O115  1  0.26121000  0.73879000  0.39237000  1.0
  O  O116  1  0.96976000  0.03024000  0.82103000  1.0
  O  O117  1  0.53024000  0.46976000  0.32103000  1.0
  O  O118  1  0.46976000  0.53024000  0.67897000  1.0
  O  O119  1  0.03024000  0.96976000  0.17897000  1.0
  O  O120  1  0.89911000  0.10089000  0.94335000  1.0
  O  O121  1  0.60089000  0.39911000  0.44335000  1.0
  O  O122  1  0.39911000  0.60089000  0.55665000  1.0
  O  O123  1  0.10089000  0.89911000  0.05665000  1.0
