# generated using pymatgen
data_Zn2H62C59N2O13
_symmetry_space_group_name_H-M   'P 1'
_cell_length_a   10.75490000
_cell_length_b   14.00840000
_cell_length_c   15.15530000
_cell_angle_alpha   91.93540000
_cell_angle_beta   91.85250000
_cell_angle_gamma   90.25910000
_symmetry_Int_Tables_number   1
_chemical_formula_structural   Zn2H62C59N2O13
_chemical_formula_sum   'Zn2 H62 C59 N2 O13'
_cell_volume   2280.75025639
_cell_formula_units_Z   1
loop_
 _symmetry_equiv_pos_site_id
 _symmetry_equiv_pos_as_xyz
  1  'x, y, z'
loop_
 _atom_site_type_symbol
 _atom_site_label
 _atom_site_symmetry_multiplicity
 _atom_site_fract_x
 _atom_site_fract_y
 _atom_site_fract_z
 _atom_site_occupancy
  Zn  Zn0  1  0.50729000  0.60619000  0.50592000  1.0
  Zn  Zn1  1  0.50903000  0.39698000  0.49648000  1.0
  H  H2  1  0.11968000  0.61911000  0.57112000  1.0
  H  H3  1  0.09704000  0.34942000  0.43452000  1.0
  H  H4  1  0.79278000  0.62200000  0.92054000  1.0
  H  H5  1  0.67648000  0.58180000  0.77682000  1.0
  H  H6  1  0.34383000  0.41094000  0.77484000  1.0
  H  H7  1  0.24756000  0.37125000  0.91735000  1.0
  H  H8  1  0.25148000  0.38066000  0.08099000  1.0
  H  H9  1  0.60598000  0.76166000  0.61210000  1.0
  H  H10  1  0.60488000  0.25505000  0.61049000  1.0
  H  H11  1  0.27484000  0.08393000  0.33438000  1.0
  H  H12  1  0.25344000  0.91122000  0.34695000  1.0
  H  H13  1  0.93139000  0.49197000  0.64604000  1.0
  H  H14  1  0.91654000  0.36214000  0.57699000  1.0
  H  H15  1  0.11480000  0.60500000  0.41533000  1.0
  H  H16  1  0.10055000  0.49267000  0.35954000  1.0
  H  H17  1  0.89897000  0.61418000  0.42513000  1.0
  H  H18  1  0.88472000  0.50667000  0.36419000  1.0
  H  H19  1  0.35808000  0.42986000  0.22268000  1.0
  H  H20  1  0.70168000  0.58937000  0.22489000  1.0
  H  H21  1  0.27381000  0.61875000  0.23953000  1.0
  H  H22  1  0.18701000  0.72433000  0.22033000  1.0
  H  H23  1  0.31563000  0.69450000  0.15392000  1.0
  H  H24  1  0.37502000  0.82415000  0.26767000  1.0
  H  H25  1  0.46243000  0.71933000  0.28371000  1.0
  H  H26  1  0.32177000  0.66785000  0.39971000  1.0
  H  H27  1  0.22811000  0.76913000  0.38492000  1.0
  H  H28  1  0.43369000  0.23803000  0.15251000  1.0
  H  H29  1  0.55909000  0.31103000  0.19346000  1.0
  H  H30  1  0.58882000  0.19661000  0.14492000  1.0
  H  H31  1  0.61043000  0.19918000  0.31150000  1.0
  H  H32  1  0.49864000  0.11578000  0.26974000  1.0
  H  H33  1  0.32674000  0.22406000  0.31206000  1.0
  H  H34  1  0.43433000  0.31640000  0.34230000  1.0
  H  H35  1  0.76473000  0.75962000  0.81785000  1.0
  H  H36  1  0.80029000  0.86873000  0.87633000  1.0
  H  H37  1  0.67315000  0.79736000  0.90767000  1.0
  H  H38  1  0.59770000  0.93837000  0.81999000  1.0
  H  H39  1  0.55874000  0.82886000  0.76520000  1.0
  H  H40  1  0.74627000  0.84272000  0.67249000  1.0
  H  H41  1  0.78809000  0.95048000  0.72731000  1.0
  H  H42  1  0.83800000  0.28880000  0.74610000  1.0
  H  H43  1  0.91651000  0.19303000  0.79737000  1.0
  H  H44  1  0.98343000  0.24979000  0.70680000  1.0
  H  H45  1  0.88696000  0.09227000  0.65543000  1.0
  H  H46  1  0.81020000  0.18815000  0.60548000  1.0
  H  H47  1  0.64870000  0.18240000  0.72595000  1.0
  H  H48  1  0.72220000  0.08078000  0.76618000  1.0
  H  H49  1  0.06570000  0.60398000  0.75248000  1.0
  H  H50  1  0.20233000  0.65289000  0.70556000  1.0
  H  H51  1  0.21700000  0.55947000  0.78309000  1.0
  H  H52  1  0.18076000  0.21526000  0.48073000  1.0
  H  H53  1  0.04369000  0.19664000  0.54235000  1.0
  H  H54  1  0.19462000  0.19560000  0.59689000  1.0
  H  H55  1  0.99506000  0.71440000  0.53728000  1.0
  H  H56  1  0.90212000  0.77240000  0.61745000  1.0
  H  H57  1  0.82857000  0.71337000  0.52225000  1.0
  H  H58  1  0.94390000  0.34985000  0.33438000  1.0
  H  H59  1  0.78051000  0.37362000  0.34774000  1.0
  H  H60  1  0.83424000  0.25386000  0.33460000  1.0
  H  H61  1  0.89090000  0.51927000  0.15899000  1.0
  H  H62  1  0.98930000  0.62287000  0.15432000  1.0
  H  H63  1  0.96563000  0.54577000  0.05812000  1.0
  C  C64  1  0.49993000  0.50107000  0.66929000  1.0
  C  C65  1  0.93009000  0.53998000  0.42335000  1.0
  C  C66  1  0.43164000  0.46353000  0.18638000  1.0
  C  C67  1  0.53109000  0.50834000  0.23278000  1.0
  C  C68  1  0.62634000  0.55205000  0.18806000  1.0
  C  C69  1  0.62538000  0.54861000  0.09537000  1.0
  C  C70  1  0.52421000  0.50229000  0.04713000  1.0
  C  C71  1  0.42575000  0.45995000  0.09383000  1.0
  C  C72  1  0.72291000  0.59060000  0.04608000  1.0
  C  C73  1  0.71817000  0.58855000  0.95579000  1.0
  C  C74  1  0.61653000  0.54397000  0.90651000  1.0
  C  C75  1  0.27107000  0.48862000  0.49205000  1.0
  C  C76  1  0.52033000  0.49875000  0.95325000  1.0
  C  C77  1  0.42007000  0.45076000  0.90556000  1.0
  C  C78  1  0.32364000  0.40776000  0.95430000  1.0
  C  C79  1  0.32584000  0.41300000  0.04449000  1.0
  C  C80  1  0.60691000  0.54464000  0.81398000  1.0
  C  C81  1  0.50879000  0.49739000  0.76789000  1.0
  C  C82  1  0.41814000  0.44848000  0.81284000  1.0
  C  C83  1  0.40275000  0.79896000  0.44928000  1.0
  C  C84  1  0.44245000  0.19811000  0.42804000  1.0
  C  C85  1  0.54961000  0.80490000  0.56789000  1.0
  C  C86  1  0.55760000  0.20673000  0.56252000  1.0
  C  C87  1  0.55144000  0.90519000  0.57533000  1.0
  C  C88  1  0.55548000  0.10739000  0.57242000  1.0
  C  C89  1  0.53254000  0.50867000  0.33181000  1.0
  C  C90  1  0.47451000  0.95304000  0.51292000  1.0
  C  C91  1  0.47971000  0.05403000  0.50980000  1.0
  C  C92  1  0.39747000  0.89984000  0.45107000  1.0
  C  C93  1  0.41559000  0.10085000  0.44050000  1.0
  C  C94  1  0.62810000  0.95992000  0.63965000  1.0
  C  C95  1  0.62721000  0.05886000  0.63978000  1.0
  C  C96  1  0.33123000  0.04694000  0.38331000  1.0
  C  C97  1  0.31982000  0.95054000  0.39008000  1.0
  C  C98  1  0.74488000  0.49781000  0.51335000  1.0
  C  C99  1  0.09114000  0.54478000  0.58242000  1.0
  C  C100  1  0.07677000  0.38297000  0.49958000  1.0
  C  C101  1  0.94849000  0.53971000  0.59146000  1.0
  C  C102  1  0.93349000  0.38566000  0.50997000  1.0
  C  C103  1  0.07278000  0.53365000  0.41889000  1.0
  C  C104  1  0.13008000  0.48483000  0.50113000  1.0
  C  C105  1  0.88581000  0.49078000  0.50631000  1.0
  C  C106  1  0.32451000  0.74276000  0.38197000  1.0
  C  C107  1  0.36840000  0.74910000  0.28643000  1.0
  C  C108  1  0.28128000  0.69384000  0.22140000  1.0
  C  C109  1  0.42146000  0.23896000  0.33877000  1.0
  C  C110  1  0.51863000  0.19285000  0.27734000  1.0
  C  C111  1  0.52512000  0.23713000  0.18716000  1.0
  C  C112  1  0.70732000  0.90657000  0.70529000  1.0
  C  C113  1  0.63787000  0.87511000  0.78670000  1.0
  C  C114  1  0.72338000  0.82244000  0.85084000  1.0
  C  C115  1  0.70364000  0.11974000  0.70550000  1.0
  C  C116  1  0.82768000  0.15464000  0.66938000  1.0
  C  C117  1  0.89544000  0.22527000  0.73340000  1.0
  C  C118  1  0.15921000  0.58682000  0.72873000  1.0
  C  C119  1  0.13763000  0.22901000  0.54516000  1.0
  C  C120  1  0.90615000  0.71045000  0.57126000  1.0
  C  C121  1  0.85742000  0.32480000  0.36392000  1.0
  C  C122  1  0.92167000  0.57715000  0.11702000  1.0
  N  N123  1  0.48022000  0.75431000  0.50661000  1.0
  N  N124  1  0.50660000  0.24924000  0.49164000  1.0
  O  O125  1  0.52856000  0.58102000  0.63711000  1.0
  O  O126  1  0.46513000  0.42527000  0.62693000  1.0
  O  O127  1  0.32246000  0.56829000  0.51323000  1.0
  O  O128  1  0.32548000  0.41556000  0.45991000  1.0
  O  O129  1  0.50241000  0.58622000  0.37047000  1.0
  O  O130  1  0.56077000  0.43087000  0.36820000  1.0
  O  O131  1  0.69558000  0.57668000  0.49276000  1.0
  O  O132  1  0.68756000  0.42486000  0.53928000  1.0
  O  O133  1  0.15531000  0.51449000  0.66035000  1.0
  O  O134  1  0.13563000  0.32836000  0.56680000  1.0
  O  O135  1  0.89647000  0.62795000  0.62329000  1.0
  O  O136  1  0.87145000  0.31247000  0.45639000  1.0
  O  O137  1  0.81977000  0.63762000  0.09221000  1.0
