# generated using pymatgen
data_CdH15C16SN2ClO2
_symmetry_space_group_name_H-M   'P 1'
_cell_length_a   9.06914000
_cell_length_b   9.39647000
_cell_length_c   10.60550000
_cell_angle_alpha   72.53500000
_cell_angle_beta   78.40720000
_cell_angle_gamma   82.40780000
_symmetry_Int_Tables_number   1
_chemical_formula_structural   CdH15C16SN2ClO2
_chemical_formula_sum   'Cd2 H30 C32 S2 N4 Cl2 O4'
_cell_volume   842.03054854
_cell_formula_units_Z   2
loop_
 _symmetry_equiv_pos_site_id
 _symmetry_equiv_pos_as_xyz
  1  'x, y, z'
loop_
 _atom_site_type_symbol
 _atom_site_label
 _atom_site_symmetry_multiplicity
 _atom_site_fract_x
 _atom_site_fract_y
 _atom_site_fract_z
 _atom_site_occupancy
  Cd  Cd0  1  0.17509000  0.06088000  0.53988000  1.0
  Cd  Cd1  1  0.82491000  0.93912000  0.46012000  1.0
  H  H2  1  0.27381000  0.98724000  0.86997000  1.0
  H  H3  1  0.72619000  0.01277000  0.13003000  1.0
  H  H4  1  0.66482000  0.52563000  0.35158000  1.0
  H  H5  1  0.33518000  0.47436000  0.64843000  1.0
  H  H6  1  0.79599000  0.54469000  0.19942000  1.0
  H  H7  1  0.20400000  0.45530000  0.80059000  1.0
  H  H8  1  0.65556000  0.41643000  0.24297000  1.0
  H  H9  1  0.34443000  0.58357000  0.75703000  1.0
  H  H10  1  0.50152000  0.74640000  0.33833000  1.0
  H  H11  1  0.49848000  0.25361000  0.66167000  1.0
  H  H12  1  0.32540000  0.94175000  0.22496000  1.0
  H  H13  1  0.67461000  0.05826000  0.77504000  1.0
  H  H14  1  0.44815000  0.78028000  0.87346000  1.0
  H  H15  1  0.55185000  0.21973000  0.12654000  1.0
  H  H16  1  0.61808000  0.58084000  0.99121000  1.0
  H  H17  1  0.38192000  0.41917000  0.00879000  1.0
  H  H18  1  0.17393000  0.08646000  0.11478000  1.0
  H  H19  1  0.82607000  0.91354000  0.88522000  1.0
  H  H20  1  0.98925000  0.28996000  0.08827000  1.0
  H  H21  1  0.01074000  0.71004000  0.91173000  1.0
  H  H22  1  0.81703000  0.47240000  0.95145000  1.0
  H  H23  1  0.18297000  0.52760000  0.04854000  1.0
  H  H24  1  0.80636000  0.46420000  0.72248000  1.0
  H  H25  1  0.19364000  0.53579000  0.27752000  1.0
  H  H26  1  0.87556000  0.48252000  0.50356000  1.0
  H  H27  1  0.12444000  0.51747000  0.49644000  1.0
  H  H28  1  0.75980000  0.32733000  0.57657000  1.0
  H  H29  1  0.24021000  0.67267000  0.42343000  1.0
  H  H30  1  0.89467000  0.33348000  0.42604000  1.0
  H  H31  1  0.10533000  0.66652000  0.57396000  1.0
  C  C32  1  0.67753000  0.52730000  0.24613000  1.0
  C  C33  1  0.32246000  0.47269000  0.75388000  1.0
  C  C34  1  0.57244000  0.64756000  0.17469000  1.0
  C  C35  1  0.42755000  0.35244000  0.82532000  1.0
  C  C36  1  0.48862000  0.75215000  0.23685000  1.0
  C  C37  1  0.51138000  0.24785000  0.76315000  1.0
  C  C38  1  0.38965000  0.86377000  0.17236000  1.0
  C  C39  1  0.61035000  0.13623000  0.82764000  1.0
  C  C40  1  0.37427000  0.87352000  0.04116000  1.0
  C  C41  1  0.62573000  0.12649000  0.95884000  1.0
  C  C42  1  0.45905000  0.77202000  0.97613000  1.0
  C  C43  1  0.54095000  0.22798000  0.02387000  1.0
  C  C44  1  0.55562000  0.66026000  0.04291000  1.0
  C  C45  1  0.44438000  0.33975000  0.95709000  1.0
  C  C46  1  0.18117000  0.08308000  0.01167000  1.0
  C  C47  1  0.81883000  0.91692000  0.98833000  1.0
  C  C48  1  0.08536000  0.18516000  0.93051000  1.0
  C  C49  1  0.91464000  0.81485000  0.06949000  1.0
  C  C50  1  0.98688000  0.29053000  0.98572000  1.0
  C  C51  1  0.01312000  0.70948000  0.01427000  1.0
  C  C52  1  0.89094000  0.39037000  0.91028000  1.0
  C  C53  1  0.10906000  0.60963000  0.08972000  1.0
  C  C54  1  0.88679000  0.38728000  0.77865000  1.0
  C  C55  1  0.11321000  0.61271000  0.22134000  1.0
  C  C56  1  0.98220000  0.28693000  0.72194000  1.0
  C  C57  1  0.01781000  0.71306000  0.27806000  1.0
  C  C58  1  0.08765000  0.18321000  0.79495000  1.0
  C  C59  1  0.91235000  0.81679000  0.20505000  1.0
  C  C60  1  0.87133000  0.36163000  0.52132000  1.0
  C  C61  1  0.12867000  0.63836000  0.47868000  1.0
  C  C62  1  0.52272000  0.18832000  0.43019000  1.0
  C  C63  1  0.47728000  0.81168000  0.56982000  1.0
  S  S64  1  0.36215000  0.28099000  0.40152000  1.0
  S  S65  1  0.63785000  0.71901000  0.59849000  1.0
  N  N66  1  0.27646000  0.98167000  0.96927000  1.0
  N  N67  1  0.72354000  0.01833000  0.03073000  1.0
  N  N68  1  0.64117000  0.12524000  0.45049000  1.0
  N  N69  1  0.35883000  0.87475000  0.54952000  1.0
  Cl  Cl70  1  0.05261000  0.11347000  0.33300000  1.0
  Cl  Cl71  1  0.94739000  0.88653000  0.66700000  1.0
  O  O72  1  0.98776000  0.27815000  0.59427000  1.0
  O  O73  1  0.01224000  0.72185000  0.40573000  1.0
  O  O74  1  0.18157000  0.09085000  0.74201000  1.0
  O  O75  1  0.81844000  0.90915000  0.25799000  1.0
