# generated using pymatgen
data_AlH9(C5O2)3
_symmetry_space_group_name_H-M   'P 1'
_cell_length_a   3.98690000
_cell_length_b   17.23450000
_cell_length_c   17.23450000
_cell_angle_alpha   60.00000000
_cell_angle_beta   90.00000000
_cell_angle_gamma   89.99980000
_symmetry_Int_Tables_number   1
_chemical_formula_structural   AlH9(C5O2)3
_chemical_formula_sum   'Al2 H18 C30 O12'
_cell_volume   1025.56537817
_cell_formula_units_Z   2
loop_
 _symmetry_equiv_pos_site_id
 _symmetry_equiv_pos_as_xyz
  1  'x, y, z'
loop_
 _atom_site_type_symbol
 _atom_site_label
 _atom_site_symmetry_multiplicity
 _atom_site_fract_x
 _atom_site_fract_y
 _atom_site_fract_z
 _atom_site_occupancy
  Al  Al0  1  0.00015000  0.50000000  1.00000000  1.0
  Al  Al1  1  0.99999000  0.16667000  0.66666000  1.0
  H  H2  1  0.51211000  0.24777000  0.25061000  1.0
  H  H3  1  0.48800000  0.16518000  0.41604000  1.0
  H  H4  1  0.72722000  0.47178000  0.41681000  1.0
  H  H5  1  0.28059000  0.46988000  0.41841000  1.0
  H  H6  1  0.27243000  0.55527000  0.24986000  1.0
  H  H7  1  0.71941000  0.55494000  0.24834000  1.0
  H  H8  1  0.51211000  0.50162000  0.74777000  1.0
  H  H9  1  0.48800000  0.41878000  0.66518000  1.0
  H  H10  1  0.72722000  0.11141000  0.97178000  1.0
  H  H11  1  0.28059000  0.11171000  0.96988000  1.0
  H  H12  1  0.27243000  0.19487000  0.05527000  1.0
  H  H13  1  0.71940000  0.19672000  0.05494000  1.0
  H  H14  1  0.51211000  0.75061000  0.00162000  1.0
  H  H15  1  0.48799000  0.91604000  0.91878000  1.0
  H  H16  1  0.72722000  0.91681000  0.61141000  1.0
  H  H17  1  0.28059000  0.91842000  0.61170000  1.0
  H  H18  1  0.27242000  0.74986000  0.69487000  1.0
  H  H19  1  0.71940000  0.74835000  0.69671000  1.0
  C  C20  1  0.50017000  0.63745000  0.93347000  1.0
  C  C21  1  0.50018000  0.42908000  0.13745000  1.0
  C  C22  1  0.50018000  0.43347000  0.92908000  1.0
  C  C23  1  0.49992000  0.23329000  0.52912000  1.0
  C  C24  1  0.49992000  0.23759000  0.73329000  1.0
  C  C25  1  0.49992000  0.02912000  0.73759000  1.0
  C  C26  1  0.49995000  0.28298000  0.42959000  1.0
  C  C27  1  0.50026000  0.37924000  0.23696000  1.0
  C  C28  1  0.50552000  0.37608000  0.37996000  1.0
  C  C29  1  0.50572000  0.28495000  0.28650000  1.0
  C  C30  1  0.49458000  0.42275000  0.28657000  1.0
  C  C31  1  0.49445000  0.23822000  0.38006000  1.0
  C  C32  1  0.50361000  0.46076000  0.38636000  1.0
  C  C33  1  0.49616000  0.51384000  0.28028000  1.0
  C  C34  1  0.49995000  0.28743000  0.78297000  1.0
  C  C35  1  0.50026000  0.38380000  0.87924000  1.0
  C  C36  1  0.50552000  0.24396000  0.87609000  1.0
  C  C37  1  0.50572000  0.42855000  0.78495000  1.0
  C  C38  1  0.49458000  0.29068000  0.92275000  1.0
  C  C39  1  0.49446000  0.38172000  0.73822000  1.0
  C  C40  1  0.50361000  0.15288000  0.96077000  1.0
  C  C41  1  0.49616000  0.20588000  0.01384000  1.0
  C  C42  1  0.49995000  0.92960000  0.78742000  1.0
  C  C43  1  0.50026000  0.73696000  0.88380000  1.0
  C  C44  1  0.50552000  0.87996000  0.74396000  1.0
  C  C45  1  0.50572000  0.78650000  0.92856000  1.0
  C  C46  1  0.49457000  0.78658000  0.79067000  1.0
  C  C47  1  0.49445000  0.88006000  0.88172000  1.0
  C  C48  1  0.50361000  0.88636000  0.65287000  1.0
  C  C49  1  0.49616000  0.78028000  0.70588000  1.0
  O  O50  1  0.26521000  0.41502000  0.98602000  1.0
  O  O51  1  0.26521000  0.59896000  0.91503000  1.0
  O  O52  1  0.26521000  0.48601000  0.09897000  1.0
  O  O53  1  0.73430000  0.49016000  0.91235000  1.0
  O  O54  1  0.73431000  0.41235000  0.09749000  1.0
  O  O55  1  0.73430000  0.59749000  0.99016000  1.0
  O  O56  1  0.26555000  0.06903000  0.75431000  1.0
  O  O57  1  0.26554000  0.17666000  0.56903000  1.0
  O  O58  1  0.26554000  0.25431000  0.67666000  1.0
  O  O59  1  0.73481000  0.06770000  0.68062000  1.0
  O  O60  1  0.73481000  0.18062000  0.75168000  1.0
  O  O61  1  0.73480000  0.25168000  0.56769000  1.0
