# generated using pymatgen
data_TbCu4H19C21I4N4O7
_symmetry_space_group_name_H-M   'P 1'
_cell_length_a   8.03775000
_cell_length_b   15.23730000
_cell_length_c   28.33930000
_cell_angle_alpha   101.92600000
_cell_angle_beta   90.00000000
_cell_angle_gamma   89.99990000
_symmetry_Int_Tables_number   1
_chemical_formula_structural   TbCu4H19C21I4N4O7
_chemical_formula_sum   'Tb4 Cu16 H76 C84 I16 N16 O28'
_cell_volume   3395.89983345
_cell_formula_units_Z   4
loop_
 _symmetry_equiv_pos_site_id
 _symmetry_equiv_pos_as_xyz
  1  'x, y, z'
loop_
 _atom_site_type_symbol
 _atom_site_label
 _atom_site_symmetry_multiplicity
 _atom_site_fract_x
 _atom_site_fract_y
 _atom_site_fract_z
 _atom_site_occupancy
  Tb  Tb0  1  0.24340000  0.95118000  0.98735000  1.0
  Tb  Tb1  1  0.74340000  0.54883000  0.51265000  1.0
  Tb  Tb2  1  0.75661000  0.04883000  0.01265000  1.0
  Tb  Tb3  1  0.25660000  0.45117000  0.48735000  1.0
  Cu  Cu4  1  0.19685000  0.63938000  0.21310000  1.0
  Cu  Cu5  1  0.69684000  0.86061000  0.28690000  1.0
  Cu  Cu6  1  0.80315000  0.36062000  0.78690000  1.0
  Cu  Cu7  1  0.30316000  0.13938000  0.71310000  1.0
  Cu  Cu8  1  0.39835000  0.85329000  0.32409000  1.0
  Cu  Cu9  1  0.89835000  0.64670000  0.17590000  1.0
  Cu  Cu10  1  0.60164000  0.14670000  0.67590000  1.0
  Cu  Cu11  1  0.10165000  0.35330000  0.82410000  1.0
  Cu  Cu12  1  0.43215000  0.91591000  0.24874000  1.0
  Cu  Cu13  1  0.93216000  0.58408000  0.25126000  1.0
  Cu  Cu14  1  0.56784000  0.08408000  0.75126000  1.0
  Cu  Cu15  1  0.06783000  0.41592000  0.74874000  1.0
  Cu  Cu16  1  0.05564000  0.49712000  0.17059000  1.0
  Cu  Cu17  1  0.55564000  0.00288000  0.32941000  1.0
  Cu  Cu18  1  0.94436000  0.50289000  0.82941000  1.0
  Cu  Cu19  1  0.44436000  0.99711000  0.67059000  1.0
  H  H20  1  0.25364000  0.06554000  0.87380000  1.0
  H  H21  1  0.75364000  0.43447000  0.62620000  1.0
  H  H22  1  0.74637000  0.93446000  0.12619000  1.0
  H  H23  1  0.24635000  0.56553000  0.37380000  1.0
  H  H24  1  0.12811000  0.84505000  0.08899000  1.0
  H  H25  1  0.62810000  0.65495000  0.41101000  1.0
  H  H26  1  0.87189000  0.15495000  0.91101000  1.0
  H  H27  1  0.37189000  0.34504000  0.58899000  1.0
  H  H28  1  0.53924000  0.29393000  0.94516000  1.0
  H  H29  1  0.03924000  0.20607000  0.55485000  1.0
  H  H30  1  0.46076000  0.70607000  0.05484000  1.0
  H  H31  1  0.96075000  0.79393000  0.44515000  1.0
  H  H32  1  0.29502000  0.81285000  0.15767000  1.0
  H  H33  1  0.79502000  0.68715000  0.34233000  1.0
  H  H34  1  0.70497000  0.18715000  0.84233000  1.0
  H  H35  1  0.20497000  0.31285000  0.65767000  1.0
  H  H36  1  0.38503000  0.38616000  0.89531000  1.0
  H  H37  1  0.88503000  0.11385000  0.60469000  1.0
  H  H38  1  0.61496000  0.61385000  0.10469000  1.0
  H  H39  1  0.11496000  0.88616000  0.39531000  1.0
  H  H40  1  0.11376000  0.16583000  0.82635000  1.0
  H  H41  1  0.61375000  0.33418000  0.67366000  1.0
  H  H42  1  0.88625000  0.83417000  0.17365000  1.0
  H  H43  1  0.38624000  0.66582000  0.32635000  1.0
  H  H44  1  0.94039000  0.31084000  0.13302000  1.0
  H  H45  1  0.44040000  0.18916000  0.36698000  1.0
  H  H46  1  0.05961000  0.68916000  0.86699000  1.0
  H  H47  1  0.55961000  0.81083000  0.63302000  1.0
  H  H48  1  0.54215000  0.30210000  0.10190000  1.0
  H  H49  1  0.04215000  0.19789000  0.39810000  1.0
  H  H50  1  0.45785000  0.69790000  0.89810000  1.0
  H  H51  1  0.95785000  0.80210000  0.60190000  1.0
  H  H52  1  0.06936000  0.16589000  0.09324000  1.0
  H  H53  1  0.56936000  0.33411000  0.40676000  1.0
  H  H54  1  0.93065000  0.83412000  0.90677000  1.0
  H  H55  1  0.43064000  0.66588000  0.59323000  1.0
  H  H56  1  0.05856000  0.11430000  0.17103000  1.0
  H  H57  1  0.55856000  0.38570000  0.32897000  1.0
  H  H58  1  0.94145000  0.88570000  0.82897000  1.0
  H  H59  1  0.44143000  0.61430000  0.67103000  1.0
  H  H60  1  0.24109000  0.07363000  0.23501000  1.0
  H  H61  1  0.74110000  0.42637000  0.26499000  1.0
  H  H62  1  0.75892000  0.92637000  0.76498000  1.0
  H  H63  1  0.25890000  0.57363000  0.73501000  1.0
  H  H64  1  0.39135000  0.44386000  0.13765000  1.0
  H  H65  1  0.89135000  0.05613000  0.36235000  1.0
  H  H66  1  0.60865000  0.55614000  0.86235000  1.0
  H  H67  1  0.10865000  0.94386000  0.63765000  1.0
  H  H68  1  0.30204000  0.71682000  0.95859000  1.0
  H  H69  1  0.80205000  0.78319000  0.54141000  1.0
  H  H70  1  0.69795000  0.28320000  0.04141000  1.0
  H  H71  1  0.19795000  0.21681000  0.45859000  1.0
  H  H72  1  0.28327000  0.57313000  0.95563000  1.0
  H  H73  1  0.78328000  0.92688000  0.54437000  1.0
  H  H74  1  0.71673000  0.42688000  0.04437000  1.0
  H  H75  1  0.21673000  0.07312000  0.45563000  1.0
  H  H76  1  0.16845000  0.54721000  0.00529000  1.0
  H  H77  1  0.66845000  0.95279000  0.49471000  1.0
  H  H78  1  0.83156000  0.45279000  0.99471000  1.0
  H  H79  1  0.33156000  0.04721000  0.50529000  1.0
  H  H80  1  0.08062000  0.52649000  0.94549000  1.0
  H  H81  1  0.58063000  0.97351000  0.55451000  1.0
  H  H82  1  0.91939000  0.47351000  0.05451000  1.0
  H  H83  1  0.41939000  0.02649000  0.44549000  1.0
  H  H84  1  0.88447000  0.61593000  0.01438000  1.0
  H  H85  1  0.38448000  0.88407000  0.48562000  1.0
  H  H86  1  0.11553000  0.38407000  0.98562000  1.0
  H  H87  1  0.61553000  0.11593000  0.51438000  1.0
  H  H88  1  0.92167000  0.73379000  0.03202000  1.0
  H  H89  1  0.42168000  0.76621000  0.46798000  1.0
  H  H90  1  0.07833000  0.26622000  0.96798000  1.0
  H  H91  1  0.57832000  0.23379000  0.53202000  1.0
  H  H92  1  0.83336000  0.68904000  0.97445000  1.0
  H  H93  1  0.33337000  0.81096000  0.52555000  1.0
  H  H94  1  0.16664000  0.31097000  0.02555000  1.0
  H  H95  1  0.66666667  0.18904000  0.47445000  1.0
  C  C96  1  0.28301000  0.13668000  0.88037000  1.0
  C  C97  1  0.78301000  0.36333000  0.61963000  1.0
  C  C98  1  0.71700000  0.86332000  0.11962000  1.0
  C  C99  1  0.21699000  0.63668000  0.38037000  1.0
  C  C100  1  0.08262000  0.98328000  0.12423000  1.0
  C  C101  1  0.58262000  0.51672000  0.37577000  1.0
  C  C102  1  0.91737000  0.01671000  0.87577000  1.0
  C  C103  1  0.41737000  0.48327000  0.62423000  1.0
  C  C104  1  0.47844000  0.11469000  0.94550000  1.0
  C  C105  1  0.97845000  0.38531000  0.55450000  1.0
  C  C106  1  0.52155000  0.88531000  0.05450000  1.0
  C  C107  1  0.02155000  0.61469000  0.44550000  1.0
  C  C108  1  0.14923000  0.89745000  0.12076000  1.0
  C  C109  1  0.64923000  0.60255000  0.37923000  1.0
  C  C110  1  0.85077000  0.10254000  0.87923000  1.0
  C  C111  1  0.35076000  0.39745000  0.62077000  1.0
  C  C112  1  0.39642000  0.13660000  0.06599000  1.0
  C  C113  1  0.89642000  0.36340000  0.43401000  1.0
  C  C114  1  0.60358000  0.86341000  0.93402000  1.0
  C  C115  1  0.10357000  0.63659000  0.56599000  1.0
  C  C116  1  0.31710000  0.22187000  0.09345000  1.0
  C  C117  1  0.81710000  0.27813000  0.40655000  1.0
  C  C118  1  0.68290000  0.77814000  0.90656000  1.0
  C  C119  1  0.18290000  0.72186000  0.59345000  1.0
  C  C120  1  0.44251000  0.26383000  0.92005000  1.0
  C  C121  1  0.94251000  0.23618000  0.57995000  1.0
  C  C122  1  0.55749000  0.73618000  0.07995000  1.0
  C  C123  1  0.05748000  0.76382000  0.42005000  1.0
  C  C124  1  0.40165000  0.17302000  0.91487000  1.0
  C  C125  1  0.90165000  0.32699000  0.58514000  1.0
  C  C126  1  0.59836000  0.82698000  0.08513000  1.0
  C  C127  1  0.09835000  0.67301000  0.41486000  1.0
  C  C128  1  0.24396000  0.87951000  0.15868000  1.0
  C  C129  1  0.74396000  0.62048000  0.34132000  1.0
  C  C130  1  0.75603000  0.12048000  0.84132000  1.0
  C  C131  1  0.25604000  0.37951000  0.65868000  1.0
  C  C132  1  0.35759000  0.31513000  0.89262000  1.0
  C  C133  1  0.85759000  0.18488000  0.60739000  1.0
  C  C134  1  0.64240000  0.68488000  0.10738000  1.0
  C  C135  1  0.14240000  0.81512000  0.39262000  1.0
  C  C136  1  0.20550000  0.19207000  0.85395000  1.0
  C  C137  1  0.70549000  0.30794000  0.64605000  1.0
  C  C138  1  0.79451000  0.80794000  0.14604000  1.0
  C  C139  1  0.29450000  0.69206000  0.35395000  1.0
  C  C140  1  0.98116000  0.00644000  0.08436000  1.0
  C  C141  1  0.48116000  0.49356000  0.41564000  1.0
  C  C142  1  0.01884000  0.99356000  0.91564000  1.0
  C  C143  1  0.51884000  0.50644000  0.58436000  1.0
  C  C144  1  0.07336000  0.30599000  0.12489000  1.0
  C  C145  1  0.57336000  0.19401000  0.37511000  1.0
  C  C146  1  0.92665000  0.69401000  0.87512000  1.0
  C  C147  1  0.42665000  0.80598000  0.62488000  1.0
  C  C148  1  0.40804000  0.30143000  0.10715000  1.0
  C  C149  1  0.90804000  0.19856000  0.39284000  1.0
  C  C150  1  0.59196000  0.69857000  0.89285000  1.0
  C  C151  1  0.09195000  0.80143000  0.60716000  1.0
  C  C152  1  0.14659000  0.22506000  0.10336000  1.0
  C  C153  1  0.64659000  0.27493000  0.39663000  1.0
  C  C154  1  0.85342000  0.77494000  0.89664000  1.0
  C  C155  1  0.35341000  0.72506000  0.60336000  1.0
  C  C156  1  0.11203000  0.04748000  0.16643000  1.0
  C  C157  1  0.61203000  0.45252000  0.33358000  1.0
  C  C158  1  0.88798000  0.95252000  0.83357000  1.0
  C  C159  1  0.38796000  0.54748000  0.66643000  1.0
  C  C160  1  0.21259000  0.02519000  0.20200000  1.0
  C  C161  1  0.71259000  0.47481000  0.29801000  1.0
  C  C162  1  0.78742000  0.97481000  0.79800000  1.0
  C  C163  1  0.28741000  0.52519000  0.70199000  1.0
  C  C164  1  0.32523000  0.38024000  0.12750000  1.0
  C  C165  1  0.82523000  0.11976000  0.37250000  1.0
  C  C166  1  0.67478000  0.61976000  0.87250000  1.0
  C  C167  1  0.17477000  0.88024000  0.62750000  1.0
  C  C168  1  0.17381000  0.73160000  0.97168000  1.0
  C  C169  1  0.67383000  0.76840000  0.52832000  1.0
  C  C170  1  0.82618000  0.26841000  0.02832000  1.0
  C  C171  1  0.32618000  0.23159000  0.47168000  1.0
  C  C172  1  0.15914000  0.57196000  0.97155000  1.0
  C  C173  1  0.65915000  0.92805000  0.52845000  1.0
  C  C174  1  0.84086000  0.42805000  0.02845000  1.0
  C  C175  1  0.34086000  0.07195000  0.47155000  1.0
  C  C176  1  0.92212000  0.67601000  0.00166000  1.0
  C  C177  1  0.42213000  0.82399000  0.49834000  1.0
  C  C178  1  0.07788000  0.32400000  0.99834000  1.0
  C  C179  1  0.57788000  0.17600000  0.50166000  1.0
  I  I180  1  0.46240000  0.73818000  0.23891000  1.0
  I  I181  1  0.96240000  0.76181000  0.26109000  1.0
  I  I182  1  0.53761000  0.26181000  0.76109000  1.0
  I  I183  1  0.03762000  0.23819000  0.73891000  1.0
  I  I184  1  0.17870000  0.61664000  0.11762000  1.0
  I  I185  1  0.67870000  0.88336000  0.38238000  1.0
  I  I186  1  0.82130000  0.38336000  0.88238000  1.0
  I  I187  1  0.32130000  0.11664000  0.61762000  1.0
  I  I188  1  0.22006000  0.49997000  0.25554000  1.0
  I  I189  1  0.72006000  0.00002000  0.24445000  1.0
  I  I190  1  0.77993000  0.50003000  0.74446000  1.0
  I  I191  1  0.27994000  0.99998000  0.75555000  1.0
  I  I192  1  0.23236000  0.00758000  0.32999000  1.0
  I  I193  1  0.73237000  0.49241000  0.17001000  1.0
  I  I194  1  0.76762000  0.99241000  0.67001000  1.0
  I  I195  1  0.26762000  0.50759000  0.82999000  1.0
  N  N196  1  0.23856000  0.28045000  0.86055000  1.0
  N  N197  1  0.73855000  0.21956000  0.63945000  1.0
  N  N198  1  0.76144000  0.71956000  0.13945000  1.0
  N  N199  1  0.26144000  0.78044000  0.36055000  1.0
  N  N200  1  0.27864000  0.94254000  0.19839000  1.0
  N  N201  1  0.77865000  0.55745000  0.30162000  1.0
  N  N202  1  0.72136000  0.05746000  0.80161000  1.0
  N  N203  1  0.22134000  0.44254000  0.69839000  1.0
  N  N204  1  0.15979000  0.38318000  0.13600000  1.0
  N  N205  1  0.65979000  0.11681000  0.36400000  1.0
  N  N206  1  0.84022000  0.61682000  0.86401000  1.0
  N  N207  1  0.34021000  0.88318000  0.63600000  1.0
  N  N208  1  0.08964000  0.66207000  0.98146000  1.0
  N  N209  1  0.58965000  0.83793000  0.51854000  1.0
  N  N210  1  0.91036000  0.33794000  0.01854000  1.0
  N  N211  1  0.41036000  0.16207000  0.48146000  1.0
  O  O212  1  0.38874000  0.05194000  0.95486000  1.0
  O  O213  1  0.88874000  0.44807000  0.54514000  1.0
  O  O214  1  0.61127000  0.94808000  0.04514000  1.0
  O  O215  1  0.11126000  0.55193000  0.45485000  1.0
  O  O216  1  0.55146000  0.13899000  0.05792000  1.0
  O  O217  1  0.05146000  0.36101000  0.44208000  1.0
  O  O218  1  0.44855000  0.86101000  0.94208000  1.0
  O  O219  1  0.94853000  0.63899000  0.55792000  1.0
  O  O220  1  0.30007000  0.07012000  0.05175000  1.0
  O  O221  1  0.80006000  0.42987000  0.44825000  1.0
  O  O222  1  0.69994000  0.92988000  0.94825000  1.0
  O  O223  1  0.19992000  0.57012000  0.55175000  1.0
  O  O224  1  0.62585000  0.13145000  0.96056000  1.0
  O  O225  1  0.12584000  0.36855000  0.53944000  1.0
  O  O226  1  0.37416000  0.86856000  0.03944000  1.0
  O  O227  1  0.87415000  0.63144000  0.46056000  1.0
  O  O228  1  0.00331000  0.96295000  0.04069000  1.0
  O  O229  1  0.50330000  0.53705000  0.45931000  1.0
  O  O230  1  0.99670000  0.03706000  0.95931000  1.0
  O  O231  1  0.49670000  0.46295000  0.54069000  1.0
  O  O232  1  0.87285000  0.06796000  0.09394000  1.0
  O  O233  1  0.37285000  0.43204000  0.40606000  1.0
  O  O234  1  0.12715000  0.93204000  0.90606000  1.0
  O  O235  1  0.62715000  0.56796000  0.59394000  1.0
  O  O236  1  0.11340000  0.80879000  0.97690000  1.0
  O  O237  1  0.61342000  0.69122000  0.52310000  1.0
  O  O238  1  0.88658000  0.19122000  0.02310000  1.0
  O  O239  1  0.38659000  0.30878000  0.47690000  1.0
