# generated using pymatgen
data_AlH12C33(NO4)3
_symmetry_space_group_name_H-M   'P 1'
_cell_length_a   3.97738000
_cell_length_b   20.42240000
_cell_length_c   20.47653569
_cell_angle_alpha   60.12744113
_cell_angle_beta   89.90969752
_cell_angle_gamma   87.18400000
_symmetry_Int_Tables_number   1
_chemical_formula_structural   AlH12C33(NO4)3
_chemical_formula_sum   'Al1 H12 C33 N3 O12'
_cell_volume   1440.02733369
_cell_formula_units_Z   1
loop_
 _symmetry_equiv_pos_site_id
 _symmetry_equiv_pos_as_xyz
  1  'x, y, z'
loop_
 _atom_site_type_symbol
 _atom_site_label
 _atom_site_symmetry_multiplicity
 _atom_site_fract_x
 _atom_site_fract_y
 _atom_site_fract_z
 _atom_site_occupancy
  Al  Al0  1  0.97146000  0.00057000  0.49995000  1.0
  H  H1  1  0.18037000  0.98674000  0.70601000  1.0
  H  H2  1  0.19689000  0.91890000  0.84697000  1.0
  H  H3  1  0.76127000  0.98460000  0.30640000  1.0
  H  H4  1  0.75414000  0.91551000  0.23406000  1.0
  H  H5  1  0.72684000  0.20677000  0.48532000  1.0
  H  H6  1  0.70281000  0.34827000  0.41718000  1.0
  H  H7  1  0.22266000  0.80856000  0.48454000  1.0
  H  H8  1  0.24307000  0.73539000  0.41619000  1.0
  H  H9  1  0.79393000  0.80549000  0.70972000  1.0
  H  H10  1  0.78166000  0.73343000  0.85057000  1.0
  H  H11  1  0.13434000  0.21186000  0.30727000  1.0
  H  H12  1  0.13703000  0.35313000  0.23503000  1.0
  C  C13  1  0.48373000  0.94215000  0.61602000  1.0
  C  C14  1  0.44464000  0.11713000  0.44186000  1.0
  C  C15  1  0.48570000  0.94253000  0.44155000  1.0
  C  C16  1  0.31670000  0.93198000  0.73835000  1.0
  C  C17  1  0.32383000  0.89419000  0.81650000  1.0
  C  C18  1  0.64389000  0.93066000  0.32917000  1.0
  C  C19  1  0.64192000  0.89219000  0.28924000  1.0
  C  C20  1  0.59250000  0.23955000  0.43130000  1.0
  C  C21  1  0.58077000  0.31796000  0.39340000  1.0
  C  C22  1  0.34393000  0.83054000  0.43041000  1.0
  C  C23  1  0.35355000  0.79016000  0.39240000  1.0
  C  C24  1  0.65927000  0.82907000  0.74037000  1.0
  C  C25  1  0.65451000  0.78927000  0.81851000  1.0
  C  C26  1  0.26272000  0.24232000  0.33006000  1.0
  C  C27  1  0.26217000  0.32069000  0.29018000  1.0
  C  C28  1  0.48745000  0.90020000  0.69982000  1.0
  C  C29  1  0.48986000  0.82187000  0.85751000  1.0
  C  C30  1  0.48955000  0.78226000  0.93698000  1.0
  C  C31  1  0.48829000  0.74770000  0.00563000  1.0
  C  C32  1  0.48332000  0.70783000  0.08481000  1.0
  C  C33  1  0.49195000  0.90051000  0.39951000  1.0
  C  C34  1  0.49954000  0.82100000  0.32085000  1.0
  C  C35  1  0.50090000  0.78109000  0.28108000  1.0
  C  C36  1  0.49983000  0.74687000  0.24647000  1.0
  C  C37  1  0.49098000  0.70754000  0.20653000  1.0
  C  C38  1  0.43166000  0.20123000  0.40028000  1.0
  C  C39  1  0.41969000  0.35944000  0.32171000  1.0
  C  C40  1  0.42223000  0.43905000  0.28138000  1.0
  C  C41  1  0.43090000  0.50772000  0.24571000  1.0
  C  C42  1  0.44953000  0.58675000  0.20577000  1.0
  C  C43  1  0.50400000  0.74526000  0.12699000  1.0
  C  C44  1  0.46588000  0.62832000  0.24383000  1.0
  C  C45  1  0.45527000  0.62848000  0.12610000  1.0
  N  N46  1  0.45548000  0.58702000  0.32659000  1.0
  N  N47  1  0.42979000  0.58734000  0.08455000  1.0
  N  N48  1  0.54311000  0.82734000  0.08655000  1.0
  O  O49  1  0.71035000  0.99016000  0.42714000  1.0
  O  O50  1  0.72439000  0.92746000  0.58313000  1.0
  O  O51  1  0.68607000  0.08298000  0.49003000  1.0
  O  O52  1  0.25515000  0.92812000  0.48964000  1.0
  O  O53  1  0.21603000  0.08432000  0.42710000  1.0
  O  O54  1  0.23857000  0.99056000  0.58223000  1.0
  O  O55  1  0.24770000  0.61129000  0.35552000  1.0
  O  O56  1  0.65480000  0.53145000  0.36062000  1.0
  O  O57  1  0.22815000  0.53652000  0.10810000  1.0
  O  O58  1  0.60990000  0.60630000  0.02937000  1.0
  O  O59  1  0.36189000  0.86662000  0.02994000  1.0
  O  O60  1  0.75767000  0.85078000  0.11252000  1.0
