# generated using pymatgen
data_ZnH7C13NO4
_symmetry_space_group_name_H-M   'P 1'
_cell_length_a   8.00227000
_cell_length_b   11.74840000
_cell_length_c   14.57480000
_cell_angle_alpha   78.89160000
_cell_angle_beta   74.08210000
_cell_angle_gamma   70.11060000
_symmetry_Int_Tables_number   1
_chemical_formula_structural   ZnH7C13NO4
_chemical_formula_sum   'Zn4 H28 C52 N4 O16'
_cell_volume   1231.59123933
_cell_formula_units_Z   4
loop_
 _symmetry_equiv_pos_site_id
 _symmetry_equiv_pos_as_xyz
  1  'x, y, z'
loop_
 _atom_site_type_symbol
 _atom_site_label
 _atom_site_symmetry_multiplicity
 _atom_site_fract_x
 _atom_site_fract_y
 _atom_site_fract_z
 _atom_site_occupancy
  Zn  Zn0  1  0.84131000  0.81084000  0.66867000  1.0
  Zn  Zn1  1  0.32074000  0.68922000  0.83138000  1.0
  Zn  Zn2  1  0.15869000  0.18916000  0.33133000  1.0
  Zn  Zn3  1  0.67927000  0.31077000  0.16862000  1.0
  H  H4  1  0.70566000  0.70915000  0.42842000  1.0
  H  H5  1  0.84373000  0.79103000  0.07173000  1.0
  H  H6  1  0.29434000  0.29086000  0.57158000  1.0
  H  H7  1  0.15626000  0.20897000  0.92827000  1.0
  H  H8  1  0.68720000  0.57709000  0.31777000  1.0
  H  H9  1  0.58257000  0.92298000  0.18231000  1.0
  H  H10  1  0.31280000  0.42292000  0.68223000  1.0
  H  H11  1  0.41743000  0.07702000  0.81769000  1.0
  H  H12  1  0.80585000  0.40174000  0.63975000  1.0
  H  H13  1  0.84696000  0.09828000  0.86012000  1.0
  H  H14  1  0.19415000  0.59826000  0.36025000  1.0
  H  H15  1  0.15304000  0.90172000  0.13988000  1.0
  H  H16  1  0.60112000  0.21481000  0.46946000  1.0
  H  H17  1  0.28543000  0.28504000  0.03063000  1.0
  H  H18  1  0.39889000  0.78519000  0.53054000  1.0
  H  H19  1  0.71457000  0.71495000  0.96937000  1.0
  H  H20  1  0.64871000  0.99581000  0.52969000  1.0
  H  H21  1  0.17406000  0.50397000  0.97045000  1.0
  H  H22  1  0.35129000  0.00419000  0.47031000  1.0
  H  H23  1  0.82594000  0.49603000  0.02955000  1.0
  H  H24  1  0.01377000  0.99330000  0.68483000  1.0
  H  H25  1  0.69119000  0.50679000  0.81488000  1.0
  H  H26  1  0.98623000  0.00670000  0.31517000  1.0
  H  H27  1  0.30881000  0.49320000  0.18512000  1.0
  H  H28  1  0.99482000  0.21019000  0.62403000  1.0
  H  H29  1  0.82854000  0.28991000  0.87548000  1.0
  H  H30  1  0.00519000  0.78981000  0.37597000  1.0
  H  H31  1  0.17146000  0.71008000  0.12452000  1.0
  C  C32  1  0.78830000  0.63530000  0.60466000  1.0
  C  C33  1  0.02829000  0.86490000  0.89532000  1.0
  C  C34  1  0.21170000  0.36471000  0.39534000  1.0
  C  C35  1  0.97171000  0.13510000  0.10468000  1.0
  C  C36  1  0.76135000  0.56164000  0.53988000  1.0
  C  C37  1  0.86287000  0.93843000  0.96009000  1.0
  C  C38  1  0.23864000  0.43836000  0.46012000  1.0
  C  C39  1  0.13714000  0.06156000  0.03992000  1.0
  C  C40  1  0.72363000  0.61247000  0.44996000  1.0
  C  C41  1  0.78633000  0.88764000  0.05007000  1.0
  C  C42  1  0.27637000  0.38754000  0.55004000  1.0
  C  C43  1  0.21367000  0.11235000  0.94993000  1.0
  C  C44  1  0.71331000  0.53904000  0.38867000  1.0
  C  C45  1  0.64126000  0.96101000  0.11135000  1.0
  C  C46  1  0.28669000  0.46097000  0.61133000  1.0
  C  C47  1  0.35874000  0.03899000  0.88865000  1.0
  C  C48  1  0.74529000  0.41374000  0.41469000  1.0
  C  C49  1  0.57375000  0.08627000  0.08525000  1.0
  C  C50  1  0.25471000  0.58627000  0.58531000  1.0
  C  C51  1  0.42625000  0.91373000  0.91475000  1.0
  C  C52  1  0.77616000  0.36207000  0.50683000  1.0
  C  C53  1  0.64496000  0.13793000  0.99308000  1.0
  C  C54  1  0.22384000  0.63793000  0.49317000  1.0
  C  C55  1  0.35504000  0.86207000  0.00693000  1.0
  C  C56  1  0.78339000  0.43788000  0.56797000  1.0
  C  C57  1  0.78905000  0.06215000  0.93194000  1.0
  C  C58  1  0.21661000  0.56212000  0.43203000  1.0
  C  C59  1  0.21096000  0.93785000  0.06806000  1.0
  C  C60  1  0.76335000  0.33961000  0.33762000  1.0
  C  C61  1  0.44068000  0.16030000  0.16234000  1.0
  C  C62  1  0.23665000  0.66039000  0.66238000  1.0
  C  C63  1  0.55932000  0.83970000  0.83766000  1.0
  C  C64  1  0.79584000  0.23254000  0.54114000  1.0
  C  C65  1  0.56936000  0.26740000  0.95874000  1.0
  C  C66  1  0.20416000  0.76746000  0.45886000  1.0
  C  C67  1  0.43064000  0.73260000  0.04126000  1.0
  C  C68  1  0.69724000  0.16970000  0.51523000  1.0
  C  C69  1  0.38210000  0.33017000  0.98477000  1.0
  C  C70  1  0.30277000  0.83030000  0.48477000  1.0
  C  C71  1  0.61790000  0.66982000  0.01523000  1.0
  C  C72  1  0.72095000  0.04792000  0.54935000  1.0
  C  C73  1  0.31803000  0.45196000  0.95076000  1.0
  C  C74  1  0.27906000  0.95208000  0.45065000  1.0
  C  C75  1  0.68197000  0.54804000  0.04924000  1.0
  C  C76  1  0.92664000  0.04579000  0.63549000  1.0
  C  C77  1  0.60738000  0.45423000  0.86428000  1.0
  C  C78  1  0.07336000  0.95421000  0.36451000  1.0
  C  C79  1  0.39262000  0.54576000  0.13572000  1.0
  C  C80  1  0.91202000  0.16721000  0.60304000  1.0
  C  C81  1  0.68186000  0.33284000  0.89671000  1.0
  C  C82  1  0.08799000  0.83280000  0.39696000  1.0
  C  C83  1  0.31814000  0.66716000  0.10329000  1.0
  N  N84  1  0.83355000  0.98653000  0.60821000  1.0
  N  N85  1  0.42787000  0.51343000  0.89176000  1.0
  N  N86  1  0.16645000  0.01347000  0.39179000  1.0
  N  N87  1  0.57213000  0.48657000  0.10824000  1.0
  O  O88  1  0.84599000  0.58503000  0.67859000  1.0
  O  O89  1  0.10962000  0.91529000  0.82148000  1.0
  O  O90  1  0.15401000  0.41498000  0.32141000  1.0
  O  O91  1  0.89038000  0.08471000  0.17852000  1.0
  O  O92  1  0.75638000  0.75182000  0.57718000  1.0
  O  O93  1  0.08538000  0.74834000  0.92272000  1.0
  O  O94  1  0.24362000  0.24818000  0.42282000  1.0
  O  O95  1  0.91462000  0.25166000  0.07727000  1.0
  O  O96  1  0.63279000  0.37293000  0.29461000  1.0
  O  O97  1  0.30072000  0.12676000  0.20548000  1.0
  O  O98  1  0.36720000  0.62707000  0.70539000  1.0
  O  O99  1  0.69928000  0.87324000  0.79452000  1.0
  O  O100  1  0.90585000  0.25127000  0.31415000  1.0
  O  O101  1  0.47116000  0.24884000  0.18570000  1.0
  O  O102  1  0.09416000  0.74873000  0.68584000  1.0
  O  O103  1  0.52883000  0.75116000  0.81430000  1.0
