# generated using pymatgen
data_ZnH14C12S(NO3)2
_symmetry_space_group_name_H-M   'P 1'
_cell_length_a   7.33202000
_cell_length_b   9.69380000
_cell_length_c   13.62901418
_cell_angle_alpha   69.16905300
_cell_angle_beta   86.45645611
_cell_angle_gamma   89.97180000
_symmetry_Int_Tables_number   1
_chemical_formula_structural   ZnH14C12S(NO3)2
_chemical_formula_sum   'Zn2 H28 C24 S2 N4 O12'
_cell_volume   903.39407127
_cell_formula_units_Z   2
loop_
 _symmetry_equiv_pos_site_id
 _symmetry_equiv_pos_as_xyz
  1  'x, y, z'
loop_
 _atom_site_type_symbol
 _atom_site_label
 _atom_site_symmetry_multiplicity
 _atom_site_fract_x
 _atom_site_fract_y
 _atom_site_fract_z
 _atom_site_occupancy
  Zn  Zn0  1  0.22056000  0.19836000  0.46435000  1.0
  Zn  Zn1  1  0.77903000  0.66226000  0.53558000  1.0
  H  H2  1  0.49671000  0.43832000  0.38003000  1.0
  H  H3  1  0.50261000  0.81796000  0.62001000  1.0
  H  H4  1  0.30278000  0.51971000  0.36749000  1.0
  H  H5  1  0.69657000  0.88664000  0.63249000  1.0
  H  H6  1  0.52728000  0.02119000  0.50011000  1.0
  H  H7  1  0.47229000  0.52151000  0.49992000  1.0
  H  H8  1  0.57170000  0.18275000  0.49847000  1.0
  H  H9  1  0.42816000  0.68141000  0.50165000  1.0
  H  H10  1  0.12741000  0.44202000  0.26191000  1.0
  H  H11  1  0.87287000  0.70369000  0.73801000  1.0
  H  H12  1  0.14103000  0.49423000  0.06871000  1.0
  H  H13  1  0.85889000  0.56313000  0.93130000  1.0
  H  H14  1  0.34916000  0.05484000  0.13494000  1.0
  H  H15  1  0.65174000  0.18960000  0.86531000  1.0
  H  H16  1  0.33810000  0.02592000  0.32327000  1.0
  H  H17  1  0.66297000  0.34865000  0.67698000  1.0
  H  H18  1  0.21271000  0.41566000  0.92040000  1.0
  H  H19  1  0.78777000  0.33632000  0.07968000  1.0
  H  H20  1  0.15037000  0.43210000  0.57446000  1.0
  H  H21  1  0.84950000  0.00541000  0.42577000  1.0
  H  H22  1  0.17421000  0.44169000  0.75110000  1.0
  H  H23  1  0.82584000  0.19226000  0.24934000  1.0
  H  H24  1  0.30050000  0.97621000  0.85791000  1.0
  H  H25  1  0.69938000  0.83458000  0.14163000  1.0
  H  H26  1  0.27928000  0.98817000  0.67405000  1.0
  H  H27  1  0.72014000  0.66206000  0.32533000  1.0
  H  H28  1  0.27309000  0.08196000  0.98490000  1.0
  H  H29  1  0.72697000  0.06731000  0.01511000  1.0
  C  C30  1  0.18141000  0.36145000  0.22947000  1.0
  C  C31  1  0.81915000  0.59062000  0.77055000  1.0
  C  C32  1  0.18589000  0.38842000  0.12226000  1.0
  C  C33  1  0.81453000  0.51059000  0.87781000  1.0
  C  C34  1  0.24323000  0.27779000  0.08359000  1.0
  C  C35  1  0.75727000  0.36131000  0.91663000  1.0
  C  C36  1  0.29974000  0.14529000  0.15825000  1.0
  C  C37  1  0.70101000  0.30334000  0.84200000  1.0
  C  C38  1  0.29603000  0.12809000  0.26390000  1.0
  C  C39  1  0.70493000  0.39156000  0.73631000  1.0
  C  C40  1  0.23707000  0.30258000  0.97196000  1.0
  C  C41  1  0.76325000  0.27468000  0.02826000  1.0
  C  C42  1  0.18759000  0.33414000  0.63891000  1.0
  C  C43  1  0.81211000  0.97229000  0.36119000  1.0
  C  C44  1  0.19859000  0.33752000  0.73948000  1.0
  C  C45  1  0.80134000  0.07657000  0.26074000  1.0
  C  C46  1  0.23976000  0.20776000  0.82225000  1.0
  C  C47  1  0.76029000  0.03003000  0.17774000  1.0
  C  C48  1  0.26913000  0.08057000  0.79696000  1.0
  C  C49  1  0.73078000  0.87763000  0.20273000  1.0
  C  C50  1  0.25828000  0.08638000  0.69443000  1.0
  C  C51  1  0.74134000  0.78058000  0.30516000  1.0
  C  C52  1  0.25191000  0.19460000  0.93126000  1.0
  C  C53  1  0.74824000  0.12604000  0.06887000  1.0
  S  S54  1  0.18292000  0.83194000  0.54908000  1.0
  S  S55  1  0.81669000  0.38106000  0.45074000  1.0
  N  N56  1  0.23605000  0.23403000  0.29959000  1.0
  N  N57  1  0.76469000  0.53326000  0.70040000  1.0
  N  N58  1  0.21787000  0.21121000  0.61613000  1.0
  N  N59  1  0.78169000  0.82663000  0.38374000  1.0
  O  O60  1  0.10312000  0.98232000  0.52332000  1.0
  O  O61  1  0.89663000  0.50547000  0.47661000  1.0
  O  O62  1  0.03172000  0.72103000  0.57203000  1.0
  O  O63  1  0.96794000  0.29339000  0.42734000  1.0
  O  O64  1  0.28752000  0.79487000  0.64588000  1.0
  O  O65  1  0.71163000  0.44096000  0.35413000  1.0
  O  O66  1  0.30623000  0.82759000  0.45919000  1.0
  O  O67  1  0.69384000  0.28663000  0.54074000  1.0
  O  O68  1  0.36743000  0.43594000  0.41272000  1.0
  O  O69  1  0.63188000  0.84813000  0.58728000  1.0
  O  O70  1  0.49165000  0.12508000  0.46852000  1.0
  O  O71  1  0.50799000  0.59356000  0.53167000  1.0
