# generated using pymatgen
data_ZnH10C14S2(NO2)2
_symmetry_space_group_name_H-M   'P 1'
_cell_length_a   11.28710000
_cell_length_b   15.35630000
_cell_length_c   15.43560000
_cell_angle_alpha   98.44590000
_cell_angle_beta   107.69300000
_cell_angle_gamma   108.75800000
_symmetry_Int_Tables_number   1
_chemical_formula_structural   ZnH10C14S2(NO2)2
_chemical_formula_sum   'Zn4 H40 C56 S8 N8 O16'
_cell_volume   2323.07057193
_cell_formula_units_Z   4
loop_
 _symmetry_equiv_pos_site_id
 _symmetry_equiv_pos_as_xyz
  1  'x, y, z'
loop_
 _atom_site_type_symbol
 _atom_site_label
 _atom_site_symmetry_multiplicity
 _atom_site_fract_x
 _atom_site_fract_y
 _atom_site_fract_z
 _atom_site_occupancy
  Zn  Zn0  1  0.64701000  0.07787000  0.45105000  1.0
  Zn  Zn1  1  0.85130000  0.55037000  0.92412000  1.0
  Zn  Zn2  1  0.35299000  0.92213000  0.54895000  1.0
  Zn  Zn3  1  0.14870000  0.44963000  0.07588000  1.0
  H  H4  1  0.85731000  0.17354000  0.76450000  1.0
  H  H5  1  0.64079000  0.23274000  0.82464000  1.0
  H  H6  1  0.14269000  0.82646000  0.23550000  1.0
  H  H7  1  0.35920000  0.76726000  0.17535000  1.0
  H  H8  1  0.97469000  0.38231000  0.75855000  1.0
  H  H9  1  0.52771000  0.24370000  0.62004000  1.0
  H  H10  1  0.02531000  0.61769000  0.24145000  1.0
  H  H11  1  0.47229000  0.75630000  0.37995000  1.0
  H  H12  1  0.66089000  0.27647000  0.48435000  1.0
  H  H13  1  0.83919000  0.51746000  0.72685000  1.0
  H  H14  1  0.33911000  0.72353000  0.51565000  1.0
  H  H15  1  0.16081000  0.48254000  0.27315000  1.0
  H  H16  1  0.50742000  0.36159000  0.43045000  1.0
  H  H17  1  0.99526000  0.57070000  0.64173000  1.0
  H  H18  1  0.49257000  0.63841000  0.56955000  1.0
  H  H19  1  0.00474000  0.42930000  0.35828000  1.0
  H  H20  1  0.18535000  0.08356000  0.28096000  1.0
  H  H21  1  0.31695000  0.71940000  0.91590000  1.0
  H  H22  1  0.81465000  0.91644000  0.71904000  1.0
  H  H23  1  0.68306000  0.28060000  0.08411000  1.0
  H  H24  1  0.35230000  0.01126000  0.34000000  1.0
  H  H25  1  0.14755000  0.66098000  0.98844000  1.0
  H  H26  1  0.64770000  0.98874000  0.66000000  1.0
  H  H27  1  0.85245000  0.33902000  0.01157000  1.0
  H  H28  1  0.93388000  0.20199000  0.50095000  1.0
  H  H29  1  0.56595000  0.49840000  0.79948000  1.0
  H  H30  1  0.06612000  0.79801000  0.49905000  1.0
  H  H31  1  0.43405000  0.50160000  0.20052000  1.0
  H  H32  1  0.10025000  0.24886000  0.42308000  1.0
  H  H33  1  0.40221000  0.57638000  0.75200000  1.0
  H  H34  1  0.89974000  0.75115000  0.57692000  1.0
  H  H35  1  0.59779000  0.42362000  0.24799000  1.0
  H  H36  1  0.77761000  0.07094000  0.15755000  1.0
  H  H37  1  0.72441000  0.84515000  0.93025000  1.0
  H  H38  1  0.22239000  0.92905000  0.84245000  1.0
  H  H39  1  0.27559000  0.15485000  0.06974000  1.0
  H  H40  1  0.62799000  0.02564000  0.24921000  1.0
  H  H41  1  0.87110000  0.75310000  0.97630000  1.0
  H  H42  1  0.37201000  0.97436000  0.75079000  1.0
  H  H43  1  0.12890000  0.24690000  0.02370000  1.0
  C  C44  1  0.82125000  0.21014000  0.62814000  1.0
  C  C45  1  0.67829000  0.37222000  0.79203000  1.0
  C  C46  1  0.17874000  0.78986000  0.37186000  1.0
  C  C47  1  0.32170000  0.62778000  0.20796000  1.0
  C  C48  1  0.87983000  0.23298000  0.73298000  1.0
  C  C49  1  0.61963000  0.26615000  0.76719000  1.0
  C  C50  1  0.12017000  0.76703000  0.26702000  1.0
  C  C51  1  0.38036000  0.73385000  0.23280000  1.0
  C  C52  1  0.95307000  0.32201000  0.78898000  1.0
  C  C53  1  0.54797000  0.21138000  0.67839000  1.0
  C  C54  1  0.04694000  0.67799000  0.21102000  1.0
  C  C55  1  0.45203000  0.78863000  0.32161000  1.0
  C  C56  1  0.00434000  0.34218000  0.89363000  1.0
  C  C57  1  0.49684000  0.10556000  0.65622000  1.0
  C  C58  1  0.99567000  0.65782000  0.10637000  1.0
  C  C59  1  0.50316000  0.89444000  0.34377000  1.0
  C  C60  1  0.55492000  0.23749000  0.43778000  1.0
  C  C61  1  0.94576000  0.56381000  0.76505000  1.0
  C  C62  1  0.44507000  0.76251000  0.56222000  1.0
  C  C63  1  0.05424000  0.43619000  0.23495000  1.0
  C  C64  1  0.46886000  0.28381000  0.40822000  1.0
  C  C65  1  0.03322000  0.59298000  0.71868000  1.0
  C  C66  1  0.53114000  0.71619000  0.59179000  1.0
  C  C67  1  0.96679000  0.40703000  0.28133000  1.0
  C  C68  1  0.33384000  0.22876000  0.34914000  1.0
  C  C69  1  0.16894000  0.65165000  0.77264000  1.0
  C  C70  1  0.66616000  0.77123000  0.65086000  1.0
  C  C71  1  0.83106000  0.34835000  0.22737000  1.0
  C  C72  1  0.28981000  0.12932000  0.32505000  1.0
  C  C73  1  0.21205000  0.67573000  0.87101000  1.0
  C  C74  1  0.71019000  0.87068000  0.67495000  1.0
  C  C75  1  0.78796000  0.32426000  0.12899000  1.0
  C  C76  1  0.38246000  0.08850000  0.35757000  1.0
  C  C77  1  0.11795000  0.64353000  0.91196000  1.0
  C  C78  1  0.61754000  0.91150000  0.64243000  1.0
  C  C79  1  0.88206000  0.35647000  0.08805000  1.0
  C  C80  1  0.90508000  0.17263000  0.42546000  1.0
  C  C81  1  0.59509000  0.57455000  0.82893000  1.0
  C  C82  1  0.09492000  0.82737000  0.57454000  1.0
  C  C83  1  0.40491000  0.42545000  0.17107000  1.0
  C  C84  1  0.99648000  0.19971000  0.38151000  1.0
  C  C85  1  0.50527000  0.61860000  0.80143000  1.0
  C  C86  1  0.00352000  0.80029000  0.61849000  1.0
  C  C87  1  0.49473000  0.38140000  0.19857000  1.0
  C  C88  1  0.95207000  0.16406000  0.28370000  1.0
  C  C89  1  0.55046000  0.71743000  0.83686000  1.0
  C  C90  1  0.04793000  0.83594000  0.71630000  1.0
  C  C91  1  0.44954000  0.28257000  0.16314000  1.0
  C  C92  1  0.81735000  0.10054000  0.23397000  1.0
  C  C93  1  0.68419000  0.76793000  0.90073000  1.0
  C  C94  1  0.18265000  0.89946000  0.76603000  1.0
  C  C95  1  0.31581000  0.23207000  0.09926000  1.0
  C  C96  1  0.73319000  0.07589000  0.28362000  1.0
  C  C97  1  0.76676000  0.71809000  0.92586000  1.0
  C  C98  1  0.26681000  0.92411000  0.71638000  1.0
  C  C99  1  0.23325000  0.28191000  0.07414000  1.0
  S  S100  1  0.23360000  0.29377000  0.30942000  1.0
  S  S101  1  0.27155000  0.69058000  0.70777000  1.0
  S  S102  1  0.76640000  0.70623000  0.69058000  1.0
  S  S103  1  0.72845000  0.30942000  0.29223000  1.0
  S  S104  1  0.05282000  0.19520000  0.21611000  1.0
  S  S105  1  0.45226000  0.78546000  0.80474000  1.0
  S  S106  1  0.94718000  0.80480000  0.78389000  1.0
  S  S107  1  0.54775000  0.21454000  0.19525000  1.0
  N  N108  1  0.51327000  0.14148000  0.41150000  1.0
  N  N109  1  0.98665000  0.59000000  0.86010000  1.0
  N  N110  1  0.48672000  0.85852000  0.58850000  1.0
  N  N111  1  0.01335000  0.41000000  0.13990000  1.0
  N  N112  1  0.77567000  0.11176000  0.37798000  1.0
  N  N113  1  0.72368000  0.62283000  0.89005000  1.0
  N  N114  1  0.22433000  0.88824000  0.62202000  1.0
  N  N115  1  0.27633000  0.37717000  0.10995000  1.0
  O  O116  1  0.75229000  0.11908000  0.58752000  1.0
  O  O117  1  0.74624000  0.41187000  0.88224000  1.0
  O  O118  1  0.24771000  0.88092000  0.41248000  1.0
  O  O119  1  0.25376000  0.58813000  0.11775000  1.0
  O  O120  1  0.83788000  0.27370000  0.58523000  1.0
  O  O121  1  0.66254000  0.41697000  0.73043000  1.0
  O  O122  1  0.16212000  0.72630000  0.41478000  1.0
  O  O123  1  0.33746000  0.58303000  0.26956000  1.0
  O  O124  1  0.07747000  0.43171000  0.93870000  1.0
  O  O125  1  0.42467000  0.06114000  0.56749000  1.0
  O  O126  1  0.92253000  0.56829000  0.06130000  1.0
  O  O127  1  0.57531000  0.93886000  0.43250000  1.0
  O  O128  1  0.97749000  0.27677000  0.93349000  1.0
  O  O129  1  0.52297000  0.06408000  0.71965000  1.0
  O  O130  1  0.02251000  0.72323000  0.06651000  1.0
  O  O131  1  0.47703000  0.93592000  0.28034000  1.0
