# generated using pymatgen
data_H24Pb3C28(N2Cl3)2
_symmetry_space_group_name_H-M   'P 1'
_cell_length_a   7.34701000
_cell_length_b   10.38440000
_cell_length_c   10.80590000
_cell_angle_alpha   78.96840000
_cell_angle_beta   76.22170000
_cell_angle_gamma   87.32610000
_symmetry_Int_Tables_number   1
_chemical_formula_structural   H24Pb3C28(N2Cl3)2
_chemical_formula_sum   'H24 Pb3 C28 N4 Cl6'
_cell_volume   785.90908171
_cell_formula_units_Z   1
loop_
 _symmetry_equiv_pos_site_id
 _symmetry_equiv_pos_as_xyz
  1  'x, y, z'
loop_
 _atom_site_type_symbol
 _atom_site_label
 _atom_site_symmetry_multiplicity
 _atom_site_fract_x
 _atom_site_fract_y
 _atom_site_fract_z
 _atom_site_occupancy
  H  H0  1  0.33571000  0.50438000  0.13084000  1.0
  H  H1  1  0.66429000  0.49562000  0.86916000  1.0
  H  H2  1  0.31043000  0.49079000  0.97311000  1.0
  H  H3  1  0.68958000  0.50921000  0.02689000  1.0
  H  H4  1  0.11169000  0.52019000  0.09611000  1.0
  H  H5  1  0.88831000  0.47981000  0.90389000  1.0
  H  H6  1  0.46539000  0.67396000  0.82169000  1.0
  H  H7  1  0.53461000  0.32604000  0.17831000  1.0
  H  H8  1  0.50437000  0.91676000  0.75399000  1.0
  H  H9  1  0.49563000  0.08324000  0.24601000  1.0
  H  H10  1  0.42173000  0.14003000  0.80117000  1.0
  H  H11  1  0.57827000  0.85998000  0.19883000  1.0
  H  H12  1  0.25165000  0.28131000  0.95014000  1.0
  H  H13  1  0.74835000  0.71869000  0.04986000  1.0
  H  H14  1  0.04392000  0.30353000  0.16623000  1.0
  H  H15  1  0.95608000  0.69646000  0.83377000  1.0
  H  H16  1  0.84017000  0.19691000  0.37549000  1.0
  H  H17  1  0.15983000  0.80309000  0.62451000  1.0
  H  H18  1  0.66059000  0.88592000  0.43983000  1.0
  H  H19  1  0.33941000  0.11408000  0.56017000  1.0
  H  H20  1  0.71647000  0.00663000  0.52227000  1.0
  H  H21  1  0.28353000  0.99337000  0.47773000  1.0
  H  H22  1  0.84797000  0.85824000  0.51808000  1.0
  H  H23  1  0.15203000  0.14176000  0.48192000  1.0
  Pb  Pb24  1  0.50000000  0.50000000  0.50000000  1.0
  Pb  Pb25  1  0.03947000  0.67149000  0.33074000  1.0
  Pb  Pb26  1  0.96053000  0.32851000  0.66926000  1.0
  C  C27  1  0.26116000  0.54227000  0.05428000  1.0
  C  C28  1  0.73884000  0.45773000  0.94572000  1.0
  C  C29  1  0.28806000  0.68692000  0.01037000  1.0
  C  C30  1  0.71194000  0.31308000  0.98963000  1.0
  C  C31  1  0.39909000  0.73968000  0.88671000  1.0
  C  C32  1  0.60091000  0.26032000  0.11328000  1.0
  C  C33  1  0.41864000  0.87375000  0.84888000  1.0
  C  C34  1  0.58136000  0.12625000  0.15112000  1.0
  C  C35  1  0.32545000  0.95727000  0.93272000  1.0
  C  C36  1  0.67454000  0.04273000  0.06728000  1.0
  C  C37  1  0.33694000  0.09693000  0.89635000  1.0
  C  C38  1  0.66306000  0.90307000  0.10365000  1.0
  C  C39  1  0.24407000  0.17494000  0.97924000  1.0
  C  C40  1  0.75593000  0.82506000  0.02076000  1.0
  C  C41  1  0.13229000  0.11902000  0.10370000  1.0
  C  C42  1  0.86770000  0.88098000  0.89631000  1.0
  C  C43  1  0.03328000  0.19696000  0.19132000  1.0
  C  C44  1  0.96672000  0.80304000  0.80868000  1.0
  C  C45  1  0.92041000  0.13827000  0.30758000  1.0
  C  C46  1  0.07959000  0.86173000  0.69242000  1.0
  C  C47  1  0.90581000  0.00013000  0.33895000  1.0
  C  C48  1  0.09419000  0.99987000  0.66105000  1.0
  C  C49  1  0.77629000  0.93462000  0.46161000  1.0
  C  C50  1  0.22371000  0.06538000  0.53839000  1.0
  C  C51  1  0.11535000  0.98024000  0.14322000  1.0
  C  C52  1  0.88465000  0.01976000  0.85678000  1.0
  C  C53  1  0.21611000  0.89740000  0.05608000  1.0
  C  C54  1  0.78389000  0.10260000  0.94392000  1.0
  N  N55  1  0.20172000  0.76474000  0.09229000  1.0
  N  N56  1  0.79828000  0.23526000  0.90771000  1.0
  N  N57  1  0.00399000  0.92441000  0.25897000  1.0
  N  N58  1  0.99601000  0.07559000  0.74103000  1.0
  Cl  Cl59  1  0.76981000  0.52517000  0.25438000  1.0
  Cl  Cl60  1  0.23019000  0.47483000  0.74562000  1.0
  Cl  Cl61  1  0.21795000  0.40485000  0.39099000  1.0
  Cl  Cl62  1  0.78205000  0.59515000  0.60901000  1.0
  Cl  Cl63  1  0.35630000  0.75684000  0.40501000  1.0
  Cl  Cl64  1  0.64370000  0.24316000  0.59499000  1.0
