# generated using pymatgen
data_AlH9C17O6
_symmetry_space_group_name_H-M   'P 1'
_cell_length_a   6.71321000
_cell_length_b   23.60510000
_cell_length_c   26.20020000
_cell_angle_alpha   78.66910000
_cell_angle_beta   89.99860000
_cell_angle_gamma   89.99870000
_symmetry_Int_Tables_number   1
_chemical_formula_structural   AlH9C17O6
_chemical_formula_sum   'Al4 H36 C68 O24'
_cell_volume   4070.91652948
_cell_formula_units_Z   4
loop_
 _symmetry_equiv_pos_site_id
 _symmetry_equiv_pos_as_xyz
  1  'x, y, z'
loop_
 _atom_site_type_symbol
 _atom_site_label
 _atom_site_symmetry_multiplicity
 _atom_site_fract_x
 _atom_site_fract_y
 _atom_site_fract_z
 _atom_site_occupancy
  Al  Al0  1  0.74549000  0.24873000  0.75111000  1.0
  Al  Al1  1  0.24798000  0.74968000  0.25074000  1.0
  Al  Al2  1  0.24549000  0.25129000  0.74888000  1.0
  Al  Al3  1  0.74797000  0.75033000  0.24925000  1.0
  H  H4  1  0.31028000  0.62588000  0.16196000  1.0
  H  H5  1  0.78773000  0.29908000  0.90340000  1.0
  H  H6  1  0.81030000  0.87410000  0.33805000  1.0
  H  H7  1  0.28781000  0.20094000  0.59659000  1.0
  H  H8  1  0.31295000  0.55756000  0.10014000  1.0
  H  H9  1  0.80924000  0.35954000  0.97023000  1.0
  H  H10  1  0.81300000  0.94242000  0.39986000  1.0
  H  H11  1  0.30935000  0.14047000  0.52976000  1.0
  H  H12  1  0.70189000  0.60182000  0.06025000  1.0
  H  H13  1  0.19361000  0.47820000  0.86917000  1.0
  H  H14  1  0.20185000  0.89821000  0.43974000  1.0
  H  H15  1  0.69358000  0.02179000  0.63083000  1.0
  H  H16  1  0.69544000  0.66497000  0.12616000  1.0
  H  H17  1  0.19764000  0.41262000  0.80657000  1.0
  H  H18  1  0.19541000  0.83506000  0.37383000  1.0
  H  H19  1  0.69760000  0.08738000  0.69343000  1.0
  H  H20  1  0.72380000  0.43495000  0.99503000  1.0
  H  H21  1  0.30315000  0.55917000  0.01050000  1.0
  H  H22  1  0.22385000  0.06506000  0.50497000  1.0
  H  H23  1  0.80312000  0.94081000  0.48949000  1.0
  H  H24  1  0.31174000  0.54103000  0.46194000  1.0
  H  H25  1  0.66886000  0.46089000  0.53902000  1.0
  H  H26  1  0.81174000  0.95895000  0.03803000  1.0
  H  H27  1  0.16885000  0.03915000  0.96100000  1.0
  H  H28  1  0.31021000  0.46077000  0.53990000  1.0
  H  H29  1  0.67016000  0.54111000  0.46104000  1.0
  H  H30  1  0.81025000  0.03921000  0.96006000  1.0
  H  H31  1  0.17017000  0.95894000  0.03898000  1.0
  H  H32  1  0.72153000  0.49989000  0.11213000  1.0
  H  H33  1  0.48985000  0.52424000  0.95720000  1.0
  H  H34  1  0.22155000  0.00015000  0.38785000  1.0
  H  H35  1  0.98984000  0.97572000  0.54279000  1.0
  H  H36  1  0.49884000  0.32091000  0.75930000  1.0
  H  H37  1  0.50006000  0.67568000  0.27315000  1.0
  H  H38  1  0.99885000  0.17910000  0.74069000  1.0
  H  H39  1  0.00006000  0.82432000  0.22683000  1.0
  C  C40  1  0.49242000  0.17324000  0.82656000  1.0
  C  C41  1  0.49620000  0.82542000  0.17257000  1.0
  C  C42  1  0.99242000  0.32676000  0.67342000  1.0
  C  C43  1  0.99621000  0.67460000  0.32743000  1.0
  C  C44  1  0.49399000  0.18734000  0.68732000  1.0
  C  C45  1  0.49890000  0.81340000  0.31237000  1.0
  C  C46  1  0.99395000  0.31267000  0.81267000  1.0
  C  C47  1  0.99892000  0.68662000  0.18762000  1.0
  C  C48  1  0.17762000  0.61971000  0.13970000  1.0
  C  C49  1  0.88075000  0.33764000  0.89678000  1.0
  C  C50  1  0.67762000  0.88028000  0.36030000  1.0
  C  C51  1  0.38079000  0.16237000  0.60321000  1.0
  C  C52  1  0.17961000  0.58256000  0.10460000  1.0
  C  C53  1  0.89157000  0.37226000  0.93397000  1.0
  C  C54  1  0.67964000  0.91743000  0.39540000  1.0
  C  C55  1  0.39160000  0.12774000  0.56603000  1.0
  C  C56  1  0.00735000  0.57456000  0.07618000  1.0
  C  C57  1  0.00775000  0.42285000  0.92551000  1.0
  C  C58  1  0.50734000  0.92545000  0.42381000  1.0
  C  C59  1  0.50776000  0.07715000  0.57449000  1.0
  C  C60  1  0.83395000  0.60554000  0.08368000  1.0
  C  C61  1  0.11034000  0.43795000  0.87799000  1.0
  C  C62  1  0.33391000  0.89448000  0.41630000  1.0
  C  C63  1  0.61034000  0.06205000  0.62201000  1.0
  C  C64  1  0.83029000  0.64162000  0.11976000  1.0
  C  C65  1  0.11012000  0.40172000  0.84219000  1.0
  C  C66  1  0.33026000  0.85840000  0.38022000  1.0
  C  C67  1  0.61011000  0.09827000  0.65781000  1.0
  C  C68  1  0.00222000  0.64888000  0.14811000  1.0
  C  C69  1  0.99480000  0.35127000  0.85130000  1.0
  C  C70  1  0.50220000  0.85113000  0.35189000  1.0
  C  C71  1  0.49483000  0.14874000  0.64869000  1.0
  C  C72  1  0.85068000  0.49609000  0.03582000  1.0
  C  C73  1  0.18505000  0.49385000  0.97269000  1.0
  C  C74  1  0.35070000  0.00393000  0.46417000  1.0
  C  C75  1  0.68505000  0.00614000  0.52731000  1.0
  C  C76  1  0.85416000  0.46147000  0.99805000  1.0
  C  C77  1  0.17422000  0.53187000  0.00742000  1.0
  C  C78  1  0.35420000  0.03854000  0.50195000  1.0
  C  C79  1  0.67422000  0.96813000  0.49257000  1.0
  C  C80  1  0.01719000  0.45943000  0.96525000  1.0
  C  C81  1  0.01010000  0.53425000  0.03975000  1.0
  C  C82  1  0.51722000  0.04057000  0.53475000  1.0
  C  C83  1  0.51011000  0.96576000  0.46025000  1.0
  C  C84  1  0.17096000  0.47865000  0.52235000  1.0
  C  C85  1  0.80949000  0.52331000  0.47861000  1.0
  C  C86  1  0.67098000  0.02134000  0.97762000  1.0
  C  C87  1  0.30949000  0.97673000  0.02140000  1.0
  C  C88  1  0.98937000  0.45560000  0.54448000  1.0
  C  C89  1  0.99104000  0.54633000  0.45648000  1.0
  C  C90  1  0.48938000  0.04441000  0.95551000  1.0
  C  C91  1  0.49105000  0.95369000  0.04352000  1.0
  C  C92  1  0.80871000  0.47874000  0.52186000  1.0
  C  C93  1  0.17178000  0.52325000  0.47912000  1.0
  C  C94  1  0.30871000  0.02129000  0.97815000  1.0
  C  C95  1  0.67180000  0.97675000  0.02086000  1.0
  C  C96  1  0.98857000  0.41029000  0.58876000  1.0
  C  C97  1  0.99197000  0.59144000  0.41206000  1.0
  C  C98  1  0.48859000  0.08970000  0.91122000  1.0
  C  C99  1  0.49196000  0.90859000  0.08794000  1.0
  C  C100  1  0.99347000  0.63002000  0.37358000  1.0
  C  C101  1  0.98824000  0.37157000  0.62711000  1.0
  C  C102  1  0.49345000  0.87001000  0.12642000  1.0
  C  C103  1  0.48826000  0.12843000  0.87287000  1.0
  C  C104  1  0.68662000  0.48741000  0.07428000  1.0
  C  C105  1  0.38977000  0.48746000  0.95327000  1.0
  C  C106  1  0.18665000  0.01261000  0.42571000  1.0
  C  C107  1  0.88978000  0.01251000  0.54672000  1.0
  O  O108  1  0.32532000  0.20540000  0.69966000  1.0
  O  O109  1  0.66709000  0.80029000  0.29532000  1.0
  O  O110  1  0.82530000  0.29461000  0.80033000  1.0
  O  O111  1  0.16710000  0.69973000  0.20467000  1.0
  O  O112  1  0.66489000  0.18962000  0.80956000  1.0
  O  O113  1  0.32767000  0.80789000  0.19193000  1.0
  O  O114  1  0.16489000  0.31039000  0.69042000  1.0
  O  O115  1  0.82768000  0.69212000  0.30807000  1.0
  O  O116  1  0.66228000  0.19891000  0.70541000  1.0
  O  O117  1  0.32853000  0.79829000  0.29821000  1.0
  O  O118  1  0.16224000  0.30110000  0.79458000  1.0
  O  O119  1  0.82854000  0.70173000  0.20178000  1.0
  O  O120  1  0.82431000  0.30899000  0.69272000  1.0
  O  O121  1  0.16711000  0.69212000  0.30980000  1.0
  O  O122  1  0.32432000  0.19101000  0.80726000  1.0
  O  O123  1  0.66710000  0.80789000  0.19019000  1.0
  O  O124  1  0.49694000  0.28438000  0.74771000  1.0
  O  O125  1  0.49833000  0.71524000  0.25404000  1.0
  O  O126  1  0.99694000  0.21564000  0.75229000  1.0
  O  O127  1  0.99832000  0.78477000  0.24596000  1.0
  O  O128  1  0.52376000  0.46636000  0.06731000  1.0
  O  O129  1  0.45592000  0.44566000  0.93770000  1.0
  O  O130  1  0.02378000  0.03366000  0.43268000  1.0
  O  O131  1  0.95599000  0.05430000  0.56231000  1.0
