# generated using pymatgen
data_MnH17C24N5O4
_symmetry_space_group_name_H-M   'P 1'
_cell_length_a   8.43972000
_cell_length_b   10.37790000
_cell_length_c   14.56870000
_cell_angle_alpha   99.24340000
_cell_angle_beta   91.91150000
_cell_angle_gamma   109.19200000
_symmetry_Int_Tables_number   1
_chemical_formula_structural   MnH17C24N5O4
_chemical_formula_sum   'Mn2 H34 C48 N10 O8'
_cell_volume   1184.36370503
_cell_formula_units_Z   2
loop_
 _symmetry_equiv_pos_site_id
 _symmetry_equiv_pos_as_xyz
  1  'x, y, z'
loop_
 _atom_site_type_symbol
 _atom_site_label
 _atom_site_symmetry_multiplicity
 _atom_site_fract_x
 _atom_site_fract_y
 _atom_site_fract_z
 _atom_site_occupancy
  Mn  Mn0  1  0.77284000  0.23243000  0.24313000  1.0
  Mn  Mn1  1  0.22716000  0.76757000  0.75687000  1.0
  H  H2  1  0.80582000  0.27349000  0.59989000  1.0
  H  H3  1  0.19416000  0.72650000  0.40011000  1.0
  H  H4  1  0.40785000  0.40085000  0.11908000  1.0
  H  H5  1  0.59214000  0.59915000  0.88092000  1.0
  H  H6  1  0.81530000  0.75658000  0.26058000  1.0
  H  H7  1  0.18470000  0.24341000  0.73942000  1.0
  H  H8  1  0.43125000  0.81457000  0.08770000  1.0
  H  H9  1  0.56878000  0.18543000  0.91230000  1.0
  H  H10  1  0.18829000  0.62350000  0.02380000  1.0
  H  H11  1  0.81173000  0.37651000  0.97620000  1.0
  H  H12  1  0.27882000  0.51337000  0.95616000  1.0
  H  H13  1  0.72120000  0.48664000  0.04384000  1.0
  H  H14  1  0.04053000  0.51119000  0.17648000  1.0
  H  H15  1  0.95948000  0.48881000  0.82352000  1.0
  H  H16  1  0.88498000  0.09603000  0.03661000  1.0
  H  H17  1  0.11503000  0.90397000  0.96339000  1.0
  H  H18  1  0.12617000  0.25963000  0.93707000  1.0
  H  H19  1  0.87384000  0.74037000  0.06293000  1.0
  H  H20  1  0.18421000  0.34436000  0.24903000  1.0
  H  H21  1  0.81579000  0.65564000  0.75097000  1.0
  H  H22  1  0.43073000  0.43934000  0.36629000  1.0
  H  H23  1  0.56926000  0.56067000  0.63371000  1.0
  H  H24  1  0.37971000  0.45926000  0.53865000  1.0
  H  H25  1  0.62028000  0.54075000  0.46135000  1.0
  H  H26  1  0.08969000  0.38087000  0.58230000  1.0
  H  H27  1  0.91030000  0.61913000  0.41770000  1.0
  H  H28  1  0.34051000  0.09939000  0.30364000  1.0
  H  H29  1  0.65948000  0.90062000  0.69635000  1.0
  H  H30  1  0.10759000  0.02933000  0.40595000  1.0
  H  H31  1  0.89240000  0.97068000  0.59404000  1.0
  H  H32  1  0.16982000  0.05955000  0.57891000  1.0
  H  H33  1  0.83016000  0.94046000  0.42108000  1.0
  H  H34  1  0.46148000  0.16414000  0.65311000  1.0
  H  H35  1  0.53850000  0.83587000  0.34689000  1.0
  C  C36  1  0.40109000  0.60061000  0.09503000  1.0
  C  C37  1  0.59892000  0.39939000  0.90497000  1.0
  C  C38  1  0.46816000  0.51341000  0.13472000  1.0
  C  C39  1  0.53184000  0.48659000  0.86528000  1.0
  C  C40  1  0.61790000  0.56906000  0.19412000  1.0
  C  C41  1  0.38210000  0.43093000  0.80589000  1.0
  C  C42  1  0.69889000  0.71277000  0.21461000  1.0
  C  C43  1  0.30112000  0.28722000  0.78539000  1.0
  C  C44  1  0.63090000  0.80093000  0.17695000  1.0
  C  C45  1  0.36912000  0.19906000  0.82306000  1.0
  C  C46  1  0.48226000  0.74430000  0.11683000  1.0
  C  C47  1  0.51775000  0.25570000  0.88317000  1.0
  C  C48  1  0.24555000  0.54321000  0.02664000  1.0
  C  C49  1  0.75446000  0.45680000  0.97336000  1.0
  C  C50  1  0.03136000  0.41962000  0.12578000  1.0
  C  C51  1  0.96864000  0.58039000  0.87422000  1.0
  C  C52  1  0.95422000  0.20660000  0.05102000  1.0
  C  C53  1  0.04579000  0.79341000  0.94898000  1.0
  C  C54  1  0.07233000  0.28563000  0.00104000  1.0
  C  C55  1  0.92767000  0.71437000  0.99896000  1.0
  C  C56  1  0.69764000  0.47513000  0.23122000  1.0
  C  C57  1  0.30235000  0.52486000  0.76878000  1.0
  C  C58  1  0.71530000  0.95557000  0.20395000  1.0
  C  C59  1  0.28473000  0.04443000  0.79605000  1.0
  C  C60  1  0.16661000  0.35550000  0.32321000  1.0
  C  C61  1  0.83339000  0.64450000  0.67680000  1.0
  C  C62  1  0.30483000  0.40935000  0.38986000  1.0
  C  C63  1  0.69517000  0.59066000  0.61014000  1.0
  C  C64  1  0.27613000  0.41903000  0.48396000  1.0
  C  C65  1  0.72386000  0.58097000  0.51604000  1.0
  C  C66  1  0.11161000  0.37298000  0.50847000  1.0
  C  C67  1  0.88838000  0.62701000  0.49153000  1.0
  C  C68  1  0.98034000  0.31962000  0.43697000  1.0
  C  C69  1  0.01965000  0.68037000  0.56304000  1.0
  C  C70  1  0.80337000  0.26477000  0.45291000  1.0
  C  C71  1  0.19662000  0.73522000  0.54709000  1.0
  C  C72  1  0.56458000  0.19045000  0.51966000  1.0
  C  C73  1  0.43541000  0.80955000  0.48033000  1.0
  C  C74  1  0.53145000  0.17179000  0.42123000  1.0
  C  C75  1  0.46854000  0.82821000  0.57876000  1.0
  C  C76  1  0.36605000  0.11217000  0.37894000  1.0
  C  C77  1  0.63393000  0.88784000  0.62105000  1.0
  C  C78  1  0.23771000  0.07299000  0.43706000  1.0
  C  C79  1  0.76227000  0.92702000  0.56293000  1.0
  C  C80  1  0.27220000  0.09180000  0.53477000  1.0
  C  C81  1  0.72779000  0.90820000  0.46522000  1.0
  C  C82  1  0.43604000  0.15060000  0.57785000  1.0
  C  C83  1  0.56395000  0.84940000  0.42214000  1.0
  N  N84  1  0.00744000  0.31289000  0.34528000  1.0
  N  N85  1  0.99256000  0.68710000  0.65472000  1.0
  N  N86  1  0.68247000  0.21957000  0.38248000  1.0
  N  N87  1  0.31753000  0.78043000  0.61752000  1.0
  N  N88  1  0.73809000  0.24997000  0.53693000  1.0
  N  N89  1  0.26189000  0.75003000  0.46306000  1.0
  N  N90  1  0.93001000  0.29141000  0.12860000  1.0
  N  N91  1  0.07000000  0.70859000  0.87140000  1.0
  N  N92  1  0.11971000  0.42053000  0.04960000  1.0
  N  N93  1  0.88029000  0.57947000  0.95040000  1.0
  O  O94  1  0.61420000  0.34426000  0.21172000  1.0
  O  O95  1  0.38579000  0.65572000  0.78827000  1.0
  O  O96  1  0.84210000  0.52767000  0.27561000  1.0
  O  O97  1  0.15789000  0.47232000  0.72439000  1.0
  O  O98  1  0.63687000  0.03152000  0.17462000  1.0
  O  O99  1  0.36316000  0.96848000  0.82539000  1.0
  O  O100  1  0.85320000  0.00392000  0.25420000  1.0
  O  O101  1  0.14682000  0.99608000  0.74580000  1.0
