# generated using pymatgen
data_CdH98C86(N5Cl)2
_symmetry_space_group_name_H-M   'P 1'
_cell_length_a   8.83798000
_cell_length_b   13.71540000
_cell_length_c   19.16290000
_cell_angle_alpha   80.72360000
_cell_angle_beta   89.65910000
_cell_angle_gamma   80.35030000
_symmetry_Int_Tables_number   1
_chemical_formula_structural   CdH98C86(N5Cl)2
_chemical_formula_sum   'Cd1 H98 C86 N10 Cl2'
_cell_volume   2259.51412707
_cell_formula_units_Z   1
loop_
 _symmetry_equiv_pos_site_id
 _symmetry_equiv_pos_as_xyz
  1  'x, y, z'
loop_
 _atom_site_type_symbol
 _atom_site_label
 _atom_site_symmetry_multiplicity
 _atom_site_fract_x
 _atom_site_fract_y
 _atom_site_fract_z
 _atom_site_occupancy
  Cd  Cd0  1  0.00000000  0.00000000  0.00000000  1.0
  H  H1  1  0.76734000  0.13939000  0.09122000  1.0
  H  H2  1  0.23267000  0.86061000  0.90878000  1.0
  H  H3  1  0.68224000  0.32132000  0.10284000  1.0
  H  H4  1  0.31777000  0.67868000  0.89716000  1.0
  H  H5  1  0.79237000  0.45229000  0.02178000  1.0
  H  H6  1  0.20762000  0.54771000  0.97821000  1.0
  H  H7  1  0.02859000  0.21398000  0.91827000  1.0
  H  H8  1  0.97140000  0.78602000  0.08173000  1.0
  H  H9  1  0.80996000  0.53551000  0.90497000  1.0
  H  H10  1  0.19004000  0.46450000  0.09502000  1.0
  H  H11  1  0.21552000  0.31167000  0.92152000  1.0
  H  H12  1  0.78447000  0.68833000  0.07848000  1.0
  H  H13  1  0.00137000  0.72901000  0.79703000  1.0
  H  H14  1  0.99864000  0.27099000  0.20297000  1.0
  H  H15  1  0.76267000  0.80763000  0.84582000  1.0
  H  H16  1  0.23733000  0.19237000  0.15417000  1.0
  H  H17  1  0.88287000  0.73517000  0.91585000  1.0
  H  H18  1  0.11711000  0.26483000  0.08415000  1.0
  H  H19  1  0.72074000  0.69058000  0.88647000  1.0
  H  H20  1  0.27925000  0.30942000  0.11352000  1.0
  H  H21  1  0.88532000  0.64384000  0.70862000  1.0
  H  H22  1  0.11471000  0.35617000  0.29137000  1.0
  H  H23  1  0.75924000  0.75279000  0.72546000  1.0
  H  H24  1  0.24079000  0.24722000  0.27453000  1.0
  H  H25  1  0.72648000  0.63174000  0.76458000  1.0
  H  H26  1  0.27353000  0.36827000  0.23540000  1.0
  H  H27  1  0.41536000  0.44391000  0.78008000  1.0
  H  H28  1  0.58465000  0.55609000  0.21993000  1.0
  H  H29  1  0.47477000  0.55389000  0.86360000  1.0
  H  H30  1  0.52524000  0.44611000  0.13641000  1.0
  H  H31  1  0.62606000  0.45015000  0.86431000  1.0
  H  H32  1  0.37394000  0.54984000  0.13570000  1.0
  H  H33  1  0.49413000  0.45080000  0.93463000  1.0
  H  H34  1  0.50586000  0.54920000  0.06537000  1.0
  H  H35  1  0.38355000  0.26392000  0.82659000  1.0
  H  H36  1  0.61645000  0.73608000  0.17341000  1.0
  H  H37  1  0.46257000  0.27650000  0.90911000  1.0
  H  H38  1  0.53743000  0.72350000  0.09089000  1.0
  H  H39  1  0.57454000  0.28739000  0.83242000  1.0
  H  H40  1  0.42546000  0.71260000  0.16758000  1.0
  H  H41  1  0.13093000  0.49859000  0.70445000  1.0
  H  H42  1  0.86907000  0.50140000  0.29555000  1.0
  H  H43  1  0.28243000  0.51835000  0.64384000  1.0
  H  H44  1  0.71758000  0.48165000  0.35616000  1.0
  H  H45  1  0.10576000  0.59933000  0.63035000  1.0
  H  H46  1  0.89425000  0.40067000  0.36965000  1.0
  H  H47  1  0.38569000  0.75333000  0.77461000  1.0
  H  H48  1  0.61430000  0.24668000  0.22539000  1.0
  H  H49  1  0.49286000  0.89968000  0.70725000  1.0
  H  H50  1  0.50712000  0.10032000  0.29275000  1.0
  H  H51  1  0.47087000  0.92998000  0.57446000  1.0
  H  H52  1  0.52912000  0.07002000  0.42554000  1.0
  H  H53  1  0.24782000  0.76970000  0.40460000  1.0
  H  H54  1  0.75218000  0.23031000  0.59540000  1.0
  H  H55  1  0.14020000  0.75419000  0.48432000  1.0
  H  H56  1  0.85979000  0.24582000  0.51568000  1.0
  H  H57  1  0.31123000  0.67116000  0.47748000  1.0
  H  H58  1  0.68876000  0.32884000  0.52252000  1.0
  H  H59  1  0.61392000  0.88724000  0.23989000  1.0
  H  H60  1  0.38609000  0.11275000  0.76012000  1.0
  H  H61  1  0.16199000  0.05495000  0.25244000  1.0
  H  H62  1  0.83801000  0.94505000  0.74756000  1.0
  H  H63  1  0.64308000  0.79968000  0.43741000  1.0
  H  H64  1  0.35692000  0.20031000  0.56260000  1.0
  H  H65  1  0.76417000  0.65112000  0.38624000  1.0
  H  H66  1  0.23584000  0.34887000  0.61376000  1.0
  H  H67  1  0.68792000  0.70821000  0.30103000  1.0
  H  H68  1  0.31209000  0.29178000  0.69898000  1.0
  H  H69  1  0.56193000  0.67418000  0.36982000  1.0
  H  H70  1  0.43808000  0.32581000  0.63018000  1.0
  H  H71  1  0.90697000  0.79664000  0.39130000  1.0
  H  H72  1  0.09303000  0.20336000  0.60869000  1.0
  H  H73  1  0.80406000  0.92112000  0.38332000  1.0
  H  H74  1  0.19594000  0.07888000  0.61668000  1.0
  H  H75  1  0.83256000  0.86127000  0.30750000  1.0
  H  H76  1  0.16743000  0.13873000  0.69250000  1.0
  H  H77  1  0.10053000  0.95786000  0.43338000  1.0
  H  H78  1  0.89946000  0.04214000  0.56662000  1.0
  H  H79  1  0.89333000  0.09113000  0.38731000  1.0
  H  H80  1  0.10667000  0.90887000  0.61269000  1.0
  H  H81  1  0.95247000  0.02462000  0.31700000  1.0
  H  H82  1  0.04754000  0.97538000  0.68300000  1.0
  H  H83  1  0.00726000  0.14291000  0.31969000  1.0
  H  H84  1  0.99275000  0.85709000  0.68031000  1.0
  H  H85  1  0.28108000  0.05999000  0.47599000  1.0
  H  H86  1  0.71892000  0.94001000  0.52401000  1.0
  H  H87  1  0.08671000  0.12095000  0.47493000  1.0
  H  H88  1  0.91329000  0.87905000  0.52507000  1.0
  H  H89  1  0.21164000  0.16057000  0.40699000  1.0
  H  H90  1  0.78836000  0.83943000  0.59301000  1.0
  H  H91  1  0.59652000  0.05750000  0.15010000  1.0
  H  H92  1  0.40347000  0.94251000  0.84990000  1.0
  H  H93  1  0.54931000  0.12791000  0.02127000  1.0
  H  H94  1  0.45068000  0.87209000  0.97874000  1.0
  H  H95  1  0.30511000  0.10641000  0.96251000  1.0
  H  H96  1  0.69489000  0.89359000  0.03749000  1.0
  H  H97  1  0.15474000  0.96184000  0.14927000  1.0
  H  H98  1  0.84526000  0.03816000  0.85073000  1.0
  C  C99  1  0.80277000  0.20042000  0.05443000  1.0
  C  C100  1  0.19723000  0.79958000  0.94557000  1.0
  C  C101  1  0.75812000  0.30088000  0.06069000  1.0
  C  C102  1  0.24188000  0.69912000  0.93931000  1.0
  C  C103  1  0.81976000  0.37366000  0.01549000  1.0
  C  C104  1  0.18023000  0.62635000  0.98451000  1.0
  C  C105  1  0.92415000  0.34434000  0.96425000  1.0
  C  C106  1  0.07584000  0.65566000  0.03575000  1.0
  C  C107  1  0.95499000  0.24194000  0.95930000  1.0
  C  C108  1  0.04501000  0.75807000  0.04070000  1.0
  C  C109  1  0.00297000  0.41515000  0.91766000  1.0
  C  C110  1  0.99702000  0.58485000  0.08233000  1.0
  C  C111  1  0.92842000  0.51196000  0.89061000  1.0
  C  C112  1  0.07158000  0.48804000  0.10938000  1.0
  C  C113  1  0.00039000  0.57844000  0.84456000  1.0
  C  C114  1  0.99961000  0.42156000  0.15544000  1.0
  C  C115  1  0.15343000  0.54651000  0.82522000  1.0
  C  C116  1  0.84658000  0.45350000  0.17478000  1.0
  C  C117  1  0.23392000  0.44991000  0.85366000  1.0
  C  C118  1  0.76608000  0.55009000  0.14634000  1.0
  C  C119  1  0.15585000  0.38611000  0.89900000  1.0
  C  C120  1  0.84415000  0.61389000  0.10099000  1.0
  C  C121  1  0.91442000  0.68182000  0.81435000  1.0
  C  C122  1  0.08559000  0.31818000  0.18565000  1.0
  C  C123  1  0.81508000  0.73115000  0.86896000  1.0
  C  C124  1  0.18492000  0.26885000  0.13104000  1.0
  C  C125  1  0.81628000  0.67735000  0.74927000  1.0
  C  C126  1  0.18374000  0.32266000  0.25073000  1.0
  C  C127  1  0.40195000  0.41867000  0.83705000  1.0
  C  C128  1  0.59805000  0.58133000  0.16295000  1.0
  C  C129  1  0.50505000  0.47201000  0.87718000  1.0
  C  C130  1  0.49495000  0.52798000  0.12283000  1.0
  C  C131  1  0.45775000  0.30525000  0.85201000  1.0
  C  C132  1  0.54225000  0.69475000  0.14799000  1.0
  C  C133  1  0.24207000  0.62324000  0.71622000  1.0
  C  C134  1  0.75794000  0.37677000  0.28378000  1.0
  C  C135  1  0.18596000  0.55533000  0.67179000  1.0
  C  C136  1  0.81405000  0.44467000  0.32821000  1.0
  C  C137  1  0.31510000  0.70715000  0.67920000  1.0
  C  C138  1  0.68489000  0.29285000  0.32080000  1.0
  C  C139  1  0.38237000  0.76893000  0.71707000  1.0
  C  C140  1  0.61763000  0.23108000  0.28293000  1.0
  C  C141  1  0.44082000  0.84965000  0.67969000  1.0
  C  C142  1  0.55916000  0.15035000  0.32031000  1.0
  C  C143  1  0.42979000  0.86680000  0.60615000  1.0
  C  C144  1  0.57020000  0.13320000  0.39385000  1.0
  C  C145  1  0.36198000  0.80095000  0.57242000  1.0
  C  C146  1  0.63802000  0.19905000  0.42758000  1.0
  C  C147  1  0.34375000  0.81729000  0.49394000  1.0
  C  C148  1  0.65624000  0.18271000  0.50606000  1.0
  C  C149  1  0.25589000  0.74969000  0.46231000  1.0
  C  C150  1  0.74410000  0.25031000  0.53769000  1.0
  C  C151  1  0.39433000  0.91379000  0.38511000  1.0
  C  C152  1  0.60567000  0.08621000  0.61489000  1.0
  C  C153  1  0.52138000  0.88004000  0.34488000  1.0
  C  C154  1  0.47862000  0.11996000  0.65512000  1.0
  C  C155  1  0.51629000  0.91184000  0.27175000  1.0
  C  C156  1  0.48371000  0.08816000  0.72826000  1.0
  C  C157  1  0.38660000  0.97349000  0.23810000  1.0
  C  C158  1  0.61341000  0.02651000  0.76190000  1.0
  C  C159  1  0.26192000  0.00611000  0.27912000  1.0
  C  C160  1  0.73808000  0.99388000  0.72088000  1.0
  C  C161  1  0.26377000  0.97969000  0.35253000  1.0
  C  C162  1  0.73623000  0.02031000  0.64747000  1.0
  C  C163  1  0.65946000  0.80812000  0.37993000  1.0
  C  C164  1  0.34054000  0.19188000  0.62007000  1.0
  C  C165  1  0.66862000  0.70435000  0.35809000  1.0
  C  C166  1  0.33138000  0.29564000  0.64192000  1.0
  C  C167  1  0.80920000  0.84929000  0.36441000  1.0
  C  C168  1  0.19080000  0.15070000  0.63559000  1.0
  C  C169  1  0.13200000  0.02148000  0.39649000  1.0
  C  C170  1  0.86800000  0.97852000  0.60351000  1.0
  C  C171  1  0.98862000  0.07240000  0.35227000  1.0
  C  C172  1  0.01139000  0.92760000  0.64773000  1.0
  C  C173  1  0.18149000  0.09468000  0.44145000  1.0
  C  C174  1  0.81851000  0.90531000  0.55855000  1.0
  C  C175  1  0.37704000  0.00701000  0.16099000  1.0
  C  C176  1  0.62296000  0.99299000  0.83901000  1.0
  C  C177  1  0.49012000  0.05255000  0.12334000  1.0
  C  C178  1  0.50988000  0.94746000  0.87666000  1.0
  C  C179  1  0.46449000  0.09103000  0.05181000  1.0
  C  C180  1  0.53551000  0.90897000  0.94820000  1.0
  C  C181  1  0.32962000  0.08023000  0.01884000  1.0
  C  C182  1  0.67038000  0.91977000  0.98116000  1.0
  C  C183  1  0.24618000  0.99802000  0.12330000  1.0
  C  C184  1  0.75382000  0.00199000  0.87670000  1.0
  N  N185  1  0.89725000  0.17200000  0.00347000  1.0
  N  N186  1  0.10276000  0.82800000  0.99653000  1.0
  N  N187  1  0.22838000  0.61679000  0.78352000  1.0
  N  N188  1  0.77163000  0.38321000  0.21648000  1.0
  N  N189  1  0.30671000  0.72227000  0.60819000  1.0
  N  N190  1  0.69329000  0.27773000  0.39181000  1.0
  N  N191  1  0.40449000  0.88851000  0.45899000  1.0
  N  N192  1  0.59551000  0.11149000  0.54101000  1.0
  N  N193  1  0.22400000  0.03271000  0.05402000  1.0
  N  N194  1  0.77600000  0.96729000  0.94598000  1.0
  Cl  Cl195  1  0.11939000  0.05217000  0.87293000  1.0
  Cl  Cl196  1  0.88061000  0.94783000  0.12707000  1.0
