# generated using pymatgen
data_Zn8H59C72N7O31
_symmetry_space_group_name_H-M   'P 1'
_cell_length_a   18.09864280
_cell_length_b   18.14465387
_cell_length_c   18.20262096
_cell_angle_alpha   90.22043420
_cell_angle_beta   119.69560198
_cell_angle_gamma   119.74278338
_symmetry_Int_Tables_number   1
_chemical_formula_structural   Zn8H59C72N7O31
_chemical_formula_sum   'Zn8 H59 C72 N7 O31'
_cell_volume   4254.45041129
_cell_formula_units_Z   1
loop_
 _symmetry_equiv_pos_site_id
 _symmetry_equiv_pos_as_xyz
  1  'x, y, z'
loop_
 _atom_site_type_symbol
 _atom_site_label
 _atom_site_symmetry_multiplicity
 _atom_site_fract_x
 _atom_site_fract_y
 _atom_site_fract_z
 _atom_site_occupancy
  Zn  Zn0  1  0.40802000  0.45447000  0.54026000  1.0
  Zn  Zn1  1  0.58680000  0.45649000  0.54406000  1.0
  Zn  Zn2  1  0.58761000  0.63500000  0.54415000  1.0
  Zn  Zn3  1  0.41541000  0.45633000  0.36905000  1.0
  Zn  Zn4  1  0.59233000  0.04948000  0.95751000  1.0
  Zn  Zn5  1  0.40966000  0.86966000  0.95649000  1.0
  Zn  Zn6  1  0.41078000  0.04452000  0.95512000  1.0
  Zn  Zn7  1  0.58873000  0.04312000  0.12851000  1.0
  H  H8  1  0.93598000  0.32928000  0.15698000  1.0
  H  H9  1  0.34747000  0.68875000  0.09008000  1.0
  H  H10  1  0.42867000  0.73952000  0.33904000  1.0
  H  H11  1  0.38673000  0.78862000  0.21523000  1.0
  H  H12  1  0.67046000  0.78074000  0.37542000  1.0
  H  H13  1  0.60693000  0.69722000  0.27393000  1.0
  H  H14  1  0.63171000  0.81137000  0.21178000  1.0
  H  H15  1  0.56411000  0.81864000  0.39512000  1.0
  H  H16  1  0.93104000  0.10754000  0.14798000  1.0
  H  H17  1  0.32896000  0.21472000  0.20945000  1.0
  H  H18  1  0.37571000  0.16357000  0.28636000  1.0
  H  H19  1  0.36153000  0.58283000  0.68891000  1.0
  H  H20  1  0.34414000  0.15604000  0.10745000  1.0
  H  H21  1  0.46208000  0.35259000  0.19700000  1.0
  H  H22  1  0.48681000  0.27816000  0.11563000  1.0
  H  H23  1  0.65703000  0.34044000  0.39754000  1.0
  H  H24  1  0.56900000  0.24978000  0.41104000  1.0
  H  H25  1  0.54219000  0.14356000  0.30937000  1.0
  H  H26  1  0.06533000  0.16912000  0.33919000  1.0
  H  H27  1  0.64990000  0.23365000  0.31693000  1.0
  H  H28  1  0.59678000  0.41131000  0.28293000  1.0
  H  H29  1  0.91553000  0.61792000  0.63014000  1.0
  H  H30  1  0.35564000  0.68492000  0.75927000  1.0
  H  H31  1  0.90376000  0.58297000  0.71612000  1.0
  H  H32  1  0.08105000  0.67708000  0.82360000  1.0
  H  H33  1  0.90614000  0.75015000  0.59371000  1.0
  H  H34  1  0.08559000  0.82450000  0.67948000  1.0
  H  H35  1  0.90243000  0.77687000  0.79286000  1.0
  H  H36  1  0.94010000  0.21617000  0.34640000  1.0
  H  H37  1  0.08982000  0.78653000  0.91502000  1.0
  H  H38  1  0.08187000  0.87365000  0.87726000  1.0
  H  H39  1  0.91371000  0.81935000  0.66906000  1.0
  H  H40  1  0.09518000  0.90437000  0.74562000  1.0
  H  H41  1  0.64094000  0.81543000  0.74107000  1.0
  H  H42  1  0.50594000  0.22260000  0.61816000  1.0
  H  H43  1  0.38191000  0.17627000  0.59643000  1.0
  H  H44  1  0.42025000  0.08813000  0.68280000  1.0
  H  H45  1  0.55506000  0.16299000  0.73418000  1.0
  H  H46  1  0.07000000  0.39094000  0.34809000  1.0
  H  H47  1  0.66999000  0.28559000  0.88515000  1.0
  H  H48  1  0.46630000  0.35335000  0.78007000  1.0
  H  H49  1  0.35737000  0.27444000  0.67371000  1.0
  H  H50  1  0.33842000  0.15049000  0.72325000  1.0
  H  H51  1  0.41323000  0.22914000  0.82996000  1.0
  H  H52  1  0.48139000  0.61403000  0.78479000  1.0
  H  H53  1  0.64612000  0.41868000  0.82172000  1.0
  H  H54  1  0.61187000  0.32998000  0.90673000  1.0
  H  H55  1  0.35808000  0.69160000  0.60170000  1.0
  H  H56  1  0.47211000  0.77539000  0.61062000  1.0
  H  H57  1  0.51927000  0.88343000  0.72508000  1.0
  H  H58  1  0.29051000  0.74303000  0.65778000  1.0
  H  H59  1  0.71979000  0.88525000  0.99678000  1.0
  H  H60  1  0.47864000  0.73059000  0.93906000  1.0
  H  H61  1  0.70775000  0.96909000  0.29478000  1.0
  H  H62  1  0.65630000  0.30434000  0.17165000  1.0
  H  H63  1  0.33675000  0.61407000  0.19338000  1.0
  H  H64  1  0.06075000  0.28179000  0.14959000  1.0
  H  H65  1  0.40879000  0.58314000  0.18060000  1.0
  H  H66  1  0.44811000  0.68409000  0.10441000  1.0
  C  C67  1  0.49480000  0.35281000  0.36052000  1.0
  C  C68  1  0.60941000  0.77122000  0.77379000  1.0
  C  C69  1  0.49359000  0.69619000  0.69940000  1.0
  C  C70  1  0.48912000  0.63841000  0.63323000  1.0
  C  C71  1  0.50539000  0.80161000  0.81025000  1.0
  C  C72  1  0.43480000  0.70082000  0.79711000  1.0
  C  C73  1  0.61896000  0.83116000  0.84609000  1.0
  C  C74  1  0.41031000  0.64125000  0.20044000  1.0
  C  C75  1  0.42210000  0.70041000  0.14117000  1.0
  C  C76  1  0.49205000  0.77005000  0.33003000  1.0
  C  C77  1  0.60374000  0.74677000  0.30480000  1.0
  C  C78  1  0.96374000  0.17124000  0.19335000  1.0
  C  C79  1  0.50138000  0.69803000  0.29853000  1.0
  C  C80  1  0.50149000  0.80112000  0.19795000  1.0
  C  C81  1  0.47069000  0.81875000  0.25933000  1.0
  C  C82  1  0.50281000  0.36522000  0.64360000  1.0
  C  C83  1  0.61100000  0.81848000  0.25799000  1.0
  C  C84  1  0.39037000  0.20356000  0.24400000  1.0
  C  C85  1  0.38897000  0.15223000  0.17395000  1.0
  C  C86  1  0.52365000  0.34403000  0.24187000  1.0
  C  C87  1  0.57999000  0.27626000  0.36059000  1.0
  C  C88  1  0.49764000  0.29420000  0.30321000  1.0
  C  C89  1  0.03520000  0.20398000  0.29824000  1.0
  C  C90  1  0.50237000  0.19761000  0.20132000  1.0
  C  C91  1  0.53679000  0.29145000  0.18831000  1.0
  C  C92  1  0.57283000  0.20965000  0.30009000  1.0
  C  C93  1  0.93860000  0.64243000  0.69813000  1.0
  C  C94  1  0.50582000  0.64105000  0.35994000  1.0
  C  C95  1  0.05923000  0.70076000  0.76572000  1.0
  C  C96  1  0.94003000  0.77746000  0.66492000  1.0
  C  C97  1  0.93593000  0.73942000  0.79555000  1.0
  C  C98  1  0.89706000  0.69849000  0.69783000  1.0
  C  C99  1  0.10019000  0.80055000  0.80073000  1.0
  C  C100  1  0.96792000  0.23133000  0.30344000  1.0
  C  C101  1  0.05975000  0.83235000  0.72053000  1.0
  C  C102  1  0.05709000  0.80435000  0.85483000  1.0
  C  C103  1  0.46524000  0.21277000  0.65000000  1.0
  C  C104  1  0.48532000  0.15962000  0.71497000  1.0
  C  C105  1  0.61430000  0.34908000  0.78898000  1.0
  C  C106  1  0.77839000  0.64125000  0.63828000  1.0
  C  C107  1  0.43124000  0.29021000  0.73156000  1.0
  C  C108  1  0.50240000  0.30516000  0.70199000  1.0
  C  C109  1  0.50033000  0.20020000  0.80009000  1.0
  C  C110  1  0.60586000  0.29350000  0.85350000  1.0
  C  C111  1  0.03754000  0.32724000  0.30297000  1.0
  C  C112  1  0.41396000  0.21387000  0.77210000  1.0
  C  C113  1  0.50040000  0.85875000  0.13683000  1.0
  C  C114  1  0.50155000  0.14023000  0.85835000  1.0
  C  C115  1  0.50538000  0.86225000  0.86943000  1.0
  C  C116  1  0.50243000  0.14152000  0.13871000  1.0
  C  C117  1  0.21865000  0.86111000  0.86400000  1.0
  C  C118  1  0.22037000  0.35806000  0.35576000  1.0
  C  C119  1  0.78118000  0.14127000  0.14152000  1.0
  C  C120  1  0.03344000  0.26711000  0.19292000  1.0
  C  C121  1  0.96614000  0.29451000  0.19806000  1.0
  C  C122  1  0.10568000  0.30010000  0.29742000  1.0
  C  C123  1  0.89570000  0.19868000  0.19900000  1.0
  C  C124  1  0.36268000  0.81064000  0.68134000  1.0
  C  C125  1  0.67260000  0.73623000  0.81208000  1.0
  C  C126  1  0.68779000  0.92509000  0.85675000  1.0
  C  C127  1  0.66790000  0.82151000  0.93995000  1.0
  C  C128  1  0.44509000  0.67614000  0.88025000  1.0
  C  C129  1  0.69976000  0.91424000  0.32413000  1.0
  C  C130  1  0.52036000  0.91259000  0.30547000  1.0
  C  C131  1  0.33919000  0.05664000  0.16322000  1.0
  C  C132  1  0.64608000  0.34119000  0.21125000  1.0
  C  C133  1  0.44196000  0.74335000  0.64945000  1.0
  C  C134  1  0.10810000  0.69193000  0.72531000  1.0
  C  C135  1  0.89797000  0.66844000  0.83156000  1.0
  C  C136  1  0.68665000  0.35405000  0.77105000  1.0
  C  C137  1  0.46131000  0.81493000  0.71630000  1.0
  C  C138  1  0.43954000  0.64089000  0.74167000  1.0
  N  N139  1  0.72428000  0.70917000  0.83714000  1.0
  N  N140  1  0.75038000  0.99721000  0.86612000  1.0
  N  N141  1  0.55740000  0.98502000  0.34676000  1.0
  N  N142  1  0.30014000  0.98006000  0.15341000  1.0
  N  N143  1  0.14589000  0.68458000  0.69182000  1.0
  N  N144  1  0.86726000  0.61049000  0.85887000  1.0
  N  N145  1  0.74576000  0.35632000  0.75988000  1.0
  O  O146  1  0.50057000  0.50318000  0.50056000  1.0
  O  O147  1  0.43330000  0.11580000  0.05506000  1.0
  O  O148  1  0.26390000  0.82269000  0.90019000  1.0
  O  O149  1  0.42845000  0.37134000  0.31857000  1.0
  O  O150  1  0.73518000  0.10149000  0.17876000  1.0
  O  O151  1  0.26224000  0.94501000  0.87685000  1.0
  O  O152  1  0.73735000  0.13510000  0.05887000  1.0
  O  O153  1  0.58425000  0.94318000  0.91208000  1.0
  O  O154  1  0.57186000  0.12650000  0.17497000  1.0
  O  O155  1  0.45025000  0.81904000  0.05331000  1.0
  O  O156  1  0.44664000  0.12337000  0.88856000  1.0
  O  O157  1  0.44459000  0.39218000  0.62507000  1.0
  O  O158  1  0.42293000  0.55408000  0.60536000  1.0
  O  O159  1  0.56119000  0.38279000  0.61714000  1.0
  O  O160  1  0.56314000  0.68296000  0.44397000  1.0
  O  O161  1  0.73255000  0.55732000  0.60591000  1.0
  O  O162  1  0.26733000  0.39210000  0.31819000  1.0
  O  O163  1  0.73590000  0.68310000  0.62621000  1.0
  O  O164  1  0.26258000  0.37016000  0.43970000  1.0
  O  O165  1  0.36132000  0.87703000  0.67783000  1.0
  O  O166  1  0.64884000  0.74993000  0.95096000  1.0
  O  O167  1  0.41282000  0.59953000  0.88140000  1.0
  O  O168  1  0.45311000  0.55663000  0.32261000  1.0
  O  O169  1  0.76155000  0.93109000  0.40351000  1.0
  O  O170  1  0.71900000  0.41558000  0.26665000  1.0
  O  O171  1  0.55930000  0.37984000  0.44491000  1.0
  O  O172  1  0.55191000  0.68138000  0.61154000  1.0
  O  O173  1  0.49912000  0.00056000  0.99733000  1.0
  O  O174  1  0.55114000  0.94261000  0.17457000  1.0
  O  O175  1  0.55834000  0.11218000  0.87326000  1.0
  O  O176  1  0.42305000  0.82584000  0.86689000  1.0
