# generated using pymatgen
data_CdH5C7IN4
_symmetry_space_group_name_H-M   'P 1'
_cell_length_a   7.76120000
_cell_length_b   9.88727000
_cell_length_c   11.85750000
_cell_angle_alpha   90.00010000
_cell_angle_beta   90.46670000
_cell_angle_gamma   89.99990000
_symmetry_Int_Tables_number   1
_chemical_formula_structural   CdH5C7IN4
_chemical_formula_sum   'Cd4 H20 C28 I4 N16'
_cell_volume   909.87973984
_cell_formula_units_Z   4
loop_
 _symmetry_equiv_pos_site_id
 _symmetry_equiv_pos_as_xyz
  1  'x, y, z'
loop_
 _atom_site_type_symbol
 _atom_site_label
 _atom_site_symmetry_multiplicity
 _atom_site_fract_x
 _atom_site_fract_y
 _atom_site_fract_z
 _atom_site_occupancy
  Cd  Cd0  1  0.82478000  0.67042000  0.68604000  1.0
  Cd  Cd1  1  0.67522000  0.17042000  0.31396000  1.0
  Cd  Cd2  1  0.17522000  0.32958000  0.31396000  1.0
  Cd  Cd3  1  0.32478000  0.82958000  0.68604000  1.0
  H  H4  1  0.65313000  0.51516000  0.41614000  1.0
  H  H5  1  0.84686000  0.01516000  0.58386000  1.0
  H  H6  1  0.34687000  0.48484000  0.58386000  1.0
  H  H7  1  0.15313000  0.98484000  0.41614000  1.0
  H  H8  1  0.05669000  0.16007000  0.69761000  1.0
  H  H9  1  0.44331000  0.66007000  0.30239000  1.0
  H  H10  1  0.94331000  0.83993000  0.30240000  1.0
  H  H11  1  0.55669000  0.33993000  0.69761000  1.0
  H  H12  1  0.21104000  0.16390000  0.88399000  1.0
  H  H13  1  0.28895000  0.66390000  0.11601000  1.0
  H  H14  1  0.78896000  0.83610000  0.11601000  1.0
  H  H15  1  0.71105000  0.33610000  0.88399000  1.0
  H  H16  1  0.22665000  0.38305000  0.99146000  1.0
  H  H17  1  0.27335000  0.88305000  0.00854000  1.0
  H  H18  1  0.77336000  0.61695000  0.00854000  1.0
  H  H19  1  0.72665000  0.11695000  0.99146000  1.0
  H  H20  1  0.08271000  0.58830000  0.90757000  1.0
  H  H21  1  0.41729000  0.08830000  0.09243000  1.0
  H  H22  1  0.91729000  0.41170000  0.09243000  1.0
  H  H23  1  0.58271000  0.91170000  0.90757000  1.0
  C  C24  1  0.73246000  0.44980000  0.46848000  1.0
  C  C25  1  0.76753000  0.94979000  0.53151000  1.0
  C  C26  1  0.26754000  0.55021000  0.53152000  1.0
  C  C27  1  0.23246000  0.05021000  0.46848000  1.0
  C  C28  1  0.89199000  0.37480000  0.60101000  1.0
  C  C29  1  0.60801000  0.87480000  0.39899000  1.0
  C  C30  1  0.10801000  0.62520000  0.39899000  1.0
  C  C31  1  0.39199000  0.12520000  0.60101000  1.0
  C  C32  1  0.98888000  0.37103000  0.70663000  1.0
  C  C33  1  0.51112000  0.87103000  0.29337000  1.0
  C  C34  1  0.01112000  0.62897000  0.29337000  1.0
  C  C35  1  0.48888000  0.12897000  0.70663000  1.0
  C  C36  1  0.06646000  0.25254000  0.74694000  1.0
  C  C37  1  0.43354000  0.75254000  0.25306000  1.0
  C  C38  1  0.93354000  0.74746000  0.25306000  1.0
  C  C39  1  0.56646000  0.24746000  0.74694000  1.0
  C  C40  1  0.15187000  0.25564000  0.85040000  1.0
  C  C41  1  0.34812000  0.75564000  0.14960000  1.0
  C  C42  1  0.84813000  0.74436000  0.14960000  1.0
  C  C43  1  0.65188000  0.24435000  0.85040000  1.0
  C  C44  1  0.15941000  0.37679000  0.91064000  1.0
  C  C45  1  0.34058000  0.87679000  0.08936000  1.0
  C  C46  1  0.84059000  0.62321000  0.08937000  1.0
  C  C47  1  0.65941000  0.12321000  0.91064000  1.0
  C  C48  1  0.07980000  0.49062000  0.86477000  1.0
  C  C49  1  0.42020000  0.99062000  0.13523000  1.0
  C  C50  1  0.92020000  0.50938000  0.13523000  1.0
  C  C51  1  0.57981000  0.00938000  0.86477000  1.0
  I  I52  1  0.51754000  0.63191000  0.82048000  1.0
  I  I53  1  0.98246000  0.13191000  0.17952000  1.0
  I  I54  1  0.48246000  0.36808000  0.17952000  1.0
  I  I55  1  0.01753000  0.86809000  0.82048000  1.0
  N  N56  1  0.80793000  0.48855000  0.56560000  1.0
  N  N57  1  0.69207000  0.98855000  0.43440000  1.0
  N  N58  1  0.19208000  0.51145000  0.43440000  1.0
  N  N59  1  0.30793000  0.01145000  0.56560000  1.0
  N  N60  1  0.76854000  0.31973000  0.44566000  1.0
  N  N61  1  0.73145000  0.81973000  0.55434000  1.0
  N  N62  1  0.23146000  0.68027000  0.55434000  1.0
  N  N63  1  0.26854000  0.18027000  0.44566000  1.0
  N  N64  1  0.87083000  0.27042000  0.53061000  1.0
  N  N65  1  0.62917000  0.77042000  0.46938000  1.0
  N  N66  1  0.12917000  0.72958000  0.46939000  1.0
  N  N67  1  0.37083000  0.22958000  0.53062000  1.0
  N  N68  1  0.99552000  0.48818000  0.76566000  1.0
  N  N69  1  0.50448000  0.98817000  0.23433000  1.0
  N  N70  1  0.00448000  0.51182000  0.23434000  1.0
  N  N71  1  0.49552000  0.01182000  0.76566000  1.0
