# generated using pymatgen
data_DyH21(C7O3)4
_symmetry_space_group_name_H-M   'P 1'
_cell_length_a   9.61393000
_cell_length_b   11.42780000
_cell_length_c   12.45930000
_cell_angle_alpha   75.27450000
_cell_angle_beta   73.89230000
_cell_angle_gamma   73.35610000
_symmetry_Int_Tables_number   1
_chemical_formula_structural   DyH21(C7O3)4
_chemical_formula_sum   'Dy2 H42 C56 O24'
_cell_volume   1237.10967436
_cell_formula_units_Z   2
loop_
 _symmetry_equiv_pos_site_id
 _symmetry_equiv_pos_as_xyz
  1  'x, y, z'
loop_
 _atom_site_type_symbol
 _atom_site_label
 _atom_site_symmetry_multiplicity
 _atom_site_fract_x
 _atom_site_fract_y
 _atom_site_fract_z
 _atom_site_occupancy
  Dy  Dy0  1  0.78230000  0.95517000  0.05364000  1.0
  Dy  Dy1  1  0.21770000  0.04483000  0.94636000  1.0
  H  H2  1  0.59484000  0.76660000  0.43691000  1.0
  H  H3  1  0.40516000  0.23340000  0.56309000  1.0
  H  H4  1  0.43787000  0.76367000  0.63487000  1.0
  H  H5  1  0.56213000  0.23633000  0.36513000  1.0
  H  H6  1  0.20513000  0.92839000  0.66984000  1.0
  H  H7  1  0.79487000  0.07161000  0.33016000  1.0
  H  H8  1  0.12465000  0.08870000  0.50936000  1.0
  H  H9  1  0.87535000  0.91130000  0.49064000  1.0
  H  H10  1  0.30004000  0.27132000  0.39342000  1.0
  H  H11  1  0.69996000  0.72868000  0.60658000  1.0
  H  H12  1  0.13543000  0.48623000  0.39008000  1.0
  H  H13  1  0.86458000  0.51377000  0.60992000  1.0
  H  H14  1  0.86142000  0.39633000  0.21665000  1.0
  H  H15  1  0.13858000  0.60367000  0.78335000  1.0
  H  H16  1  0.03121000  0.18378000  0.21437000  1.0
  H  H17  1  0.96879000  0.81621000  0.78563000  1.0
  H  H18  1  0.48543000  0.51139000  0.66904000  1.0
  H  H19  1  0.51457000  0.48861000  0.33096000  1.0
  H  H20  1  0.65487000  0.48022000  0.48308000  1.0
  H  H21  1  0.34513000  0.51978000  0.51691000  1.0
  H  H22  1  0.86198000  0.28992000  0.47022000  1.0
  H  H23  1  0.13802000  0.71008000  0.52978000  1.0
  H  H24  1  0.89235000  0.13009000  0.64541000  1.0
  H  H25  1  0.10765000  0.86991000  0.35459000  1.0
  H  H26  1  0.24431000  0.35514000  0.99005000  1.0
  H  H27  1  0.75568000  0.64486000  0.00995000  1.0
  H  H28  1  0.05750000  0.54483000  0.04883000  1.0
  H  H29  1  0.94250000  0.45517000  0.95118000  1.0
  H  H30  1  0.37207000  0.76919000  0.86726000  1.0
  H  H31  1  0.62793000  0.23080000  0.13275000  1.0
  H  H32  1  0.55899000  0.58092000  0.81141000  1.0
  H  H33  1  0.44101000  0.41908000  0.18859000  1.0
  H  H34  1  0.64749000  0.88972000  0.89278000  1.0
  H  H35  1  0.35251000  0.11028000  0.10722000  1.0
  H  H36  1  0.55119000  0.85019000  0.01312000  1.0
  H  H37  1  0.44881000  0.14981000  0.98688000  1.0
  H  H38  1  0.89793000  0.81940000  0.25902000  1.0
  H  H39  1  0.10207000  0.18060000  0.74098000  1.0
  H  H40  1  0.98717000  0.92674000  0.19806000  1.0
  H  H41  1  0.01283000  0.07326000  0.80194000  1.0
  H  H42  1  0.70961000  0.68946000  0.26319000  1.0
  H  H43  1  0.29039000  0.31054000  0.73681000  1.0
  C  C44  1  0.55317000  0.93179000  0.24924000  1.0
  C  C45  1  0.44683000  0.06821000  0.75076000  1.0
  C  C46  1  0.45021000  0.92890000  0.36287000  1.0
  C  C47  1  0.54979000  0.07110000  0.63713000  1.0
  C  C48  1  0.49097000  0.83623000  0.45422000  1.0
  C  C49  1  0.50903000  0.16377000  0.54578000  1.0
  C  C50  1  0.40413000  0.83501000  0.56415000  1.0
  C  C51  1  0.59587000  0.16499000  0.43585000  1.0
  C  C52  1  0.27293000  0.92658000  0.58396000  1.0
  C  C53  1  0.72707000  0.07342000  0.41604000  1.0
  C  C54  1  0.22807000  0.01819000  0.49428000  1.0
  C  C55  1  0.77193000  0.98181000  0.50572000  1.0
  C  C56  1  0.31629000  0.01974000  0.38420000  1.0
  C  C57  1  0.68371000  0.98026000  0.61580000  1.0
  C  C58  1  0.17360000  0.21709000  0.30349000  1.0
  C  C59  1  0.82640000  0.78291000  0.69651000  1.0
  C  C60  1  0.20433000  0.30022000  0.35433000  1.0
  C  C61  1  0.79567000  0.69978000  0.64567000  1.0
  C  C62  1  0.11234000  0.41905000  0.35299000  1.0
  C  C63  1  0.88766000  0.58095000  0.64701000  1.0
  C  C64  1  0.98834000  0.45441000  0.30350000  1.0
  C  C65  1  0.01166000  0.54559000  0.69650000  1.0
  C  C66  1  0.95775000  0.36907000  0.25474000  1.0
  C  C67  1  0.04225000  0.63093000  0.74526000  1.0
  C  C68  1  0.05084000  0.25078000  0.25363000  1.0
  C  C69  1  0.94916000  0.74922000  0.74637000  1.0
  C  C70  1  0.89343000  0.58235000  0.30207000  1.0
  C  C71  1  0.10658000  0.41765000  0.69792000  1.0
  C  C72  1  0.73121000  0.12852000  0.85434000  1.0
  C  C73  1  0.26879000  0.87148000  0.14566000  1.0
  C  C74  1  0.71088000  0.23053000  0.75560000  1.0
  C  C75  1  0.28912000  0.76947000  0.24440000  1.0
  C  C76  1  0.59654000  0.34051000  0.76242000  1.0
  C  C77  1  0.40346000  0.65949000  0.23758000  1.0
  C  C78  1  0.57724000  0.42953000  0.66381000  1.0
  C  C79  1  0.42276000  0.57047000  0.33619000  1.0
  C  C80  1  0.67247000  0.41093000  0.55949000  1.0
  C  C81  1  0.32753000  0.58907000  0.44051000  1.0
  C  C82  1  0.78824000  0.30433000  0.55181000  1.0
  C  C83  1  0.21176000  0.69567000  0.44819000  1.0
  C  C84  1  0.80576000  0.21560000  0.64933000  1.0
  C  C85  1  0.19424000  0.78440000  0.35067000  1.0
  C  C86  1  0.40807000  0.45943000  0.89367000  1.0
  C  C87  1  0.59193000  0.54057000  0.10633000  1.0
  C  C88  1  0.26990000  0.44653000  0.96431000  1.0
  C  C89  1  0.73009000  0.55347000  0.03569000  1.0
  C  C90  1  0.08200000  0.78009000  0.98387000  1.0
  C  C91  1  0.91800000  0.21991000  0.01613000  1.0
  C  C92  1  0.20115000  0.66899000  0.95912000  1.0
  C  C93  1  0.79885000  0.33101000  0.04088000  1.0
  C  C94  1  0.16740000  0.55149000  0.99663000  1.0
  C  C95  1  0.83259000  0.44851000  0.00337000  1.0
  C  C96  1  0.34329000  0.67901000  0.89352000  1.0
  C  C97  1  0.65671000  0.32099000  0.10648000  1.0
  C  C98  1  0.44774000  0.57414000  0.86096000  1.0
  C  C99  1  0.55226000  0.42586000  0.13904000  1.0
  O  O100  1  0.65336000  0.86145000  0.97278000  1.0
  O  O101  1  0.34664000  0.13856000  0.02722000  1.0
  O  O102  1  0.88806000  0.90608000  0.21482000  1.0
  O  O103  1  0.11194000  0.09392000  0.78518000  1.0
  O  O104  1  0.56190000  0.03550000  0.18184000  1.0
  O  O105  1  0.43810000  0.96450000  0.81816000  1.0
  O  O106  1  0.63886000  0.83112000  0.21842000  1.0
  O  O107  1  0.36114000  0.16888000  0.78158000  1.0
  O  O108  1  0.84872000  0.03855000  0.84744000  1.0
  O  O109  1  0.15128000  0.96145000  0.15256000  1.0
  O  O110  1  0.63436000  0.12618000  0.94820000  1.0
  O  O111  1  0.36564000  0.87382000  0.05180000  1.0
  O  O112  1  0.11105000  0.88801000  0.95674000  1.0
  O  O113  1  0.88895000  0.11199000  0.04326000  1.0
  O  O114  1  0.76405000  0.59801000  0.27422000  1.0
  O  O115  1  0.23595000  0.40199000  0.72578000  1.0
  O  O116  1  0.93170000  0.66626000  0.32522000  1.0
  O  O117  1  0.06830000  0.33374000  0.67478000  1.0
  O  O118  1  0.50336000  0.35036000  0.86648000  1.0
  O  O119  1  0.49664000  0.64964000  0.13352000  1.0
  O  O120  1  0.26926000  0.10226000  0.29183000  1.0
  O  O121  1  0.73074000  0.89773000  0.70817000  1.0
  O  O122  1  0.94956000  0.76674000  0.02839000  1.0
  O  O123  1  0.05044000  0.23326000  0.97161000  1.0
