# generated using pymatgen
data_NiH14C14(N4O)2
_symmetry_space_group_name_H-M   'P 1'
_cell_length_a   7.87097000
_cell_length_b   8.24766000
_cell_length_c   11.92790000
_cell_angle_alpha   89.99820000
_cell_angle_beta   89.36890000
_cell_angle_gamma   89.99960000
_symmetry_Int_Tables_number   1
_chemical_formula_structural   NiH14C14(N4O)2
_chemical_formula_sum   'Ni2 H28 C28 N16 O4'
_cell_volume   774.27751891
_cell_formula_units_Z   2
loop_
 _symmetry_equiv_pos_site_id
 _symmetry_equiv_pos_as_xyz
  1  'x, y, z'
loop_
 _atom_site_type_symbol
 _atom_site_label
 _atom_site_symmetry_multiplicity
 _atom_site_fract_x
 _atom_site_fract_y
 _atom_site_fract_z
 _atom_site_occupancy
  Ni  Ni0  1  0.99999000  0.50000000  0.00000000  1.0
  Ni  Ni1  1  0.50000000  0.00000000  0.00000000  1.0
  H  H2  1  0.00903000  0.95747000  0.82158000  1.0
  H  H3  1  0.49096000  0.45747000  0.17842000  1.0
  H  H4  1  0.99095000  0.04253000  0.17843000  1.0
  H  H5  1  0.50904000  0.54254000  0.82157000  1.0
  H  H6  1  0.08924000  0.54064000  0.76064000  1.0
  H  H7  1  0.41077000  0.04063000  0.23937000  1.0
  H  H8  1  0.91076000  0.45935000  0.23935000  1.0
  H  H9  1  0.58923000  0.95937000  0.76064000  1.0
  H  H10  1  0.12563000  0.77121000  0.55274000  1.0
  H  H11  1  0.37436000  0.27121000  0.44727000  1.0
  H  H12  1  0.87434000  0.22877000  0.44727000  1.0
  H  H13  1  0.62566000  0.72879000  0.55272000  1.0
  H  H14  1  0.95882000  0.82676000  0.65023000  1.0
  H  H15  1  0.54118000  0.32674000  0.34977000  1.0
  H  H16  1  0.04116000  0.17323000  0.34978000  1.0
  H  H17  1  0.45884000  0.67325000  0.65022000  1.0
  H  H18  1  0.16825000  0.79718000  0.69861000  1.0
  H  H19  1  0.33173000  0.29719000  0.30141000  1.0
  H  H20  1  0.83174000  0.20280000  0.30140000  1.0
  H  H21  1  0.66828000  0.70282000  0.69859000  1.0
  H  H22  1  0.94417000  0.15973000  0.96862000  1.0
  H  H23  1  0.55581000  0.65973000  0.03137000  1.0
  H  H24  1  0.05582000  0.84028000  0.03137000  1.0
  H  H25  1  0.44419000  0.34029000  0.96863000  1.0
  H  H26  1  0.15727000  0.35248000  0.60321000  1.0
  H  H27  1  0.34276000  0.85247000  0.39680000  1.0
  H  H28  1  0.84274000  0.64751000  0.39679000  1.0
  H  H29  1  0.65725000  0.14752000  0.60320000  1.0
  C  C30  1  0.02817000  0.08547000  0.80393000  1.0
  C  C31  1  0.47184000  0.58545000  0.19607000  1.0
  C  C32  1  0.97183000  0.91453000  0.19608000  1.0
  C  C33  1  0.52816000  0.41456000  0.80392000  1.0
  C  C34  1  0.13799000  0.01710000  0.60974000  1.0
  C  C35  1  0.36203000  0.51710000  0.39027000  1.0
  C  C36  1  0.86201000  0.98290000  0.39027000  1.0
  C  C37  1  0.63798000  0.48290000  0.60973000  1.0
  C  C38  1  0.07534000  0.41031000  0.77085000  1.0
  C  C39  1  0.42467000  0.91031000  0.22914000  1.0
  C  C40  1  0.92466000  0.58968000  0.22914000  1.0
  C  C41  1  0.57532000  0.08969000  0.77085000  1.0
  C  C42  1  0.09066000  0.13697000  0.69993000  1.0
  C  C43  1  0.40935000  0.63698000  0.30008000  1.0
  C  C44  1  0.90933000  0.86302000  0.30008000  1.0
  C  C45  1  0.59066000  0.36302000  0.69991000  1.0
  C  C46  1  0.09333000  0.84230000  0.62742000  1.0
  C  C47  1  0.40666000  0.34230000  0.37259000  1.0
  C  C48  1  0.90665000  0.15769000  0.37259000  1.0
  C  C49  1  0.59335000  0.65770000  0.62740000  1.0
  C  C50  1  0.99397000  0.19833000  0.88771000  1.0
  C  C51  1  0.50602000  0.69833000  0.11230000  1.0
  C  C52  1  0.00602000  0.80167000  0.11229000  1.0
  C  C53  1  0.49398000  0.30168000  0.88770000  1.0
  C  C54  1  0.11161000  0.30444000  0.68332000  1.0
  C  C55  1  0.38841000  0.80445000  0.31669000  1.0
  C  C56  1  0.88837000  0.69555000  0.31668000  1.0
  C  C57  1  0.61161000  0.19556000  0.68331000  1.0
  N  N58  1  0.73238000  0.31825000  0.08915000  1.0
  N  N59  1  0.76759000  0.81825000  0.91084000  1.0
  N  N60  1  0.26762000  0.68176000  0.91084000  1.0
  N  N61  1  0.23240000  0.18177000  0.08917000  1.0
  N  N62  1  0.02037000  0.35833000  0.87284000  1.0
  N  N63  1  0.47963000  0.85831000  0.12715000  1.0
  N  N64  1  0.97963000  0.64167000  0.12715000  1.0
  N  N65  1  0.52037000  0.14170000  0.87285000  1.0
  N  N66  1  0.77717000  0.42425000  0.02637000  1.0
  N  N67  1  0.72285000  0.92425000  0.97364000  1.0
  N  N68  1  0.22283000  0.57575000  0.97363000  1.0
  N  N69  1  0.27715000  0.07576000  0.02636000  1.0
  N  N70  1  0.67091000  0.21718000  0.14594000  1.0
  N  N71  1  0.82909000  0.71718000  0.85406000  1.0
  N  N72  1  0.32909000  0.78283000  0.85406000  1.0
  N  N73  1  0.17090000  0.28282000  0.14594000  1.0
  O  O74  1  0.21601000  0.06382000  0.52540000  1.0
  O  O75  1  0.28402000  0.56383000  0.47460000  1.0
  O  O76  1  0.78398000  0.93615000  0.47460000  1.0
  O  O77  1  0.71601000  0.43616000  0.52540000  1.0
