# generated using pymatgen
data_ZnH20C19(NO)4
_symmetry_space_group_name_H-M   'P 1'
_cell_length_a   9.14686000
_cell_length_b   9.25845000
_cell_length_c   27.50410000
_cell_angle_alpha   90.00000000
_cell_angle_beta   90.00000000
_cell_angle_gamma   116.82200000
_symmetry_Int_Tables_number   1
_chemical_formula_structural   ZnH20C19(NO)4
_chemical_formula_sum   'Zn4 H80 C76 N16 O16'
_cell_volume   2078.61215683
_cell_formula_units_Z   4
loop_
 _symmetry_equiv_pos_site_id
 _symmetry_equiv_pos_as_xyz
  1  'x, y, z'
loop_
 _atom_site_type_symbol
 _atom_site_label
 _atom_site_symmetry_multiplicity
 _atom_site_fract_x
 _atom_site_fract_y
 _atom_site_fract_z
 _atom_site_occupancy
  Zn  Zn0  1  0.68320000  0.67373000  0.07592000  1.0
  Zn  Zn1  1  0.81680000  0.32627000  0.57592000  1.0
  Zn  Zn2  1  0.31680000  0.32627000  0.92408000  1.0
  Zn  Zn3  1  0.18320000  0.67373000  0.42408000  1.0
  H  H4  1  0.17558000  0.22647000  0.09519000  1.0
  H  H5  1  0.32442000  0.77353000  0.59519000  1.0
  H  H6  1  0.82442000  0.77353000  0.90481000  1.0
  H  H7  1  0.67558000  0.22647000  0.40481000  1.0
  H  H8  1  0.18176000  0.32052000  0.03892000  1.0
  H  H9  1  0.31825000  0.67948000  0.53892000  1.0
  H  H10  1  0.81825000  0.67948000  0.96108000  1.0
  H  H11  1  0.68176000  0.32052000  0.46108000  1.0
  H  H12  1  0.92002000  0.25680000  0.08351000  1.0
  H  H13  1  0.57998000  0.74320000  0.58351000  1.0
  H  H14  1  0.07998000  0.74320000  0.91649000  1.0
  H  H15  1  0.42002000  0.25680000  0.41649000  1.0
  H  H16  1  0.03126000  0.37472000  0.13337000  1.0
  H  H17  1  0.46874000  0.62528000  0.63337000  1.0
  H  H18  1  0.96874000  0.62528000  0.86663000  1.0
  H  H19  1  0.53126000  0.37472000  0.36663000  1.0
  H  H20  1  0.05626000  0.51074000  0.03039000  1.0
  H  H21  1  0.44374000  0.48926000  0.53039000  1.0
  H  H22  1  0.94374000  0.48926000  0.96961000  1.0
  H  H23  1  0.55626000  0.51074000  0.46961000  1.0
  H  H24  1  0.14786000  0.62108000  0.08302000  1.0
  H  H25  1  0.35214000  0.37892000  0.58302000  1.0
  H  H26  1  0.85215000  0.37892000  0.91698000  1.0
  H  H27  1  0.64786000  0.62108000  0.41698000  1.0
  H  H28  1  0.43931000  0.68097000  0.98978000  1.0
  H  H29  1  0.06070000  0.31903000  0.48978000  1.0
  H  H30  1  0.56070000  0.31903000  0.01022000  1.0
  H  H31  1  0.93931000  0.68097000  0.51022000  1.0
  H  H32  1  0.90884000  0.03584000  0.03145000  1.0
  H  H33  1  0.59116000  0.96416000  0.53145000  1.0
  H  H34  1  0.09116000  0.96416000  0.96855000  1.0
  H  H35  1  0.40884000  0.03584000  0.46855000  1.0
  H  H36  1  0.81085000  0.14576000  0.95076000  1.0
  H  H37  1  0.68915000  0.85424000  0.45076000  1.0
  H  H38  1  0.18915000  0.85425000  0.04924000  1.0
  H  H39  1  0.31085000  0.14576000  0.54924000  1.0
  H  H40  1  0.46177000  0.02103000  0.92361000  1.0
  H  H41  1  0.03823000  0.97897000  0.42361000  1.0
  H  H42  1  0.53823000  0.97897000  0.07639000  1.0
  H  H43  1  0.96177000  0.02103000  0.57639000  1.0
  H  H44  1  0.37727000  0.80556000  0.91915000  1.0
  H  H45  1  0.12273000  0.19444000  0.41915000  1.0
  H  H46  1  0.62273000  0.19444000  0.08085000  1.0
  H  H47  1  0.87727000  0.80556000  0.58085000  1.0
  H  H48  1  0.68647000  0.19674000  0.86801000  1.0
  H  H49  1  0.81353000  0.80326000  0.36801000  1.0
  H  H50  1  0.31352000  0.80326000  0.13199000  1.0
  H  H51  1  0.18647000  0.19674000  0.63199000  1.0
  H  H52  1  0.83619000  0.21975000  0.79142000  1.0
  H  H53  1  0.66380000  0.78025000  0.29142000  1.0
  H  H54  1  0.16380000  0.78025000  0.20858000  1.0
  H  H55  1  0.33619000  0.21975000  0.70858000  1.0
  H  H56  1  0.62967000  0.69948000  0.78337000  1.0
  H  H57  1  0.87034000  0.30052000  0.28337000  1.0
  H  H58  1  0.37033000  0.30052000  0.21663000  1.0
  H  H59  1  0.12967000  0.69948000  0.71663000  1.0
  H  H60  1  0.47980000  0.67664000  0.86083000  1.0
  H  H61  1  0.02020000  0.32336000  0.36083000  1.0
  H  H62  1  0.52020000  0.32336000  0.13917000  1.0
  H  H63  1  0.97980000  0.67664000  0.63917000  1.0
  H  H64  1  0.96109000  0.06199000  0.73760000  1.0
  H  H65  1  0.53890000  0.93801000  0.23760000  1.0
  H  H66  1  0.03890000  0.93801000  0.26240000  1.0
  H  H67  1  0.46109000  0.06199000  0.76240000  1.0
  H  H68  1  0.82496000  0.85803000  0.72401000  1.0
  H  H69  1  0.67504000  0.14197000  0.22401000  1.0
  H  H70  1  0.17503000  0.14197000  0.27599000  1.0
  H  H71  1  0.32496000  0.85803000  0.77599000  1.0
  H  H72  1  0.97523000  0.25175000  0.67234000  1.0
  H  H73  1  0.52477000  0.74825000  0.17234000  1.0
  H  H74  1  0.02477000  0.74825000  0.32766000  1.0
  H  H75  1  0.47523000  0.25175000  0.82766000  1.0
  H  H76  1  0.49207000  0.03657000  0.61864000  1.0
  H  H77  1  0.00793000  0.96343000  0.11864000  1.0
  H  H78  1  0.50793000  0.96343000  0.38136000  1.0
  H  H79  1  0.99207000  0.03657000  0.88136000  1.0
  H  H80  1  0.51239000  0.84487000  0.69393000  1.0
  H  H81  1  0.98761000  0.15513000  0.19393000  1.0
  H  H82  1  0.48761000  0.15513000  0.30607000  1.0
  H  H83  1  0.01239000  0.84487000  0.80607000  1.0
  C  C84  1  0.34510000  0.47471000  0.09355000  1.0
  C  C85  1  0.15491000  0.52528000  0.59355000  1.0
  C  C86  1  0.65491000  0.52528000  0.90645000  1.0
  C  C87  1  0.84510000  0.47471000  0.40645000  1.0
  C  C88  1  0.18091000  0.33701000  0.07849000  1.0
  C  C89  1  0.31909000  0.66299000  0.57849000  1.0
  C  C90  1  0.81909000  0.66299000  0.92151000  1.0
  C  C91  1  0.68091000  0.33701000  0.42151000  1.0
  C  C92  1  0.03415000  0.36297000  0.09371000  1.0
  C  C93  1  0.46585000  0.63703000  0.59371000  1.0
  C  C94  1  0.96585000  0.63703000  0.90629000  1.0
  C  C95  1  0.53416000  0.36297000  0.40629000  1.0
  C  C96  1  0.03948000  0.51362000  0.06992000  1.0
  C  C97  1  0.46052000  0.48638000  0.56992000  1.0
  C  C98  1  0.96052000  0.48638000  0.93008000  1.0
  C  C99  1  0.53948000  0.51362000  0.43008000  1.0
  C  C100  1  0.89085000  0.54171000  0.07923000  1.0
  C  C101  1  0.60915000  0.45829000  0.57923000  1.0
  C  C102  1  0.10915000  0.45829000  0.92077000  1.0
  C  C103  1  0.39085000  0.54170000  0.42077000  1.0
  C  C104  1  0.55163000  0.79306000  0.99154000  1.0
  C  C105  1  0.94837000  0.20694000  0.49154000  1.0
  C  C106  1  0.44837000  0.20694000  0.00846000  1.0
  C  C107  1  0.05163000  0.79306000  0.50846000  1.0
  C  C108  1  0.79511000  0.97874000  0.01129000  1.0
  C  C109  1  0.70489000  0.02126000  0.51129000  1.0
  C  C110  1  0.20489000  0.02126000  0.98871000  1.0
  C  C111  1  0.29511000  0.97874000  0.48871000  1.0
  C  C112  1  0.74710000  0.03489000  0.97125000  1.0
  C  C113  1  0.75290000  0.96511000  0.47125000  1.0
  C  C114  1  0.25290000  0.96511000  0.02875000  1.0
  C  C115  1  0.24710000  0.03489000  0.52875000  1.0
  C  C116  1  0.49108000  0.91942000  0.91819000  1.0
  C  C117  1  0.00892000  0.08058000  0.41819000  1.0
  C  C118  1  0.50891000  0.08058000  0.08181000  1.0
  C  C119  1  0.99108000  0.91942000  0.58181000  1.0
  C  C120  1  0.57685000  0.93454000  0.87020000  1.0
  C  C121  1  0.92315000  0.06547000  0.37020000  1.0
  C  C122  1  0.42315000  0.06547000  0.12980000  1.0
  C  C123  1  0.07685000  0.93453000  0.62980000  1.0
  C  C124  1  0.67582000  0.08713000  0.85008000  1.0
  C  C125  1  0.82417000  0.91287000  0.35008000  1.0
  C  C126  1  0.32417000  0.91287000  0.14992000  1.0
  C  C127  1  0.17582000  0.08713000  0.64992000  1.0
  C  C128  1  0.75855000  0.10018000  0.80649000  1.0
  C  C129  1  0.74144000  0.89982000  0.30649000  1.0
  C  C130  1  0.24144000  0.89982000  0.19351000  1.0
  C  C131  1  0.25855000  0.10018000  0.69351000  1.0
  C  C132  1  0.74297000  0.96094000  0.78214000  1.0
  C  C133  1  0.75703000  0.03906000  0.28214000  1.0
  C  C134  1  0.25703000  0.03906000  0.21786000  1.0
  C  C135  1  0.24297000  0.96094000  0.71786000  1.0
  C  C136  1  0.64281000  0.80888000  0.80203000  1.0
  C  C137  1  0.85719000  0.19112000  0.30203000  1.0
  C  C138  1  0.35718000  0.19112000  0.19797000  1.0
  C  C139  1  0.14281000  0.80888000  0.69797000  1.0
  C  C140  1  0.55989000  0.79519000  0.84574000  1.0
  C  C141  1  0.94011000  0.20481000  0.34574000  1.0
  C  C142  1  0.44011000  0.20481000  0.15426000  1.0
  C  C143  1  0.05989000  0.79519000  0.65426000  1.0
  C  C144  1  0.83107000  0.97502000  0.73472000  1.0
  C  C145  1  0.66893000  0.02498000  0.23472000  1.0
  C  C146  1  0.16893000  0.02498000  0.26528000  1.0
  C  C147  1  0.33107000  0.97502000  0.76528000  1.0
  C  C148  1  0.84641000  0.16747000  0.66844000  1.0
  C  C149  1  0.65359000  0.83253000  0.16844000  1.0
  C  C150  1  0.15359000  0.83253000  0.33156000  1.0
  C  C151  1  0.34641000  0.16747000  0.83156000  1.0
  C  C152  1  0.59524000  0.05172000  0.64115000  1.0
  C  C153  1  0.90476000  0.94828000  0.14115000  1.0
  C  C154  1  0.40476000  0.94828000  0.35885000  1.0
  C  C155  1  0.09524000  0.05172000  0.85885000  1.0
  C  C156  1  0.60318000  0.95697000  0.67844000  1.0
  C  C157  1  0.89682000  0.04303000  0.17844000  1.0
  C  C158  1  0.39682000  0.04303000  0.32156000  1.0
  C  C159  1  0.10318000  0.95697000  0.82156000  1.0
  N  N160  1  0.67223000  0.82798000  0.02365000  1.0
  N  N161  1  0.82777000  0.17202000  0.52365000  1.0
  N  N162  1  0.32777000  0.17202000  0.97635000  1.0
  N  N163  1  0.17223000  0.82798000  0.47635000  1.0
  N  N164  1  0.59223000  0.91597000  0.95933000  1.0
  N  N165  1  0.90776000  0.08403000  0.45933000  1.0
  N  N166  1  0.40777000  0.08404000  0.04067000  1.0
  N  N167  1  0.09223000  0.91597000  0.54067000  1.0
  N  N168  1  0.74774000  0.18201000  0.63521000  1.0
  N  N169  1  0.75226000  0.81799000  0.13521000  1.0
  N  N170  1  0.25226000  0.81799000  0.36479000  1.0
  N  N171  1  0.24774000  0.18201000  0.86479000  1.0
  N  N172  1  0.76284000  0.03201000  0.69519000  1.0
  N  N173  1  0.73716000  0.96799000  0.19519000  1.0
  N  N174  1  0.23716000  0.96799000  0.30481000  1.0
  N  N175  1  0.26284000  0.03200000  0.80481000  1.0
  O  O176  1  0.46747000  0.49127000  0.06619000  1.0
  O  O177  1  0.03253000  0.50873000  0.56619000  1.0
  O  O178  1  0.53253000  0.50873000  0.93381000  1.0
  O  O179  1  0.96747000  0.49127000  0.43381000  1.0
  O  O180  1  0.35525000  0.56046000  0.12981000  1.0
  O  O181  1  0.14475000  0.43953000  0.62981000  1.0
  O  O182  1  0.64475000  0.43953000  0.87019000  1.0
  O  O183  1  0.85525000  0.56046000  0.37019000  1.0
  O  O184  1  0.88654000  0.66084000  0.05507000  1.0
  O  O185  1  0.61346000  0.33916000  0.55507000  1.0
  O  O186  1  0.11346000  0.33915000  0.94493000  1.0
  O  O187  1  0.38654000  0.66084000  0.44493000  1.0
  O  O188  1  0.78092000  0.45512000  0.10837000  1.0
  O  O189  1  0.71908000  0.54488000  0.60837000  1.0
  O  O190  1  0.21908000  0.54488000  0.89163000  1.0
  O  O191  1  0.28092000  0.45512000  0.39163000  1.0
