# generated using pymatgen
data_GaP2H11C12(NO4)2
_symmetry_space_group_name_H-M   'P 1'
_cell_length_a   6.44996000
_cell_length_b   13.82831010
_cell_length_c   18.02020000
_cell_angle_alpha   97.09670529
_cell_angle_beta   100.29900000
_cell_angle_gamma   103.46646634
_symmetry_Int_Tables_number   1
_chemical_formula_structural   GaP2H11C12(NO4)2
_chemical_formula_sum   'Ga4 P8 H44 C48 N8 O32'
_cell_volume   1514.79648961
_cell_formula_units_Z   4
loop_
 _symmetry_equiv_pos_site_id
 _symmetry_equiv_pos_as_xyz
  1  'x, y, z'
loop_
 _atom_site_type_symbol
 _atom_site_label
 _atom_site_symmetry_multiplicity
 _atom_site_fract_x
 _atom_site_fract_y
 _atom_site_fract_z
 _atom_site_occupancy
  Ga  Ga0  1  0.17685000  0.12012000  0.78741000  1.0
  Ga  Ga1  1  0.76918000  0.37989000  0.71254000  1.0
  Ga  Ga2  1  0.82314000  0.87988000  0.21259000  1.0
  Ga  Ga3  1  0.23082000  0.62011000  0.28747000  1.0
  P  P4  1  0.71690000  0.17725000  0.80098000  1.0
  P  P5  1  0.23857000  0.32270000  0.69894000  1.0
  P  P6  1  0.28310000  0.82275000  0.19902000  1.0
  P  P7  1  0.76142000  0.67730000  0.30106000  1.0
  P  P8  1  0.14829000  0.00738000  0.61915000  1.0
  P  P9  1  0.02148000  0.49261000  0.88079000  1.0
  P  P10  1  0.85170000  0.99262000  0.38085000  1.0
  P  P11  1  0.97852000  0.50739000  0.11921000  1.0
  H  H12  1  0.85283000  0.30482000  0.89920000  1.0
  H  H13  1  0.14877000  0.19512000  0.60071000  1.0
  H  H14  1  0.14716000  0.69517000  0.10080000  1.0
  H  H15  1  0.85124000  0.80489000  0.39928000  1.0
  H  H16  1  0.44583000  0.02899000  0.70128000  1.0
  H  H17  1  0.21529000  0.47107000  0.79862000  1.0
  H  H18  1  0.55417000  0.97102000  0.29872000  1.0
  H  H19  1  0.78471000  0.52893000  0.20138000  1.0
  H  H20  1  0.93820000  0.90974000  0.51491000  1.0
  H  H21  1  0.01332000  0.59026000  0.98510000  1.0
  H  H22  1  0.06180000  0.09027000  0.48509000  1.0
  H  H23  1  0.98669000  0.40974000  0.01490000  1.0
  H  H24  1  0.05550000  0.87996000  0.75949000  1.0
  H  H25  1  0.91544000  0.62005000  0.74054000  1.0
  H  H26  1  0.94450000  0.12004000  0.24051000  1.0
  H  H27  1  0.08454000  0.37995000  0.25945000  1.0
  H  H28  1  0.04636000  0.74675000  0.84566000  1.0
  H  H29  1  0.95319000  0.75334000  0.65444000  1.0
  H  H30  1  0.95364000  0.25325000  0.15433000  1.0
  H  H31  1  0.04681000  0.24667000  0.34556000  1.0
  H  H32  1  0.15195000  0.80251000  0.98709000  1.0
  H  H33  1  0.86229000  0.69771000  0.51300000  1.0
  H  H34  1  0.84806000  0.19749000  0.01290000  1.0
  H  H35  1  0.13771000  0.30229000  0.48700000  1.0
  H  H36  1  0.27306000  0.94909000  0.09980000  1.0
  H  H37  1  0.72461000  0.55120000  0.40026000  1.0
  H  H38  1  0.72694000  0.05090000  0.90020000  1.0
  H  H39  1  0.27541000  0.44880000  0.59974000  1.0
  H  H40  1  0.39171000  0.13202000  0.14680000  1.0
  H  H41  1  0.61292000  0.36831000  0.35316000  1.0
  H  H42  1  0.60830000  0.86797000  0.85320000  1.0
  H  H43  1  0.38709000  0.63169000  0.64684000  1.0
  H  H44  1  0.47430000  0.31366000  0.11667000  1.0
  H  H45  1  0.54330000  0.18660000  0.38322000  1.0
  H  H46  1  0.52572000  0.68634000  0.88333000  1.0
  H  H47  1  0.45670000  0.81341000  0.61678000  1.0
  H  H48  1  0.47715000  0.42237000  0.01772000  1.0
  H  H49  1  0.53659000  0.07779000  0.48210000  1.0
  H  H50  1  0.52286000  0.57762000  0.98229000  1.0
  H  H51  1  0.46340000  0.92222000  0.51790000  1.0
  H  H52  1  0.35955000  0.34267000  0.87822000  1.0
  H  H53  1  0.63876000  0.15741000  0.62164000  1.0
  H  H54  1  0.64046000  0.65733000  0.12179000  1.0
  H  H55  1  0.36123000  0.84260000  0.37837000  1.0
  C  C56  1  0.10175000  0.89973000  0.82177000  1.0
  C  C57  1  0.87980000  0.60034000  0.67826000  1.0
  C  C58  1  0.89825000  0.10026000  0.17822000  1.0
  C  C59  1  0.12019000  0.39966000  0.32174000  1.0
  C  C60  1  0.09630000  0.82691000  0.86981000  1.0
  C  C61  1  0.89912000  0.67320000  0.63027000  1.0
  C  C62  1  0.90371000  0.17309000  0.13019000  1.0
  C  C63  1  0.10088000  0.32680000  0.36973000  1.0
  C  C64  1  0.15435000  0.85747000  0.94857000  1.0
  C  C65  1  0.84822000  0.64272000  0.55151000  1.0
  C  C66  1  0.84566000  0.14253000  0.05143000  1.0
  C  C67  1  0.15179000  0.35729000  0.44849000  1.0
  C  C68  1  0.21923000  0.96151000  0.97914000  1.0
  C  C69  1  0.77867000  0.53868000  0.52089000  1.0
  C  C70  1  0.78076000  0.03848000  0.02086000  1.0
  C  C71  1  0.22134000  0.46132000  0.47911000  1.0
  C  C72  1  0.28095000  0.00137000  0.05947000  1.0
  C  C73  1  0.72037000  0.49886000  0.44054000  1.0
  C  C74  1  0.71904000  0.99862000  0.94052000  1.0
  C  C75  1  0.27965000  0.50114000  0.55946000  1.0
  C  C76  1  0.34532000  0.10314000  0.08545000  1.0
  C  C77  1  0.65685000  0.39712000  0.41453000  1.0
  C  C78  1  0.65468000  0.89685000  0.91455000  1.0
  C  C79  1  0.34316000  0.60288000  0.58547000  1.0
  C  C80  1  0.35326000  0.17369000  0.03350000  1.0
  C  C81  1  0.64597000  0.32651000  0.46642000  1.0
  C  C82  1  0.64674000  0.82630000  0.96650000  1.0
  C  C83  1  0.35403000  0.67349000  0.53358000  1.0
  C  C84  1  0.42145000  0.27973000  0.05623000  1.0
  C  C85  1  0.58518000  0.22050000  0.44366000  1.0
  C  C86  1  0.57856000  0.72027000  0.94377000  1.0
  C  C87  1  0.41482000  0.77951000  0.55634000  1.0
  C  C88  1  0.42405000  0.34077000  0.00116000  1.0
  C  C89  1  0.58182000  0.15940000  0.49869000  1.0
  C  C90  1  0.57595000  0.65922000  0.99885000  1.0
  C  C91  1  0.41816000  0.84060000  0.50131000  1.0
  C  C92  1  0.35794000  0.29717000  0.92330000  1.0
  C  C93  1  0.63745000  0.20294000  0.57657000  1.0
  C  C94  1  0.64207000  0.70283000  0.07670000  1.0
  C  C95  1  0.36254000  0.79706000  0.42343000  1.0
  C  C96  1  0.28953000  0.13630000  0.95385000  1.0
  C  C97  1  0.69949000  0.36385000  0.54610000  1.0
  C  C98  1  0.71048000  0.86370000  0.04615000  1.0
  C  C99  1  0.30050000  0.63615000  0.45390000  1.0
  C  C100  1  0.22200000  0.02951000  0.92635000  1.0
  C  C101  1  0.76619000  0.47063000  0.57363000  1.0
  C  C102  1  0.77800000  0.97049000  0.07365000  1.0
  C  C103  1  0.23383000  0.52938000  0.42637000  1.0
  N  N104  1  0.16334000  0.99822000  0.84964000  1.0
  N  N105  1  0.81533000  0.50186000  0.65036000  1.0
  N  N106  1  0.83666000  0.00178000  0.15036000  1.0
  N  N107  1  0.18467000  0.49814000  0.34964000  1.0
  N  N108  1  0.29107000  0.19764000  0.90087000  1.0
  N  N109  1  0.69263000  0.30246000  0.59904000  1.0
  N  N110  1  0.70892000  0.80235000  0.09913000  1.0
  N  N111  1  0.30737000  0.69754000  0.40096000  1.0
  O  O112  1  0.48472000  0.10358000  0.78168000  1.0
  O  O113  1  0.09927000  0.39639000  0.71827000  1.0
  O  O114  1  0.51528000  0.89642000  0.21832000  1.0
  O  O115  1  0.90073000  0.60361000  0.28173000  1.0
  O  O116  1  0.87692000  0.11131000  0.79826000  1.0
  O  O117  1  0.46715000  0.38865000  0.70163000  1.0
  O  O118  1  0.12307000  0.88869000  0.20174000  1.0
  O  O119  1  0.53285000  0.61135000  0.29838000  1.0
  O  O120  1  0.74284000  0.25285000  0.74639000  1.0
  O  O121  1  0.24366000  0.24711000  0.75353000  1.0
  O  O122  1  0.25716000  0.74715000  0.25362000  1.0
  O  O123  1  0.75633000  0.75289000  0.24647000  1.0
  O  O124  1  0.74995000  0.23351000  0.88594000  1.0
  O  O125  1  0.13043000  0.26646000  0.61399000  1.0
  O  O126  1  0.25005000  0.76649000  0.11406000  1.0
  O  O127  1  0.86958000  0.73355000  0.38601000  1.0
  O  O128  1  0.05460000  0.02908000  0.68983000  1.0
  O  O129  1  0.83541000  0.47091000  0.81013000  1.0
  O  O130  1  0.94538000  0.97092000  0.31017000  1.0
  O  O131  1  0.16459000  0.52909000  0.18987000  1.0
  O  O132  1  0.38173000  0.98864000  0.64740000  1.0
  O  O133  1  0.24537000  0.51145000  0.85249000  1.0
  O  O134  1  0.61826000  0.01137000  0.35260000  1.0
  O  O135  1  0.75464000  0.48855000  0.14751000  1.0
  O  O136  1  0.00651000  0.90358000  0.56951000  1.0
  O  O137  1  0.03299000  0.59641000  0.93047000  1.0
  O  O138  1  0.99348000  0.09643000  0.43049000  1.0
  O  O139  1  0.96702000  0.40359000  0.06953000  1.0
  O  O140  1  0.16214000  0.08960000  0.56944000  1.0
  O  O141  1  0.00303000  0.41036000  0.93048000  1.0
  O  O142  1  0.83786000  0.91040000  0.43056000  1.0
  O  O143  1  0.99697000  0.58964000  0.06952000  1.0
