# generated using pymatgen
data_CoH14C14(N2O)4
_symmetry_space_group_name_H-M   'P 1'
_cell_length_a   7.74407000
_cell_length_b   8.86128000
_cell_length_c   12.99950000
_cell_angle_alpha   89.99900000
_cell_angle_beta   89.99950000
_cell_angle_gamma   82.29710000
_symmetry_Int_Tables_number   1
_chemical_formula_structural   CoH14C14(N2O)4
_chemical_formula_sum   'Co2 H28 C28 N16 O8'
_cell_volume   884.00698624
_cell_formula_units_Z   2
loop_
 _symmetry_equiv_pos_site_id
 _symmetry_equiv_pos_as_xyz
  1  'x, y, z'
loop_
 _atom_site_type_symbol
 _atom_site_label
 _atom_site_symmetry_multiplicity
 _atom_site_fract_x
 _atom_site_fract_y
 _atom_site_fract_z
 _atom_site_occupancy
  Co  Co0  1  0.00000000  0.00000000  0.00000000  1.0
  Co  Co1  1  0.00000000  0.50000000  0.50000000  1.0
  H  H2  1  0.34801000  0.93553000  0.04116000  1.0
  H  H3  1  0.65197000  0.56447000  0.54116000  1.0
  H  H4  1  0.65198000  0.06446000  0.95884000  1.0
  H  H5  1  0.34803000  0.43553000  0.45884000  1.0
  H  H6  1  0.33166000  0.05439000  0.94640000  1.0
  H  H7  1  0.66835000  0.44559000  0.44640000  1.0
  H  H8  1  0.66835000  0.94560000  0.05360000  1.0
  H  H9  1  0.33165000  0.55441000  0.55360000  1.0
  H  H10  1  0.47772000  0.77232000  0.49504000  1.0
  H  H11  1  0.52226000  0.72769000  0.99504000  1.0
  H  H12  1  0.52227000  0.22768000  0.50496000  1.0
  H  H13  1  0.47774000  0.27231000  0.00496000  1.0
  H  H14  1  0.73977000  0.84102000  0.43016000  1.0
  H  H15  1  0.26023000  0.65896000  0.93015000  1.0
  H  H16  1  0.26023000  0.15898000  0.56984000  1.0
  H  H17  1  0.73977000  0.34104000  0.06985000  1.0
  H  H18  1  0.76993000  0.88033000  0.24024000  1.0
  H  H19  1  0.23008000  0.61967000  0.74024000  1.0
  H  H20  1  0.23007000  0.11966000  0.75976000  1.0
  H  H21  1  0.76992000  0.38033000  0.25976000  1.0
  H  H22  1  0.24194000  0.77848000  0.20448000  1.0
  H  H23  1  0.75808000  0.72151000  0.70449000  1.0
  H  H24  1  0.75805000  0.22152000  0.79552000  1.0
  H  H25  1  0.24192000  0.27849000  0.29551000  1.0
  H  H26  1  0.22960000  0.74764000  0.39676000  1.0
  H  H27  1  0.77040000  0.75235000  0.89676000  1.0
  H  H28  1  0.77040000  0.25236000  0.60324000  1.0
  H  H29  1  0.22960000  0.24765000  0.10324000  1.0
  C  C30  1  0.99936000  0.55482000  0.25324000  1.0
  C  C31  1  0.00059000  0.94518000  0.75326000  1.0
  C  C32  1  0.00064000  0.44518000  0.74676000  1.0
  C  C33  1  0.99941000  0.05482000  0.24674000  1.0
  C  C34  1  0.00244000  0.67049000  0.09582000  1.0
  C  C35  1  0.99753000  0.82950000  0.59583000  1.0
  C  C36  1  0.99756000  0.32951000  0.90419000  1.0
  C  C37  1  0.00247000  0.17051000  0.40416000  1.0
  C  C38  1  0.63308000  0.83341000  0.37661000  1.0
  C  C39  1  0.36691000  0.66659000  0.87661000  1.0
  C  C40  1  0.36691000  0.16659000  0.62339000  1.0
  C  C41  1  0.63309000  0.33340000  0.12339000  1.0
  C  C42  1  0.64881000  0.85182000  0.27242000  1.0
  C  C43  1  0.35119000  0.64818000  0.77241000  1.0
  C  C44  1  0.35118000  0.14818000  0.72758000  1.0
  C  C45  1  0.64881000  0.35182000  0.22759000  1.0
  C  C46  1  0.50850000  0.83076000  0.20530000  1.0
  C  C47  1  0.49151000  0.66924000  0.70530000  1.0
  C  C48  1  0.49150000  0.16924000  0.79470000  1.0
  C  C49  1  0.50849000  0.33076000  0.29470000  1.0
  C  C50  1  0.35350000  0.79314000  0.25241000  1.0
  C  C51  1  0.64651000  0.70686000  0.75241000  1.0
  C  C52  1  0.64649000  0.20686000  0.74758000  1.0
  C  C53  1  0.35350000  0.29314000  0.24759000  1.0
  C  C54  1  0.34400000  0.77808000  0.35725000  1.0
  C  C55  1  0.65600000  0.72193000  0.85726000  1.0
  C  C56  1  0.65600000  0.22192000  0.64275000  1.0
  C  C57  1  0.34400000  0.27807000  0.14274000  1.0
  N  N58  1  0.01143000  0.53838000  0.34301000  1.0
  N  N59  1  0.98851000  0.96163000  0.84303000  1.0
  N  N60  1  0.98857000  0.46162000  0.65700000  1.0
  N  N61  1  0.01150000  0.03837000  0.15697000  1.0
  N  N62  1  0.02136000  0.76784000  0.03640000  1.0
  N  N63  1  0.97866000  0.73216000  0.53644000  1.0
  N  N64  1  0.97864000  0.23216000  0.96360000  1.0
  N  N65  1  0.02134000  0.26785000  0.46356000  1.0
  N  N66  1  0.98103000  0.55623000  0.15405000  1.0
  N  N67  1  0.01891000  0.94378000  0.65407000  1.0
  N  N68  1  0.01897000  0.44377000  0.84595000  1.0
  N  N69  1  0.98109000  0.05623000  0.34592000  1.0
  N  N70  1  0.48206000  0.79867000  0.41751000  1.0
  N  N71  1  0.51793000  0.70133000  0.91751000  1.0
  N  N72  1  0.51793000  0.20133000  0.58249000  1.0
  N  N73  1  0.48207000  0.29866000  0.08249000  1.0
  O  O74  1  0.26555000  0.98856000  0.98985000  1.0
  O  O75  1  0.73447000  0.51142000  0.48987000  1.0
  O  O76  1  0.73445000  0.01144000  0.01015000  1.0
  O  O77  1  0.26554000  0.48858000  0.51014000  1.0
  O  O78  1  0.52146000  0.84545000  0.10615000  1.0
  O  O79  1  0.47855000  0.65458000  0.60615000  1.0
  O  O80  1  0.47854000  0.15454000  0.89385000  1.0
  O  O81  1  0.52145000  0.34543000  0.39385000  1.0
