# generated using pymatgen
data_AgH9C6N4O5
_symmetry_space_group_name_H-M   'P 1'
_cell_length_a   9.38678000
_cell_length_b   9.38678000
_cell_length_c   12.37110000
_cell_angle_alpha   68.45440000
_cell_angle_beta   68.45430000
_cell_angle_gamma   74.75230000
_symmetry_Int_Tables_number   1
_chemical_formula_structural   AgH9C6N4O5
_chemical_formula_sum   'Ag4 H36 C24 N16 O20'
_cell_volume   932.62853740
_cell_formula_units_Z   4
loop_
 _symmetry_equiv_pos_site_id
 _symmetry_equiv_pos_as_xyz
  1  'x, y, z'
loop_
 _atom_site_type_symbol
 _atom_site_label
 _atom_site_symmetry_multiplicity
 _atom_site_fract_x
 _atom_site_fract_y
 _atom_site_fract_z
 _atom_site_occupancy
  Ag  Ag0  1  0.44257000  0.30142000  0.54715000  1.0
  Ag  Ag1  1  0.69858000  0.55743000  0.95285000  1.0
  Ag  Ag2  1  0.55743000  0.69858000  0.45285000  1.0
  Ag  Ag3  1  0.30142000  0.44257000  0.04715000  1.0
  H  H4  1  0.02079000  0.72553000  0.38479000  1.0
  H  H5  1  0.27446000  0.97921000  0.11522000  1.0
  H  H6  1  0.97921000  0.27446000  0.61521000  1.0
  H  H7  1  0.72553000  0.02079000  0.88479000  1.0
  H  H8  1  0.90002000  0.83256000  0.11937000  1.0
  H  H9  1  0.16744000  0.09998000  0.38064000  1.0
  H  H10  1  0.09998000  0.16744000  0.88063000  1.0
  H  H11  1  0.83256000  0.90002000  0.61937000  1.0
  H  H12  1  0.98599000  0.89160000  0.20110000  1.0
  H  H13  1  0.10840000  0.01401000  0.29890000  1.0
  H  H14  1  0.01401000  0.10840000  0.79890000  1.0
  H  H15  1  0.89160000  0.98599000  0.70110000  1.0
  H  H16  1  0.85663000  0.74938000  0.28253000  1.0
  H  H17  1  0.25063000  0.14337000  0.21747000  1.0
  H  H18  1  0.14337000  0.25063000  0.71747000  1.0
  H  H19  1  0.74937000  0.85663000  0.78253000  1.0
  H  H20  1  0.06175000  0.67255000  0.67161000  1.0
  H  H21  1  0.32745000  0.93825000  0.82839000  1.0
  H  H22  1  0.93825000  0.32745000  0.32839000  1.0
  H  H23  1  0.67255000  0.06175000  0.17161000  1.0
  H  H24  1  0.95737000  0.67317000  0.57567000  1.0
  H  H25  1  0.32683000  0.04263000  0.92433000  1.0
  H  H26  1  0.04263000  0.32683000  0.42433000  1.0
  H  H27  1  0.67317000  0.95737000  0.07567000  1.0
  H  H28  1  0.10108000  0.79990000  0.51823000  1.0
  H  H29  1  0.20010000  0.89892000  0.98177000  1.0
  H  H30  1  0.89892000  0.20010000  0.48177000  1.0
  H  H31  1  0.79990000  0.10108000  0.01823000  1.0
  H  H32  1  0.48909000  0.28733000  0.18331000  1.0
  H  H33  1  0.71267000  0.51091000  0.31669000  1.0
  H  H34  1  0.51091000  0.71267000  0.81669000  1.0
  H  H35  1  0.28733000  0.48909000  0.68331000  1.0
  H  H36  1  0.54056000  0.24375000  0.31741000  1.0
  H  H37  1  0.75625000  0.45944000  0.18259000  1.0
  H  H38  1  0.45944000  0.75625000  0.68259000  1.0
  H  H39  1  0.24375000  0.54056000  0.81741000  1.0
  C  C40  1  0.20636000  0.54573000  0.43537000  1.0
  C  C41  1  0.45427000  0.79364000  0.06463000  1.0
  C  C42  1  0.79364000  0.45426000  0.56463000  1.0
  C  C43  1  0.54573000  0.20636000  0.93537000  1.0
  C  C44  1  0.34965000  0.40942000  0.29809000  1.0
  C  C45  1  0.59058000  0.65035000  0.20191000  1.0
  C  C46  1  0.65035000  0.59058000  0.70191000  1.0
  C  C47  1  0.40942000  0.34965000  0.79809000  1.0
  C  C48  1  0.14892000  0.60097000  0.25236000  1.0
  C  C49  1  0.39903000  0.85108000  0.24764000  1.0
  C  C50  1  0.85108000  0.39903000  0.74763000  1.0
  C  C51  1  0.60097000  0.14892000  0.75236000  1.0
  C  C52  1  0.11375000  0.63478000  0.36115000  1.0
  C  C53  1  0.36521000  0.88625000  0.13885000  1.0
  C  C54  1  0.88625000  0.36521000  0.63885000  1.0
  C  C55  1  0.63479000  0.11375000  0.86115000  1.0
  C  C56  1  0.94488000  0.79516000  0.19672000  1.0
  C  C57  1  0.20484000  0.05511000  0.30329000  1.0
  C  C58  1  0.05512000  0.20484000  0.80329000  1.0
  C  C59  1  0.79516000  0.94488000  0.69671000  1.0
  C  C60  1  0.06831000  0.68685000  0.57828000  1.0
  C  C61  1  0.31315000  0.93169000  0.92172000  1.0
  C  C62  1  0.93169000  0.31315000  0.42172000  1.0
  C  C63  1  0.68685000  0.06831000  0.07828000  1.0
  N  N64  1  0.32223000  0.43312000  0.40685000  1.0
  N  N65  1  0.56688000  0.67777000  0.09315000  1.0
  N  N66  1  0.67777000  0.56688000  0.59315000  1.0
  N  N67  1  0.43312000  0.32223000  0.90685000  1.0
  N  N68  1  0.26459000  0.49067000  0.21989000  1.0
  N  N69  1  0.50933000  0.73541000  0.28011000  1.0
  N  N70  1  0.73541000  0.50933000  0.78011000  1.0
  N  N71  1  0.49067000  0.26459000  0.71989000  1.0
  N  N72  1  0.46583000  0.30187000  0.26589000  1.0
  N  N73  1  0.69813000  0.53417000  0.23411000  1.0
  N  N74  1  0.53417000  0.69813000  0.73411000  1.0
  N  N75  1  0.30187000  0.46583000  0.76589000  1.0
  N  N76  1  0.28528000  0.97858000  0.59817000  1.0
  N  N77  1  0.02142000  0.71472000  0.90184000  1.0
  N  N78  1  0.71472000  0.02143000  0.40184000  1.0
  N  N79  1  0.97858000  0.28528000  0.09816000  1.0
  O  O80  1  0.37382000  0.03148000  0.62655000  1.0
  O  O81  1  0.96852000  0.62618000  0.87345000  1.0
  O  O82  1  0.62618000  0.96852000  0.37345000  1.0
  O  O83  1  0.03148000  0.37383000  0.12655000  1.0
  O  O84  1  0.31391000  0.83533000  0.60454000  1.0
  O  O85  1  0.16467000  0.68610000  0.89546000  1.0
  O  O86  1  0.68610000  0.16467000  0.39546000  1.0
  O  O87  1  0.83533000  0.31390000  0.10454000  1.0
  O  O88  1  0.17011000  0.06377000  0.56677000  1.0
  O  O89  1  0.93623000  0.82989000  0.93323000  1.0
  O  O90  1  0.82989000  0.93623000  0.43323000  1.0
  O  O91  1  0.06377000  0.17011000  0.06677000  1.0
  O  O92  1  0.07265000  0.67477000  0.17053000  1.0
  O  O93  1  0.32522000  0.92735000  0.32948000  1.0
  O  O94  1  0.92735000  0.32522000  0.82948000  1.0
  O  O95  1  0.67477000  0.07265000  0.67053000  1.0
  O  O96  1  0.18797000  0.56464000  0.54252000  1.0
  O  O97  1  0.43536000  0.81203000  0.95749000  1.0
  O  O98  1  0.81202000  0.43536000  0.45749000  1.0
  O  O99  1  0.56464000  0.18798000  0.04251000  1.0
