# generated using pymatgen
data_AlH4C9NO7F
_symmetry_space_group_name_H-M   'P 1'
_cell_length_a   6.86032000
_cell_length_b   11.07961227
_cell_length_c   11.17580000
_cell_angle_alpha   89.99401287
_cell_angle_beta   72.16280000
_cell_angle_gamma   73.31863078
_symmetry_Int_Tables_number   1
_chemical_formula_structural   AlH4C9NO7F
_chemical_formula_sum   'Al2 H8 C18 N2 O14 F2'
_cell_volume   771.00409331
_cell_formula_units_Z   2
loop_
 _symmetry_equiv_pos_site_id
 _symmetry_equiv_pos_as_xyz
  1  'x, y, z'
loop_
 _atom_site_type_symbol
 _atom_site_label
 _atom_site_symmetry_multiplicity
 _atom_site_fract_x
 _atom_site_fract_y
 _atom_site_fract_z
 _atom_site_occupancy
  Al  Al0  1  0.00140000  0.48869000  0.49901000  1.0
  Al  Al1  1  0.50015000  0.48952000  0.49968000  1.0
  H  H2  1  0.12959000  0.62984000  0.60341000  1.0
  H  H3  1  0.87170000  0.36704000  0.37289000  1.0
  H  H4  1  0.11435000  0.10271000  0.53989000  1.0
  H  H5  1  0.88628000  0.87694000  0.46114000  1.0
  H  H6  1  0.12195000  0.70002000  0.90077000  1.0
  H  H7  1  0.06374000  0.55426000  0.88880000  1.0
  H  H8  1  0.94523000  0.55901000  0.12726000  1.0
  H  H9  1  0.00953000  0.70321000  0.13659000  1.0
  C  C10  1  0.63707000  0.48585000  0.72219000  1.0
  C  C11  1  0.65406000  0.71432000  0.49337000  1.0
  C  C12  1  0.37085000  0.48399000  0.27463000  1.0
  C  C13  1  0.34726000  0.26496000  0.50676000  1.0
  C  C14  1  0.57589000  0.85548000  0.49336000  1.0
  C  C15  1  0.42499000  0.12394000  0.50790000  1.0
  C  C16  1  0.35988000  0.92162000  0.51356000  1.0
  C  C17  1  0.64097000  0.05791000  0.48764000  1.0
  C  C18  1  0.28339000  0.05250000  0.52210000  1.0
  C  C19  1  0.71719000  0.92699000  0.47920000  1.0
  C  C20  1  0.57169000  0.47977000  0.86126000  1.0
  C  C21  1  0.43826000  0.48079000  0.13456000  1.0
  C  C22  1  0.35949000  0.53319000  0.93826000  1.0
  C  C23  1  0.65217000  0.42466000  0.05760000  1.0
  C  C24  1  0.29528000  0.53395000  0.06929000  1.0
  C  C25  1  0.71673000  0.42409000  0.92587000  1.0
  C  C26  1  0.13670000  0.60657000  0.93673000  1.0
  C  C27  1  0.06393000  0.60851000  0.08577000  1.0
  N  N28  1  0.20545000  0.85214000  0.51647000  1.0
  N  N29  1  0.79759000  0.12623000  0.48322000  1.0
  O  O30  1  0.81953000  0.50157000  0.66887000  1.0
  O  O31  1  0.51037000  0.65927000  0.50830000  1.0
  O  O32  1  0.50433000  0.49658000  0.32780000  1.0
  O  O33  1  0.15198000  0.31536000  0.51635000  1.0
  O  O34  1  0.18372000  0.47398000  0.32791000  1.0
  O  O35  1  0.49070000  0.32017000  0.49138000  1.0
  O  O36  1  0.49805000  0.48012000  0.67046000  1.0
  O  O37  1  0.84996000  0.66372000  0.48268000  1.0
  O  O38  1  0.19506000  0.54754000  0.55460000  1.0
  O  O39  1  0.80558000  0.43249000  0.44322000  1.0
  O  O40  1  0.20193000  0.81811000  0.41196000  1.0
  O  O41  1  0.08486000  0.83857000  0.62016000  1.0
  O  O42  1  0.92180000  0.13496000  0.37919000  1.0
  O  O43  1  0.79983000  0.16253000  0.58739000  1.0
  F  F44  1  0.80491000  0.36341000  0.10862000  1.0
  F  F45  1  0.92539000  0.36294000  0.86189000  1.0
