# generated using pymatgen
data_ZnH8C13NClO4
_symmetry_space_group_name_H-M   'P 1'
_cell_length_a   7.62931000
_cell_length_b   9.70469000
_cell_length_c   10.70350000
_cell_angle_alpha   114.85700000
_cell_angle_beta   95.11010000
_cell_angle_gamma   102.32900000
_symmetry_Int_Tables_number   1
_chemical_formula_structural   ZnH8C13NClO4
_chemical_formula_sum   'Zn2 H16 C26 N2 Cl2 O8'
_cell_volume   688.04499718
_cell_formula_units_Z   2
loop_
 _symmetry_equiv_pos_site_id
 _symmetry_equiv_pos_as_xyz
  1  'x, y, z'
loop_
 _atom_site_type_symbol
 _atom_site_label
 _atom_site_symmetry_multiplicity
 _atom_site_fract_x
 _atom_site_fract_y
 _atom_site_fract_z
 _atom_site_occupancy
  Zn  Zn0  1  0.35142000  0.03236000  0.43037000  1.0
  Zn  Zn1  1  0.64858000  0.96764000  0.56963000  1.0
  H  H2  1  0.94864000  0.92104000  0.32118000  1.0
  H  H3  1  0.05136000  0.07896000  0.67882000  1.0
  H  H4  1  0.72061000  0.96576000  0.16896000  1.0
  H  H5  1  0.27938000  0.03424000  0.83105000  1.0
  H  H6  1  0.16695000  0.30643000  0.14347000  1.0
  H  H7  1  0.83304000  0.69357000  0.85653000  1.0
  H  H8  1  0.37702000  0.24583000  0.29589000  1.0
  H  H9  1  0.62297000  0.75417000  0.70410000  1.0
  H  H10  1  0.11721000  0.33400000  0.59330000  1.0
  H  H11  1  0.88279000  0.66600000  0.40670000  1.0
  H  H12  1  0.66861000  0.42907000  0.40016000  1.0
  H  H13  1  0.33139000  0.57093000  0.59984000  1.0
  H  H14  1  0.20262000  0.36704000  0.82846000  1.0
  H  H15  1  0.79739000  0.63296000  0.17155000  1.0
  H  H16  1  0.77023000  0.39980000  0.94128000  1.0
  H  H17  1  0.22978000  0.60020000  0.05872000  1.0
  C  C18  1  0.99164000  0.00360000  0.27809000  1.0
  C  C19  1  0.00836000  0.99640000  0.72191000  1.0
  C  C20  1  0.86521000  0.02849000  0.19376000  1.0
  C  C21  1  0.13479000  0.97151000  0.80624000  1.0
  C  C22  1  0.92818000  0.13825000  0.14427000  1.0
  C  C23  1  0.07181000  0.86175000  0.85573000  1.0
  C  C24  1  0.11403000  0.21980000  0.18021000  1.0
  C  C25  1  0.88596000  0.78020000  0.81979000  1.0
  C  C26  1  0.23057000  0.18696000  0.26458000  1.0
  C  C27  1  0.76943000  0.81304000  0.73542000  1.0
  C  C28  1  0.74953000  0.22572000  0.49369000  1.0
  C  C29  1  0.25047000  0.77427000  0.50631000  1.0
  C  C30  1  0.87908000  0.36732000  0.49685000  1.0
  C  C31  1  0.12092000  0.63268000  0.50315000  1.0
  C  C32  1  0.06614000  0.40767000  0.55370000  1.0
  C  C33  1  0.93386000  0.59233000  0.44630000  1.0
  C  C34  1  0.81414000  0.46055000  0.44340000  1.0
  C  C35  1  0.18586000  0.53945000  0.55660000  1.0
  C  C36  1  0.47152000  0.22693000  0.73569000  1.0
  C  C37  1  0.52849000  0.77307000  0.26431000  1.0
  C  C38  1  0.48510000  0.36885000  0.87148000  1.0
  C  C39  1  0.51491000  0.63115000  0.12852000  1.0
  C  C40  1  0.33235000  0.42527000  0.90401000  1.0
  C  C41  1  0.66766000  0.57473000  0.09599000  1.0
  C  C42  1  0.65273000  0.44492000  0.96803000  1.0
  C  C43  1  0.34728000  0.55508000  0.03197000  1.0
  N  N44  1  0.17114000  0.08083000  0.31254000  1.0
  N  N45  1  0.82886000  0.91917000  0.68746000  1.0
  Cl  Cl46  1  0.77782000  0.17162000  0.03819000  1.0
  Cl  Cl47  1  0.22217000  0.82838000  0.96181000  1.0
  O  O48  1  0.58172000  0.19447000  0.43895000  1.0
  O  O49  1  0.41828000  0.80553000  0.56105000  1.0
  O  O50  1  0.81594000  0.14702000  0.54578000  1.0
  O  O51  1  0.18406000  0.85298000  0.45421000  1.0
  O  O52  1  0.34614000  0.19452000  0.63241000  1.0
  O  O53  1  0.65386000  0.80548000  0.36759000  1.0
  O  O54  1  0.58667000  0.14947000  0.73549000  1.0
  O  O55  1  0.41335000  0.85054000  0.26451000  1.0
