# generated using pymatgen
data_NdH4(C3O4)2
_symmetry_space_group_name_H-M   'P 1'
_cell_length_a   6.97068000
_cell_length_b   7.08329000
_cell_length_c   16.82340000
_cell_angle_alpha   89.99980000
_cell_angle_beta   89.99990000
_cell_angle_gamma   79.14700000
_symmetry_Int_Tables_number   1
_chemical_formula_structural   NdH4(C3O4)2
_chemical_formula_sum   'Nd4 H16 C24 O32'
_cell_volume   815.80360491
_cell_formula_units_Z   4
loop_
 _symmetry_equiv_pos_site_id
 _symmetry_equiv_pos_as_xyz
  1  'x, y, z'
loop_
 _atom_site_type_symbol
 _atom_site_label
 _atom_site_symmetry_multiplicity
 _atom_site_fract_x
 _atom_site_fract_y
 _atom_site_fract_z
 _atom_site_occupancy
  Nd  Nd0  1  0.49015000  0.25793000  0.58033000  1.0
  Nd  Nd1  1  0.00985000  0.74207000  0.08033000  1.0
  Nd  Nd2  1  0.50985000  0.74207000  0.41967000  1.0
  Nd  Nd3  1  0.99015000  0.25793000  0.91967000  1.0
  H  H4  1  0.15325000  0.59417000  0.61836000  1.0
  H  H5  1  0.34675000  0.40583000  0.11836000  1.0
  H  H6  1  0.84675000  0.40583000  0.38164000  1.0
  H  H7  1  0.65325000  0.59417000  0.88164000  1.0
  H  H8  1  0.05047000  0.41989000  0.58757000  1.0
  H  H9  1  0.44953000  0.58010000  0.08758000  1.0
  H  H10  1  0.94953000  0.58010000  0.41243000  1.0
  H  H11  1  0.55047000  0.41989000  0.91243000  1.0
  H  H12  1  0.22613000  0.01272000  0.67888000  1.0
  H  H13  1  0.27387000  0.98728000  0.17888000  1.0
  H  H14  1  0.77387000  0.98727000  0.32112000  1.0
  H  H15  1  0.72613000  0.01273000  0.82112000  1.0
  H  H16  1  0.18861000  0.22395000  0.71591000  1.0
  H  H17  1  0.31139000  0.77605000  0.21591000  1.0
  H  H18  1  0.81139000  0.77605000  0.28409000  1.0
  H  H19  1  0.68861000  0.22395000  0.78409000  1.0
  C  C20  1  0.64729000  0.83146000  0.67033000  1.0
  C  C21  1  0.85271000  0.16854000  0.17033000  1.0
  C  C22  1  0.35272000  0.16854000  0.32967000  1.0
  C  C23  1  0.14729000  0.83147000  0.82967000  1.0
  C  C24  1  0.64525000  0.72662000  0.74675000  1.0
  C  C25  1  0.85476000  0.27337000  0.24675000  1.0
  C  C26  1  0.35476000  0.27338000  0.25325000  1.0
  C  C27  1  0.14525000  0.72663000  0.75325000  1.0
  C  C28  1  0.59741000  0.56138000  0.70239000  1.0
  C  C29  1  0.90259000  0.43861000  0.20239000  1.0
  C  C30  1  0.40259000  0.43862000  0.29761000  1.0
  C  C31  1  0.09741000  0.56138000  0.79761000  1.0
  C  C32  1  0.59290000  0.66754000  0.62855000  1.0
  C  C33  1  0.90710000  0.33246000  0.12855000  1.0
  C  C34  1  0.40710000  0.33246000  0.37145000  1.0
  C  C35  1  0.09290000  0.66754000  0.87145000  1.0
  C  C36  1  0.13973000  0.01980000  0.50956000  1.0
  C  C37  1  0.36027000  0.98020000  0.00956000  1.0
  C  C38  1  0.86028000  0.98020000  0.49044000  1.0
  C  C39  1  0.63972000  0.01980000  0.99044000  1.0
  C  C40  1  0.05429000  0.87603000  0.46714000  1.0
  C  C41  1  0.44571000  0.12398000  0.96714000  1.0
  C  C42  1  0.94571000  0.12398000  0.53286000  1.0
  C  C43  1  0.55429000  0.87602000  0.03286000  1.0
  O  O44  1  0.67612000  0.99609000  0.65365000  1.0
  O  O45  1  0.82388000  0.00391000  0.15365000  1.0
  O  O46  1  0.32388000  0.00391000  0.34635000  1.0
  O  O47  1  0.17612000  0.99609000  0.84634000  1.0
  O  O48  1  0.66422000  0.77342000  0.81798000  1.0
  O  O49  1  0.83578000  0.22658000  0.31798000  1.0
  O  O50  1  0.33578000  0.22659000  0.18202000  1.0
  O  O51  1  0.16422000  0.77342000  0.68202000  1.0
  O  O52  1  0.55773000  0.39601000  0.71432000  1.0
  O  O53  1  0.94227000  0.60398000  0.21432000  1.0
  O  O54  1  0.44228000  0.60399000  0.28568000  1.0
  O  O55  1  0.05772000  0.39601000  0.78568000  1.0
  O  O56  1  0.54479000  0.61691000  0.55961000  1.0
  O  O57  1  0.95522000  0.38309000  0.05961000  1.0
  O  O58  1  0.45522000  0.38309000  0.44039000  1.0
  O  O59  1  0.04479000  0.61691000  0.94039000  1.0
  O  O60  1  0.31908000  0.02698000  0.51663000  1.0
  O  O61  1  0.18092000  0.97302000  0.01663000  1.0
  O  O62  1  0.68093000  0.97302000  0.48337000  1.0
  O  O63  1  0.81908000  0.02698000  0.98337000  1.0
  O  O64  1  0.13577000  0.72890000  0.42924000  1.0
  O  O65  1  0.36422000  0.27110000  0.92924000  1.0
  O  O66  1  0.86422000  0.27110000  0.57076000  1.0
  O  O67  1  0.63577000  0.72890000  0.07076000  1.0
  O  O68  1  0.26460000  0.14016000  0.67549000  1.0
  O  O69  1  0.23540000  0.85984000  0.17549000  1.0
  O  O70  1  0.73540000  0.85984000  0.32451000  1.0
  O  O71  1  0.76460000  0.14016000  0.82451000  1.0
  O  O72  1  0.16953000  0.47704000  0.58373000  1.0
  O  O73  1  0.33047000  0.52296000  0.08373000  1.0
  O  O74  1  0.83047000  0.52296000  0.41627000  1.0
  O  O75  1  0.66953000  0.47704000  0.91627000  1.0
