# generated using pymatgen
data_Cd2H5C7NO6
_symmetry_space_group_name_H-M   'P 1'
_cell_length_a   8.17710000
_cell_length_b   10.59650000
_cell_length_c   11.00810000
_cell_angle_alpha   89.99980000
_cell_angle_beta   90.00000000
_cell_angle_gamma   95.34710000
_symmetry_Int_Tables_number   1
_chemical_formula_structural   Cd2H5C7NO6
_chemical_formula_sum   'Cd8 H20 C28 N4 O24'
_cell_volume   949.68620618
_cell_formula_units_Z   4
loop_
 _symmetry_equiv_pos_site_id
 _symmetry_equiv_pos_as_xyz
  1  'x, y, z'
loop_
 _atom_site_type_symbol
 _atom_site_label
 _atom_site_symmetry_multiplicity
 _atom_site_fract_x
 _atom_site_fract_y
 _atom_site_fract_z
 _atom_site_occupancy
  Cd  Cd0  1  0.65244000  0.39600000  0.47176000  1.0
  Cd  Cd1  1  0.84756000  0.60400000  0.97176000  1.0
  Cd  Cd2  1  0.34756000  0.60400000  0.52824000  1.0
  Cd  Cd3  1  0.15244000  0.39600000  0.02824000  1.0
  Cd  Cd4  1  0.49481000  0.39047000  0.76369000  1.0
  Cd  Cd5  1  0.00519000  0.60953000  0.26369000  1.0
  Cd  Cd6  1  0.50520000  0.60953000  0.23631000  1.0
  Cd  Cd7  1  0.99481000  0.39047000  0.73631000  1.0
  H  H8  1  0.30929000  0.33998000  0.55917000  1.0
  H  H9  1  0.19071000  0.66002000  0.05917000  1.0
  H  H10  1  0.69071000  0.66002000  0.44083000  1.0
  H  H11  1  0.80929000  0.33998000  0.94083000  1.0
  H  H12  1  0.76313000  0.52673000  0.67651000  1.0
  H  H13  1  0.73687000  0.47327000  0.17651000  1.0
  H  H14  1  0.23687000  0.47326000  0.32349000  1.0
  H  H15  1  0.26313000  0.52674000  0.82349000  1.0
  H  H16  1  0.01810000  0.07678000  0.25986000  1.0
  H  H17  1  0.48190000  0.92322000  0.75986000  1.0
  H  H18  1  0.98190000  0.92322000  0.74014000  1.0
  H  H19  1  0.51810000  0.07678000  0.24014000  1.0
  H  H20  1  0.69742000  0.88611000  0.52613000  1.0
  H  H21  1  0.80258000  0.11389000  0.02613000  1.0
  H  H22  1  0.30258000  0.11389000  0.47387000  1.0
  H  H23  1  0.19742000  0.88611000  0.97387000  1.0
  H  H24  1  0.60422000  0.09887000  0.58147000  1.0
  H  H25  1  0.89578000  0.90113000  0.08147000  1.0
  H  H26  1  0.39578000  0.90113000  0.41853000  1.0
  H  H27  1  0.10422000  0.09887000  0.91853000  1.0
  C  C28  1  0.87070000  0.19194000  0.36827000  1.0
  C  C29  1  0.62930000  0.80806000  0.86827000  1.0
  C  C30  1  0.12930000  0.80806000  0.63173000  1.0
  C  C31  1  0.37070000  0.19194000  0.13173000  1.0
  C  C32  1  0.92492000  0.07758000  0.33031000  1.0
  C  C33  1  0.57508000  0.92242000  0.83031000  1.0
  C  C34  1  0.07507000  0.92242000  0.66969000  1.0
  C  C35  1  0.42492000  0.07758000  0.16969000  1.0
  C  C36  1  0.86197000  0.96513000  0.38638000  1.0
  C  C37  1  0.63803000  0.03486000  0.88638000  1.0
  C  C38  1  0.13803000  0.03487000  0.61363000  1.0
  C  C39  1  0.36197000  0.96513000  0.11363000  1.0
  C  C40  1  0.74637000  0.97175000  0.47894000  1.0
  C  C41  1  0.75363000  0.02825000  0.97894000  1.0
  C  C42  1  0.25363000  0.02825000  0.52106000  1.0
  C  C43  1  0.24637000  0.97175000  0.02106000  1.0
  C  C44  1  0.69469000  0.08939000  0.50976000  1.0
  C  C45  1  0.80531000  0.91061000  0.00976000  1.0
  C  C46  1  0.30531000  0.91061000  0.49025000  1.0
  C  C47  1  0.19469000  0.08939000  0.99025000  1.0
  C  C48  1  0.94587000  0.31588000  0.31524000  1.0
  C  C49  1  0.55413000  0.68412000  0.81524000  1.0
  C  C50  1  0.05412000  0.68412000  0.68476000  1.0
  C  C51  1  0.44587000  0.31588000  0.18477000  1.0
  C  C52  1  0.92095000  0.84087000  0.34860000  1.0
  C  C53  1  0.57905000  0.15914000  0.84860000  1.0
  C  C54  1  0.07905000  0.15914000  0.65140000  1.0
  C  C55  1  0.42095000  0.84087000  0.15140000  1.0
  N  N56  1  0.75506000  0.19697000  0.45495000  1.0
  N  N57  1  0.74494000  0.80303000  0.95495000  1.0
  N  N58  1  0.24494000  0.80302000  0.54505000  1.0
  N  N59  1  0.25506000  0.19697000  0.04505000  1.0
  O  O60  1  0.40686000  0.40171000  0.56668000  1.0
  O  O61  1  0.09314000  0.59829000  0.06668000  1.0
  O  O62  1  0.59314000  0.59829000  0.43332000  1.0
  O  O63  1  0.90686000  0.40170000  0.93332000  1.0
  O  O64  1  0.74825000  0.43491000  0.66501000  1.0
  O  O65  1  0.75175000  0.56509000  0.16501000  1.0
  O  O66  1  0.25175000  0.56509000  0.33498000  1.0
  O  O67  1  0.24825000  0.43491000  0.83499000  1.0
  O  O68  1  0.89759000  0.41835000  0.35891000  1.0
  O  O69  1  0.60241000  0.58165000  0.85891000  1.0
  O  O70  1  0.10241000  0.58165000  0.64109000  1.0
  O  O71  1  0.39759000  0.41835000  0.14109000  1.0
  O  O72  1  0.05318000  0.31085000  0.23386000  1.0
  O  O73  1  0.44681000  0.68915000  0.73387000  1.0
  O  O74  1  0.94681000  0.68916000  0.76613000  1.0
  O  O75  1  0.55319000  0.31085000  0.26614000  1.0
  O  O76  1  0.00542000  0.83790000  0.25194000  1.0
  O  O77  1  0.49457000  0.16210000  0.75194000  1.0
  O  O78  1  0.99458000  0.16210000  0.74806000  1.0
  O  O79  1  0.50542000  0.83790000  0.24806000  1.0
  O  O80  1  0.88451000  0.74348000  0.41514000  1.0
  O  O81  1  0.61549000  0.25651000  0.91514000  1.0
  O  O82  1  0.11549000  0.25651000  0.58486000  1.0
  O  O83  1  0.38451000  0.74349000  0.08486000  1.0
