# generated using pymatgen
data_Cu3MoH33C28S3Br2N3
_symmetry_space_group_name_H-M   'P 1'
_cell_length_a   10.89630000
_cell_length_b   13.44640000
_cell_length_c   14.46940000
_cell_angle_alpha   65.35130000
_cell_angle_beta   75.67860000
_cell_angle_gamma   72.23910000
_symmetry_Int_Tables_number   1
_chemical_formula_structural   Cu3MoH33C28S3Br2N3
_chemical_formula_sum   'Cu6 Mo2 H66 C56 S6 Br4 N6'
_cell_volume   1817.22957647
_cell_formula_units_Z   2
loop_
 _symmetry_equiv_pos_site_id
 _symmetry_equiv_pos_as_xyz
  1  'x, y, z'
loop_
 _atom_site_type_symbol
 _atom_site_label
 _atom_site_symmetry_multiplicity
 _atom_site_fract_x
 _atom_site_fract_y
 _atom_site_fract_z
 _atom_site_occupancy
  Cu  Cu0  1  0.81167000  0.04131000  0.34725000  1.0
  Cu  Cu1  1  0.18827000  0.95871000  0.65273000  1.0
  Cu  Cu2  1  0.56745000  0.25622000  0.29457000  1.0
  Cu  Cu3  1  0.43254000  0.74379000  0.70543000  1.0
  Cu  Cu4  1  0.86773000  0.24365000  0.13691000  1.0
  Cu  Cu5  1  0.13225000  0.75638000  0.86306000  1.0
  Mo  Mo6  1  0.80095000  0.24609000  0.32978000  1.0
  Mo  Mo7  1  0.19903000  0.75392000  0.67022000  1.0
  H  H8  1  0.36505000  0.33845000  0.15808000  1.0
  H  H9  1  0.63497000  0.66153000  0.84194000  1.0
  H  H10  1  0.23539000  0.25508000  0.10057000  1.0
  H  H11  1  0.76463000  0.74490000  0.89945000  1.0
  H  H12  1  0.43818000  0.92803000  0.28749000  1.0
  H  H13  1  0.56185000  0.07196000  0.71251000  1.0
  H  H14  1  0.55915000  0.02320000  0.33678000  1.0
  H  H15  1  0.44087000  0.97679000  0.66323000  1.0
  H  H16  1  0.16496000  0.08566000  0.12757000  1.0
  H  H17  1  0.83506000  0.91434000  0.87243000  1.0
  H  H18  1  0.24206000  0.94967000  0.20846000  1.0
  H  H19  1  0.75793000  0.05032000  0.79156000  1.0
  H  H20  1  0.44338000  0.96211000  0.07559000  1.0
  H  H21  1  0.55664000  0.03782000  0.92446000  1.0
  H  H22  1  0.35741000  0.09307000  0.99623000  1.0
  H  H23  1  0.64267000  0.90688000  0.00380000  1.0
  H  H24  1  0.45057000  0.79997000  0.04549000  1.0
  H  H25  1  0.54942000  0.20002000  0.95453000  1.0
  H  H26  1  0.36443000  0.70999000  0.96254000  1.0
  H  H27  1  0.63560000  0.29001000  0.03745000  1.0
  H  H28  1  0.05337000  0.98276000  0.88258000  1.0
  H  H29  1  0.94669000  0.01726000  0.11737000  1.0
  H  H30  1  0.12767000  0.08657000  0.95877000  1.0
  H  H31  1  0.87235000  0.91342000  0.04121000  1.0
  H  H32  1  0.39187000  0.49974000  0.21687000  1.0
  H  H33  1  0.60814000  0.50025000  0.78314000  1.0
  H  H34  1  0.18484000  0.60864000  0.28383000  1.0
  H  H35  1  0.81516000  0.39135000  0.71617000  1.0
  H  H36  1  0.20881000  0.33233000  0.57705000  1.0
  H  H37  1  0.79118000  0.66765000  0.42295000  1.0
  H  H38  1  0.40669000  0.23278000  0.49682000  1.0
  H  H39  1  0.59329000  0.76720000  0.50318000  1.0
  H  H40  1  0.06631000  0.54374000  0.55253000  1.0
  H  H41  1  0.93370000  0.45628000  0.44745000  1.0
  H  H42  1  0.01528000  0.62065000  0.43022000  1.0
  H  H43  1  0.98472000  0.37936000  0.56976000  1.0
  H  H44  1  0.15076000  0.21936000  0.44835000  1.0
  H  H45  1  0.84922000  0.78068000  0.55164000  1.0
  H  H46  1  0.15454000  0.20362000  0.33111000  1.0
  H  H47  1  0.84546000  0.79642000  0.66887000  1.0
  H  H48  1  0.10260000  0.10443000  0.45097000  1.0
  H  H49  1  0.89742000  0.89559000  0.54902000  1.0
  H  H50  1  0.07817000  0.45378000  0.24371000  1.0
  H  H51  1  0.92179000  0.54625000  0.75627000  1.0
  H  H52  1  0.95467000  0.49221000  0.16738000  1.0
  H  H53  1  0.04526000  0.50783000  0.83262000  1.0
  H  H54  1  0.06577000  0.36045000  0.19024000  1.0
  H  H55  1  0.93417000  0.63960000  0.80974000  1.0
  H  H56  1  0.60872000  0.52971000  0.30517000  1.0
  H  H57  1  0.39123000  0.47026000  0.69486000  1.0
  H  H58  1  0.74773000  0.55953000  0.21314000  1.0
  H  H59  1  0.25221000  0.44047000  0.78688000  1.0
  H  H60  1  0.71829000  0.59077000  0.32555000  1.0
  H  H61  1  0.28163000  0.40924000  0.67447000  1.0
  H  H62  1  0.62737000  0.38639000  0.57199000  1.0
  H  H63  1  0.37261000  0.61358000  0.42803000  1.0
  H  H64  1  0.58681000  0.27649000  0.55642000  1.0
  H  H65  1  0.41319000  0.72348000  0.44358000  1.0
  H  H66  1  0.54348000  0.41684000  0.46912000  1.0
  H  H67  1  0.45650000  0.58313000  0.53091000  1.0
  H  H68  1  0.92394000  0.07079000  0.57467000  1.0
  H  H69  1  0.07610000  0.92921000  0.42532000  1.0
  H  H70  1  0.75915000  0.12968000  0.61044000  1.0
  H  H71  1  0.24088000  0.87030000  0.38956000  1.0
  H  H72  1  0.88835000  0.16564000  0.63736000  1.0
  H  H73  1  0.11167000  0.83435000  0.36264000  1.0
  C  C74  1  0.37854000  0.24753000  0.18487000  1.0
  C  C75  1  0.62147000  0.75245000  0.81514000  1.0
  C  C76  1  0.30668000  0.20110000  0.15319000  1.0
  C  C77  1  0.69334000  0.79889000  0.84683000  1.0
  C  C78  1  0.32589000  0.08387000  0.18927000  1.0
  C  C79  1  0.67413000  0.91612000  0.81074000  1.0
  C  C80  1  0.41779000  0.01967000  0.25690000  1.0
  C  C81  1  0.58223000  0.98032000  0.74311000  1.0
  C  C82  1  0.48604000  0.07212000  0.28521000  1.0
  C  C83  1  0.51398000  0.92787000  0.71480000  1.0
  C  C84  1  0.25907000  0.03020000  0.14960000  1.0
  C  C85  1  0.74094000  0.96980000  0.85042000  1.0
  C  C86  1  0.34648000  0.01030000  0.05470000  1.0
  C  C87  1  0.65355000  0.98966000  0.94532000  1.0
  C  C88  1  0.29545000  0.95115000  0.00961000  1.0
  C  C89  1  0.70457000  0.04884000  0.99039000  1.0
  C  C90  1  0.36130000  0.84350000  0.01072000  1.0
  C  C91  1  0.63872000  0.15650000  0.98928000  1.0
  C  C92  1  0.31396000  0.79269000  0.96503000  1.0
  C  C93  1  0.68608000  0.20731000  0.03495000  1.0
  C  C94  1  0.14059000  0.94491000  0.92005000  1.0
  C  C95  1  0.85946000  0.05509000  0.07991000  1.0
  C  C96  1  0.18208000  0.00207000  0.96306000  1.0
  C  C97  1  0.81795000  0.99793000  0.03693000  1.0
  C  C98  1  0.34669000  0.46540000  0.29633000  1.0
  C  C99  1  0.65331000  0.53460000  0.70368000  1.0
  C  C100  1  0.23205000  0.52621000  0.33446000  1.0
  C  C101  1  0.76794000  0.47378000  0.66554000  1.0
  C  C102  1  0.17830000  0.47981000  0.43731000  1.0
  C  C103  1  0.82170000  0.52018000  0.56270000  1.0
  C  C104  1  0.24544000  0.37395000  0.49680000  1.0
  C  C105  1  0.75455000  0.62604000  0.50321000  1.0
  C  C106  1  0.35660000  0.31738000  0.45235000  1.0
  C  C107  1  0.64340000  0.68261000  0.54765000  1.0
  C  C108  1  0.05145000  0.53528000  0.48391000  1.0
  C  C109  1  0.94855000  0.46473000  0.51607000  1.0
  C  C110  1  0.96453000  0.26389000  0.40217000  1.0
  C  C111  1  0.03546000  0.73612000  0.59781000  1.0
  C  C112  1  0.92349000  0.36914000  0.32105000  1.0
  C  C113  1  0.07648000  0.63087000  0.67894000  1.0
  C  C114  1  0.78966000  0.41614000  0.35153000  1.0
  C  C115  1  0.21031000  0.58387000  0.64848000  1.0
  C  C116  1  0.74762000  0.33836000  0.44965000  1.0
  C  C117  1  0.25237000  0.66164000  0.55036000  1.0
  C  C118  1  0.85554000  0.24428000  0.48062000  1.0
  C  C119  1  0.14447000  0.75573000  0.51937000  1.0
  C  C120  1  0.09998000  0.19409000  0.40765000  1.0
  C  C121  1  0.90001000  0.80594000  0.59234000  1.0
  C  C122  1  0.00907000  0.42155000  0.22563000  1.0
  C  C123  1  0.99089000  0.57848000  0.77436000  1.0
  C  C124  1  0.71185000  0.52979000  0.29555000  1.0
  C  C125  1  0.28809000  0.47021000  0.70448000  1.0
  C  C126  1  0.61929000  0.35543000  0.51471000  1.0
  C  C127  1  0.38070000  0.64455000  0.48530000  1.0
  C  C128  1  0.85597000  0.14770000  0.58073000  1.0
  C  C129  1  0.14405000  0.85229000  0.41927000  1.0
  S  S130  1  0.97198000  0.12956000  0.27158000  1.0
  S  S131  1  0.02798000  0.87045000  0.72842000  1.0
  S  S132  1  0.65947000  0.13264000  0.43486000  1.0
  S  S133  1  0.34051000  0.86737000  0.56515000  1.0
  S  S134  1  0.70167000  0.36645000  0.18699000  1.0
  S  S135  1  0.29831000  0.63356000  0.81301000  1.0
  Br  Br136  1  0.03677000  0.30476000  0.99453000  1.0
  Br  Br137  1  0.96317000  0.69532000  0.00542000  1.0
  Br  Br138  1  0.82558000  0.87497000  0.33106000  1.0
  Br  Br139  1  0.17442000  0.12505000  0.66889000  1.0
  N  N140  1  0.46787000  0.18495000  0.24957000  1.0
  N  N141  1  0.53215000  0.81503000  0.75045000  1.0
  N  N142  1  0.20514000  0.84200000  0.92018000  1.0
  N  N143  1  0.79492000  0.15801000  0.07979000  1.0
  N  N144  1  0.40784000  0.36171000  0.35335000  1.0
  N  N145  1  0.59216000  0.63829000  0.64666000  1.0
