# generated using pymatgen
data_DyH13(C9O7)2
_symmetry_space_group_name_H-M   'P 1'
_cell_length_a   9.36707000
_cell_length_b   10.44170000
_cell_length_c   11.09250000
_cell_angle_alpha   102.37490000
_cell_angle_beta   109.48720000
_cell_angle_gamma   92.55960000
_symmetry_Int_Tables_number   1
_chemical_formula_structural   DyH13(C9O7)2
_chemical_formula_sum   'Dy2 H26 C36 O28'
_cell_volume   991.04441680
_cell_formula_units_Z   2
loop_
 _symmetry_equiv_pos_site_id
 _symmetry_equiv_pos_as_xyz
  1  'x, y, z'
loop_
 _atom_site_type_symbol
 _atom_site_label
 _atom_site_symmetry_multiplicity
 _atom_site_fract_x
 _atom_site_fract_y
 _atom_site_fract_z
 _atom_site_occupancy
  Dy  Dy0  1  0.23376000  0.96961000  0.49810000  1.0
  Dy  Dy1  1  0.76625000  0.03040000  0.50190000  1.0
  H  H2  1  0.98603000  0.37434000  0.32980000  1.0
  H  H3  1  0.01395000  0.62565000  0.67019000  1.0
  H  H4  1  0.05763000  0.47022000  0.16965000  1.0
  H  H5  1  0.94237000  0.52977000  0.83034000  1.0
  H  H6  1  0.32859000  0.65989000  0.16884000  1.0
  H  H7  1  0.67140000  0.34012000  0.83115000  1.0
  H  H8  1  0.64493000  0.45964000  0.03709000  1.0
  H  H9  1  0.35507000  0.54037000  0.96292000  1.0
  H  H10  1  0.71241000  0.25561000  0.30293000  1.0
  H  H11  1  0.28759000  0.74440000  0.69707000  1.0
  H  H12  1  0.26883000  0.26736000  0.42953000  1.0
  H  H13  1  0.73116000  0.73266000  0.57047000  1.0
  H  H14  1  0.31463000  0.15720000  0.33502000  1.0
  H  H15  1  0.68535000  0.84281000  0.66497000  1.0
  H  H16  1  0.31899000  0.23520000  0.71097000  1.0
  H  H17  1  0.68100000  0.76479000  0.28904000  1.0
  H  H18  1  0.20853000  0.14953000  0.75055000  1.0
  H  H19  1  0.79146000  0.85045000  0.24944000  1.0
  H  H20  1  0.06320000  0.72410000  0.30055000  1.0
  H  H21  1  0.93681000  0.27589000  0.69945000  1.0
  H  H22  1  0.95746000  0.78198000  0.38084000  1.0
  H  H23  1  0.04253000  0.21801000  0.61915000  1.0
  H  H24  1  0.47988000  0.79073000  0.50761000  1.0
  H  H25  1  0.52011000  0.20927000  0.49239000  1.0
  H  H26  1  0.34907000  0.71216000  0.53092000  1.0
  H  H27  1  0.65091000  0.28785000  0.46908000  1.0
  C  C28  1  0.92159000  0.11266000  0.31898000  1.0
  C  C29  1  0.07840000  0.88733000  0.68102000  1.0
  C  C30  1  0.96774000  0.17124000  0.22294000  1.0
  C  C31  1  0.03227000  0.82875000  0.77705000  1.0
  C  C32  1  0.99848000  0.30853000  0.24394000  1.0
  C  C33  1  0.00151000  0.69145000  0.75605000  1.0
  C  C34  1  0.04023000  0.36286000  0.15403000  1.0
  C  C35  1  0.95979000  0.63713000  0.84598000  1.0
  C  C36  1  0.05492000  0.28167000  0.04142000  1.0
  C  C37  1  0.94509000  0.71831000  0.95859000  1.0
  C  C38  1  0.03233000  0.14364000  0.02386000  1.0
  C  C39  1  0.96769000  0.85634000  0.97615000  1.0
  C  C40  1  0.98381000  0.08906000  0.11160000  1.0
  C  C41  1  0.01620000  0.91091000  0.88840000  1.0
  C  C42  1  0.07774000  0.33862000  0.93310000  1.0
  C  C43  1  0.92229000  0.66137000  0.06690000  1.0
  C  C44  1  0.93832000  0.94609000  0.08395000  1.0
  C  C45  1  0.06168000  0.05388000  0.91606000  1.0
  C  C46  1  0.39292000  0.91928000  0.28167000  1.0
  C  C47  1  0.60708000  0.08073000  0.71832000  1.0
  C  C48  1  0.39658000  0.85272000  0.14929000  1.0
  C  C49  1  0.60341000  0.14731000  0.85070000  1.0
  C  C50  1  0.36698000  0.71495000  0.10996000  1.0
  C  C51  1  0.63301000  0.28507000  0.89004000  1.0
  C  C52  1  0.44429000  0.92390000  0.07258000  1.0
  C  C53  1  0.55571000  0.07612000  0.92742000  1.0
  C  C54  1  0.46336000  0.07030000  0.11197000  1.0
  C  C55  1  0.53665000  0.92971000  0.88804000  1.0
  C  C56  1  0.53317000  0.14506000  0.04278000  1.0
  C  C57  1  0.46685000  0.85496000  0.95723000  1.0
  C  C58  1  0.56763000  0.28399000  0.08403000  1.0
  C  C59  1  0.43238000  0.71602000  0.91597000  1.0
  C  C60  1  0.61590000  0.35251000  0.00627000  1.0
  C  C61  1  0.38409000  0.64750000  0.99373000  1.0
  C  C62  1  0.56893000  0.36828000  0.21332000  1.0
  C  C63  1  0.43106000  0.63174000  0.78669000  1.0
  O  O64  1  0.01749000  0.06269000  0.40143000  1.0
  O  O65  1  0.98248000  0.93730000  0.59856000  1.0
  O  O66  1  0.78771000  0.12335000  0.32377000  1.0
  O  O67  1  0.21230000  0.87665000  0.67622000  1.0
  O  O68  1  0.95028000  0.33886000  0.84162000  1.0
  O  O69  1  0.04974000  0.66112000  0.15838000  1.0
  O  O70  1  0.20858000  0.37747000  0.94007000  1.0
  O  O71  1  0.79144000  0.62250000  0.05994000  1.0
  O  O72  1  0.86575000  0.90554000  0.14706000  1.0
  O  O73  1  0.13426000  0.09444000  0.85292000  1.0
  O  O74  1  0.26551000  0.92960000  0.29693000  1.0
  O  O75  1  0.73448000  0.07040000  0.70307000  1.0
  O  O76  1  0.52175000  0.95210000  0.37454000  1.0
  O  O77  1  0.47825000  0.04792000  0.62546000  1.0
  O  O78  1  0.41296000  0.12929000  0.19631000  1.0
  O  O79  1  0.58706000  0.87072000  0.80368000  1.0
  O  O80  1  0.66902000  0.34145000  0.32277000  1.0
  O  O81  1  0.33099000  0.65856000  0.67723000  1.0
  O  O82  1  0.50104000  0.46456000  0.22229000  1.0
  O  O83  1  0.49897000  0.53545000  0.77771000  1.0
  O  O84  1  0.31918000  0.18773000  0.42685000  1.0
  O  O85  1  0.68080000  0.81229000  0.57315000  1.0
  O  O86  1  0.23084000  0.16719000  0.67354000  1.0
  O  O87  1  0.76915000  0.83280000  0.32646000  1.0
  O  O88  1  0.06541000  0.77585000  0.39163000  1.0
  O  O89  1  0.93459000  0.22415000  0.60836000  1.0
  O  O90  1  0.36798000  0.77884000  0.48582000  1.0
  O  O91  1  0.63201000  0.22117000  0.51418000  1.0
