# generated using pymatgen
data_CdH14C16(NO)4
_symmetry_space_group_name_H-M   'P 1'
_cell_length_a   7.45413000
_cell_length_b   11.03240000
_cell_length_c   11.85229662
_cell_angle_alpha   117.54783263
_cell_angle_beta   108.03500638
_cell_angle_gamma   90.53460000
_symmetry_Int_Tables_number   1
_chemical_formula_structural   CdH14C16(NO)4
_chemical_formula_sum   'Cd2 H28 C32 N8 O8'
_cell_volume   808.17225360
_cell_formula_units_Z   2
loop_
 _symmetry_equiv_pos_site_id
 _symmetry_equiv_pos_as_xyz
  1  'x, y, z'
loop_
 _atom_site_type_symbol
 _atom_site_label
 _atom_site_symmetry_multiplicity
 _atom_site_fract_x
 _atom_site_fract_y
 _atom_site_fract_z
 _atom_site_occupancy
  Cd  Cd0  1  0.44929000  0.69909000  0.39809000  1.0
  Cd  Cd1  1  0.55071000  0.30091000  0.60191000  1.0
  H  H2  1  0.08503000  0.64539000  0.53229000  1.0
  H  H3  1  0.94673000  0.88664000  0.53183000  1.0
  H  H4  1  0.91497000  0.35461000  0.46771000  1.0
  H  H5  1  0.05327000  0.11336000  0.46817000  1.0
  H  H6  1  0.01113000  0.61182000  0.64279000  1.0
  H  H7  1  0.13110000  0.03054000  0.64273000  1.0
  H  H8  1  0.98887000  0.38818000  0.35721000  1.0
  H  H9  1  0.86890000  0.96945000  0.35727000  1.0
  H  H10  1  0.34657000  0.34265000  0.27474000  1.0
  H  H11  1  0.42821000  0.93158000  0.27452000  1.0
  H  H12  1  0.65343000  0.65736000  0.72526000  1.0
  H  H13  1  0.57179000  0.06842000  0.72548000  1.0
  H  H14  1  0.82082000  0.32423000  0.98861000  1.0
  H  H15  1  0.66807000  0.66436000  0.98799000  1.0
  H  H16  1  0.17918000  0.67577000  0.01139000  1.0
  H  H17  1  0.33193000  0.33564000  0.01201000  1.0
  H  H18  1  0.00635000  0.60125000  0.16553000  1.0
  H  H19  1  0.65967000  0.56384000  0.16471000  1.0
  H  H20  1  0.99365000  0.39875000  0.83447000  1.0
  H  H21  1  0.34033000  0.43616000  0.83529000  1.0
  H  H22  1  0.12611000  0.15177000  0.25252000  1.0
  H  H23  1  0.62666000  0.10036000  0.25245000  1.0
  H  H24  1  0.87388000  0.84823000  0.74748000  1.0
  H  H25  1  0.37334000  0.89963000  0.74755000  1.0
  H  H26  1  0.06092000  0.89485000  0.15208000  1.0
  H  H27  1  0.59144000  0.25724000  0.15242000  1.0
  H  H28  1  0.93908000  0.10515000  0.84792000  1.0
  H  H29  1  0.40856000  0.74276000  0.84758000  1.0
  C  C30  1  0.78315000  0.59335000  0.46978000  1.0
  C  C31  1  0.18662000  0.87640000  0.46966000  1.0
  C  C32  1  0.21686000  0.40666000  0.53022000  1.0
  C  C33  1  0.81338000  0.12360000  0.53034000  1.0
  C  C34  1  0.98296000  0.57413000  0.53437000  1.0
  C  C35  1  0.05114000  0.96002000  0.53419000  1.0
  C  C36  1  0.01705000  0.42588000  0.46563000  1.0
  C  C37  1  0.94886000  0.03998000  0.46581000  1.0
  C  C38  1  0.22961000  0.37720000  0.22296000  1.0
  C  C39  1  0.49365000  0.84538000  0.22268000  1.0
  C  C40  1  0.77038000  0.62281000  0.77704000  1.0
  C  C41  1  0.50635000  0.15461000  0.77732000  1.0
  C  C42  1  0.95547000  0.37023000  0.07366000  1.0
  C  C43  1  0.61861000  0.70329000  0.07317000  1.0
  C  C44  1  0.04453000  0.62977000  0.92634000  1.0
  C  C45  1  0.38139000  0.29671000  0.92683000  1.0
  C  C46  1  0.04795000  0.50552000  0.16067000  1.0
  C  C47  1  0.61326000  0.65482000  0.16010000  1.0
  C  C48  1  0.95205000  0.49448000  0.83933000  1.0
  C  C49  1  0.38673000  0.34516000  0.83989000  1.0
  C  C50  1  0.03467000  0.14233000  0.05593000  1.0
  C  C51  1  0.52125000  0.91344000  0.05572000  1.0
  C  C52  1  0.96532000  0.85767000  0.94407000  1.0
  C  C53  1  0.47875000  0.08656000  0.94428000  1.0
  C  C54  1  0.07253000  0.08459000  0.14204000  1.0
  C  C55  1  0.56964000  0.05728000  0.14200000  1.0
  C  C56  1  0.92747000  0.91541000  0.85796000  1.0
  C  C57  1  0.43036000  0.94272000  0.85800000  1.0
  C  C58  1  0.03719000  0.94072000  0.08557000  1.0
  C  C59  1  0.54855000  0.14489000  0.08578000  1.0
  C  C60  1  0.96281000  0.05928000  0.91443000  1.0
  C  C61  1  0.45145000  0.85511000  0.91423000  1.0
  N  N62  1  0.21812000  0.50787000  0.25216000  1.0
  N  N63  1  0.53449000  0.74382000  0.25172000  1.0
  N  N64  1  0.78188000  0.49213000  0.74784000  1.0
  N  N65  1  0.46551000  0.25618000  0.74828000  1.0
  N  N66  1  0.07177000  0.28974000  0.11469000  1.0
  N  N67  1  0.54317000  0.82473000  0.11438000  1.0
  N  N68  1  0.92823000  0.71026000  0.88531000  1.0
  N  N69  1  0.45683000  0.17527000  0.88562000  1.0
  O  O70  1  0.73499000  0.70946000  0.54172000  1.0
  O  O71  1  0.30610000  0.83178000  0.54138000  1.0
  O  O72  1  0.26501000  0.29054000  0.45828000  1.0
  O  O73  1  0.69390000  0.16823000  0.45863000  1.0
  O  O74  1  0.67334000  0.50318000  0.35276000  1.0
  O  O75  1  0.18029000  0.85019000  0.35294000  1.0
  O  O76  1  0.32666000  0.49682000  0.64724000  1.0
  O  O77  1  0.81972000  0.14980000  0.64706000  1.0
