# generated using pymatgen
data_HgH10C12(N2Cl)2
_symmetry_space_group_name_H-M   'P 1'
_cell_length_a   7.98238000
_cell_length_b   8.89751000
_cell_length_c   10.86730000
_cell_angle_alpha   102.92500000
_cell_angle_beta   99.19280000
_cell_angle_gamma   110.91100000
_symmetry_Int_Tables_number   1
_chemical_formula_structural   HgH10C12(N2Cl)2
_chemical_formula_sum   'Hg2 H20 C24 N8 Cl4'
_cell_volume   677.96034494
_cell_formula_units_Z   2
loop_
 _symmetry_equiv_pos_site_id
 _symmetry_equiv_pos_as_xyz
  1  'x, y, z'
loop_
 _atom_site_type_symbol
 _atom_site_label
 _atom_site_symmetry_multiplicity
 _atom_site_fract_x
 _atom_site_fract_y
 _atom_site_fract_z
 _atom_site_occupancy
  Hg  Hg0  1  0.52483000  0.41726000  0.29389000  1.0
  Hg  Hg1  1  0.47517000  0.58274000  0.70611000  1.0
  H  H2  1  0.68478000  0.45518000  0.04857000  1.0
  H  H3  1  0.31522000  0.54482000  0.95143000  1.0
  H  H4  1  0.79258000  0.32674000  0.86753000  1.0
  H  H5  1  0.20742000  0.67326000  0.13247000  1.0
  H  H6  1  0.84500000  0.06208000  0.86987000  1.0
  H  H7  1  0.15501000  0.93792000  0.13014000  1.0
  H  H8  1  0.79147000  0.94533000  0.05355000  1.0
  H  H9  1  0.20853000  0.05467000  0.94646000  1.0
  H  H10  1  0.75918000  0.19413000  0.35967000  1.0
  H  H11  1  0.24082000  0.80587000  0.64033000  1.0
  H  H12  1  0.53789000  0.03587000  0.26617000  1.0
  H  H13  1  0.46211000  0.96414000  0.73384000  1.0
  H  H14  1  0.11960000  0.22865000  0.37649000  1.0
  H  H15  1  0.88040000  0.77135000  0.62351000  1.0
  H  H16  1  0.38764000  0.15828000  0.44172000  1.0
  H  H17  1  0.61236000  0.84172000  0.55828000  1.0
  H  H18  1  0.34548000  0.86152000  0.41976000  1.0
  H  H19  1  0.65452000  0.13847000  0.58025000  1.0
  H  H20  1  0.03129000  0.62606000  0.34153000  1.0
  H  H21  1  0.96871000  0.37394000  0.65847000  1.0
  C  C22  1  0.71314000  0.34379000  0.04796000  1.0
  C  C23  1  0.28686000  0.65621000  0.95204000  1.0
  C  C24  1  0.77282000  0.27076000  0.94627000  1.0
  C  C25  1  0.22718000  0.72924000  0.05373000  1.0
  C  C26  1  0.80117000  0.12561000  0.94814000  1.0
  C  C27  1  0.19883000  0.87439000  0.05186000  1.0
  C  C28  1  0.77217000  0.06016000  0.05196000  1.0
  C  C29  1  0.22783000  0.93984000  0.94805000  1.0
  C  C30  1  0.71746000  0.14353000  0.15176000  1.0
  C  C31  1  0.28254000  0.85647000  0.84824000  1.0
  C  C32  1  0.68672000  0.08585000  0.27032000  1.0
  C  C33  1  0.31328000  0.91416000  0.72968000  1.0
  C  C34  1  0.92408000  0.96387000  0.32153000  1.0
  C  C35  1  0.07592000  0.03613000  0.67847000  1.0
  C  C36  1  0.09952000  0.09858000  0.36730000  1.0
  C  C37  1  0.90048000  0.90141000  0.63270000  1.0
  C  C38  1  0.24834000  0.05690000  0.40280000  1.0
  C  C39  1  0.75166000  0.94310000  0.59720000  1.0
  C  C40  1  0.22432000  0.88834000  0.39189000  1.0
  C  C41  1  0.77568000  0.11166000  0.60811000  1.0
  C  C42  1  0.04992000  0.75508000  0.34736000  1.0
  C  C43  1  0.95007000  0.24492000  0.65264000  1.0
  C  C44  1  0.89819000  0.79573000  0.31276000  1.0
  C  C45  1  0.10180000  0.20427000  0.68724000  1.0
  N  N46  1  0.68693000  0.28233000  0.14876000  1.0
  N  N47  1  0.31306000  0.71767000  0.85124000  1.0
  N  N48  1  0.74723000  0.95329000  0.28193000  1.0
  N  N49  1  0.25277000  0.04671000  0.71807000  1.0
  N  N50  1  0.62090000  0.79264000  0.25248000  1.0
  N  N51  1  0.37910000  0.20736000  0.74752000  1.0
  N  N52  1  0.70968000  0.69774000  0.27033000  1.0
  N  N53  1  0.29032000  0.30226000  0.72967000  1.0
  Cl  Cl54  1  0.70976000  0.44859000  0.50368000  1.0
  Cl  Cl55  1  0.29024000  0.55141000  0.49632000  1.0
  Cl  Cl56  1  0.24623000  0.34096000  0.13119000  1.0
  Cl  Cl57  1  0.75377000  0.65904000  0.86881000  1.0
