# generated using pymatgen
data_SmH12C9NO10
_symmetry_space_group_name_H-M   'P 1'
_cell_length_a   7.26372000
_cell_length_b   11.66080000
_cell_length_c   18.62250000
_cell_angle_alpha   80.54660000
_cell_angle_beta   89.99980000
_cell_angle_gamma   89.99750000
_symmetry_Int_Tables_number   1
_chemical_formula_structural   SmH12C9NO10
_chemical_formula_sum   'Sm4 H48 C36 N4 O40'
_cell_volume   1555.91933745
_cell_formula_units_Z   4
loop_
 _symmetry_equiv_pos_site_id
 _symmetry_equiv_pos_as_xyz
  1  'x, y, z'
loop_
 _atom_site_type_symbol
 _atom_site_label
 _atom_site_symmetry_multiplicity
 _atom_site_fract_x
 _atom_site_fract_y
 _atom_site_fract_z
 _atom_site_occupancy
  Sm  Sm0  1  0.73622000  0.69549000  0.36775000  1.0
  Sm  Sm1  1  0.23619000  0.80452000  0.13224000  1.0
  Sm  Sm2  1  0.26379000  0.30451000  0.63225000  1.0
  Sm  Sm3  1  0.76381000  0.19547000  0.86776000  1.0
  H  H4  1  0.00207000  0.86925000  0.27914000  1.0
  H  H5  1  0.50206000  0.63076000  0.22086000  1.0
  H  H6  1  0.99795000  0.13075000  0.72086000  1.0
  H  H7  1  0.49793000  0.36923000  0.77914000  1.0
  H  H8  1  0.84213000  0.93162000  0.31896000  1.0
  H  H9  1  0.34214000  0.56837000  0.18105000  1.0
  H  H10  1  0.15788000  0.06837000  0.68104000  1.0
  H  H11  1  0.65784000  0.43162000  0.81895000  1.0
  H  H12  1  0.14553000  0.57799000  0.36342000  1.0
  H  H13  1  0.64552000  0.92200000  0.13657000  1.0
  H  H14  1  0.85447000  0.42201000  0.63658000  1.0
  H  H15  1  0.35447000  0.07800000  0.86343000  1.0
  H  H16  1  0.07413000  0.65308000  0.28987000  1.0
  H  H17  1  0.57410000  0.84693000  0.21012000  1.0
  H  H18  1  0.92588000  0.34693000  0.71013000  1.0
  H  H19  1  0.42589000  0.15308000  0.78989000  1.0
  H  H20  1  0.72150000  0.45310000  0.32230000  1.0
  H  H21  1  0.22147000  0.04690000  0.17769000  1.0
  H  H22  1  0.27850000  0.54690000  0.67770000  1.0
  H  H23  1  0.77853000  0.95310000  0.82231000  1.0
  H  H24  1  0.71742000  0.42600000  0.40956000  1.0
  H  H25  1  0.21739000  0.07401000  0.09044000  1.0
  H  H26  1  0.28259000  0.57400000  0.59044000  1.0
  H  H27  1  0.78260000  0.92599000  0.90957000  1.0
  H  H28  1  0.81476000  0.51276000  0.49728000  1.0
  H  H29  1  0.31476000  0.98726000  0.00272000  1.0
  H  H30  1  0.18523000  0.48724000  0.50272000  1.0
  H  H31  1  0.68523000  0.01275000  0.99728000  1.0
  H  H32  1  0.96332000  0.61614000  0.49987000  1.0
  H  H33  1  0.46329000  0.88385000  0.00013000  1.0
  H  H34  1  0.03668000  0.38385000  0.50013000  1.0
  H  H35  1  0.53670000  0.11615000  0.99987000  1.0
  H  H36  1  0.73921000  0.17021000  0.43929000  1.0
  H  H37  1  0.23922000  0.32981000  0.06071000  1.0
  H  H38  1  0.26077000  0.82979000  0.56070000  1.0
  H  H39  1  0.76076000  0.67020000  0.93929000  1.0
  H  H40  1  0.81440000  0.78926000  0.65428000  1.0
  H  H41  1  0.31446000  0.71074000  0.84571000  1.0
  H  H42  1  0.18561000  0.21073000  0.34571000  1.0
  H  H43  1  0.68554000  0.28927000  0.15429000  1.0
  H  H44  1  0.92360000  0.78691000  0.56804000  1.0
  H  H45  1  0.42364000  0.71310000  0.93196000  1.0
  H  H46  1  0.07642000  0.21310000  0.43195000  1.0
  H  H47  1  0.57635000  0.28690000  0.06804000  1.0
  H  H48  1  0.68713000  0.75998000  0.57652000  1.0
  H  H49  1  0.18718000  0.74003000  0.92347000  1.0
  H  H50  1  0.31289000  0.24003000  0.42347000  1.0
  H  H51  1  0.81282000  0.25997000  0.07653000  1.0
  C  C52  1  0.76204000  0.93881000  0.57593000  1.0
  C  C53  1  0.26213000  0.56120000  0.92407000  1.0
  C  C54  1  0.23798000  0.06120000  0.42406000  1.0
  C  C55  1  0.73788000  0.43881000  0.07593000  1.0
  C  C56  1  0.75681000  0.00127000  0.50393000  1.0
  C  C57  1  0.25688000  0.49873000  0.99608000  1.0
  C  C58  1  0.24319000  0.99873000  0.49607000  1.0
  C  C59  1  0.74312000  0.50126000  0.00392000  1.0
  C  C60  1  0.73503000  0.12170000  0.49454000  1.0
  C  C61  1  0.23507000  0.37831000  0.00546000  1.0
  C  C62  1  0.26497000  0.87830000  0.50545000  1.0
  C  C63  1  0.76492000  0.62169000  0.99454000  1.0
  C  C64  1  0.70361000  0.17848000  0.55373000  1.0
  C  C65  1  0.20363000  0.32153000  0.94628000  1.0
  C  C66  1  0.29638000  0.82152000  0.44627000  1.0
  C  C67  1  0.79636000  0.67847000  0.05373000  1.0
  C  C68  1  0.70123000  0.10818000  0.62276000  1.0
  C  C69  1  0.20124000  0.39184000  0.87725000  1.0
  C  C70  1  0.29878000  0.89182000  0.37724000  1.0
  C  C71  1  0.79876000  0.60817000  0.12275000  1.0
  C  C72  1  0.79889000  0.81124000  0.59515000  1.0
  C  C73  1  0.29894000  0.68876000  0.90485000  1.0
  C  C74  1  0.20114000  0.18876000  0.40484000  1.0
  C  C75  1  0.70106000  0.31124000  0.09516000  1.0
  C  C76  1  0.77269000  0.94739000  0.43595000  1.0
  C  C77  1  0.27273000  0.55261000  0.06406000  1.0
  C  C78  1  0.22730000  0.05261000  0.56405000  1.0
  C  C79  1  0.72727000  0.44739000  0.93595000  1.0
  C  C80  1  0.67964000  0.30771000  0.54105000  1.0
  C  C81  1  0.17966000  0.19231000  0.95896000  1.0
  C  C82  1  0.32036000  0.69229000  0.45895000  1.0
  C  C83  1  0.82032000  0.80769000  0.04105000  1.0
  C  C84  1  0.65501000  0.15070000  0.69288000  1.0
  C  C85  1  0.15501000  0.34931000  0.80713000  1.0
  C  C86  1  0.34500000  0.84929000  0.30712000  1.0
  C  C87  1  0.84498000  0.65069000  0.19287000  1.0
  N  N88  1  0.73637000  0.99406000  0.63326000  1.0
  N  N89  1  0.23639000  0.50595000  0.86674000  1.0
  N  N90  1  0.26366000  0.00594000  0.36673000  1.0
  N  N91  1  0.76360000  0.49406000  0.13326000  1.0
  O  O92  1  0.75572000  0.83623000  0.44295000  1.0
  O  O93  1  0.25581000  0.66378000  0.05705000  1.0
  O  O94  1  0.24426000  0.16377000  0.55704000  1.0
  O  O95  1  0.74422000  0.33622000  0.94295000  1.0
  O  O96  1  0.79830000  0.01440000  0.37637000  1.0
  O  O97  1  0.29835000  0.48561000  0.12363000  1.0
  O  O98  1  0.20171000  0.98560000  0.62362000  1.0
  O  O99  1  0.70165000  0.51438000  0.87638000  1.0
  O  O100  1  0.79137000  0.36682000  0.49545000  1.0
  O  O101  1  0.29140000  0.13319000  0.00456000  1.0
  O  O102  1  0.20862000  0.63318000  0.50455000  1.0
  O  O103  1  0.70859000  0.86681000  0.99544000  1.0
  O  O104  1  0.55552000  0.35439000  0.57401000  1.0
  O  O105  1  0.05555000  0.14563000  0.92601000  1.0
  O  O106  1  0.44451000  0.64561000  0.42601000  1.0
  O  O107  1  0.94444000  0.85437000  0.07399000  1.0
  O  O108  1  0.49290000  0.18838000  0.69996000  1.0
  O  O109  1  0.99289000  0.31164000  0.80006000  1.0
  O  O110  1  0.50710000  0.81162000  0.30004000  1.0
  O  O111  1  0.00710000  0.68836000  0.19994000  1.0
  O  O112  1  0.77234000  0.13910000  0.74396000  1.0
  O  O113  1  0.27232000  0.36091000  0.75604000  1.0
  O  O114  1  0.22766000  0.86091000  0.25603000  1.0
  O  O115  1  0.72767000  0.63909000  0.24396000  1.0
  O  O116  1  0.86931000  0.86413000  0.29179000  1.0
  O  O117  1  0.36929000  0.63587000  0.20821000  1.0
  O  O118  1  0.13071000  0.13586000  0.70821000  1.0
  O  O119  1  0.63069000  0.36412000  0.79179000  1.0
  O  O120  1  0.05674000  0.63728000  0.34379000  1.0
  O  O121  1  0.55670000  0.86274000  0.15620000  1.0
  O  O122  1  0.94327000  0.36273000  0.65621000  1.0
  O  O123  1  0.44330000  0.13726000  0.84380000  1.0
  O  O124  1  0.68616000  0.48359000  0.36587000  1.0
  O  O125  1  0.18606000  0.01644000  0.13412000  1.0
  O  O126  1  0.31385000  0.51642000  0.63413000  1.0
  O  O127  1  0.81393000  0.98356000  0.86588000  1.0
  O  O128  1  0.83535000  0.59854000  0.48714000  1.0
  O  O129  1  0.33531000  0.90147000  0.01285000  1.0
  O  O130  1  0.16466000  0.40146000  0.51286000  1.0
  O  O131  1  0.66468000  0.09853000  0.98715000  1.0
