# generated using pymatgen
data_CoH3(CO)4
_symmetry_space_group_name_H-M   'P 1'
_cell_length_a   6.57734000
_cell_length_b   15.30830000
_cell_length_c   15.30984672
_cell_angle_alpha   117.96818839
_cell_angle_beta   98.23263771
_cell_angle_gamma   98.24690000
_symmetry_Int_Tables_number   1
_chemical_formula_structural   CoH3(CO)4
_chemical_formula_sum   'Co6 H18 C24 O24'
_cell_volume   1307.75865285
_cell_formula_units_Z   6
loop_
 _symmetry_equiv_pos_site_id
 _symmetry_equiv_pos_as_xyz
  1  'x, y, z'
loop_
 _atom_site_type_symbol
 _atom_site_label
 _atom_site_symmetry_multiplicity
 _atom_site_fract_x
 _atom_site_fract_y
 _atom_site_fract_z
 _atom_site_occupancy
  Co  Co0  1  0.69262000  0.72132000  0.32078000  1.0
  Co  Co1  1  0.37182000  0.67916000  0.40042000  1.0
  Co  Co2  1  0.97121000  0.59953000  0.27869000  1.0
  Co  Co3  1  0.30738000  0.27868000  0.67922000  1.0
  Co  Co4  1  0.62818000  0.32084000  0.59958000  1.0
  Co  Co5  1  0.02877000  0.40046000  0.72130000  1.0
  H  H6  1  0.42882000  0.81658000  0.26713000  1.0
  H  H7  1  0.16155000  0.73282000  0.54919000  1.0
  H  H8  1  0.61196000  0.45072000  0.18339000  1.0
  H  H9  1  0.57113000  0.18339000  0.73285000  1.0
  H  H10  1  0.83848000  0.26718000  0.45082000  1.0
  H  H11  1  0.38806000  0.54928000  0.81659000  1.0
  H  H12  1  0.66068000  0.85438000  0.26644000  1.0
  H  H13  1  0.39405000  0.73358000  0.58786000  1.0
  H  H14  1  0.80611000  0.41221000  0.14578000  1.0
  H  H15  1  0.33926000  0.14563000  0.73357000  1.0
  H  H16  1  0.60600000  0.26642000  0.41214000  1.0
  H  H17  1  0.19392000  0.58779000  0.85422000  1.0
  H  H18  1  0.68886000  0.54650000  0.56818000  1.0
  H  H19  1  0.12065000  0.43168000  0.97828000  1.0
  H  H20  1  0.14237000  0.02168000  0.45344000  1.0
  H  H21  1  0.31115000  0.45350000  0.43182000  1.0
  H  H22  1  0.87933000  0.56833000  0.02172000  1.0
  H  H23  1  0.85764000  0.97833000  0.54657000  1.0
  C  C24  1  0.76183000  0.62087000  0.44812000  1.0
  C  C25  1  0.31354000  0.55184000  0.17268000  1.0
  C  C26  1  0.14092000  0.82728000  0.37909000  1.0
  C  C27  1  0.23818000  0.37913000  0.55188000  1.0
  C  C28  1  0.68645000  0.44817000  0.82732000  1.0
  C  C29  1  0.85907000  0.17272000  0.62091000  1.0
  C  C30  1  0.88771000  0.55904000  0.47270000  1.0
  C  C31  1  0.41489000  0.52727000  0.08631000  1.0
  C  C32  1  0.32864000  0.91366000  0.44093000  1.0
  C  C33  1  0.11232000  0.44097000  0.52731000  1.0
  C  C34  1  0.58509000  0.47273000  0.91369000  1.0
  C  C35  1  0.67135000  0.08633000  0.55907000  1.0
  C  C36  1  0.06687000  0.53205000  0.43208000  1.0
  C  C37  1  0.63470000  0.56796000  0.09994000  1.0
  C  C38  1  0.53485000  0.90004000  0.46793000  1.0
  C  C39  1  0.93314000  0.46795000  0.56792000  1.0
  C  C40  1  0.36527000  0.43205000  0.90006000  1.0
  C  C41  1  0.46516000  0.09996000  0.53208000  1.0
  C  C42  1  0.82612000  0.52621000  0.53840000  1.0
  C  C43  1  0.28769000  0.46152000  0.98779000  1.0
  C  C44  1  0.29990000  0.01218000  0.47376000  1.0
  C  C45  1  0.17389000  0.47379000  0.46160000  1.0
  C  C46  1  0.71228000  0.53847000  0.01220000  1.0
  C  C47  1  0.70009000  0.98781000  0.52624000  1.0
  O  O48  1  0.84204000  0.66586000  0.40248000  1.0
  O  O49  1  0.43938000  0.59765000  0.26330000  1.0
  O  O50  1  0.17611000  0.73666000  0.33423000  1.0
  O  O51  1  0.15796000  0.33414000  0.59752000  1.0
  O  O52  1  0.56061000  0.40235000  0.73670000  1.0
  O  O53  1  0.82389000  0.26334000  0.66577000  1.0
  O  O54  1  0.58766000  0.63112000  0.47297000  1.0
  O  O55  1  0.11451000  0.52689000  0.15810000  1.0
  O  O56  1  0.95648000  0.84185000  0.36876000  1.0
  O  O57  1  0.41236000  0.36888000  0.52704000  1.0
  O  O58  1  0.88547000  0.47312000  0.84190000  1.0
  O  O59  1  0.04352000  0.15815000  0.63124000  1.0
  O  O60  1  0.13811000  0.55750000  0.36725000  1.0
  O  O61  1  0.77080000  0.63271000  0.19021000  1.0
  O  O62  1  0.58067000  0.80977000  0.44241000  1.0
  O  O63  1  0.86190000  0.44250000  0.63275000  1.0
  O  O64  1  0.22918000  0.36729000  0.80979000  1.0
  O  O65  1  0.41934000  0.19023000  0.55759000  1.0
  O  O66  1  0.54691000  0.79312000  0.23853000  1.0
  O  O67  1  0.30832000  0.76142000  0.55439000  1.0
  O  O68  1  0.75344000  0.44556000  0.20697000  1.0
  O  O69  1  0.45307000  0.20688000  0.76147000  1.0
  O  O70  1  0.69170000  0.23857000  0.44561000  1.0
  O  O71  1  0.24657000  0.55444000  0.79303000  1.0
