# generated using pymatgen
data_Na2CdH15C7N7O10
_symmetry_space_group_name_H-M   'P 1'
_cell_length_a   6.88690000
_cell_length_b   10.64800000
_cell_length_c   13.19724970
_cell_angle_alpha   113.79345888
_cell_angle_beta   104.63638874
_cell_angle_gamma   89.99080000
_symmetry_Int_Tables_number   1
_chemical_formula_structural   Na2CdH15C7N7O10
_chemical_formula_sum   'Na4 Cd2 H30 C14 N14 O20'
_cell_volume   851.10410508
_cell_formula_units_Z   2
loop_
 _symmetry_equiv_pos_site_id
 _symmetry_equiv_pos_as_xyz
  1  'x, y, z'
loop_
 _atom_site_type_symbol
 _atom_site_label
 _atom_site_symmetry_multiplicity
 _atom_site_fract_x
 _atom_site_fract_y
 _atom_site_fract_z
 _atom_site_occupancy
  Na  Na0  1  0.61450000  0.91464000  0.58149000  1.0
  Na  Na1  1  0.88553000  0.33312000  0.41853000  1.0
  Na  Na2  1  0.38548000  0.08534000  0.41850000  1.0
  Na  Na3  1  0.11446000  0.66688000  0.58147000  1.0
  Cd  Cd4  1  0.75005000  0.92589000  0.00001000  1.0
  Cd  Cd5  1  0.24999000  0.07411000  1.00000000  1.0
  H  H6  1  0.03127000  0.92904000  0.72443000  1.0
  H  H7  1  0.46869000  0.20466000  0.27563000  1.0
  H  H8  1  0.96872000  0.07096000  0.27556000  1.0
  H  H9  1  0.53131000  0.79535000  0.72439000  1.0
  H  H10  1  0.88658000  0.81708000  0.72811000  1.0
  H  H11  1  0.61340000  0.08899000  0.27189000  1.0
  H  H12  1  0.11342000  0.18292000  0.27189000  1.0
  H  H13  1  0.38659000  0.91101000  0.72811000  1.0
  H  H14  1  0.46227000  0.63088000  0.36076000  1.0
  H  H15  1  0.03784000  0.27001000  0.63917000  1.0
  H  H16  1  0.53775000  0.36912000  0.63924000  1.0
  H  H17  1  0.96216000  0.72998000  0.36083000  1.0
  H  H18  1  0.63277000  0.72867000  0.35888000  1.0
  H  H19  1  0.86740000  0.36978000  0.64117000  1.0
  H  H20  1  0.36725000  0.27134000  0.64112000  1.0
  H  H21  1  0.13260000  0.63021000  0.35883000  1.0
  H  H22  1  0.23364000  0.02981000  0.57996000  1.0
  H  H23  1  0.26646000  0.44990000  0.41996000  1.0
  H  H24  1  0.76635000  0.97018000  0.42004000  1.0
  H  H25  1  0.73355000  0.55010000  0.58004000  1.0
  H  H26  1  0.20527000  0.87619000  0.47960000  1.0
  H  H27  1  0.29471000  0.39667000  0.52034000  1.0
  H  H28  1  0.79471000  0.12381000  0.52040000  1.0
  H  H29  1  0.70529000  0.60333000  0.47966000  1.0
  H  H30  1  0.76787000  0.55077000  0.18064000  1.0
  H  H31  1  0.73229000  0.37024000  0.81961000  1.0
  H  H32  1  0.23209000  0.44922000  0.81935000  1.0
  H  H33  1  0.26767000  0.62976000  0.18039000  1.0
  H  H34  1  0.74992000  0.34278000  0.00011000  1.0
  H  H35  1  0.24996000  0.65721000  0.99987000  1.0
  C  C36  1  0.76488000  0.82206000  0.20444000  1.0
  C  C37  1  0.73519000  0.61755000  0.79573000  1.0
  C  C38  1  0.23516000  0.17794000  0.79556000  1.0
  C  C39  1  0.26483000  0.38245000  0.20427000  1.0
  C  C40  1  0.75812000  0.69111000  0.09781000  1.0
  C  C41  1  0.74211000  0.59341000  0.90245000  1.0
  C  C42  1  0.24191000  0.30889000  0.90219000  1.0
  C  C43  1  0.25790000  0.40659000  0.09755000  1.0
  C  C44  1  0.75997000  0.56150000  0.10117000  1.0
  C  C45  1  0.74022000  0.46043000  0.89908000  1.0
  C  C46  1  0.24001000  0.43850000  0.89883000  1.0
  C  C47  1  0.25975000  0.53956000  0.10091000  1.0
  C  C48  1  0.74999000  0.44504000  0.00011000  1.0
  C  C49  1  0.24996000  0.55496000  0.99988000  1.0
  N  N50  1  0.75012000  0.70498000  0.00012000  1.0
  N  N51  1  0.24992000  0.29503000  0.99989000  1.0
  N  N52  1  0.89078000  0.05274000  0.92057000  1.0
  N  N53  1  0.60916000  0.13218000  0.07939000  1.0
  N  N54  1  0.10922000  0.94728000  0.07944000  1.0
  N  N55  1  0.39088000  0.86783000  0.92063000  1.0
  N  N56  1  0.80031000  0.09277000  0.85100000  1.0
  N  N57  1  0.69958000  0.24176000  0.14902000  1.0
  N  N58  1  0.19969000  0.90724000  0.14901000  1.0
  N  N59  1  0.30044000  0.75826000  0.85100000  1.0
  N  N60  1  0.71341000  0.13103000  0.78221000  1.0
  N  N61  1  0.78645000  0.34878000  0.21787000  1.0
  N  N62  1  0.28659000  0.86897000  0.21779000  1.0
  N  N63  1  0.21353000  0.65124000  0.78214000  1.0
  O  O64  1  0.75582000  0.93588000  0.19425000  1.0
  O  O65  1  0.74418000  0.74150000  0.80577000  1.0
  O  O66  1  0.24423000  0.06412000  0.80575000  1.0
  O  O67  1  0.25585000  0.25850000  0.19423000  1.0
  O  O68  1  0.78055000  0.81042000  0.29817000  1.0
  O  O69  1  0.71941000  0.51206000  0.70205000  1.0
  O  O70  1  0.21949000  0.18958000  0.70183000  1.0
  O  O71  1  0.28062000  0.48793000  0.29795000  1.0
  O  O72  1  0.92893000  0.84845000  0.67542000  1.0
  O  O73  1  0.57090000  0.17296000  0.32462000  1.0
  O  O74  1  0.07106000  0.15156000  0.32458000  1.0
  O  O75  1  0.42910000  0.82704000  0.67539000  1.0
  O  O76  1  0.57610000  0.70394000  0.41065000  1.0
  O  O77  1  0.92412000  0.29337000  0.58934000  1.0
  O  O78  1  0.42391000  0.29605000  0.58934000  1.0
  O  O79  1  0.07586000  0.70661000  0.41066000  1.0
  O  O80  1  0.28011000  0.96968000  0.51330000  1.0
  O  O81  1  0.21983000  0.45640000  0.48655000  1.0
  O  O82  1  0.71987000  0.03031000  0.48669000  1.0
  O  O83  1  0.78017000  0.54360000  0.51345000  1.0
