# generated using pymatgen
data_ZnH10C18SBrNO6
_symmetry_space_group_name_H-M   'P 1'
_cell_length_a   12.80490000
_cell_length_b   16.39970000
_cell_length_c   17.79170000
_cell_angle_alpha   95.26650000
_cell_angle_beta   90.20540000
_cell_angle_gamma   92.16880000
_symmetry_Int_Tables_number   1
_chemical_formula_structural   ZnH10C18SBrNO6
_chemical_formula_sum   'Zn2 H20 C36 S2 Br2 N2 O12'
_cell_volume   3717.66426578
_cell_formula_units_Z   2
loop_
 _symmetry_equiv_pos_site_id
 _symmetry_equiv_pos_as_xyz
  1  'x, y, z'
loop_
 _atom_site_type_symbol
 _atom_site_label
 _atom_site_symmetry_multiplicity
 _atom_site_fract_x
 _atom_site_fract_y
 _atom_site_fract_z
 _atom_site_occupancy
  Zn  Zn0  1  0.49932000  0.41412000  0.49673000  1.0
  Zn  Zn1  1  0.50067000  0.58588000  0.50327000  1.0
  H  H2  1  0.39518000  0.71298000  0.42614000  1.0
  H  H3  1  0.39848000  0.86401000  0.42752000  1.0
  H  H4  1  0.64159000  0.86909000  0.60011000  1.0
  H  H5  1  0.62659000  0.72044000  0.58933000  1.0
  H  H6  1  0.35837000  0.13092000  0.39988000  1.0
  H  H7  1  0.60148000  0.13597000  0.57248000  1.0
  H  H8  1  0.60478000  0.28701000  0.57386000  1.0
  H  H9  1  0.37339000  0.27956000  0.41067000  1.0
  H  H10  1  0.50564000  0.61751000  0.26332000  1.0
  H  H11  1  0.50621000  0.61073000  0.12470000  1.0
  H  H12  1  0.49231000  0.34494000  0.11842000  1.0
  H  H13  1  0.49243000  0.35554000  0.25432000  1.0
  H  H14  1  0.50780000  0.65507000  0.88158000  1.0
  H  H15  1  0.49391000  0.38929000  0.87532000  1.0
  H  H16  1  0.49445000  0.38249000  0.73669000  1.0
  H  H17  1  0.50760000  0.64447000  0.74569000  1.0
  H  H18  1  0.63511000  0.96908000  0.59600000  1.0
  H  H19  1  0.36484000  0.03091000  0.40399000  1.0
  H  H20  1  0.49232000  0.35281000  0.02969000  1.0
  H  H21  1  0.50776000  0.64721000  0.97032000  1.0
  C  C22  1  0.49795000  0.49179000  0.35253000  1.0
  C  C23  1  0.29474000  0.49941000  0.49920000  1.0
  C  C24  1  0.50207000  0.50820000  0.64747000  1.0
  C  C25  1  0.70525000  0.50061000  0.50072000  1.0
  C  C26  1  0.44832000  0.75129000  0.46359000  1.0
  C  C27  1  0.45061000  0.83600000  0.46471000  1.0
  C  C28  1  0.51994000  0.88435000  0.51399000  1.0
  C  C29  1  0.58414000  0.84014000  0.55952000  1.0
  C  C30  1  0.57723000  0.75522000  0.55488000  1.0
  C  C31  1  0.52838000  0.97418000  0.52018000  1.0
  C  C32  1  0.47157000  0.02581000  0.47981000  1.0
  C  C33  1  0.41583000  0.15986000  0.44048000  1.0
  C  C34  1  0.48002000  0.11564000  0.48600000  1.0
  C  C35  1  0.54935000  0.16399000  0.53529000  1.0
  C  C36  1  0.55165000  0.24870000  0.53641000  1.0
  C  C37  1  0.42274000  0.24478000  0.44512000  1.0
  C  C38  1  0.49821000  0.48713000  0.26828000  1.0
  C  C39  1  0.50237000  0.55820000  0.23015000  1.0
  C  C40  1  0.50277000  0.55426000  0.15184000  1.0
  C  C41  1  0.49880000  0.47810000  0.10702000  1.0
  C  C42  1  0.49508000  0.40703000  0.14699000  1.0
  C  C43  1  0.49488000  0.41124000  0.22527000  1.0
  C  C44  1  0.49842000  0.46918000  0.02408000  1.0
  C  C45  1  0.50172000  0.53084000  0.97593000  1.0
  C  C46  1  0.50502000  0.59297000  0.85301000  1.0
  C  C47  1  0.50132000  0.52192000  0.89299000  1.0
  C  C48  1  0.49733000  0.44576000  0.84817000  1.0
  C  C49  1  0.49772000  0.44181000  0.76986000  1.0
  C  C50  1  0.50185000  0.51287000  0.73172000  1.0
  C  C51  1  0.50519000  0.58876000  0.77473000  1.0
  C  C52  1  0.10712000  0.43156000  0.49715000  1.0
  C  C53  1  0.89286000  0.56847000  0.50268000  1.0
  C  C54  1  0.17915000  0.49704000  0.49924000  1.0
  C  C55  1  0.82084000  0.50298000  0.50061000  1.0
  C  C56  1  0.99715000  0.54279000  0.50139000  1.0
  C  C57  1  0.00283000  0.45726000  0.49838000  1.0
  S  S58  1  0.11895000  0.59097000  0.50283000  1.0
  S  S59  1  0.88105000  0.40907000  0.49698000  1.0
  Br  Br60  1  0.13628000  0.31947000  0.49346000  1.0
  Br  Br61  1  0.86368000  0.68057000  0.50640000  1.0
  N  N62  1  0.51008000  0.71108000  0.50775000  1.0
  N  N63  1  0.48989000  0.28892000  0.49225000  1.0
  O  O64  1  0.49770000  0.42414000  0.38272000  1.0
  O  O65  1  0.49822000  0.56297000  0.38801000  1.0
  O  O66  1  0.33884000  0.57078000  0.50184000  1.0
  O  O67  1  0.33948000  0.43148000  0.49675000  1.0
  O  O68  1  0.50211000  0.57583000  0.61728000  1.0
  O  O69  1  0.50200000  0.43700000  0.61199000  1.0
  O  O70  1  0.66114000  0.42922000  0.49793000  1.0
  O  O71  1  0.66051000  0.56855000  0.50338000  1.0
  O  O72  1  0.60003000  0.01103000  0.57133000  1.0
  O  O73  1  0.39993000  0.98896000  0.42866000  1.0
  O  O74  1  0.49425000  0.38998000  0.99013000  1.0
  O  O75  1  0.50588000  0.61004000  0.00987000  1.0
