# generated using pymatgen
data_Cu4SiH8(C5N2)4
_symmetry_space_group_name_H-M   'P 1'
_cell_length_a   29.21250000
_cell_length_b   29.22690000
_cell_length_c   29.22300000
_cell_angle_alpha   109.35100000
_cell_angle_beta   109.46200000
_cell_angle_gamma   109.58900000
_symmetry_Int_Tables_number   1
_chemical_formula_structural   Cu4SiH8(C5N2)4
_chemical_formula_sum   'Cu24 Si6 H48 C120 N48'
_cell_volume   19209.47379790
_cell_formula_units_Z   6
loop_
 _symmetry_equiv_pos_site_id
 _symmetry_equiv_pos_as_xyz
  1  'x, y, z'
loop_
 _atom_site_type_symbol
 _atom_site_label
 _atom_site_symmetry_multiplicity
 _atom_site_fract_x
 _atom_site_fract_y
 _atom_site_fract_z
 _atom_site_occupancy
  Cu  Cu0  1  0.61691000  0.54394000  0.56703000  1.0
  Cu  Cu1  1  0.56588000  0.61831000  0.54037000  1.0
  Cu  Cu2  1  0.54135000  0.56845000  0.61729000  1.0
  Cu  Cu3  1  0.88344000  0.95073000  0.42688000  1.0
  Cu  Cu4  1  0.93445000  0.97462000  0.55201000  1.0
  Cu  Cu5  1  0.95907000  0.07628000  0.52721000  1.0
  Cu  Cu6  1  0.52301000  0.95571000  0.07345000  1.0
  Cu  Cu7  1  0.42181000  0.88203000  0.94804000  1.0
  Cu  Cu8  1  0.54851000  0.93189000  0.97338000  1.0
  Cu  Cu9  1  0.97635000  0.54944000  0.93268000  1.0
  Cu  Cu10  1  0.07758000  0.52541000  0.95998000  1.0
  Cu  Cu11  1  0.95106000  0.42392000  0.88308000  1.0
  Cu  Cu12  1  0.11616000  0.06696000  0.04348000  1.0
  Cu  Cu13  1  0.06504000  0.03976000  0.11777000  1.0
  Cu  Cu14  1  0.04031000  0.11659000  0.06798000  1.0
  Cu  Cu15  1  0.38492000  0.92676000  0.45067000  1.0
  Cu  Cu16  1  0.43524000  0.05213000  0.47442000  1.0
  Cu  Cu17  1  0.46028000  0.02721000  0.57602000  1.0
  Cu  Cu18  1  0.02365000  0.57317000  0.45630000  1.0
  Cu  Cu19  1  0.92213000  0.44785000  0.38224000  1.0
  Cu  Cu20  1  0.04882000  0.47285000  0.43259000  1.0
  Cu  Cu21  1  0.47627000  0.43297000  0.04890000  1.0
  Cu  Cu22  1  0.57773000  0.46016000  0.02500000  1.0
  Cu  Cu23  1  0.45103000  0.38292000  0.92341000  1.0
  Si  Si24  1  0.62679000  0.37663000  0.74955000  1.0
  Si  Si25  1  0.87294000  0.12337000  0.25015000  1.0
  Si  Si26  1  0.37360000  0.75028000  0.62398000  1.0
  Si  Si27  1  0.12636000  0.24983000  0.87653000  1.0
  Si  Si28  1  0.74988000  0.62502000  0.37432000  1.0
  Si  Si29  1  0.24942000  0.87497000  0.12536000  1.0
  H  H30  1  0.68463000  0.54513000  0.50174000  1.0
  H  H31  1  0.61502000  0.64645000  0.46439000  1.0
  H  H32  1  0.54401000  0.50256000  0.68544000  1.0
  H  H33  1  0.64746000  0.47001000  0.61659000  1.0
  H  H34  1  0.49973000  0.68523000  0.54186000  1.0
  H  H35  1  0.46649000  0.61768000  0.64610000  1.0
  H  H36  1  0.81566000  0.81791000  0.35989000  1.0
  H  H37  1  0.88543000  0.84938000  0.53052000  1.0
  H  H38  1  0.95675000  0.14213000  0.45904000  1.0
  H  H39  1  0.85296000  0.97007000  0.32276000  1.0
  H  H40  1  0.00035000  0.04172000  0.68507000  1.0
  H  H41  1  0.03374000  0.17961000  0.65139000  1.0
  H  H42  1  0.45665000  0.95418000  0.13996000  1.0
  H  H43  1  0.31785000  0.85415000  0.96916000  1.0
  H  H44  1  0.68266000  0.99801000  0.04181000  1.0
  H  H45  1  0.64653000  0.02925000  0.17788000  1.0
  H  H46  1  0.35620000  0.81541000  0.81505000  1.0
  H  H47  1  0.52802000  0.88303000  0.84927000  1.0
  H  H48  1  0.04230000  0.68223000  0.99758000  1.0
  H  H49  1  0.18140000  0.65059000  0.03617000  1.0
  H  H50  1  0.81700000  0.35814000  0.81497000  1.0
  H  H51  1  0.85287000  0.53023000  0.88277000  1.0
  H  H52  1  0.14344000  0.45818000  0.95889000  1.0
  H  H53  1  0.97174000  0.32046000  0.85456000  1.0
  H  H54  1  0.18412000  0.00201000  0.04459000  1.0
  H  H55  1  0.11405000  0.96377000  0.14545000  1.0
  H  H56  1  0.04240000  0.18455000  0.00181000  1.0
  H  H57  1  0.14664000  0.11680000  0.96960000  1.0
  H  H58  1  0.99907000  0.04098000  0.18494000  1.0
  H  H59  1  0.96547000  0.14505000  0.11747000  1.0
  H  H60  1  0.31682000  0.85983000  0.31783000  1.0
  H  H61  1  0.38481000  0.03062000  0.34937000  1.0
  H  H62  1  0.45727000  0.95919000  0.64207000  1.0
  H  H63  1  0.35461000  0.82253000  0.47028000  1.0
  H  H64  1  0.50132000  0.18527000  0.54146000  1.0
  H  H65  1  0.53535000  0.15151000  0.67922000  1.0
  H  H66  1  0.95765000  0.64006000  0.45462000  1.0
  H  H67  1  0.81841000  0.46927000  0.35398000  1.0
  H  H68  1  0.18300000  0.54111000  0.49903000  1.0
  H  H69  1  0.14742000  0.67747000  0.53019000  1.0
  H  H70  1  0.85617000  0.31471000  0.31541000  1.0
  H  H71  1  0.02778000  0.34858000  0.38367000  1.0
  H  H72  1  0.54236000  0.49822000  0.18181000  1.0
  H  H73  1  0.68151000  0.53649000  0.15000000  1.0
  H  H74  1  0.31687000  0.31476000  0.85763000  1.0
  H  H75  1  0.35253000  0.38308000  0.02962000  1.0
  H  H76  1  0.64368000  0.45887000  0.95782000  1.0
  H  H77  1  0.47211000  0.35427000  0.82016000  1.0
  C  C78  1  0.66305000  0.56866000  0.49804000  1.0
  C  C79  1  0.66171000  0.59889000  0.46924000  1.0
  C  C80  1  0.62736000  0.62057000  0.47893000  1.0
  C  C81  1  0.56786000  0.50002000  0.66403000  1.0
  C  C82  1  0.59922000  0.47247000  0.66285000  1.0
  C  C83  1  0.62086000  0.48331000  0.62878000  1.0
  C  C84  1  0.49702000  0.66416000  0.56602000  1.0
  C  C85  1  0.46924000  0.66326000  0.59723000  1.0
  C  C86  1  0.48000000  0.62955000  0.61942000  1.0
  C  C87  1  0.83728000  0.83557000  0.40496000  1.0
  C  C88  1  0.83865000  0.80793000  0.43636000  1.0
  C  C89  1  0.87307000  0.85178000  0.49243000  1.0
  C  C90  1  0.93281000  0.09692000  0.43255000  1.0
  C  C91  1  0.90138000  0.06452000  0.37366000  1.0
  C  C92  1  0.87963000  0.00878000  0.36269000  1.0
  C  C93  1  0.00311000  0.06872000  0.66686000  1.0
  C  C94  1  0.03088000  0.12769000  0.69392000  1.0
  C  C95  1  0.02021000  0.13935000  0.64960000  1.0
  C  C96  1  0.42940000  0.93098000  0.09487000  1.0
  C  C97  1  0.37037000  0.90111000  0.06335000  1.0
  C  C98  1  0.35830000  0.87972000  0.00733000  1.0
  C  C99  1  0.66382000  0.00022000  0.06822000  1.0
  C  C100  1  0.69026000  0.02744000  0.12711000  1.0
  C  C101  1  0.64539000  0.01628000  0.13799000  1.0
  C  C102  1  0.40144000  0.83647000  0.83338000  1.0
  C  C103  1  0.43354000  0.83745000  0.80649000  1.0
  C  C104  1  0.48947000  0.87111000  0.85093000  1.0
  C  C105  1  0.06968000  0.66451000  0.00160000  1.0
  C  C106  1  0.12872000  0.69208000  0.03072000  1.0
  C  C107  1  0.14091000  0.64822000  0.02133000  1.0
  C  C108  1  0.83576000  0.40335000  0.83614000  1.0
  C  C109  1  0.80927000  0.43577000  0.83698000  1.0
  C  C110  1  0.85405000  0.49150000  0.87084000  1.0
  C  C111  1  0.09821000  0.43122000  0.93468000  1.0
  C  C112  1  0.06621000  0.37226000  0.90353000  1.0
  C  C113  1  0.01024000  0.36069000  0.88124000  1.0
  C  C114  1  0.16241000  0.99807000  0.06803000  1.0
  C  C115  1  0.16097000  0.96912000  0.09811000  1.0
  C  C116  1  0.12647000  0.97853000  0.11970000  1.0
  C  C117  1  0.06648000  0.16343000  0.99935000  1.0
  C  C118  1  0.09799000  0.16255000  0.97188000  1.0
  C  C119  1  0.11988000  0.12874000  0.98282000  1.0
  C  C120  1  0.99628000  0.06512000  0.16387000  1.0
  C  C121  1  0.96843000  0.09622000  0.16304000  1.0
  C  C122  1  0.97908000  0.11843000  0.12928000  1.0
  C  C123  1  0.33810000  0.90495000  0.33552000  1.0
  C  C124  1  0.33873000  0.93640000  0.30795000  1.0
  C  C125  1  0.37298000  0.99250000  0.35177000  1.0
  C  C126  1  0.43363000  0.93258000  0.59690000  1.0
  C  C127  1  0.40237000  0.87362000  0.56465000  1.0
  C  C128  1  0.38104000  0.86254000  0.50891000  1.0
  C  C129  1  0.50420000  0.16701000  0.56841000  1.0
  C  C130  1  0.53215000  0.19406000  0.62734000  1.0
  C  C131  1  0.52163000  0.14971000  0.63899000  1.0
  C  C132  1  0.93023000  0.59495000  0.43127000  1.0
  C  C133  1  0.87117000  0.56350000  0.40116000  1.0
  C  C134  1  0.85894000  0.50741000  0.37971000  1.0
  C  C135  1  0.16432000  0.56762000  0.50122000  1.0
  C  C136  1  0.19092000  0.62657000  0.52845000  1.0
  C  C137  1  0.14615000  0.63752000  0.51722000  1.0
  C  C138  1  0.90141000  0.33301000  0.33665000  1.0
  C  C139  1  0.93333000  0.30598000  0.33772000  1.0
  C  C140  1  0.98932000  0.35035000  0.37162000  1.0
  C  C141  1  0.56976000  0.50217000  0.16406000  1.0
  C  C142  1  0.62881000  0.53118000  0.19160000  1.0
  C  C143  1  0.64100000  0.52174000  0.14769000  1.0
  C  C144  1  0.33557000  0.33604000  0.90283000  1.0
  C  C145  1  0.30899000  0.33703000  0.93522000  1.0
  C  C146  1  0.35379000  0.37102000  0.99092000  1.0
  C  C147  1  0.59845000  0.43460000  0.93088000  1.0
  C  C148  1  0.56653000  0.40336000  0.87195000  1.0
  C  C149  1  0.51054000  0.38101000  0.86038000  1.0
  C  C150  1  0.68895000  0.60625000  0.43847000  1.0
  C  C151  1  0.71294000  0.61293000  0.41196000  1.0
  C  C152  1  0.81129000  0.74995000  0.41636000  1.0
  C  C153  1  0.78710000  0.69951000  0.39911000  1.0
  C  C154  1  0.33228000  0.89379000  0.08323000  1.0
  C  C155  1  0.29910000  0.88710000  0.10053000  1.0
  C  C156  1  0.16665000  0.75004000  0.06146000  1.0
  C  C157  1  0.19974000  0.80051000  0.08792000  1.0
  C  C158  1  0.60740000  0.44161000  0.68977000  1.0
  C  C159  1  0.61473000  0.41493000  0.71338000  1.0
  C  C160  1  0.75150000  0.41700000  0.80988000  1.0
  C  C161  1  0.70124000  0.40082000  0.78605000  1.0
  C  C162  1  0.89306000  0.08328000  0.33467000  1.0
  C  C163  1  0.88538000  0.09938000  0.30055000  1.0
  C  C164  1  0.74808000  0.05835000  0.16607000  1.0
  C  C165  1  0.79841000  0.08506000  0.19998000  1.0
  C  C166  1  0.43839000  0.69027000  0.60499000  1.0
  C  C167  1  0.41186000  0.71404000  0.61213000  1.0
  C  C168  1  0.41429000  0.81046000  0.74866000  1.0
  C  C169  1  0.39769000  0.78666000  0.69837000  1.0
  C  C170  1  0.08555000  0.33374000  0.89583000  1.0
  C  C171  1  0.10220000  0.30008000  0.88868000  1.0
  C  C172  1  0.06164000  0.16613000  0.75178000  1.0
  C  C173  1  0.08812000  0.19969000  0.80210000  1.0
  C  C174  1  0.18833000  0.93859000  0.10570000  1.0
  C  C175  1  0.21246000  0.91239000  0.11298000  1.0
  C  C176  1  0.31097000  0.91655000  0.25007000  1.0
  C  C177  1  0.28653000  0.89961000  0.19975000  1.0
  C  C178  1  0.83305000  0.58332000  0.39358000  1.0
  C  C179  1  0.79960000  0.60024000  0.38648000  1.0
  C  C180  1  0.66685000  0.56169000  0.24952000  1.0
  C  C181  1  0.70010000  0.58774000  0.29990000  1.0
  C  C182  1  0.10629000  0.18963000  0.94112000  1.0
  C  C183  1  0.11398000  0.21341000  0.91463000  1.0
  C  C184  1  0.25115000  0.30995000  0.91651000  1.0
  C  C185  1  0.20087000  0.28617000  0.90046000  1.0
  C  C186  1  0.39384000  0.83468000  0.58356000  1.0
  C  C187  1  0.38603000  0.80065000  0.59981000  1.0
  C  C188  1  0.24877000  0.66563000  0.55928000  1.0
  C  C189  1  0.29906000  0.69977000  0.58581000  1.0
  C  C190  1  0.93759000  0.10396000  0.19009000  1.0
  C  C191  1  0.91103000  0.11125000  0.21382000  1.0
  C  C192  1  0.91389000  0.24810000  0.31056000  1.0
  C  C193  1  0.89714000  0.19777000  0.28651000  1.0
  C  C194  1  0.58589000  0.39566000  0.83343000  1.0
  C  C195  1  0.60241000  0.38846000  0.79964000  1.0
  C  C196  1  0.56276000  0.25194000  0.66576000  1.0
  C  C197  1  0.58895000  0.30226000  0.69932000  1.0
  N  N198  1  0.60985000  0.60443000  0.51095000  1.0
  N  N199  1  0.63198000  0.57226000  0.52277000  1.0
  N  N200  1  0.60364000  0.51475000  0.61130000  1.0
  N  N201  1  0.57079000  0.52513000  0.63314000  1.0
  N  N202  1  0.51167000  0.61202000  0.60271000  1.0
  N  N203  1  0.52223000  0.63349000  0.56960000  1.0
  N  N204  1  0.89056000  0.90139000  0.49400000  1.0
  N  N205  1  0.86837000  0.89130000  0.43980000  1.0
  N  N206  1  0.89682000  0.00838000  0.41127000  1.0
  N  N207  1  0.92977000  0.06297000  0.45458000  1.0
  N  N208  1  0.98861000  0.09112000  0.60033000  1.0
  N  N209  1  0.97801000  0.04732000  0.61104000  1.0
  N  N210  1  0.40644000  0.89570000  0.00592000  1.0
  N  N211  1  0.45046000  0.92745000  0.06016000  1.0
  N  N212  1  0.59644000  0.98495000  0.08938000  1.0
  N  N213  1  0.60780000  0.97497000  0.04610000  1.0
  N  N214  1  0.49032000  0.88855000  0.90012000  1.0
  N  N215  1  0.43573000  0.86706000  0.88922000  1.0
  N  N216  1  0.09283000  0.59863000  0.98915000  1.0
  N  N217  1  0.04874000  0.60877000  0.97696000  1.0
  N  N218  1  0.90303000  0.49188000  0.88848000  1.0
  N  N219  1  0.89175000  0.43729000  0.86700000  1.0
  N  N220  1  0.00930000  0.40897000  0.89785000  1.0
  N  N221  1  0.06384000  0.45271000  0.93099000  1.0
  N  N222  1  0.10901000  0.01058000  0.10370000  1.0
  N  N223  1  0.13128000  0.02269000  0.07169000  1.0
  N  N224  1  0.10270000  0.11113000  0.01426000  1.0
  N  N225  1  0.06960000  0.13262000  0.02453000  1.0
  N  N226  1  0.01076000  0.10185000  0.11167000  1.0
  N  N227  1  0.02141000  0.06879000  0.13311000  1.0
  N  N228  1  0.39106000  0.99403000  0.40132000  1.0
  N  N229  1  0.36944000  0.93978000  0.39123000  1.0
  N  N230  1  0.39832000  0.91109000  0.50835000  1.0
  N  N231  1  0.43092000  0.95453000  0.56288000  1.0
  N  N232  1  0.48991000  0.10041000  0.59078000  1.0
  N  N233  1  0.47910000  0.11115000  0.54702000  1.0
  N  N234  1  0.90699000  0.50589000  0.39584000  1.0
  N  N235  1  0.95115000  0.56014000  0.42779000  1.0
  N  N236  1  0.09708000  0.58892000  0.48583000  1.0
  N  N237  1  0.10831000  0.54556000  0.47588000  1.0
  N  N238  1  0.99037000  0.39964000  0.38905000  1.0
  N  N239  1  0.93584000  0.38887000  0.36736000  1.0
  N  N240  1  0.59293000  0.48958000  0.09817000  1.0
  N  N241  1  0.54879000  0.47746000  0.10833000  1.0
  N  N242  1  0.40283000  0.38860000  0.99130000  1.0
  N  N243  1  0.39158000  0.36692000  0.93671000  1.0
  N  N244  1  0.50948000  0.39767000  0.90862000  1.0
  N  N245  1  0.56400000  0.43090000  0.95232000  1.0
