# generated using pymatgen
data_CdH11C13N9
_symmetry_space_group_name_H-M   'P 1'
_cell_length_a   8.07569000
_cell_length_b   9.98062000
_cell_length_c   10.15000000
_cell_angle_alpha   91.01770000
_cell_angle_beta   96.21710000
_cell_angle_gamma   92.34860000
_symmetry_Int_Tables_number   1
_chemical_formula_structural   CdH11C13N9
_chemical_formula_sum   'Cd2 H22 C26 N18'
_cell_volume   812.39639366
_cell_formula_units_Z   2
loop_
 _symmetry_equiv_pos_site_id
 _symmetry_equiv_pos_as_xyz
  1  'x, y, z'
loop_
 _atom_site_type_symbol
 _atom_site_label
 _atom_site_symmetry_multiplicity
 _atom_site_fract_x
 _atom_site_fract_y
 _atom_site_fract_z
 _atom_site_occupancy
  Cd  Cd0  1  0.69852000  0.58937000  0.53929000  1.0
  Cd  Cd1  1  0.30149000  0.41063000  0.46071000  1.0
  H  H2  1  0.44817000  0.75637000  0.37326000  1.0
  H  H3  1  0.55183000  0.24362000  0.62674000  1.0
  H  H4  1  0.47446000  0.78441000  0.53597000  1.0
  H  H5  1  0.52554000  0.21559000  0.46403000  1.0
  H  H6  1  0.82017000  0.06933000  0.79149000  1.0
  H  H7  1  0.17983000  0.93068000  0.20851000  1.0
  H  H8  1  0.52935000  0.92079000  0.23048000  1.0
  H  H9  1  0.47064000  0.07920000  0.76952000  1.0
  H  H10  1  0.92724000  0.11630000  0.59615000  1.0
  H  H11  1  0.07276000  0.88370000  0.40385000  1.0
  H  H12  1  0.85647000  0.00128000  0.07138000  1.0
  H  H13  1  0.14353000  0.99872000  0.92862000  1.0
  H  H14  1  0.89080000  0.23071000  0.38219000  1.0
  H  H15  1  0.10919000  0.76929000  0.61780000  1.0
  H  H16  1  0.68994000  0.13381000  0.19867000  1.0
  H  H17  1  0.31005000  0.86618000  0.80133000  1.0
  H  H18  1  0.77219000  0.53669000  0.86357000  1.0
  H  H19  1  0.22782000  0.46331000  0.13644000  1.0
  H  H20  1  0.82319000  0.56991000  0.10856000  1.0
  H  H21  1  0.17682000  0.43010000  0.89144000  1.0
  H  H22  1  0.85927000  0.79657000  0.21093000  1.0
  H  H23  1  0.14073000  0.20343000  0.78907000  1.0
  C  C24  1  0.78745000  0.75106000  0.83011000  1.0
  C  C25  1  0.21254000  0.24894000  0.16990000  1.0
  C  C26  1  0.62933000  0.90094000  0.43402000  1.0
  C  C27  1  0.37067000  0.09905000  0.56598000  1.0
  C  C28  1  0.76632000  0.89464000  0.66840000  1.0
  C  C29  1  0.23368000  0.10536000  0.33161000  1.0
  C  C30  1  0.61560000  0.96439000  0.31153000  1.0
  C  C31  1  0.38440000  0.03560000  0.68847000  1.0
  C  C32  1  0.83523000  0.07546000  0.51768000  1.0
  C  C33  1  0.16476000  0.92454000  0.48231000  1.0
  C  C34  1  0.74304000  0.95682000  0.53905000  1.0
  C  C35  1  0.25696000  0.04318000  0.46095000  1.0
  C  C36  1  0.81487000  0.88079000  0.88929000  1.0
  C  C37  1  0.18512000  0.11921000  0.11071000  1.0
  C  C38  1  0.84087000  0.90114000  0.02646000  1.0
  C  C39  1  0.15912000  0.09886000  0.97354000  1.0
  C  C40  1  0.81750000  0.13915000  0.39643000  1.0
  C  C41  1  0.18249000  0.86085000  0.60357000  1.0
  C  C42  1  0.70697000  0.08269000  0.29285000  1.0
  C  C43  1  0.29302000  0.91730000  0.70715000  1.0
  C  C44  1  0.79181000  0.63687000  0.90836000  1.0
  C  C45  1  0.20819000  0.36313000  0.09165000  1.0
  C  C46  1  0.82152000  0.65679000  0.04502000  1.0
  C  C47  1  0.17849000  0.34322000  0.95499000  1.0
  C  C48  1  0.84381000  0.78657000  0.10308000  1.0
  C  C49  1  0.15619000  0.21344000  0.89693000  1.0
  N  N50  1  0.96220000  0.38188000  0.61826000  1.0
  N  N51  1  0.03780000  0.61812000  0.38174000  1.0
  N  N52  1  0.53334000  0.78356000  0.45176000  1.0
  N  N53  1  0.46667000  0.21644000  0.54825000  1.0
  N  N54  1  0.38929000  0.58067000  0.72837000  1.0
  N  N55  1  0.61072000  0.41932000  0.27162000  1.0
  N  N56  1  0.82905000  0.41070000  0.64678000  1.0
  N  N57  1  0.17096000  0.58930000  0.35322000  1.0
  N  N58  1  0.75617000  0.76366000  0.69363000  1.0
  N  N59  1  0.24382000  0.23635000  0.30637000  1.0
  N  N60  1  0.80312000  0.96808000  0.78447000  1.0
  N  N61  1  0.19687000  0.03192000  0.21553000  1.0
  N  N62  1  0.44374000  0.53968000  0.62959000  1.0
  N  N63  1  0.55626000  0.46031000  0.37042000  1.0
  N  N64  1  0.09323000  0.34597000  0.59386000  1.0
  N  N65  1  0.90677000  0.65403000  0.40613000  1.0
  N  N66  1  0.33761000  0.62090000  0.82358000  1.0
  N  N67  1  0.66240000  0.37910000  0.17643000  1.0
