# generated using pymatgen
data_AlH3C2O5
_symmetry_space_group_name_H-M   'P 1'
_cell_length_a   6.71861000
_cell_length_b   6.71865000
_cell_length_c   10.05430000
_cell_angle_alpha   100.69500000
_cell_angle_beta   100.69400000
_cell_angle_gamma   97.10550000
_symmetry_Int_Tables_number   1
_chemical_formula_structural   AlH3C2O5
_chemical_formula_sum   'Al4 H12 C8 O20'
_cell_volume   432.30479395
_cell_formula_units_Z   4
loop_
 _symmetry_equiv_pos_site_id
 _symmetry_equiv_pos_as_xyz
  1  'x, y, z'
loop_
 _atom_site_type_symbol
 _atom_site_label
 _atom_site_symmetry_multiplicity
 _atom_site_fract_x
 _atom_site_fract_y
 _atom_site_fract_z
 _atom_site_occupancy
  Al  Al0  1  0.78243000  0.21989000  0.25060000  1.0
  Al  Al1  1  0.78011000  0.21757000  0.74940000  1.0
  Al  Al2  1  0.28229000  0.21950000  0.25052000  1.0
  Al  Al3  1  0.78050000  0.71771000  0.74948000  1.0
  H  H4  1  0.99836000  0.73757000  0.34214000  1.0
  H  H5  1  0.26243000  0.00164000  0.65786000  1.0
  H  H6  1  0.16761000  0.52511000  0.58870000  1.0
  H  H7  1  0.47489000  0.83239000  0.41130000  1.0
  H  H8  1  0.39740000  0.91332000  0.91274000  1.0
  H  H9  1  0.08667000  0.60260000  0.08726000  1.0
  H  H10  1  0.57087000  0.17400000  0.42005000  1.0
  H  H11  1  0.82600000  0.42913000  0.57995000  1.0
  H  H12  1  0.99290000  0.26273000  0.08051000  1.0
  H  H13  1  0.73727000  0.00710000  0.91949000  1.0
  H  H14  1  0.56694000  0.70377000  0.16204000  1.0
  H  H15  1  0.29623000  0.43306000  0.83796000  1.0
  C  C16  1  0.01343000  0.89111000  0.31726000  1.0
  C  C17  1  0.10889000  0.98658000  0.68274000  1.0
  C  C18  1  0.12512000  0.42686000  0.48373000  1.0
  C  C19  1  0.57313000  0.87490000  0.51627000  1.0
  C  C20  1  0.43994000  0.01200000  0.01759000  1.0
  C  C21  1  0.98800000  0.56004000  0.98242000  1.0
  C  C22  1  0.55134000  0.54905000  0.18514000  1.0
  C  C23  1  0.45095000  0.44865000  0.81486000  1.0
  O  O24  1  0.54989000  0.19263000  0.32377000  1.0
  O  O25  1  0.80737000  0.45011000  0.67622000  1.0
  O  O26  1  0.18694000  0.96198000  0.29757000  1.0
  O  O27  1  0.03802000  0.81306000  0.70243000  1.0
  O  O28  1  0.01471000  0.24671000  0.17732000  1.0
  O  O29  1  0.75329000  0.98529000  0.82268000  1.0
  O  O30  1  0.93289000  0.38909000  0.42842000  1.0
  O  O31  1  0.61091000  0.06711000  0.57158000  1.0
  O  O32  1  0.26802000  0.36549000  0.43058000  1.0
  O  O33  1  0.63451000  0.73196000  0.56942000  1.0
  O  O34  1  0.85413000  0.97570000  0.31180000  1.0
  O  O35  1  0.02430000  0.14587000  0.68820000  1.0
  O  O36  1  0.63225000  0.05072000  0.07266000  1.0
  O  O37  1  0.94928000  0.36775000  0.92734000  1.0
  O  O38  1  0.29683000  0.07289000  0.07074000  1.0
  O  O39  1  0.92710000  0.70317000  0.92925000  1.0
  O  O40  1  0.37747000  0.47724000  0.20384000  1.0
  O  O41  1  0.52276000  0.62253000  0.79615000  1.0
  O  O42  1  0.71055000  0.46434000  0.18996000  1.0
  O  O43  1  0.53566000  0.28945000  0.81004000  1.0
