# generated using pymatgen
data_CdH34C32(NO2)4
_symmetry_space_group_name_H-M   'P 1'
_cell_length_a   4.81035000
_cell_length_b   13.30150000
_cell_length_c   14.83230000
_cell_angle_alpha   111.13100000
_cell_angle_beta   96.85290000
_cell_angle_gamma   92.18370000
_symmetry_Int_Tables_number   1
_chemical_formula_structural   CdH34C32(NO2)4
_chemical_formula_sum   'Cd1 H34 C32 N4 O8'
_cell_volume   875.52542199
_cell_formula_units_Z   1
loop_
 _symmetry_equiv_pos_site_id
 _symmetry_equiv_pos_as_xyz
  1  'x, y, z'
loop_
 _atom_site_type_symbol
 _atom_site_label
 _atom_site_symmetry_multiplicity
 _atom_site_fract_x
 _atom_site_fract_y
 _atom_site_fract_z
 _atom_site_occupancy
  Cd  Cd0  1  0.49999000  0.00000000  0.00000000  1.0
  H  H1  1  0.14688000  0.13877000  0.08272000  1.0
  H  H2  1  0.85308000  0.86123000  0.91727000  1.0
  H  H3  1  0.41346000  0.22548000  0.10888000  1.0
  H  H4  1  0.58652000  0.77451000  0.89111000  1.0
  H  H5  1  0.68233000  0.28935000  0.76470000  1.0
  H  H6  1  0.31768000  0.71066000  0.23530000  1.0
  H  H7  1  0.72428000  0.13903000  0.78697000  1.0
  H  H8  1  0.27571000  0.86097000  0.21303000  1.0
  H  H9  1  0.24107000  0.30042000  0.62548000  1.0
  H  H10  1  0.75896000  0.69958000  0.37453000  1.0
  H  H11  1  0.32590000  0.44998000  0.56816000  1.0
  H  H12  1  0.67411000  0.55002000  0.43184000  1.0
  H  H13  1  0.08391000  0.61933000  0.63137000  1.0
  H  H14  1  0.91610000  0.38067000  0.36863000  1.0
  H  H15  1  0.68148000  0.48741000  0.81443000  1.0
  H  H16  1  0.31852000  0.51260000  0.18557000  1.0
  H  H17  1  0.29458000  0.10405000  0.84852000  1.0
  H  H18  1  0.70540000  0.89595000  0.15147000  1.0
  H  H19  1  0.29302000  0.01199000  0.67398000  1.0
  H  H20  1  0.70699000  0.98801000  0.32602000  1.0
  H  H21  1  0.32302000  0.92246000  0.73766000  1.0
  H  H22  1  0.67697000  0.07754000  0.26234000  1.0
  H  H23  1  0.87335000  0.99835000  0.55726000  1.0
  H  H24  1  0.12666000  0.00165000  0.44274000  1.0
  H  H25  1  0.45654000  0.88371000  0.44807000  1.0
  H  H26  1  0.54348000  0.11628000  0.55193000  1.0
  H  H27  1  0.26993000  0.72151000  0.47583000  1.0
  H  H28  1  0.73008000  0.27848000  0.52417000  1.0
  H  H29  1  0.51240000  0.67217000  0.61027000  1.0
  H  H30  1  0.48761000  0.32783000  0.38973000  1.0
  H  H31  1  0.93137000  0.78691000  0.71796000  1.0
  H  H32  1  0.06863000  0.21309000  0.28205000  1.0
  H  H33  1  0.76451000  0.63735000  0.75582000  1.0
  H  H34  1  0.23551000  0.36266000  0.24418000  1.0
  C  C35  1  0.14095000  0.37497000  0.65540000  1.0
  C  C36  1  0.85907000  0.62503000  0.34461000  1.0
  C  C37  1  0.18668000  0.45953000  0.62299000  1.0
  C  C38  1  0.81334000  0.54047000  0.37702000  1.0
  C  C39  1  0.05266000  0.55444000  0.65858000  1.0
  C  C40  1  0.94736000  0.44556000  0.34142000  1.0
  C  C41  1  0.82492000  0.48025000  0.76116000  1.0
  C  C42  1  0.17507000  0.51975000  0.23884000  1.0
  C  C43  1  0.95766000  0.38450000  0.72438000  1.0
  C  C44  1  0.04235000  0.61550000  0.27562000  1.0
  C  C45  1  0.06313000  0.22309000  0.76396000  1.0
  C  C46  1  0.93686000  0.77691000  0.23604000  1.0
  C  C47  1  0.09632000  0.06126000  0.80356000  1.0
  C  C48  1  0.90367000  0.93874000  0.19644000  1.0
  C  C49  1  0.17723000  0.97130000  0.71243000  1.0
  C  C50  1  0.82277000  0.02870000  0.28757000  1.0
  C  C51  1  0.92828000  0.90108000  0.64569000  1.0
  C  C52  1  0.07173000  0.09892000  0.35430000  1.0
  C  C53  1  0.79188000  0.92720000  0.56919000  1.0
  C  C54  1  0.20814000  0.07279000  0.43081000  1.0
  C  C55  1  0.55706000  0.86303000  0.50821000  1.0
  C  C56  1  0.44294000  0.13696000  0.49179000  1.0
  C  C57  1  0.45343000  0.77163000  0.52323000  1.0
  C  C58  1  0.54657000  0.22836000  0.47678000  1.0
  C  C59  1  0.58862000  0.74433000  0.59882000  1.0
  C  C60  1  0.41139000  0.25567000  0.40118000  1.0
  C  C61  1  0.82367000  0.80858000  0.65940000  1.0
  C  C62  1  0.17633000  0.19142000  0.34060000  1.0
  C  C63  1  0.94994000  0.01300000  0.86598000  1.0
  C  C64  1  0.05004000  0.98701000  0.13402000  1.0
  C  C65  1  0.87258000  0.56408000  0.72796000  1.0
  C  C66  1  0.12743000  0.43592000  0.27204000  1.0
  N  N67  1  0.88727000  0.29852000  0.75361000  1.0
  N  N68  1  0.11274000  0.70149000  0.24640000  1.0
  N  N69  1  0.93214000  0.13926000  0.77965000  1.0
  N  N70  1  0.06784000  0.86074000  0.22034000  1.0
  O  O71  1  0.32198000  0.22872000  0.76003000  1.0
  O  O72  1  0.67801000  0.77128000  0.23997000  1.0
  O  O73  1  0.71426000  0.04417000  0.88879000  1.0
  O  O74  1  0.28573000  0.95584000  0.11121000  1.0
  O  O75  1  0.07575000  0.94160000  0.89151000  1.0
  O  O76  1  0.92422000  0.05840000  0.10848000  1.0
  O  O77  1  0.30098000  0.16727000  0.05531000  1.0
  O  O78  1  0.69898000  0.83273000  0.94468000  1.0
