# generated using pymatgen
data_AgH8C9S(NO)3
_symmetry_space_group_name_H-M   'P 1'
_cell_length_a   8.55608000
_cell_length_b   9.48373000
_cell_length_c   12.83670000
_cell_angle_alpha   90.00000000
_cell_angle_beta   90.00020000
_cell_angle_gamma   93.19010000
_symmetry_Int_Tables_number   1
_chemical_formula_structural   AgH8C9S(NO)3
_chemical_formula_sum   'Ag4 H32 C36 S4 N12 O12'
_cell_volume   1040.00134840
_cell_formula_units_Z   4
loop_
 _symmetry_equiv_pos_site_id
 _symmetry_equiv_pos_as_xyz
  1  'x, y, z'
loop_
 _atom_site_type_symbol
 _atom_site_label
 _atom_site_symmetry_multiplicity
 _atom_site_fract_x
 _atom_site_fract_y
 _atom_site_fract_z
 _atom_site_occupancy
  Ag  Ag0  1  0.44494000  0.63178000  0.78450000  1.0
  Ag  Ag1  1  0.05506000  0.86822000  0.28450000  1.0
  Ag  Ag2  1  0.55505000  0.36823000  0.21550000  1.0
  Ag  Ag3  1  0.94494000  0.13178000  0.71550000  1.0
  H  H4  1  0.66634000  0.64465000  0.95854000  1.0
  H  H5  1  0.83367000  0.85534000  0.45854000  1.0
  H  H6  1  0.33364000  0.35534000  0.04146000  1.0
  H  H7  1  0.16634000  0.14466000  0.54146000  1.0
  H  H8  1  0.91847000  0.77750000  0.01573000  1.0
  H  H9  1  0.58153000  0.72250000  0.51573000  1.0
  H  H10  1  0.08151000  0.22250000  0.98427000  1.0
  H  H11  1  0.41847000  0.27750000  0.48427000  1.0
  H  H12  1  0.01169000  0.98458000  0.90538000  1.0
  H  H13  1  0.48832000  0.51542000  0.40538000  1.0
  H  H14  1  0.98831000  0.01541000  0.09462000  1.0
  H  H15  1  0.51169000  0.48458000  0.59462000  1.0
  H  H16  1  0.25321000  0.85417000  0.89694000  1.0
  H  H17  1  0.24679000  0.64583000  0.39694000  1.0
  H  H18  1  0.74679000  0.14583000  0.10306000  1.0
  H  H19  1  0.75321000  0.35417000  0.60306000  1.0
  H  H20  1  0.52635000  0.75449000  0.21250000  1.0
  H  H21  1  0.97365000  0.74551000  0.71250000  1.0
  H  H22  1  0.47365000  0.24551000  0.78750000  1.0
  H  H23  1  0.02635000  0.25449000  0.28750000  1.0
  H  H24  1  0.27527000  0.04242000  0.76561000  1.0
  H  H25  1  0.22473000  0.45758000  0.26562000  1.0
  H  H26  1  0.72473000  0.95758000  0.23439000  1.0
  H  H27  1  0.77527000  0.54242000  0.73439000  1.0
  H  H28  1  0.52469000  0.86266000  0.65967000  1.0
  H  H29  1  0.97531000  0.63734000  0.15967000  1.0
  H  H30  1  0.47531000  0.13734000  0.34032000  1.0
  H  H31  1  0.02469000  0.36266000  0.84033000  1.0
  H  H32  1  0.67578000  0.99271000  0.63501000  1.0
  H  H33  1  0.82423000  0.50729000  0.13501000  1.0
  H  H34  1  0.32422000  0.00730000  0.36498000  1.0
  H  H35  1  0.17578000  0.49271000  0.86499000  1.0
  C  C36  1  0.69946000  0.88129000  0.77038000  1.0
  C  C37  1  0.80055000  0.61871000  0.27038000  1.0
  C  C38  1  0.30054000  0.11871000  0.22962000  1.0
  C  C39  1  0.19946000  0.38129000  0.72962000  1.0
  C  C40  1  0.71639000  0.73546000  0.91565000  1.0
  C  C41  1  0.78361000  0.76454000  0.41565000  1.0
  C  C42  1  0.28359000  0.26454000  0.08435000  1.0
  C  C43  1  0.21639000  0.23546000  0.58436000  1.0
  C  C44  1  0.85313000  0.80822000  0.94772000  1.0
  C  C45  1  0.64687000  0.69178000  0.44772000  1.0
  C  C46  1  0.14685000  0.19178000  0.05228000  1.0
  C  C47  1  0.35313000  0.30822000  0.55229000  1.0
  C  C48  1  0.90579000  0.92103000  0.88599000  1.0
  C  C49  1  0.59422000  0.57897000  0.38599000  1.0
  C  C50  1  0.09421000  0.07897000  0.11401000  1.0
  C  C51  1  0.40579000  0.42103000  0.61401000  1.0
  C  C52  1  0.33970000  0.94178000  0.90672000  1.0
  C  C53  1  0.16030000  0.55822000  0.40672000  1.0
  C  C54  1  0.66030000  0.05823000  0.09328000  1.0
  C  C55  1  0.83970000  0.44178000  0.59328000  1.0
  C  C56  1  0.44149000  0.94250000  0.99412000  1.0
  C  C57  1  0.05851000  0.55750000  0.49412000  1.0
  C  C58  1  0.55851000  0.05750000  0.00588000  1.0
  C  C59  1  0.94149000  0.44250000  0.50588000  1.0
  C  C60  1  0.43545000  0.83267000  0.07066000  1.0
  C  C61  1  0.06455000  0.66733000  0.57066000  1.0
  C  C62  1  0.56455000  0.16733000  0.92934000  1.0
  C  C63  1  0.93545000  0.33267000  0.42934000  1.0
  C  C64  1  0.53619000  0.83860000  0.15494000  1.0
  C  C65  1  0.96381000  0.66140000  0.65494000  1.0
  C  C66  1  0.46382000  0.16140000  0.84506000  1.0
  C  C67  1  0.03619000  0.33860000  0.34506000  1.0
  C  C68  1  0.35166000  0.04812000  0.83350000  1.0
  C  C69  1  0.14834000  0.45187000  0.33351000  1.0
  C  C70  1  0.64834000  0.95188000  0.16649000  1.0
  C  C71  1  0.85166000  0.54812000  0.66649000  1.0
  S  S72  1  0.29588000  0.68275000  0.06624000  1.0
  S  S73  1  0.20412000  0.81725000  0.56624000  1.0
  S  S74  1  0.70412000  0.31725000  0.93376000  1.0
  S  S75  1  0.79588000  0.18275000  0.43376000  1.0
  N  N76  1  0.62824000  0.91411000  0.68174000  1.0
  N  N77  1  0.87176000  0.58589000  0.18174000  1.0
  N  N78  1  0.37175000  0.08590000  0.31825000  1.0
  N  N79  1  0.12824000  0.41411000  0.81826000  1.0
  N  N80  1  0.64027000  0.77042000  0.82861000  1.0
  N  N81  1  0.85973000  0.72958000  0.32861000  1.0
  N  N82  1  0.35972000  0.22958000  0.17138000  1.0
  N  N83  1  0.14027000  0.27042000  0.67139000  1.0
  N  N84  1  0.83115000  0.95876000  0.79928000  1.0
  N  N85  1  0.66885000  0.54124000  0.29928000  1.0
  N  N86  1  0.16884000  0.04124000  0.20072000  1.0
  N  N87  1  0.33115000  0.45876000  0.70073000  1.0
  O  O88  1  0.35021000  0.58407000  0.14397000  1.0
  O  O89  1  0.14979000  0.91593000  0.64397000  1.0
  O  O90  1  0.64979000  0.41593000  0.85604000  1.0
  O  O91  1  0.85021000  0.08407000  0.35603000  1.0
  O  O92  1  0.29625000  0.62503000  0.95911000  1.0
  O  O93  1  0.20376000  0.87497000  0.45911000  1.0
  O  O94  1  0.70375000  0.37497000  0.04089000  1.0
  O  O95  1  0.79625000  0.12503000  0.54089000  1.0
  O  O96  1  0.14289000  0.73893000  0.09247000  1.0
  O  O97  1  0.35711000  0.76107000  0.59247000  1.0
  O  O98  1  0.85711000  0.26107000  0.90753000  1.0
  O  O99  1  0.64289000  0.23893000  0.40753000  1.0
