# generated using pymatgen
data_LiH4CN4O3
_symmetry_space_group_name_H-M   'P 1'
_cell_length_a   5.21338000
_cell_length_b   6.43861000
_cell_length_c   8.21317000
_cell_angle_alpha   106.04900000
_cell_angle_beta   99.03700000
_cell_angle_gamma   111.76800000
_symmetry_Int_Tables_number   1
_chemical_formula_structural   LiH4CN4O3
_chemical_formula_sum   'Li2 H8 C2 N8 O6'
_cell_volume   235.41507756
_cell_formula_units_Z   2
loop_
 _symmetry_equiv_pos_site_id
 _symmetry_equiv_pos_as_xyz
  1  'x, y, z'
loop_
 _atom_site_type_symbol
 _atom_site_label
 _atom_site_symmetry_multiplicity
 _atom_site_fract_x
 _atom_site_fract_y
 _atom_site_fract_z
 _atom_site_occupancy
  Li  Li0  1  0.66383000  0.86370000  0.91021000  1.0
  Li  Li1  1  0.33618000  0.13631000  0.08979000  1.0
  H  H2  1  0.12381000  0.97126000  0.73695000  1.0
  H  H3  1  0.87619000  0.02874000  0.26304000  1.0
  H  H4  1  0.99423000  0.15106000  0.78667000  1.0
  H  H5  1  0.00577000  0.84893000  0.21332000  1.0
  H  H6  1  0.32422000  0.67183000  0.07297000  1.0
  H  H7  1  0.67579000  0.32816000  0.92702000  1.0
  H  H8  1  0.10965000  0.68667000  0.92688000  1.0
  H  H9  1  0.89035000  0.31333000  0.07312000  1.0
  C  C10  1  0.42900000  0.57514000  0.49658000  1.0
  C  C11  1  0.57100000  0.42483000  0.50340000  1.0
  N  N12  1  0.40164000  0.72815000  0.63363000  1.0
  N  N13  1  0.59835000  0.27183000  0.36634000  1.0
  N  N14  1  0.24432000  0.82311000  0.56361000  1.0
  N  N15  1  0.75567000  0.17687000  0.43636000  1.0
  N  N16  1  0.17342000  0.73774000  0.38924000  1.0
  N  N17  1  0.82656000  0.26224000  0.61073000  1.0
  N  N18  1  0.29029000  0.58257000  0.34485000  1.0
  N  N19  1  0.70970000  0.41747000  0.65519000  1.0
  O  O20  1  0.26433000  0.46589000  0.18072000  1.0
  O  O21  1  0.73568000  0.53417000  0.81937000  1.0
  O  O22  1  0.06100000  0.04977000  0.83460000  1.0
  O  O23  1  0.93900000  0.95022000  0.16539000  1.0
  O  O24  1  0.31303000  0.77288000  0.00266000  1.0
  O  O25  1  0.68697000  0.22711000  0.99734000  1.0
