# generated using pymatgen
data_CdH7C8NO6
_symmetry_space_group_name_H-M   'P 1'
_cell_length_a   6.13182000
_cell_length_b   7.97733000
_cell_length_c   18.95830000
_cell_angle_alpha   89.99960000
_cell_angle_beta   81.05350000
_cell_angle_gamma   89.99990000
_symmetry_Int_Tables_number   1
_chemical_formula_structural   CdH7C8NO6
_chemical_formula_sum   'Cd4 H28 C32 N4 O24'
_cell_volume   916.07347541
_cell_formula_units_Z   4
loop_
 _symmetry_equiv_pos_site_id
 _symmetry_equiv_pos_as_xyz
  1  'x, y, z'
loop_
 _atom_site_type_symbol
 _atom_site_label
 _atom_site_symmetry_multiplicity
 _atom_site_fract_x
 _atom_site_fract_y
 _atom_site_fract_z
 _atom_site_occupancy
  Cd  Cd0  1  0.81468000  0.84106000  0.70316000  1.0
  Cd  Cd1  1  0.68533000  0.34105000  0.79684000  1.0
  Cd  Cd2  1  0.18532000  0.15894000  0.29684000  1.0
  Cd  Cd3  1  0.31467000  0.65894000  0.20316000  1.0
  H  H4  1  0.24874000  0.96560000  0.63782000  1.0
  H  H5  1  0.25127000  0.46560000  0.86217000  1.0
  H  H6  1  0.75126000  0.03439000  0.36218000  1.0
  H  H7  1  0.74873000  0.53439000  0.13783000  1.0
  H  H8  1  0.10407000  0.12078000  0.67442000  1.0
  H  H9  1  0.39594000  0.62078000  0.82558000  1.0
  H  H10  1  0.89594000  0.87921000  0.32558000  1.0
  H  H11  1  0.60406000  0.37922000  0.17442000  1.0
  H  H12  1  0.85564000  0.58196000  0.47729000  1.0
  H  H13  1  0.64436000  0.08197000  0.02271000  1.0
  H  H14  1  0.14437000  0.41805000  0.52271000  1.0
  H  H15  1  0.35562000  0.91805000  0.97730000  1.0
  H  H16  1  0.26643000  0.88342000  0.51522000  1.0
  H  H17  1  0.23358000  0.38341000  0.98478000  1.0
  H  H18  1  0.73357000  0.11659000  0.48478000  1.0
  H  H19  1  0.76643000  0.61660000  0.01522000  1.0
  H  H20  1  0.18180000  0.79833000  0.39630000  1.0
  H  H21  1  0.31820000  0.29832000  0.10370000  1.0
  H  H22  1  0.81822000  0.20167000  0.60370000  1.0
  H  H23  1  0.68179000  0.70168000  0.89630000  1.0
  H  H24  1  0.68791000  0.36870000  0.33351000  1.0
  H  H25  1  0.81208000  0.86871000  0.16649000  1.0
  H  H26  1  0.31210000  0.63129000  0.66649000  1.0
  H  H27  1  0.18792000  0.13130000  0.83351000  1.0
  H  H28  1  0.88720000  0.39072000  0.39215000  1.0
  H  H29  1  0.61279000  0.89073000  0.10785000  1.0
  H  H30  1  0.11281000  0.60928000  0.60785000  1.0
  H  H31  1  0.38720000  0.10927000  0.89215000  1.0
  C  C32  1  0.70567000  0.63315000  0.46173000  1.0
  C  C33  1  0.79433000  0.13315000  0.03827000  1.0
  C  C34  1  0.29434000  0.36684000  0.53826000  1.0
  C  C35  1  0.20566000  0.86685000  0.96174000  1.0
  C  C36  1  0.57210000  0.74219000  0.50517000  1.0
  C  C37  1  0.92791000  0.24219000  0.99483000  1.0
  C  C38  1  0.42791000  0.25781000  0.49482000  1.0
  C  C39  1  0.07208000  0.75782000  0.00518000  1.0
  C  C40  1  0.37702000  0.79940000  0.48117000  1.0
  C  C41  1  0.12299000  0.29939000  0.01883000  1.0
  C  C42  1  0.62298000  0.20060000  0.51882000  1.0
  C  C43  1  0.87702000  0.70061000  0.98117000  1.0
  C  C44  1  0.32790000  0.75137000  0.41585000  1.0
  C  C45  1  0.17211000  0.25136000  0.08415000  1.0
  C  C46  1  0.67211000  0.24863000  0.58414000  1.0
  C  C47  1  0.82789000  0.74864000  0.91586000  1.0
  C  C48  1  0.46984000  0.64111000  0.37013000  1.0
  C  C49  1  0.03016000  0.14112000  0.12987000  1.0
  C  C50  1  0.53017000  0.35888000  0.62987000  1.0
  C  C51  1  0.96984000  0.85888000  0.87013000  1.0
  C  C52  1  0.63456000  0.78865000  0.57541000  1.0
  C  C53  1  0.86545000  0.28864000  0.92459000  1.0
  C  C54  1  0.36545000  0.21136000  0.42460000  1.0
  C  C55  1  0.13454000  0.71136000  0.07540000  1.0
  C  C56  1  0.79330000  0.45831000  0.35635000  1.0
  C  C57  1  0.70669000  0.95832000  0.14365000  1.0
  C  C58  1  0.20667000  0.54170000  0.64366000  1.0
  C  C59  1  0.29332000  0.04169000  0.85634000  1.0
  C  C60  1  0.95747000  0.53052000  0.29619000  1.0
  C  C61  1  0.54252000  0.03053000  0.20381000  1.0
  C  C62  1  0.04254000  0.46947000  0.70381000  1.0
  C  C63  1  0.45747000  0.96947000  0.79619000  1.0
  N  N64  1  0.65501000  0.58197000  0.39831000  1.0
  N  N65  1  0.84499000  0.08198000  0.10169000  1.0
  N  N66  1  0.34498000  0.41804000  0.60169000  1.0
  N  N67  1  0.15502000  0.91803000  0.89831000  1.0
  O  O68  1  0.50588000  0.87723000  0.61928000  1.0
  O  O69  1  0.99412000  0.37723000  0.88072000  1.0
  O  O70  1  0.49411000  0.12278000  0.38072000  1.0
  O  O71  1  0.00589000  0.62278000  0.11928000  1.0
  O  O72  1  0.09664000  0.01296000  0.64885000  1.0
  O  O73  1  0.40337000  0.51295000  0.85115000  1.0
  O  O74  1  0.90336000  0.98703000  0.35115000  1.0
  O  O75  1  0.59663000  0.48704000  0.14885000  1.0
  O  O76  1  0.81978000  0.73360000  0.58962000  1.0
  O  O77  1  0.68023000  0.23360000  0.91037000  1.0
  O  O78  1  0.18024000  0.26639000  0.41037000  1.0
  O  O79  1  0.31973000  0.76641000  0.08964000  1.0
  O  O80  1  0.44630000  0.58836000  0.30946000  1.0
  O  O81  1  0.05369000  0.08837000  0.19054000  1.0
  O  O82  1  0.55370000  0.41164000  0.69055000  1.0
  O  O83  1  0.94632000  0.91164000  0.80945000  1.0
  O  O84  1  0.08432000  0.42501000  0.25938000  1.0
  O  O85  1  0.41568000  0.92502000  0.24063000  1.0
  O  O86  1  0.91569000  0.57498000  0.74062000  1.0
  O  O87  1  0.58432000  0.07497000  0.75938000  1.0
  O  O88  1  0.97219000  0.68680000  0.28475000  1.0
  O  O89  1  0.52780000  0.18681000  0.21526000  1.0
  O  O90  1  0.02781000  0.31320000  0.71526000  1.0
  O  O91  1  0.47220000  0.81319000  0.78474000  1.0
