# generated using pymatgen
data_Zn2H20C25N8
_symmetry_space_group_name_H-M   'P 1'
_cell_length_a   14.61820000
_cell_length_b   15.05360000
_cell_length_c   23.96040000
_cell_angle_alpha   91.42290000
_cell_angle_beta   91.15590000
_cell_angle_gamma   77.68100000
_symmetry_Int_Tables_number   1
_chemical_formula_structural   Zn2H20C25N8
_chemical_formula_sum   'Zn8 H80 C100 N32'
_cell_volume   5149.05367034
_cell_formula_units_Z   4
loop_
 _symmetry_equiv_pos_site_id
 _symmetry_equiv_pos_as_xyz
  1  'x, y, z'
loop_
 _atom_site_type_symbol
 _atom_site_label
 _atom_site_symmetry_multiplicity
 _atom_site_fract_x
 _atom_site_fract_y
 _atom_site_fract_z
 _atom_site_occupancy
  Zn  Zn0  1  0.59040000  0.58940000  0.40325000  1.0
  Zn  Zn1  1  0.46018000  0.43479000  0.43409000  1.0
  Zn  Zn2  1  0.07860000  0.05830000  0.95216000  1.0
  Zn  Zn3  1  0.93375000  0.92314000  0.94317000  1.0
  Zn  Zn4  1  0.48512000  0.41809000  0.57262000  1.0
  Zn  Zn5  1  0.56565000  0.61961000  0.52270000  1.0
  Zn  Zn6  1  0.94370000  0.90536000  0.07931000  1.0
  Zn  Zn7  1  0.07930000  0.05242000  0.08788000  1.0
  H  H8  1  0.44569000  0.76817000  0.42739000  1.0
  H  H9  1  0.48102000  0.33074000  0.31128000  1.0
  H  H10  1  0.93788000  0.25024000  0.93202000  1.0
  H  H11  1  0.00475000  0.81760000  0.82238000  1.0
  H  H12  1  0.71818000  0.08336000  0.50926000  1.0
  H  H13  1  0.65942000  0.96668000  0.49534000  1.0
  H  H14  1  0.06366000  0.54662000  0.00006000  1.0
  H  H15  1  0.12970000  0.42799000  0.06196000  1.0
  H  H16  1  0.75542000  0.37221000  0.27131000  1.0
  H  H17  1  0.29586000  0.62884000  0.31615000  1.0
  H  H18  1  0.31378000  0.85863000  0.80573000  1.0
  H  H19  1  0.61374000  0.23970000  0.90166000  1.0
  H  H20  1  0.51564000  0.32713000  0.17710000  1.0
  H  H21  1  0.22473000  0.87918000  0.41069000  1.0
  H  H22  1  0.07704000  0.78326000  0.72292000  1.0
  H  H23  1  0.86974000  0.30245000  0.84491000  1.0
  H  H24  1  0.18385000  0.69170000  0.65426000  1.0
  H  H25  1  0.78400000  0.38453000  0.76659000  1.0
  H  H26  1  0.62199000  0.22683000  0.11149000  1.0
  H  H27  1  0.13505000  0.95177000  0.32870000  1.0
  H  H28  1  0.92706000  0.46612000  0.58498000  1.0
  H  H29  1  0.09861000  0.43871000  0.59109000  1.0
  H  H30  1  0.42750000  0.81658000  0.10120000  1.0
  H  H31  1  0.59726000  0.80283000  0.09826000  1.0
  H  H32  1  0.11702000  0.31046000  0.42788000  1.0
  H  H33  1  0.94525000  0.33810000  0.42161000  1.0
  H  H34  1  0.58045000  0.82546000  0.91925000  1.0
  H  H35  1  0.41064000  0.84139000  0.92234000  1.0
  H  H36  1  0.32471000  0.53551000  0.63962000  1.0
  H  H37  1  0.69229000  0.49911000  0.71342000  1.0
  H  H38  1  0.75057000  0.04753000  0.11637000  1.0
  H  H39  1  0.17229000  0.00483000  0.21656000  1.0
  H  H40  1  0.25431000  0.37946000  0.41666000  1.0
  H  H41  1  0.80259000  0.44749000  0.39952000  1.0
  H  H42  1  0.72623000  0.86544000  0.91999000  1.0
  H  H43  1  0.25048000  0.89258000  0.92613000  1.0
  H  H44  1  0.62886000  0.82095000  0.54318000  1.0
  H  H45  1  0.65218000  0.24064000  0.57244000  1.0
  H  H46  1  0.13231000  0.25687000  0.11589000  1.0
  H  H47  1  0.09671000  0.71698000  0.09227000  1.0
  H  H48  1  0.27661000  0.37608000  0.59688000  1.0
  H  H49  1  0.75156000  0.47599000  0.57764000  1.0
  H  H50  1  0.75063000  0.82273000  0.09808000  1.0
  H  H51  1  0.27088000  0.89941000  0.10695000  1.0
  H  H52  1  0.67042000  0.78325000  0.36497000  1.0
  H  H53  1  0.62586000  0.27651000  0.39329000  1.0
  H  H54  1  0.16052000  0.24707000  0.93640000  1.0
  H  H55  1  0.06562000  0.72565000  0.91245000  1.0
  H  H56  1  0.46292000  0.75833000  0.61671000  1.0
  H  H57  1  0.51003000  0.30727000  0.70098000  1.0
  H  H58  1  0.93023000  0.23788000  0.09367000  1.0
  H  H59  1  0.01480000  0.79351000  0.19545000  1.0
  H  H60  1  0.27310000  0.56786000  0.41983000  1.0
  H  H61  1  0.63440000  0.53876000  0.27833000  1.0
  H  H62  1  0.74004000  0.07336000  0.91963000  1.0
  H  H63  1  0.19851000  0.99779000  0.83608000  1.0
  H  H64  1  0.69803000  0.11324000  0.38258000  1.0
  H  H65  1  0.72774000  0.94663000  0.37439000  1.0
  H  H66  1  0.27075000  0.54990000  0.98561000  1.0
  H  H67  1  0.26489000  0.38200000  0.96385000  1.0
  H  H68  1  0.45055000  0.74823000  0.83496000  1.0
  H  H69  1  0.47683000  0.64344000  0.79688000  1.0
  H  H70  1  0.56242000  0.71090000  0.80442000  1.0
  H  H71  1  0.49081000  0.72528000  0.70926000  1.0
  H  H72  1  0.46651000  0.83111000  0.74521000  1.0
  H  H73  1  0.46920000  0.36178000  0.91533000  1.0
  H  H74  1  0.46285000  0.46037000  0.87511000  1.0
  H  H75  1  0.36999000  0.40099000  0.87133000  1.0
  H  H76  1  0.46767000  0.36645000  0.78683000  1.0
  H  H77  1  0.47482000  0.26709000  0.82564000  1.0
  H  H78  1  0.86823000  0.22476000  0.30297000  1.0
  H  H79  1  0.89117000  0.13145000  0.25472000  1.0
  H  H80  1  0.98403000  0.18263000  0.27862000  1.0
  H  H81  1  0.93481000  0.23251000  0.18261000  1.0
  H  H82  1  0.91075000  0.32644000  0.22938000  1.0
  H  H83  1  0.36051000  0.61640000  0.22149000  1.0
  H  H84  1  0.28436000  0.54721000  0.24322000  1.0
  H  H85  1  0.29261000  0.56872000  0.17138000  1.0
  H  H86  1  0.14499000  0.66328000  0.21127000  1.0
  H  H87  1  0.21673000  0.72931000  0.18290000  1.0
  C  C88  1  0.41498000  0.70894000  0.43046000  1.0
  C  C89  1  0.51198000  0.39023000  0.31121000  1.0
  C  C90  1  0.90058000  0.19510000  0.93243000  1.0
  C  C91  1  0.04328000  0.87015000  0.83279000  1.0
  C  C92  1  0.36890000  0.66961000  0.64730000  1.0
  C  C93  1  0.61098000  0.39236000  0.73301000  1.0
  C  C94  1  0.81130000  0.17350000  0.11857000  1.0
  C  C95  1  0.11455000  0.87919000  0.22724000  1.0
  C  C96  1  0.22220000  0.37439000  0.50802000  1.0
  C  C97  1  0.82100000  0.44217000  0.49330000  1.0
  C  C98  1  0.69792000  0.83241000  0.00864000  1.0
  C  C99  1  0.30340000  0.87166000  0.01531000  1.0
  C  C100  1  0.66277000  0.83999000  0.45356000  1.0
  C  C101  1  0.66449000  0.21808000  0.47882000  1.0
  C  C102  1  0.15643000  0.29127000  0.02707000  1.0
  C  C103  1  0.09860000  0.67925000  0.00067000  1.0
  C  C104  1  0.70737000  0.07525000  0.42139000  1.0
  C  C105  1  0.70984000  0.97873000  0.41534000  1.0
  C  C106  1  0.20826000  0.52268000  0.99242000  1.0
  C  C107  1  0.21741000  0.42420000  0.99351000  1.0
  C  C108  1  0.70296000  0.12209000  0.47088000  1.0
  C  C109  1  0.68010000  0.93071000  0.45586000  1.0
  C  C110  1  0.12377000  0.57927000  0.99791000  1.0
  C  C111  1  0.16803000  0.38456000  0.02904000  1.0
  C  C112  1  0.34706000  0.77020000  0.73410000  1.0
  C  C113  1  0.60059000  0.32066000  0.82799000  1.0
  C  C114  1  0.78765000  0.28302000  0.20002000  1.0
  C  C115  1  0.20990000  0.73904000  0.27176000  1.0
  C  C116  1  0.72625000  0.34125000  0.23528000  1.0
  C  C117  1  0.25767000  0.69933000  0.31881000  1.0
  C  C118  1  0.28489000  0.82283000  0.77172000  1.0
  C  C119  1  0.65164000  0.27162000  0.87183000  1.0
  C  C120  1  0.62855000  0.35741000  0.22898000  1.0
  C  C121  1  0.26516000  0.74760000  0.36907000  1.0
  C  C122  1  0.18770000  0.82935000  0.76897000  1.0
  C  C123  1  0.74916000  0.26042000  0.87800000  1.0
  C  C124  1  0.59131000  0.31489000  0.18387000  1.0
  C  C125  1  0.22100000  0.83964000  0.37227000  1.0
  C  C126  1  0.15230000  0.77937000  0.72655000  1.0
  C  C127  1  0.79422000  0.30829000  0.84131000  1.0
  C  C128  1  0.21254000  0.72774000  0.68815000  1.0
  C  C129  1  0.74563000  0.35476000  0.79706000  1.0
  C  C130  1  0.65144000  0.25827000  0.14713000  1.0
  C  C131  1  0.17106000  0.88041000  0.32597000  1.0
  C  C132  1  0.36751000  0.58175000  0.62654000  1.0
  C  C133  1  0.64366000  0.45656000  0.70080000  1.0
  C  C134  1  0.80591000  0.08261000  0.10693000  1.0
  C  C135  1  0.12541000  0.96077000  0.20365000  1.0
  C  C136  1  0.30983000  0.72287000  0.69039000  1.0
  C  C137  1  0.64958000  0.35771000  0.78711000  1.0
  C  C138  1  0.74949000  0.24036000  0.15436000  1.0
  C  C139  1  0.16465000  0.83221000  0.27553000  1.0
  C  C140  1  0.96827000  0.43071000  0.55051000  1.0
  C  C141  1  0.06558000  0.41507000  0.55397000  1.0
  C  C142  1  0.46048000  0.81861000  0.06095000  1.0
  C  C143  1  0.55685000  0.81073000  0.05924000  1.0
  C  C144  1  0.12169000  0.37576000  0.50899000  1.0
  C  C145  1  0.92192000  0.40804000  0.50182000  1.0
  C  C146  1  0.60203000  0.81887000  0.00890000  1.0
  C  C147  1  0.40435000  0.83574000  0.01236000  1.0
  C  C148  1  0.07557000  0.34555000  0.46239000  1.0
  C  C149  1  0.97834000  0.36118000  0.45890000  1.0
  C  C150  1  0.54753000  0.82366000  0.95954000  1.0
  C  C151  1  0.45115000  0.83203000  0.96128000  1.0
  C  C152  1  0.27550000  0.37891000  0.46039000  1.0
  C  C153  1  0.77517000  0.46157000  0.44134000  1.0
  C  C154  1  0.74669000  0.85782000  0.96372000  1.0
  C  C155  1  0.24135000  0.90269000  0.97082000  1.0
  C  C156  1  0.63497000  0.79718000  0.49996000  1.0
  C  C157  1  0.63709000  0.26385000  0.53000000  1.0
  C  C158  1  0.13637000  0.23954000  0.07158000  1.0
  C  C159  1  0.08186000  0.73482000  0.04887000  1.0
  C  C160  1  0.28626000  0.37888000  0.55218000  1.0
  C  C161  1  0.75096000  0.47780000  0.53234000  1.0
  C  C162  1  0.75892000  0.83626000  0.05438000  1.0
  C  C163  1  0.25151000  0.90570000  0.06302000  1.0
  C  C164  1  0.65704000  0.77822000  0.40905000  1.0
  C  C165  1  0.62410000  0.28185000  0.43856000  1.0
  C  C166  1  0.15240000  0.23391000  0.98019000  1.0
  C  C167  1  0.06565000  0.73925000  0.95716000  1.0
  C  C168  1  0.43944000  0.69461000  0.61637000  1.0
  C  C169  1  0.54976000  0.35969000  0.69567000  1.0
  C  C170  1  0.89795000  0.17959000  0.09644000  1.0
  C  C171  1  0.04642000  0.85224000  0.19247000  1.0
  C  C172  1  0.32782000  0.60604000  0.42637000  1.0
  C  C173  1  0.59090000  0.49570000  0.29486000  1.0
  C  C174  1  0.79938000  0.10524000  0.92682000  1.0
  C  C175  1  0.14269000  0.96109000  0.84041000  1.0
  C  C176  1  0.32793000  0.69593000  0.41137000  1.0
  C  C177  1  0.57400000  0.41357000  0.27290000  1.0
  C  C178  1  0.80870000  0.19369000  0.91421000  1.0
  C  C179  1  0.12699000  0.88434000  0.81035000  1.0
  C  C180  1  0.45118000  0.76246000  0.74402000  1.0
  C  C181  1  0.48711000  0.71367000  0.79825000  1.0
  C  C182  1  0.49482000  0.33373000  0.82595000  1.0
  C  C183  1  0.44658000  0.39235000  0.87481000  1.0
  C  C184  1  0.89020000  0.26228000  0.21731000  1.0
  C  C185  1  0.90953000  0.19662000  0.26632000  1.0
  C  C186  1  0.21245000  0.68407000  0.21773000  1.0
  C  C187  1  0.29179000  0.59954000  0.21345000  1.0
  N  N188  1  0.46558000  0.62996000  0.45255000  1.0
  N  N189  1  0.49529000  0.45231000  0.35346000  1.0
  N  N190  1  0.94241000  0.11353000  0.95262000  1.0
  N  N191  1  0.01268000  0.93245000  0.87338000  1.0
  N  N192  1  0.43279000  0.55594000  0.58706000  1.0
  N  N193  1  0.60647000  0.46222000  0.64919000  1.0
  N  N194  1  0.88490000  0.03838000  0.08182000  1.0
  N  N195  1  0.06873000  0.98028000  0.15841000  1.0
  N  N196  1  0.36316000  0.38597000  0.47513000  1.0
  N  N197  1  0.68634000  0.50631000  0.44907000  1.0
  N  N198  1  0.82917000  0.87515000  0.98138000  1.0
  N  N199  1  0.16086000  0.95310000  0.99082000  1.0
  N  N200  1  0.61465000  0.71737000  0.48456000  1.0
  N  N201  1  0.58271000  0.34639000  0.52044000  1.0
  N  N202  1  0.12271000  0.15834000  0.05277000  1.0
  N  N203  1  0.04123000  0.82084000  0.03474000  1.0
  N  N204  1  0.37009000  0.38581000  0.53234000  1.0
  N  N205  1  0.67122000  0.51633000  0.50515000  1.0
  N  N206  1  0.83682000  0.86165000  0.03788000  1.0
  N  N207  1  0.16718000  0.95472000  0.04741000  1.0
  N  N208  1  0.62773000  0.70553000  0.42804000  1.0
  N  N209  1  0.57532000  0.35730000  0.46405000  1.0
  N  N210  1  0.13186000  0.15518000  0.99566000  1.0
  N  N211  1  0.03159000  0.82350000  0.97835000  1.0
  N  N212  1  0.47711000  0.62596000  0.58117000  1.0
  N  N213  1  0.54863000  0.40153000  0.64616000  1.0
  N  N214  1  0.94176000  0.09788000  0.07557000  1.0
  N  N215  1  0.01916000  0.91265000  0.15179000  1.0
  N  N216  1  0.40977000  0.56737000  0.45042000  1.0
  N  N217  1  0.54402000  0.51867000  0.34289000  1.0
  N  N218  1  0.88043000  0.05777000  0.94919000  1.0
  N  N219  1  0.07460000  0.98949000  0.87787000  1.0
