# generated using pymatgen
data_Ag2H10C8N2O5
_symmetry_space_group_name_H-M   'P 1'
_cell_length_a   7.58214000
_cell_length_b   8.55698000
_cell_length_c   11.32250000
_cell_angle_alpha   100.06800000
_cell_angle_beta   102.15300000
_cell_angle_gamma   115.76500000
_symmetry_Int_Tables_number   1
_chemical_formula_structural   Ag2H10C8N2O5
_chemical_formula_sum   'Ag4 H20 C16 N4 O10'
_cell_volume   616.44650438
_cell_formula_units_Z   2
loop_
 _symmetry_equiv_pos_site_id
 _symmetry_equiv_pos_as_xyz
  1  'x, y, z'
loop_
 _atom_site_type_symbol
 _atom_site_label
 _atom_site_symmetry_multiplicity
 _atom_site_fract_x
 _atom_site_fract_y
 _atom_site_fract_z
 _atom_site_occupancy
  Ag  Ag0  1  0.58594000  0.14120000  0.29789000  1.0
  Ag  Ag1  1  0.41407000  0.85880000  0.70211000  1.0
  Ag  Ag2  1  0.17937000  0.96394000  0.51457000  1.0
  Ag  Ag3  1  0.82063000  0.03606000  0.48543000  1.0
  H  H4  1  0.49862000  0.79179000  0.22894000  1.0
  H  H5  1  0.50139000  0.20822000  0.77106000  1.0
  H  H6  1  0.69298000  0.92428000  0.19606000  1.0
  H  H7  1  0.30703000  0.07572000  0.80394000  1.0
  H  H8  1  0.71827000  0.57812000  0.75408000  1.0
  H  H9  1  0.28173000  0.42188000  0.24592000  1.0
  H  H10  1  0.94610000  0.46483000  0.24485000  1.0
  H  H11  1  0.05389000  0.53516000  0.75514000  1.0
  H  H12  1  0.04348000  0.70304000  0.29063000  1.0
  H  H13  1  0.95651000  0.29695000  0.70937000  1.0
  H  H14  1  0.59448000  0.41318000  0.13640000  1.0
  H  H15  1  0.40550000  0.58681000  0.86359000  1.0
  H  H16  1  0.68574000  0.64933000  0.18610000  1.0
  H  H17  1  0.31425000  0.35066000  0.81390000  1.0
  H  H18  1  0.93647000  0.69855000  0.06146000  1.0
  H  H19  1  0.06352000  0.30144000  0.93853000  1.0
  H  H20  1  0.67682000  0.55294000  0.96327000  1.0
  H  H21  1  0.32317000  0.44705000  0.03673000  1.0
  H  H22  1  0.83766000  0.45856000  0.00849000  1.0
  H  H23  1  0.16233000  0.54143000  0.99150000  1.0
  C  C24  1  0.70372000  0.46502000  0.52727000  1.0
  C  C25  1  0.29628000  0.53499000  0.47273000  1.0
  C  C26  1  0.84022000  0.65310000  0.58044000  1.0
  C  C27  1  0.15978000  0.34690000  0.41956000  1.0
  C  C28  1  0.84773000  0.56535000  0.38828000  1.0
  C  C29  1  0.15227000  0.43465000  0.61172000  1.0
  C  C30  1  0.57030000  0.32884000  0.57819000  1.0
  C  C31  1  0.42971000  0.67117000  0.42181000  1.0
  C  C32  1  0.89811000  0.78283000  0.70458000  1.0
  C  C33  1  0.10190000  0.21718000  0.29542000  1.0
  C  C34  1  0.90413000  0.57118000  0.27042000  1.0
  C  C35  1  0.09586000  0.42881000  0.72958000  1.0
  C  C36  1  0.73173000  0.54708000  0.15775000  1.0
  C  C37  1  0.26826000  0.45291000  0.84224000  1.0
  C  C38  1  0.79988000  0.56516000  0.04139000  1.0
  C  C39  1  0.20011000  0.43483000  0.95861000  1.0
  N  N40  1  0.71056000  0.41400000  0.40696000  1.0
  N  N41  1  0.28944000  0.58600000  0.59304000  1.0
  N  N42  1  0.92695000  0.71217000  0.49068000  1.0
  N  N43  1  0.07305000  0.28784000  0.50932000  1.0
  O  O44  1  0.44881000  0.16980000  0.49981000  1.0
  O  O45  1  0.55120000  0.83019000  0.50019000  1.0
  O  O46  1  0.54611000  0.88817000  0.18583000  1.0
  O  O47  1  0.45389000  0.11183000  0.81417000  1.0
  O  O48  1  0.58322000  0.37391000  0.69479000  1.0
  O  O49  1  0.41679000  0.62611000  0.30521000  1.0
  O  O50  1  0.02324000  0.94781000  0.73048000  1.0
  O  O51  1  0.97677000  0.05221000  0.26952000  1.0
  O  O52  1  0.81341000  0.71837000  0.78860000  1.0
  O  O53  1  0.18660000  0.28165000  0.21140000  1.0
