# generated using pymatgen
data_CdH6C7SN2O3
_symmetry_space_group_name_H-M   'P 1'
_cell_length_a   5.96422000
_cell_length_b   11.37430000
_cell_length_c   14.86160000
_cell_angle_alpha   89.99970000
_cell_angle_beta   89.99970000
_cell_angle_gamma   86.29260000
_symmetry_Int_Tables_number   1
_chemical_formula_structural   CdH6C7SN2O3
_chemical_formula_sum   'Cd4 H24 C28 S4 N8 O12'
_cell_volume   1006.08364797
_cell_formula_units_Z   4
loop_
 _symmetry_equiv_pos_site_id
 _symmetry_equiv_pos_as_xyz
  1  'x, y, z'
loop_
 _atom_site_type_symbol
 _atom_site_label
 _atom_site_symmetry_multiplicity
 _atom_site_fract_x
 _atom_site_fract_y
 _atom_site_fract_z
 _atom_site_occupancy
  Cd  Cd0  1  0.17679000  0.70519000  0.01637000  1.0
  Cd  Cd1  1  0.67678000  0.20519000  0.48363000  1.0
  Cd  Cd2  1  0.82324000  0.29481000  0.98363000  1.0
  Cd  Cd3  1  0.32323000  0.79481000  0.51637000  1.0
  H  H4  1  0.31739000  0.95551000  0.09882000  1.0
  H  H5  1  0.81740000  0.45551000  0.40117000  1.0
  H  H6  1  0.68260000  0.04450000  0.90117000  1.0
  H  H7  1  0.18260000  0.54449000  0.59883000  1.0
  H  H8  1  0.20900000  0.08845000  0.22880000  1.0
  H  H9  1  0.70900000  0.58845000  0.27120000  1.0
  H  H10  1  0.79098000  0.91156000  0.77120000  1.0
  H  H11  1  0.29099000  0.41156000  0.72881000  1.0
  H  H12  1  0.60791000  0.90040000  0.25736000  1.0
  H  H13  1  0.10792000  0.40039000  0.24264000  1.0
  H  H14  1  0.39208000  0.09960000  0.74263000  1.0
  H  H15  1  0.89208000  0.59960000  0.75737000  1.0
  H  H16  1  0.75110000  0.76567000  0.13323000  1.0
  H  H17  1  0.25111000  0.26566000  0.36676000  1.0
  H  H18  1  0.24890000  0.23434000  0.86675000  1.0
  H  H19  1  0.74890000  0.73434000  0.63324000  1.0
  H  H20  1  0.19230000  0.45681000  0.01051000  1.0
  H  H21  1  0.69231000  0.95681000  0.48949000  1.0
  H  H22  1  0.80770000  0.54320000  0.98949000  1.0
  H  H23  1  0.30769000  0.04319000  0.51051000  1.0
  H  H24  1  0.33980000  0.46876000  0.92442000  1.0
  H  H25  1  0.83980000  0.96876000  0.57558000  1.0
  H  H26  1  0.66020000  0.53123000  0.07558000  1.0
  H  H27  1  0.16020000  0.03124000  0.42442000  1.0
  C  C28  1  0.65606000  0.75695000  0.92857000  1.0
  C  C29  1  0.15605000  0.25696000  0.57144000  1.0
  C  C30  1  0.34398000  0.24304000  0.07144000  1.0
  C  C31  1  0.84395000  0.74305000  0.42857000  1.0
  C  C32  1  0.16274000  0.94531000  0.13652000  1.0
  C  C33  1  0.66274000  0.44531000  0.36348000  1.0
  C  C34  1  0.83725000  0.05470000  0.86348000  1.0
  C  C35  1  0.33725000  0.55470000  0.63652000  1.0
  C  C36  1  0.10047000  0.02021000  0.20754000  1.0
  C  C37  1  0.60046000  0.52022000  0.29246000  1.0
  C  C38  1  0.89953000  0.97979000  0.79245000  1.0
  C  C39  1  0.39953000  0.47978000  0.70755000  1.0
  C  C40  1  0.89705000  0.00500000  0.25145000  1.0
  C  C41  1  0.39705000  0.50501000  0.24855000  1.0
  C  C42  1  0.10294000  0.99500000  0.74854000  1.0
  C  C43  1  0.60294000  0.49500000  0.75145000  1.0
  C  C44  1  0.76623000  0.91396000  0.22364000  1.0
  C  C45  1  0.26622000  0.41395000  0.27636000  1.0
  C  C46  1  0.23377000  0.08604000  0.77635000  1.0
  C  C47  1  0.73377000  0.58605000  0.72364000  1.0
  C  C48  1  0.84446000  0.84031000  0.15438000  1.0
  C  C49  1  0.34446000  0.34030000  0.34561000  1.0
  C  C50  1  0.15555000  0.15969000  0.84560000  1.0
  C  C51  1  0.65554000  0.65969000  0.65439000  1.0
  C  C52  1  0.81894000  0.08293000  0.32828000  1.0
  C  C53  1  0.31894000  0.58294000  0.17172000  1.0
  C  C54  1  0.18105000  0.91706000  0.67172000  1.0
  C  C55  1  0.68105000  0.41706000  0.82828000  1.0
  S  S56  1  0.41264000  0.82306000  0.90424000  1.0
  S  S57  1  0.91260000  0.32306000  0.59578000  1.0
  S  S58  1  0.58741000  0.17694000  0.09577000  1.0
  S  S59  1  0.08740000  0.67694000  0.40423000  1.0
  N  N60  1  0.83443000  0.70926000  0.94371000  1.0
  N  N61  1  0.33440000  0.20928000  0.55629000  1.0
  N  N62  1  0.16561000  0.29072000  0.05629000  1.0
  N  N63  1  0.66562000  0.79072000  0.44371000  1.0
  N  N64  1  0.03856000  0.85658000  0.11105000  1.0
  N  N65  1  0.53858000  0.35657000  0.38895000  1.0
  N  N66  1  0.96143000  0.14343000  0.88895000  1.0
  N  N67  1  0.46144000  0.64342000  0.61105000  1.0
  O  O68  1  0.96930000  0.13216000  0.37469000  1.0
  O  O69  1  0.46931000  0.63216000  0.12531000  1.0
  O  O70  1  0.03068000  0.86783000  0.62531000  1.0
  O  O71  1  0.53068000  0.36784000  0.87469000  1.0
  O  O72  1  0.61158000  0.09395000  0.34549000  1.0
  O  O73  1  0.11158000  0.59396000  0.15451000  1.0
  O  O74  1  0.38841000  0.90604000  0.65451000  1.0
  O  O75  1  0.88841000  0.40604000  0.84549000  1.0
  O  O76  1  0.23217000  0.51386000  0.96470000  1.0
  O  O77  1  0.73217000  0.01386000  0.53530000  1.0
  O  O78  1  0.76782000  0.48614000  0.03529000  1.0
  O  O79  1  0.26782000  0.98614000  0.46471000  1.0
