# generated using pymatgen
data_Zn4H55C90N19O3
_symmetry_space_group_name_H-M   'P 1'
_cell_length_a   18.85760000
_cell_length_b   19.55440000
_cell_length_c   20.49370000
_cell_angle_alpha   107.96700000
_cell_angle_beta   104.51400000
_cell_angle_gamma   113.61100000
_symmetry_Int_Tables_number   1
_chemical_formula_structural   Zn4H55C90N19O3
_chemical_formula_sum   'Zn4 H55 C90 N19 O3'
_cell_volume   5948.92897724
_cell_formula_units_Z   1
loop_
 _symmetry_equiv_pos_site_id
 _symmetry_equiv_pos_as_xyz
  1  'x, y, z'
loop_
 _atom_site_type_symbol
 _atom_site_label
 _atom_site_symmetry_multiplicity
 _atom_site_fract_x
 _atom_site_fract_y
 _atom_site_fract_z
 _atom_site_occupancy
  Zn  Zn0  1  0.11722000  0.09555000  0.50154000  1.0
  Zn  Zn1  1  0.88796000  0.88548000  0.50127000  1.0
  Zn  Zn2  1  0.00325000  0.88774000  0.40229000  1.0
  Zn  Zn3  1  0.01081000  0.08754000  0.60550000  1.0
  H  H4  1  0.19554000  0.14072000  0.38533000  1.0
  H  H5  1  0.82901000  0.49606000  0.57531000  1.0
  H  H6  1  0.71464000  0.85812000  0.53169000  1.0
  H  H7  1  0.84581000  0.38081000  0.58811000  1.0
  H  H8  1  0.90023000  0.28477000  0.55358000  1.0
  H  H9  1  0.11806000  0.36208000  0.50013000  1.0
  H  H10  1  0.16492000  0.61395000  0.48315000  1.0
  H  H11  1  0.24946000  0.84120000  0.54559000  1.0
  H  H12  1  0.38886000  0.10974000  0.68691000  1.0
  H  H13  1  0.54731000  0.18999000  0.74707000  1.0
  H  H14  1  0.68123000  0.19747000  0.74823000  1.0
  H  H15  1  0.84925000  0.71478000  0.50922000  1.0
  H  H16  1  0.89383000  0.89980000  0.26335000  1.0
  H  H17  1  0.61564000  0.85748000  0.56525000  1.0
  H  H18  1  0.46311000  0.77258000  0.53461000  1.0
  H  H19  1  0.32837000  0.76594000  0.52933000  1.0
  H  H20  1  0.22192000  0.40726000  0.82776000  1.0
  H  H21  1  0.78085000  0.89164000  0.16159000  1.0
  H  H22  1  0.61904000  0.81181000  0.27141000  1.0
  H  H23  1  0.42794000  0.67641000  0.02302000  1.0
  H  H24  1  0.47505000  0.59661000  0.80851000  1.0
  H  H25  1  0.65440000  0.81218000  0.03943000  1.0
  H  H26  1  0.12311000  0.84351000  0.50497000  1.0
  H  H27  1  0.37418000  0.45338000  0.70366000  1.0
  H  H28  1  0.91942000  0.17912000  0.56575000  1.0
  H  H29  1  0.53737000  0.69058000  0.93392000  1.0
  H  H30  1  0.49251000  0.73613000  0.14975000  1.0
  H  H31  1  0.18811000  0.90424000  0.21345000  1.0
  H  H32  1  0.23630000  0.08773000  0.83381000  1.0
  H  H33  1  0.04365000  0.82490000  0.73232000  1.0
  H  H34  1  0.18097000  0.89786000  0.98926000  1.0
  H  H35  1  0.23093000  0.14531000  0.16048000  1.0
  H  H36  1  0.28793000  0.08826000  0.95653000  1.0
  H  H37  1  0.15394000  0.10120000  0.73887000  1.0
  H  H38  1  0.19090000  0.13655000  0.26449000  1.0
  H  H39  1  0.25221000  0.08792000  0.05341000  1.0
  H  H40  1  0.22582000  0.91193000  0.10824000  1.0
  H  H41  1  0.09688000  0.82536000  0.85503000  1.0
  H  H42  1  0.88160000  0.12664000  0.67714000  1.0
  H  H43  1  0.07409000  0.87017000  0.26435000  1.0
  H  H44  1  0.28327000  0.30085000  0.61439000  1.0
  H  H45  1  0.74280000  0.47081000  0.44353000  1.0
  H  H46  1  0.71117000  0.54686000  0.46928000  1.0
  H  H47  1  0.76118000  0.54439000  0.40528000  1.0
  H  H48  1  0.98734000  0.82983000  0.61761000  1.0
  H  H49  1  0.25443000  0.44942000  0.95091000  1.0
  H  H50  1  0.18630000  0.47954000  0.90474000  1.0
  H  H51  1  0.25143000  0.53897000  0.00532000  1.0
  H  H52  1  0.68671000  0.95932000  0.35321000  1.0
  H  H53  1  0.76754000  0.01575000  0.44978000  1.0
  H  H54  1  0.65922000  0.94083000  0.42652000  1.0
  H  H55  1  0.27319000  0.11598000  0.62648000  1.0
  H  H56  1  0.13554000  0.27795000  0.74599000  1.0
  H  H57  1  0.00153000  0.71417000  0.38297000  1.0
  H  H58  1  0.06920000  0.67157000  0.46228000  1.0
  C  C59  1  0.16119000  0.07313000  0.36491000  1.0
  C  C60  1  0.22547000  0.04960000  0.59085000  1.0
  C  C61  1  0.16335000  0.26983000  0.70584000  1.0
  C  C62  1  0.76645000  0.92325000  0.56577000  1.0
  C  C63  1  0.96309000  0.72500000  0.41185000  1.0
  C  C64  1  0.23483000  0.32935000  0.70375000  1.0
  C  C65  1  0.93390000  0.69006000  0.45726000  1.0
  C  C66  1  0.23123000  0.97808000  0.58300000  1.0
  C  C67  1  0.09141000  0.96234000  0.70658000  1.0
  C  C68  1  0.02807000  0.63197000  0.48077000  1.0
  C  C69  1  0.95617000  0.63655000  0.48330000  1.0
  C  C70  1  0.76720000  0.99356000  0.61337000  1.0
  C  C71  1  0.90790000  0.58890000  0.51265000  1.0
  C  C72  1  0.92604000  0.53339000  0.53336000  1.0
  C  C73  1  0.99396000  0.52372000  0.52285000  1.0
  C  C74  1  0.86682000  0.90138000  0.30443000  1.0
  C  C75  1  0.04795000  0.57670000  0.49960000  1.0
  C  C76  1  0.87580000  0.48318000  0.56118000  1.0
  C  C77  1  0.88552000  0.41999000  0.56848000  1.0
  C  C78  1  0.94629000  0.40208000  0.54904000  1.0
  C  C79  1  0.00449000  0.45852000  0.53107000  1.0
  C  C80  1  0.06936000  0.44521000  0.51692000  1.0
  C  C81  1  0.78538000  0.88827000  0.29623000  1.0
  C  C82  1  0.13080000  0.50732000  0.50422000  1.0
  C  C83  1  0.11925000  0.56964000  0.49504000  1.0
  C  C84  1  0.94765000  0.32944000  0.54328000  1.0
  C  C85  1  0.00541000  0.31144000  0.52111000  1.0
  C  C86  1  0.95673000  0.17487000  0.53361000  1.0
  C  C87  1  0.06903000  0.37216000  0.51235000  1.0
  C  C88  1  0.30983000  0.90105000  0.58227000  1.0
  C  C89  1  0.30920000  0.97600000  0.61152000  1.0
  C  C90  1  0.38781000  0.05131000  0.66094000  1.0
  C  C91  1  0.46607000  0.05509000  0.67321000  1.0
  C  C92  1  0.99942000  0.23114000  0.50856000  1.0
  C  C93  1  0.46595000  0.98002000  0.63659000  1.0
  C  C94  1  0.38651000  0.90145000  0.59385000  1.0
  C  C95  1  0.54661000  0.13291000  0.71639000  1.0
  C  C96  1  0.62098000  0.13712000  0.71711000  1.0
  C  C97  1  0.62122000  0.06334000  0.67581000  1.0
  C  C98  1  0.78788000  0.89638000  0.36806000  1.0
  C  C99  1  0.54327000  0.98406000  0.63840000  1.0
  C  C100  1  0.54245000  0.90914000  0.59919000  1.0
  C  C101  1  0.46313000  0.83008000  0.56226000  1.0
  C  C102  1  0.38850000  0.82654000  0.55950000  1.0
  C  C103  1  0.23846000  0.28143000  0.63876000  1.0
  C  C104  1  0.69555000  0.06683000  0.66843000  1.0
  C  C105  1  0.69448000  0.99277000  0.62712000  1.0
  C  C106  1  0.61786000  0.91544000  0.59569000  1.0
  C  C107  1  0.29155000  0.41803000  0.75912000  1.0
  C  C108  1  0.27712000  0.44909000  0.82300000  1.0
  C  C109  1  0.33250000  0.53093000  0.88118000  1.0
  C  C110  1  0.03703000  0.19213000  0.47145000  1.0
  C  C111  1  0.40855000  0.58634000  0.87941000  1.0
  C  C112  1  0.41848000  0.55513000  0.81243000  1.0
  C  C113  1  0.36214000  0.47389000  0.75341000  1.0
  C  C114  1  0.88421000  0.72430000  0.47503000  1.0
  C  C115  1  0.64592000  0.81199000  0.09016000  1.0
  C  C116  1  0.71769000  0.85693000  0.15954000  1.0
  C  C117  1  0.62750000  0.81438000  0.22142000  1.0
  C  C118  1  0.55606000  0.77095000  0.15246000  1.0
  C  C119  1  0.56298000  0.76463000  0.08418000  1.0
  C  C120  1  0.47987000  0.66503000  0.94362000  1.0
  C  C121  1  0.48562000  0.70227000  0.01432000  1.0
  C  C122  1  0.85113000  0.06039000  0.63894000  1.0
  C  C123  1  0.71081000  0.85625000  0.22648000  1.0
  C  C124  1  0.18339000  0.01810000  0.24510000  1.0
  C  C125  1  0.14896000  0.91075000  0.52846000  1.0
  C  C126  1  0.19576000  0.95646000  0.20094000  1.0
  C  C127  1  0.21735000  0.96098000  0.14181000  1.0
  C  C128  1  0.22758000  0.02749000  0.12406000  1.0
  C  C129  1  0.22196000  0.09243000  0.17230000  1.0
  C  C130  1  0.19955000  0.08760000  0.23099000  1.0
  C  C131  1  0.23371000  0.03042000  0.90762000  1.0
  C  C132  1  0.20446000  0.03001000  0.83822000  1.0
  C  C133  1  0.09781000  0.88299000  0.78101000  1.0
  C  C134  1  0.09982000  0.93522000  0.30370000  1.0
  C  C135  1  0.12781000  0.88311000  0.85032000  1.0
  C  C136  1  0.10602000  0.03565000  0.69966000  1.0
  C  C137  1  0.19279000  0.95792000  0.91640000  1.0
  C  C138  1  0.23391000  0.02798000  0.05492000  1.0
  C  C139  1  0.20630000  0.95930000  0.98998000  1.0
  C  C140  1  0.13267000  0.95751000  0.77416000  1.0
  C  C141  1  0.15168000  0.00933000  0.30180000  1.0
  C  C142  1  0.75915000  0.53544000  0.45541000  1.0
  C  C143  1  0.20374000  0.50342000  0.50060000  1.0
  C  C144  1  0.76947000  0.14804000  0.70084000  1.0
  C  C145  1  0.24827000  0.50306000  0.95064000  1.0
  C  C146  1  0.70935000  0.95570000  0.40632000  1.0
  C  C147  1  0.02018000  0.89730000  0.63777000  1.0
  C  C148  1  0.09021000  0.21855000  0.43572000  1.0
  N  N149  1  0.11875000  0.03964000  0.40137000  1.0
  N  N150  1  0.91194000  0.91373000  0.37382000  1.0
  N  N151  1  0.97073000  0.11019000  0.51573000  1.0
  N  N152  1  0.86341000  0.91105000  0.41350000  1.0
  N  N153  1  0.01950000  0.11981000  0.47709000  1.0
  N  N154  1  0.89525000  0.03158000  0.60891000  1.0
  N  N155  1  0.08023000  0.95361000  0.36320000  1.0
  N  N156  1  0.17446000  0.20045000  0.60544000  1.0
  N  N157  1  0.26443000  0.50120000  0.49922000  1.0
  N  N158  1  0.82882000  0.21595000  0.72715000  1.0
  N  N159  1  0.13659000  0.23944000  0.40775000  1.0
  N  N160  1  0.88603000  0.77680000  0.44493000  1.0
  N  N161  1  0.09956000  0.94036000  0.50512000  1.0
  N  N162  1  0.04729000  0.01486000  0.63267000  1.0
  N  N163  1  0.99449000  0.93006000  0.59453000  1.0
  N  N164  1  0.14663000  0.02564000  0.54352000  1.0
  N  N165  1  0.12773000  0.19350000  0.64739000  1.0
  N  N166  1  0.93524000  0.77723000  0.40513000  1.0
  N  N167  1  0.84251000  0.94624000  0.56350000  1.0
  O  O168  1  0.84008000  0.59552000  0.52105000  1.0
  O  O169  1  0.31829000  0.56039000  0.94347000  1.0
  O  O170  1  0.72648000  0.88811000  0.39375000  1.0
