# generated using pymatgen
data_Ag2H22C11N5O3
_symmetry_space_group_name_H-M   'P 1'
_cell_length_a   7.17032000
_cell_length_b   10.49500000
_cell_length_c   10.89030000
_cell_angle_alpha   100.10900000
_cell_angle_beta   98.77750000
_cell_angle_gamma   97.33240000
_symmetry_Int_Tables_number   1
_chemical_formula_structural   Ag2H22C11N5O3
_chemical_formula_sum   'Ag4 H44 C22 N10 O6'
_cell_volume   787.24552298
_cell_formula_units_Z   2
loop_
 _symmetry_equiv_pos_site_id
 _symmetry_equiv_pos_as_xyz
  1  'x, y, z'
loop_
 _atom_site_type_symbol
 _atom_site_label
 _atom_site_symmetry_multiplicity
 _atom_site_fract_x
 _atom_site_fract_y
 _atom_site_fract_z
 _atom_site_occupancy
  Ag  Ag0  1  0.88793000  0.42656000  0.24528000  1.0
  Ag  Ag1  1  0.11207000  0.57343000  0.75471000  1.0
  Ag  Ag2  1  0.00001000  0.00001000  0.00000000  1.0
  Ag  Ag3  1  0.50001000  0.50001000  0.00000000  1.0
  H  H4  1  0.58609000  0.42319000  0.54685000  1.0
  H  H5  1  0.41393000  0.57680000  0.45316000  1.0
  H  H6  1  0.77198000  0.33803000  0.50934000  1.0
  H  H7  1  0.22804000  0.66197000  0.49066000  1.0
  H  H8  1  0.45329000  0.23550000  0.37788000  1.0
  H  H9  1  0.54672000  0.76450000  0.62213000  1.0
  H  H10  1  0.43572000  0.38061000  0.31807000  1.0
  H  H11  1  0.56428000  0.61939000  0.68194000  1.0
  H  H12  1  0.19129000  0.58876000  0.01120000  1.0
  H  H13  1  0.80871000  0.41122000  0.98879000  1.0
  H  H14  1  0.99312000  0.63583000  0.07777000  1.0
  H  H15  1  0.00689000  0.36416000  0.92222000  1.0
  H  H16  1  0.87941000  0.56304000  0.52193000  1.0
  H  H17  1  0.12060000  0.43696000  0.47807000  1.0
  H  H18  1  0.69499000  0.57685000  0.41477000  1.0
  H  H19  1  0.30502000  0.42315000  0.58523000  1.0
  H  H20  1  0.54538000  0.25697000  0.16769000  1.0
  H  H21  1  0.45462000  0.74304000  0.83232000  1.0
  H  H22  1  0.70293000  0.19680000  0.26198000  1.0
  H  H23  1  0.29707000  0.80320000  0.73802000  1.0
  H  H24  1  0.23363000  0.56510000  0.22397000  1.0
  H  H25  1  0.76637000  0.43489000  0.77601000  1.0
  H  H26  1  0.19078000  0.41730000  0.13692000  1.0
  H  H27  1  0.80921000  0.58269000  0.86308000  1.0
  H  H28  1  0.83626000  0.96521000  0.47217000  1.0
  H  H29  1  0.16372000  0.03479000  0.52783000  1.0
  H  H30  1  0.71437000  0.80706000  0.46892000  1.0
  H  H31  1  0.28560000  0.19295000  0.53108000  1.0
  H  H32  1  0.06613000  0.81156000  0.49592000  1.0
  H  H33  1  0.93383000  0.18845000  0.50410000  1.0
  H  H34  1  0.07327000  0.86607000  0.35112000  1.0
  H  H35  1  0.92671000  0.13393000  0.64891000  1.0
  H  H36  1  0.95399000  0.70650000  0.34886000  1.0
  H  H37  1  0.04599000  0.29351000  0.65115000  1.0
  H  H38  1  0.42689000  0.88032000  0.37949000  1.0
  H  H39  1  0.57309000  0.11967000  0.62049000  1.0
  H  H40  1  0.55910000  0.03416000  0.37754000  1.0
  H  H41  1  0.44088000  0.96585000  0.62245000  1.0
  H  H42  1  0.24673000  0.00134000  0.22959000  1.0
  H  H43  1  0.75327000  0.99866000  0.77038000  1.0
  H  H44  1  0.29226000  0.85036000  0.14713000  1.0
  H  H45  1  0.70774000  0.14964000  0.85284000  1.0
  H  H46  1  0.43154000  0.99989000  0.13935000  1.0
  H  H47  1  0.56847000  0.00011000  0.86064000  1.0
  C  C48  1  0.67117000  0.39874000  0.47272000  1.0
  C  C49  1  0.32884000  0.60126000  0.52728000  1.0
  C  C50  1  0.53763000  0.32008000  0.35387000  1.0
  C  C51  1  0.46239000  0.67992000  0.64614000  1.0
  C  C52  1  0.06601000  0.55204000  0.05076000  1.0
  C  C53  1  0.93400000  0.44796000  0.94924000  1.0
  C  C54  1  0.71899000  0.77608000  0.03700000  1.0
  C  C55  1  0.28103000  0.22393000  0.96300000  1.0
  C  C56  1  0.79033000  0.95136000  0.21689000  1.0
  C  C57  1  0.20969000  0.04864000  0.78312000  1.0
  C  C58  1  0.67327000  0.86920000  0.29027000  1.0
  C  C59  1  0.32671000  0.13080000  0.70973000  1.0
  C  C60  1  0.59729000  0.72912000  0.21937000  1.0
  C  C61  1  0.40270000  0.27087000  0.78063000  1.0
  C  C62  1  0.80094000  0.86481000  0.41672000  1.0
  C  C63  1  0.19905000  0.13518000  0.58328000  1.0
  C  C64  1  0.98352000  0.80856000  0.40163000  1.0
  C  C65  1  0.01647000  0.19145000  0.59839000  1.0
  C  C66  1  0.50024000  0.93645000  0.31956000  1.0
  C  C67  1  0.49974000  0.06356000  0.68043000  1.0
  C  C68  1  0.36073000  0.94735000  0.20277000  1.0
  C  C69  1  0.63926000  0.05264000  0.79720000  1.0
  N  N70  1  0.78245000  0.51381000  0.44407000  1.0
  N  N71  1  0.21756000  0.48619000  0.55594000  1.0
  N  N72  1  0.64168000  0.27866000  0.25104000  1.0
  N  N73  1  0.35833000  0.72135000  0.74896000  1.0
  N  N74  1  0.12649000  0.49827000  0.16417000  1.0
  N  N75  1  0.87351000  0.50173000  0.83582000  1.0
  N  N76  1  0.61865000  0.69175000  0.09776000  1.0
  N  N77  1  0.38137000  0.30825000  0.90225000  1.0
  N  N78  1  0.81190000  0.89915000  0.09762000  1.0
  N  N79  1  0.18811000  0.10085000  0.90238000  1.0
  O  O80  1  0.72659000  0.73749000  0.92204000  1.0
  O  O81  1  0.27343000  0.26251000  0.07796000  1.0
  O  O82  1  0.86457000  0.06632000  0.26871000  1.0
  O  O83  1  0.13542000  0.93368000  0.73130000  1.0
  O  O84  1  0.51192000  0.65083000  0.27502000  1.0
  O  O85  1  0.48808000  0.34915000  0.72497000  1.0
