# generated using pymatgen
data_CuH10C13(N3Cl)2
_symmetry_space_group_name_H-M   'P 1'
_cell_length_a   8.49767000
_cell_length_b   9.25078000
_cell_length_c   10.34950000
_cell_angle_alpha   88.65200000
_cell_angle_beta   72.83940000
_cell_angle_gamma   65.52900000
_symmetry_Int_Tables_number   1
_chemical_formula_structural   CuH10C13(N3Cl)2
_chemical_formula_sum   'Cu2 H20 C26 N12 Cl4'
_cell_volume   702.95570778
_cell_formula_units_Z   2
loop_
 _symmetry_equiv_pos_site_id
 _symmetry_equiv_pos_as_xyz
  1  'x, y, z'
loop_
 _atom_site_type_symbol
 _atom_site_label
 _atom_site_symmetry_multiplicity
 _atom_site_fract_x
 _atom_site_fract_y
 _atom_site_fract_z
 _atom_site_occupancy
  Cu  Cu0  1  0.28109000  0.34079000  0.30500000  1.0
  Cu  Cu1  1  0.71890000  0.65921000  0.69500000  1.0
  H  H2  1  0.03739000  0.25816000  0.59287000  1.0
  H  H3  1  0.96261000  0.74184000  0.40713000  1.0
  H  H4  1  0.94275000  0.07495000  0.74866000  1.0
  H  H5  1  0.05725000  0.92505000  0.25134000  1.0
  H  H6  1  0.11143000  0.78263000  0.69926000  1.0
  H  H7  1  0.88857000  0.21737000  0.30074000  1.0
  H  H8  1  0.38841000  0.65553000  0.49983000  1.0
  H  H9  1  0.61159000  0.34447000  0.50017000  1.0
  H  H10  1  0.69921000  0.62654000  0.28012000  1.0
  H  H11  1  0.30079000  0.37346000  0.71988000  1.0
  H  H12  1  0.70213000  0.73963000  0.13362000  1.0
  H  H13  1  0.29787000  0.26037000  0.86638000  1.0
  H  H14  1  0.08417000  0.57404000  0.07835000  1.0
  H  H15  1  0.91583000  0.42596000  0.92165000  1.0
  H  H16  1  0.03500000  0.79309000  0.92834000  1.0
  H  H17  1  0.96499000  0.20692000  0.07166000  1.0
  H  H18  1  0.21318000  0.95374000  0.89479000  1.0
  H  H19  1  0.78681000  0.04626000  0.10521000  1.0
  H  H20  1  0.44073000  0.90773000  0.01469000  1.0
  H  H21  1  0.55927000  0.09227000  0.98531000  1.0
  C  C22  1  0.26875000  0.05638000  0.46104000  1.0
  C  C23  1  0.73125000  0.94362000  0.53896000  1.0
  C  C24  1  0.11363000  0.12875000  0.57529000  1.0
  C  C25  1  0.88637000  0.87125000  0.42471000  1.0
  C  C26  1  0.06314000  0.02592000  0.65935000  1.0
  C  C27  1  0.93686000  0.97408000  0.34065000  1.0
  C  C28  1  0.16118000  0.85764000  0.63233000  1.0
  C  C29  1  0.83882000  0.14236000  0.36768000  1.0
  C  C30  1  0.31545000  0.78478000  0.52062000  1.0
  C  C31  1  0.68455000  0.21521000  0.47938000  1.0
  C  C32  1  0.36611000  0.88828000  0.43543000  1.0
  C  C33  1  0.63389000  0.11172000  0.56457000  1.0
  C  C34  1  0.61717000  0.71408000  0.22533000  1.0
  C  C35  1  0.38283000  0.28591000  0.77467000  1.0
  C  C36  1  0.29246000  0.61729000  0.12904000  1.0
  C  C37  1  0.70754000  0.38271000  0.87096000  1.0
  C  C38  1  0.16012000  0.64641000  0.06428000  1.0
  C  C39  1  0.83988000  0.35359000  0.93572000  1.0
  C  C40  1  0.13520000  0.76863000  0.98134000  1.0
  C  C41  1  0.86480000  0.23137000  0.01866000  1.0
  C  C42  1  0.23576000  0.86111000  0.96302000  1.0
  C  C43  1  0.76424000  0.13889000  0.03698000  1.0
  C  C44  1  0.36416000  0.83619000  0.02841000  1.0
  C  C45  1  0.63584000  0.16381000  0.97158000  1.0
  C  C46  1  0.39096000  0.71149000  0.11070000  1.0
  C  C47  1  0.60904000  0.28852000  0.88930000  1.0
  N  N48  1  0.49997000  0.86331000  0.31325000  1.0
  N  N49  1  0.50003000  0.13669000  0.68675000  1.0
  N  N50  1  0.48691000  0.00306000  0.26454000  1.0
  N  N51  1  0.51309000  0.99693000  0.73546000  1.0
  N  N52  1  0.35164000  0.11839000  0.35328000  1.0
  N  N53  1  0.64836000  0.88161000  0.64672000  1.0
  N  N54  1  0.50527000  0.64945000  0.18808000  1.0
  N  N55  1  0.49474000  0.35055000  0.81191000  1.0
  N  N56  1  0.47980000  0.52846000  0.25167000  1.0
  N  N57  1  0.52020000  0.47155000  0.74833000  1.0
  N  N58  1  0.35436000  0.50740000  0.21637000  1.0
  N  N59  1  0.64564000  0.49260000  0.78364000  1.0
  Cl  Cl60  1  0.17918000  0.28667000  0.14134000  1.0
  Cl  Cl61  1  0.82081000  0.71333000  0.85866000  1.0
  Cl  Cl62  1  0.22034000  0.45244000  0.51450000  1.0
  Cl  Cl63  1  0.77965000  0.54756000  0.48550000  1.0
