# generated using pymatgen
data_ZnC12(NF)4
_symmetry_space_group_name_H-M   'P 1'
_cell_length_a   19.67502199
_cell_length_b   19.67570000
_cell_length_c   19.67560000
_cell_angle_alpha   77.80900000
_cell_angle_beta   66.77068492
_cell_angle_gamma   113.22869887
_symmetry_Int_Tables_number   1
_chemical_formula_structural   ZnC12(NF)4
_chemical_formula_sum   'Zn4 C48 N16 F16'
_cell_volume   5793.75965912
_cell_formula_units_Z   4
loop_
 _symmetry_equiv_pos_site_id
 _symmetry_equiv_pos_as_xyz
  1  'x, y, z'
loop_
 _atom_site_type_symbol
 _atom_site_label
 _atom_site_symmetry_multiplicity
 _atom_site_fract_x
 _atom_site_fract_y
 _atom_site_fract_z
 _atom_site_occupancy
  Zn  Zn0  1  0.87916000  0.00000000  0.12084000  1.0
  Zn  Zn1  1  0.12084000  0.00000000  0.87917000  1.0
  Zn  Zn2  1  0.12083000  0.12084000  0.00000000  1.0
  Zn  Zn3  1  0.87917000  0.87916000  1.00000000  1.0
  C  C4  1  0.92940000  0.18108000  0.07238000  1.0
  C  C5  1  0.25342000  0.18113000  0.74839000  1.0
  C  C6  1  0.92944000  0.74833000  0.99821000  1.0
  C  C7  1  0.07044000  0.25159000  0.00182000  1.0
  C  C8  1  0.25344000  0.00179000  0.92765000  1.0
  C  C9  1  0.74658000  0.99818000  0.07229000  1.0
  C  C10  1  0.07058000  0.07239000  0.18109000  1.0
  C  C11  1  0.92952000  0.92770000  0.81889000  1.0
  C  C12  1  0.07049000  0.81887000  0.92770000  1.0
  C  C13  1  0.25345000  0.25168000  0.81890000  1.0
  C  C14  1  0.74660000  0.74840000  0.18111000  1.0
  C  C15  1  0.07059000  0.99822000  0.74834000  1.0
  C  C16  1  0.92953000  0.00183000  0.25160000  1.0
  C  C17  1  0.74654000  0.92763000  0.00178000  1.0
  C  C18  1  0.25341000  0.07230000  0.99819000  1.0
  C  C19  1  0.74657000  0.81892000  0.25166000  1.0
  C  C20  1  0.99993000  0.26259000  0.03536000  1.0
  C  C21  1  0.99998000  0.73735000  0.96470000  1.0
  C  C22  1  0.29795000  0.26266000  0.73738000  1.0
  C  C23  1  0.70206000  0.73739000  0.26265000  1.0
  C  C24  1  0.00005000  0.96470000  0.73736000  1.0
  C  C25  1  0.00005000  0.03535000  0.26262000  1.0
  C  C26  1  0.70205000  0.96466000  0.03529000  1.0
  C  C27  1  0.29794000  0.03531000  0.96467000  1.0
  C  C28  1  0.63610000  0.97055000  0.02942000  1.0
  C  C29  1  0.36389000  0.02944000  0.97055000  1.0
  C  C30  1  0.99995000  0.33442000  0.02947000  1.0
  C  C31  1  0.99999000  0.66553000  0.97056000  1.0
  C  C32  1  0.36391000  0.33448000  0.66553000  1.0
  C  C33  1  0.63610000  0.66555000  0.33447000  1.0
  C  C34  1  0.00003000  0.97055000  0.66553000  1.0
  C  C35  1  0.00003000  0.02947000  0.33446000  1.0
  C  C36  1  0.58216000  0.98044000  0.01955000  1.0
  C  C37  1  0.41781000  0.01955000  0.98045000  1.0
  C  C38  1  0.99997000  0.39824000  0.01958000  1.0
  C  C39  1  1.00000000  0.60172000  0.98043000  1.0
  C  C40  1  0.41784000  0.39829000  0.60172000  1.0
  C  C41  1  0.58218000  0.60173000  0.39828000  1.0
  C  C42  1  0.00001000  0.98043000  0.60172000  1.0
  C  C43  1  0.00002000  0.01955000  0.39829000  1.0
  C  C44  1  0.52550000  0.99337000  0.00662000  1.0
  C  C45  1  0.47448000  0.00662000  0.99338000  1.0
  C  C46  1  0.99999000  0.46785000  0.00662000  1.0
  C  C47  1  0.99999000  0.53211000  0.99337000  1.0
  C  C48  1  0.47451000  0.46788000  0.53212000  1.0
  C  C49  1  0.52552000  0.53214000  0.46787000  1.0
  C  C50  1  0.00000000  0.99336000  0.53215000  1.0
  C  C51  1  0.00001000  0.00661000  0.46788000  1.0
  N  N52  1  0.95440000  0.12854000  0.06020000  1.0
  N  N53  1  0.18872000  0.12860000  0.82594000  1.0
  N  N54  1  0.95444000  0.82586000  0.98537000  1.0
  N  N55  1  0.04543000  0.17404000  0.01465000  1.0
  N  N56  1  0.18872000  0.01461000  0.93983000  1.0
  N  N57  1  0.81128000  0.98533000  0.06012000  1.0
  N  N58  1  0.04558000  0.06021000  0.12854000  1.0
  N  N59  1  0.95454000  0.93989000  0.87142000  1.0
  N  N60  1  0.04547000  0.87139000  0.93987000  1.0
  N  N61  1  0.18874000  0.17413000  0.87145000  1.0
  N  N62  1  0.81131000  0.82595000  0.12858000  1.0
  N  N63  1  0.04558000  0.98539000  0.82589000  1.0
  N  N64  1  0.95454000  0.01467000  0.17406000  1.0
  N  N65  1  0.81125000  0.93979000  0.01462000  1.0
  N  N66  1  0.18870000  0.06012000  0.98535000  1.0
  N  N67  1  0.81128000  0.87146000  0.17412000  1.0
  F  F68  1  0.84515000  0.15478000  0.11788000  1.0
  F  F69  1  0.27258000  0.15483000  0.69042000  1.0
  F  F70  1  0.84519000  0.69036000  0.03698000  1.0
  F  F71  1  0.15470000  0.30954000  0.96301000  1.0
  F  F72  1  0.27262000  0.96301000  0.88219000  1.0
  F  F73  1  0.72744000  0.03700000  0.11773000  1.0
  F  F74  1  0.15483000  0.11787000  0.15481000  1.0
  F  F75  1  0.84527000  0.88225000  0.84519000  1.0
  F  F76  1  0.15474000  0.84517000  0.88224000  1.0
  F  F77  1  0.27265000  0.30964000  0.84518000  1.0
  F  F78  1  0.72744000  0.69045000  0.15481000  1.0
  F  F79  1  0.15483000  0.03697000  0.69038000  1.0
  F  F80  1  0.84526000  0.96301000  0.30957000  1.0
  F  F81  1  0.72734000  0.88215000  0.96302000  1.0
  F  F82  1  0.27256000  0.11775000  0.03699000  1.0
  F  F83  1  0.72736000  0.84519000  0.30963000  1.0
