# generated using pymatgen
data_ZnGeP3H15C6(NO6)2
_symmetry_space_group_name_H-M   'P 1'
_cell_length_a   9.28921000
_cell_length_b   9.74252000
_cell_length_c   9.86294196
_cell_angle_alpha   67.27706468
_cell_angle_beta   65.98569236
_cell_angle_gamma   83.76680000
_symmetry_Int_Tables_number   1
_chemical_formula_structural   ZnGeP3H15C6(NO6)2
_chemical_formula_sum   'Zn2 Ge2 P6 H30 C12 N4 O24'
_cell_volume   750.80216120
_cell_formula_units_Z   2
loop_
 _symmetry_equiv_pos_site_id
 _symmetry_equiv_pos_as_xyz
  1  'x, y, z'
loop_
 _atom_site_type_symbol
 _atom_site_label
 _atom_site_symmetry_multiplicity
 _atom_site_fract_x
 _atom_site_fract_y
 _atom_site_fract_z
 _atom_site_occupancy
  Zn  Zn0  1  0.46960000  0.67228000  0.73939000  1.0
  Zn  Zn1  1  0.53039000  0.32771000  0.26062000  1.0
  Ge  Ge2  1  0.81947000  0.87189000  0.04676000  1.0
  Ge  Ge3  1  0.18052000  0.12812000  0.95324000  1.0
  P  P4  1  0.81074000  0.77059000  0.38987000  1.0
  P  P5  1  0.18926000  0.22941000  0.61013000  1.0
  P  P6  1  0.33326000  0.35990000  0.01020000  1.0
  P  P7  1  0.66674000  0.64011000  0.98980000  1.0
  P  P8  1  0.17970000  0.80316000  0.99266000  1.0
  P  P9  1  0.82029000  0.19685000  0.00735000  1.0
  H  H10  1  0.16283000  0.51024000  0.10496000  1.0
  H  H11  1  0.83718000  0.48977000  0.89503000  1.0
  H  H12  1  0.99496000  0.63260000  0.29665000  1.0
  H  H13  1  0.00503000  0.36741000  0.70334000  1.0
  H  H14  1  0.10584000  0.84866000  0.34339000  1.0
  H  H15  1  0.89417000  0.15134000  0.65660000  1.0
  H  H16  1  0.65608000  0.46674000  0.45892000  1.0
  H  H17  1  0.34392000  0.53326000  0.54108000  1.0
  H  H18  1  0.48777000  0.34170000  0.59533000  1.0
  H  H19  1  0.51223000  0.65828000  0.40468000  1.0
  H  H20  1  0.74785000  0.36947000  0.66569000  1.0
  H  H21  1  0.25216000  0.63052000  0.33430000  1.0
  H  H22  1  0.61014000  0.21335000  0.77287000  1.0
  H  H23  1  0.38987000  0.78665000  0.22713000  1.0
  H  H24  1  0.68287000  0.98139000  0.73106000  1.0
  H  H25  1  0.31713000  0.01861000  0.26894000  1.0
  H  H26  1  0.83882000  0.99058000  0.54582000  1.0
  H  H27  1  0.16118000  0.00940000  0.45418000  1.0
  H  H28  1  0.65267000  0.04961000  0.43507000  1.0
  H  H29  1  0.34734000  0.95038000  0.56493000  1.0
  H  H30  1  0.50859000  0.08656000  0.60134000  1.0
  H  H31  1  0.49141000  0.91344000  0.39866000  1.0
  H  H32  1  0.84847000  0.42142000  0.23870000  1.0
  H  H33  1  0.15153000  0.57859000  0.76130000  1.0
  H  H34  1  0.86871000  0.23546000  0.24748000  1.0
  H  H35  1  0.13129000  0.76455000  0.75251000  1.0
  H  H36  1  0.02515000  0.20211000  0.39015000  1.0
  H  H37  1  0.97485000  0.79788000  0.60985000  1.0
  H  H38  1  0.97101000  0.37112000  0.42201000  1.0
  H  H39  1  0.02900000  0.62888000  0.57798000  1.0
  C  C40  1  0.61575000  0.34984000  0.53192000  1.0
  C  C41  1  0.38425000  0.65014000  0.46808000  1.0
  C  C42  1  0.69323000  0.28341000  0.65359000  1.0
  C  C43  1  0.30678000  0.71657000  0.34641000  1.0
  C  C44  1  0.74408000  0.05171000  0.60434000  1.0
  C  C45  1  0.25592000  0.94829000  0.39566000  1.0
  C  C46  1  0.63225000  0.10689000  0.51660000  1.0
  C  C47  1  0.36775000  0.89311000  0.48339000  1.0
  C  C48  1  0.83165000  0.30405000  0.31929000  1.0
  C  C49  1  0.16835000  0.69595000  0.68071000  1.0
  C  C50  1  0.92625000  0.27113000  0.42352000  1.0
  C  C51  1  0.07374000  0.72886000  0.57649000  1.0
  N  N52  1  0.81904000  0.18576000  0.59409000  1.0
  N  N53  1  0.18095000  0.81423000  0.40592000  1.0
  N  N54  1  0.66049000  0.26973000  0.42089000  1.0
  N  N55  1  0.33953000  0.73027000  0.57911000  1.0
  O  O56  1  0.67142000  0.74252000  0.54587000  1.0
  O  O57  1  0.32858000  0.25748000  0.45413000  1.0
  O  O58  1  0.89312000  0.61745000  0.39596000  1.0
  O  O59  1  0.10687000  0.38255000  0.60404000  1.0
  O  O60  1  0.73406000  0.80374000  0.25735000  1.0
  O  O61  1  0.26593000  0.19628000  0.74265000  1.0
  O  O62  1  0.92949000  0.89517000  0.33175000  1.0
  O  O63  1  0.07051000  0.10483000  0.66825000  1.0
  O  O64  1  0.41231000  0.45440000  0.83190000  1.0
  O  O65  1  0.58770000  0.54559000  0.16810000  1.0
  O  O66  1  0.28879000  0.19648000  0.02577000  1.0
  O  O67  1  0.71121000  0.80353000  0.97423000  1.0
  O  O68  1  0.42635000  0.33159000  0.11033000  1.0
  O  O69  1  0.57364000  0.66841000  0.88968000  1.0
  O  O70  1  0.16274000  0.41516000  0.08577000  1.0
  O  O71  1  0.83727000  0.58485000  0.91422000  1.0
  O  O72  1  0.31103000  0.80814000  0.83878000  1.0
  O  O73  1  0.68898000  0.19186000  0.16121000  1.0
  O  O74  1  0.14786000  0.65977000  0.13881000  1.0
  O  O75  1  0.85214000  0.34024000  0.86119000  1.0
  O  O76  1  0.21057000  0.93540000  0.03745000  1.0
  O  O77  1  0.78943000  0.06461000  0.96254000  1.0
  O  O78  1  0.02209000  0.84322000  0.95877000  1.0
  O  O79  1  0.97790000  0.15678000  0.04124000  1.0
