# generated using pymatgen
data_LiH7(C2O)2
_symmetry_space_group_name_H-M   'P 1'
_cell_length_a   5.04095000
_cell_length_b   8.53839000
_cell_length_c   11.75940000
_cell_angle_alpha   76.93180000
_cell_angle_beta   89.99970000
_cell_angle_gamma   89.99980000
_symmetry_Int_Tables_number   1
_chemical_formula_structural   LiH7(C2O)2
_chemical_formula_sum   'Li4 H28 C16 O8'
_cell_volume   493.03505958
_cell_formula_units_Z   4
loop_
 _symmetry_equiv_pos_site_id
 _symmetry_equiv_pos_as_xyz
  1  'x, y, z'
loop_
 _atom_site_type_symbol
 _atom_site_label
 _atom_site_symmetry_multiplicity
 _atom_site_fract_x
 _atom_site_fract_y
 _atom_site_fract_z
 _atom_site_occupancy
  Li  Li0  1  0.89454000  0.14481000  0.50837000  1.0
  Li  Li1  1  0.39455000  0.35520000  0.49163000  1.0
  Li  Li2  1  0.10543000  0.85520000  0.49163000  1.0
  Li  Li3  1  0.60545000  0.64481000  0.50837000  1.0
  H  H4  1  0.23312000  0.62457000  0.31883000  1.0
  H  H5  1  0.73311000  0.87543000  0.68116000  1.0
  H  H6  1  0.76687000  0.37543000  0.68117000  1.0
  H  H7  1  0.26687000  0.12458000  0.31883000  1.0
  H  H8  1  0.92135000  0.70716000  0.26336000  1.0
  H  H9  1  0.42135000  0.79282000  0.73666000  1.0
  H  H10  1  0.07864000  0.29283000  0.73665000  1.0
  H  H11  1  0.57863000  0.20717000  0.26335000  1.0
  H  H12  1  0.16819000  0.40799000  0.20253000  1.0
  H  H13  1  0.66818000  0.09202000  0.79747000  1.0
  H  H14  1  0.83183000  0.59201000  0.79747000  1.0
  H  H15  1  0.33183000  0.90798000  0.20252000  1.0
  H  H16  1  0.89736000  0.51995000  0.13195000  1.0
  H  H17  1  0.39738000  0.98006000  0.86805000  1.0
  H  H18  1  0.10264000  0.48005000  0.86806000  1.0
  H  H19  1  0.60265000  0.01996000  0.13194000  1.0
  H  H20  1  0.20833000  0.75857000  0.06166000  1.0
  H  H21  1  0.70833000  0.74143000  0.93834000  1.0
  H  H22  1  0.79167000  0.24142000  0.93834000  1.0
  H  H23  1  0.29167000  0.25858000  0.06166000  1.0
  H  H24  1  0.47483000  0.63830000  0.13070000  1.0
  H  H25  1  0.97483000  0.86171000  0.86929000  1.0
  H  H26  1  0.52519000  0.36171000  0.86931000  1.0
  H  H27  1  0.02518000  0.13829000  0.13070000  1.0
  H  H28  1  0.30684000  0.58734000  0.01097000  1.0
  H  H29  1  0.80685000  0.91267000  0.98902000  1.0
  H  H30  1  0.69316000  0.41266000  0.98903000  1.0
  H  H31  1  0.19317000  0.08734000  0.01097000  1.0
  C  C32  1  0.90148000  0.47190000  0.37790000  1.0
  C  C33  1  0.40145000  0.02810000  0.62210000  1.0
  C  C34  1  0.09852000  0.52808000  0.62210000  1.0
  C  C35  1  0.59853000  0.97189000  0.37790000  1.0
  C  C36  1  0.04003000  0.59643000  0.28462000  1.0
  C  C37  1  0.54003000  0.90357000  0.71538000  1.0
  C  C38  1  0.95996000  0.40357000  0.71538000  1.0
  C  C39  1  0.45996000  0.09642000  0.28462000  1.0
  C  C40  1  0.08845000  0.53045000  0.17509000  1.0
  C  C41  1  0.58844000  0.96955000  0.82490000  1.0
  C  C42  1  0.91156000  0.46954000  0.82491000  1.0
  C  C43  1  0.41158000  0.03045000  0.17510000  1.0
  C  C44  1  0.27969000  0.63440000  0.08980000  1.0
  C  C45  1  0.77970000  0.86560000  0.91020000  1.0
  C  C46  1  0.72031000  0.36560000  0.91021000  1.0
  C  C47  1  0.22031000  0.13440000  0.08980000  1.0
  O  O48  1  0.03604000  0.34900000  0.42911000  1.0
  O  O49  1  0.53602000  0.15100000  0.57090000  1.0
  O  O50  1  0.96396000  0.65101000  0.57089000  1.0
  O  O51  1  0.46397000  0.84899000  0.42911000  1.0
  O  O52  1  0.65801000  0.49186000  0.40005000  1.0
  O  O53  1  0.15803000  0.00812000  0.59995000  1.0
  O  O54  1  0.34199000  0.50812000  0.59995000  1.0
  O  O55  1  0.84198000  0.99187000  0.40006000  1.0
