# generated using pymatgen
data_NaH17(C7O2)3
_symmetry_space_group_name_H-M   'P 1'
_cell_length_a   6.80684000
_cell_length_b   11.90350000
_cell_length_c   13.22900000
_cell_angle_alpha   109.68400000
_cell_angle_beta   99.80380000
_cell_angle_gamma   104.93500000
_symmetry_Int_Tables_number   1
_chemical_formula_structural   NaH17(C7O2)3
_chemical_formula_sum   'Na2 H34 C42 O12'
_cell_volume   935.40805016
_cell_formula_units_Z   2
loop_
 _symmetry_equiv_pos_site_id
 _symmetry_equiv_pos_as_xyz
  1  'x, y, z'
loop_
 _atom_site_type_symbol
 _atom_site_label
 _atom_site_symmetry_multiplicity
 _atom_site_fract_x
 _atom_site_fract_y
 _atom_site_fract_z
 _atom_site_occupancy
  Na  Na0  1  0.00001000  0.00001000  0.00000000  1.0
  Na  Na1  1  0.50001000  0.00000000  0.00000000  1.0
  H  H2  1  0.16555000  0.07625000  0.24923000  1.0
  H  H3  1  0.83444000  0.92374000  0.75076000  1.0
  H  H4  1  0.61123000  0.25143000  0.19882000  1.0
  H  H5  1  0.38879000  0.74858000  0.80119000  1.0
  H  H6  1  0.64869000  0.21285000  0.37165000  1.0
  H  H7  1  0.35130000  0.78713000  0.62834000  1.0
  H  H8  1  0.29633000  0.31479000  0.35851000  1.0
  H  H9  1  0.70366000  0.68519000  0.64149000  1.0
  H  H10  1  0.14815000  0.48404000  0.66646000  1.0
  H  H11  1  0.85184000  0.51596000  0.33353000  1.0
  H  H12  1  0.41234000  0.46368000  0.55966000  1.0
  H  H13  1  0.58765000  0.53631000  0.44034000  1.0
  H  H14  1  0.52611000  0.53590000  0.25577000  1.0
  H  H15  1  0.47390000  0.46411000  0.74424000  1.0
  H  H16  1  0.50162000  0.00932000  0.42595000  1.0
  H  H17  1  0.49837000  0.99068000  0.57405000  1.0
  H  H18  1  0.76672000  0.35664000  0.57327000  1.0
  H  H19  1  0.23326000  0.64334000  0.42672000  1.0
  H  H20  1  0.96225000  0.23829000  0.01647000  1.0
  H  H21  1  0.03778000  0.76172000  0.98354000  1.0
  H  H22  1  0.53768000  0.82524000  0.09247000  1.0
  H  H23  1  0.46233000  0.17476000  0.90753000  1.0
  H  H24  1  0.77107000  0.39219000  0.03866000  1.0
  H  H25  1  0.22894000  0.60781000  0.96134000  1.0
  H  H26  1  0.81421000  0.75103000  0.16449000  1.0
  H  H27  1  0.18580000  0.24897000  0.83551000  1.0
  H  H28  1  0.95698000  0.61837000  0.16831000  1.0
  H  H29  1  0.04302000  0.38163000  0.83169000  1.0
  H  H30  1  0.33744000  0.69110000  0.27407000  1.0
  H  H31  1  0.66256000  0.30891000  0.72593000  1.0
  H  H32  1  0.77116000  0.92665000  0.50000000  1.0
  H  H33  1  0.22882000  0.07335000  0.50001000  1.0
  H  H34  1  0.93044000  0.79921000  0.36963000  1.0
  H  H35  1  0.06955000  0.20078000  0.63037000  1.0
  C  C36  1  0.50089000  0.92155000  0.25494000  1.0
  C  C37  1  0.49911000  0.07845000  0.74506000  1.0
  C  C38  1  0.96512000  0.25405000  0.35253000  1.0
  C  C39  1  0.03488000  0.74594000  0.64746000  1.0
  C  C40  1  0.81630000  0.26679000  0.41321000  1.0
  C  C41  1  0.18370000  0.73320000  0.58679000  1.0
  C  C42  1  0.89221000  0.16822000  0.23125000  1.0
  C  C43  1  0.10778000  0.83178000  0.76875000  1.0
  C  C44  1  0.25600000  0.37675000  0.13627000  1.0
  C  C45  1  0.74402000  0.62327000  0.86375000  1.0
  C  C46  1  0.18104000  0.32369000  0.40616000  1.0
  C  C47  1  0.81895000  0.67631000  0.59384000  1.0
  C  C48  1  0.33990000  0.96970000  0.20997000  1.0
  C  C49  1  0.66010000  0.03030000  0.79003000  1.0
  C  C50  1  0.36737000  0.28270000  0.12627000  1.0
  C  C51  1  0.63265000  0.71732000  0.87374000  1.0
  C  C52  1  0.09692000  0.41815000  0.57894000  1.0
  C  C53  1  0.90307000  0.58184000  0.42106000  1.0
  C  C54  1  0.24563000  0.40657000  0.51861000  1.0
  C  C55  1  0.75436000  0.59342000  0.48139000  1.0
  C  C56  1  0.36073000  0.50470000  0.20866000  1.0
  C  C57  1  0.63928000  0.49531000  0.79135000  1.0
  C  C58  1  0.56887000  0.95052000  0.36987000  1.0
  C  C59  1  0.43112000  0.04948000  0.63013000  1.0
  C  C60  1  0.88263000  0.34731000  0.52626000  1.0
  C  C61  1  0.11736000  0.65268000  0.47373000  1.0
  C  C62  1  0.04379000  0.33697000  0.07399000  1.0
  C  C63  1  0.95622000  0.66304000  0.92602000  1.0
  C  C64  1  0.58895000  0.84806000  0.18166000  1.0
  C  C65  1  0.41105000  0.15194000  0.81834000  1.0
  C  C66  1  0.93625000  0.42357000  0.08672000  1.0
  C  C67  1  0.06376000  0.57643000  0.91328000  1.0
  C  C68  1  0.74470000  0.80572000  0.22286000  1.0
  C  C69  1  0.25530000  0.19428000  0.77714000  1.0
  C  C70  1  0.04110000  0.55069000  0.15927000  1.0
  C  C71  1  0.95891000  0.44932000  0.84074000  1.0
  C  C72  1  0.25401000  0.59154000  0.21922000  1.0
  C  C73  1  0.74600000  0.40847000  0.78079000  1.0
  C  C74  1  0.72094000  0.90546000  0.41080000  1.0
  C  C75  1  0.27905000  0.09454000  0.58920000  1.0
  C  C76  1  0.81025000  0.83347000  0.33721000  1.0
  C  C77  1  0.18974000  0.16653000  0.66279000  1.0
  O  O78  1  0.01130000  0.11130000  0.18782000  1.0
  O  O79  1  0.98869000  0.88869000  0.81218000  1.0
  O  O80  1  0.27384000  0.94320000  0.10791000  1.0
  O  O81  1  0.72617000  0.05680000  0.89209000  1.0
  O  O82  1  0.27498000  0.04303000  0.28694000  1.0
  O  O83  1  0.72501000  0.95696000  0.71305000  1.0
  O  O84  1  0.30495000  0.17747000  0.04605000  1.0
  O  O85  1  0.69506000  0.82254000  0.95396000  1.0
  O  O86  1  0.53872000  0.32116000  0.21068000  1.0
  O  O87  1  0.46131000  0.67886000  0.78932000  1.0
  O  O88  1  0.71050000  0.15350000  0.17281000  1.0
  O  O89  1  0.28949000  0.84650000  0.82719000  1.0
