# generated using pymatgen
data_CdSiH28C20(N4F3)2
_symmetry_space_group_name_H-M   'P 1'
_cell_length_a   10.35820000
_cell_length_b   10.35810000
_cell_length_c   15.73100000
_cell_angle_alpha   90.62660000
_cell_angle_beta   90.62620000
_cell_angle_gamma   96.60490000
_symmetry_Int_Tables_number   1
_chemical_formula_structural   CdSiH28C20(N4F3)2
_chemical_formula_sum   'Cd2 Si2 H56 C40 N16 F12'
_cell_volume   1676.37050775
_cell_formula_units_Z   2
loop_
 _symmetry_equiv_pos_site_id
 _symmetry_equiv_pos_as_xyz
  1  'x, y, z'
loop_
 _atom_site_type_symbol
 _atom_site_label
 _atom_site_symmetry_multiplicity
 _atom_site_fract_x
 _atom_site_fract_y
 _atom_site_fract_z
 _atom_site_occupancy
  Cd  Cd0  1  0.01439000  0.98562000  0.75000000  1.0
  Cd  Cd1  1  0.98562000  0.01438000  0.25000000  1.0
  Si  Si2  1  0.00000000  0.00000000  0.00000000  1.0
  Si  Si3  1  0.00000000  0.00000000  0.50000000  1.0
  H  H4  1  0.91079000  0.17924000  0.89213000  1.0
  H  H5  1  0.90963000  0.77673000  0.60447000  1.0
  H  H6  1  0.18832000  0.24839000  0.65802000  1.0
  H  H7  1  0.16098000  0.41361000  0.64122000  1.0
  H  H8  1  0.05617000  0.28341000  0.59415000  1.0
  H  H9  1  0.74203000  0.36314000  0.91901000  1.0
  H  H10  1  0.79772000  0.51752000  0.87536000  1.0
  H  H11  1  0.88570000  0.45314000  0.95936000  1.0
  H  H12  1  0.16052000  0.76369000  0.85656000  1.0
  H  H13  1  0.12802000  0.59219000  0.87181000  1.0
  H  H14  1  0.01704000  0.69992000  0.90719000  1.0
  H  H15  1  0.91279000  0.48726000  0.53084000  1.0
  H  H16  1  0.76462000  0.54706000  0.55735000  1.0
  H  H17  1  0.81241000  0.40638000  0.60840000  1.0
  H  H18  1  0.82077000  0.08922000  0.60787000  1.0
  H  H19  1  0.22327000  0.09037000  0.89553000  1.0
  H  H20  1  0.75161000  0.81169000  0.84198000  1.0
  H  H21  1  0.58639000  0.83903000  0.85878000  1.0
  H  H22  1  0.71660000  0.94383000  0.90585000  1.0
  H  H23  1  0.63686000  0.25798000  0.58099000  1.0
  H  H24  1  0.48247000  0.20229000  0.62464000  1.0
  H  H25  1  0.54686000  0.11430000  0.54064000  1.0
  H  H26  1  0.23631000  0.83948000  0.64345000  1.0
  H  H27  1  0.40781000  0.87197000  0.62819000  1.0
  H  H28  1  0.30009000  0.98296000  0.59281000  1.0
  H  H29  1  0.51273000  0.08721000  0.96916000  1.0
  H  H30  1  0.45293000  0.23538000  0.94266000  1.0
  H  H31  1  0.59362000  0.18760000  0.89161000  1.0
  H  H32  1  0.08921000  0.82076000  0.10787000  1.0
  H  H33  1  0.09037000  0.22326000  0.39553000  1.0
  H  H34  1  0.81168000  0.75161000  0.34197000  1.0
  H  H35  1  0.83901000  0.58639000  0.35878000  1.0
  H  H36  1  0.94382000  0.71659000  0.40585000  1.0
  H  H37  1  0.25798000  0.63686000  0.08099000  1.0
  H  H38  1  0.20229000  0.48248000  0.12464000  1.0
  H  H39  1  0.11431000  0.54686000  0.04064000  1.0
  H  H40  1  0.83948000  0.23630000  0.14345000  1.0
  H  H41  1  0.87197000  0.40781000  0.12819000  1.0
  H  H42  1  0.98295000  0.30008000  0.09281000  1.0
  H  H43  1  0.08720000  0.51273000  0.46915000  1.0
  H  H44  1  0.23537000  0.45293000  0.44265000  1.0
  H  H45  1  0.18759000  0.59361000  0.39160000  1.0
  H  H46  1  0.17924000  0.91079000  0.39213000  1.0
  H  H47  1  0.77673000  0.90962000  0.10447000  1.0
  H  H48  1  0.24839000  0.18832000  0.15802000  1.0
  H  H49  1  0.41361000  0.16098000  0.14121000  1.0
  H  H50  1  0.28340000  0.05617000  0.09415000  1.0
  H  H51  1  0.36315000  0.74203000  0.41901000  1.0
  H  H52  1  0.51753000  0.79772000  0.37535000  1.0
  H  H53  1  0.45314000  0.88571000  0.45936000  1.0
  H  H54  1  0.76370000  0.16052000  0.35656000  1.0
  H  H55  1  0.59219000  0.12803000  0.37181000  1.0
  H  H56  1  0.69992000  0.01704000  0.40719000  1.0
  H  H57  1  0.48727000  0.91280000  0.03085000  1.0
  H  H58  1  0.54707000  0.76462000  0.05735000  1.0
  H  H59  1  0.40639000  0.81241000  0.10840000  1.0
  C  C60  1  0.11361000  0.31464000  0.65142000  1.0
  C  C61  1  0.03137000  0.31275000  0.72867000  1.0
  C  C62  1  0.96764000  0.41550000  0.76284000  1.0
  C  C63  1  0.90644000  0.36541000  0.83642000  1.0
  C  C64  1  0.82867000  0.42774000  0.90088000  1.0
  C  C65  1  0.08440000  0.68088000  0.85628000  1.0
  C  C66  1  0.01710000  0.66439000  0.77201000  1.0
  C  C67  1  0.96692000  0.54676000  0.73056000  1.0
  C  C68  1  0.91440000  0.58371000  0.65324000  1.0
  C  C69  1  0.84738000  0.50256000  0.58369000  1.0
  C  C70  1  0.68536000  0.88640000  0.84857000  1.0
  C  C71  1  0.68725000  0.96865000  0.77133000  1.0
  C  C72  1  0.58451000  0.03237000  0.73716000  1.0
  C  C73  1  0.63459000  0.09357000  0.66358000  1.0
  C  C74  1  0.57226000  0.17134000  0.59912000  1.0
  C  C75  1  0.31913000  0.91560000  0.64372000  1.0
  C  C76  1  0.33562000  0.98290000  0.72799000  1.0
  C  C77  1  0.45324000  0.03309000  0.76944000  1.0
  C  C78  1  0.41629000  0.08561000  0.84675000  1.0
  C  C79  1  0.49744000  0.15262000  0.91631000  1.0
  C  C80  1  0.88639000  0.68536000  0.34857000  1.0
  C  C81  1  0.96864000  0.68724000  0.27133000  1.0
  C  C82  1  0.03236000  0.58450000  0.23715000  1.0
  C  C83  1  0.09356000  0.63458000  0.16357000  1.0
  C  C84  1  0.17133000  0.57226000  0.09912000  1.0
  C  C85  1  0.91560000  0.31912000  0.14372000  1.0
  C  C86  1  0.98290000  0.33561000  0.22799000  1.0
  C  C87  1  0.03309000  0.45324000  0.26944000  1.0
  C  C88  1  0.08560000  0.41628000  0.34676000  1.0
  C  C89  1  0.15261000  0.49743000  0.41631000  1.0
  C  C90  1  0.31464000  0.11361000  0.15143000  1.0
  C  C91  1  0.31275000  0.03136000  0.22867000  1.0
  C  C92  1  0.41551000  0.96764000  0.26284000  1.0
  C  C93  1  0.36541000  0.90644000  0.33643000  1.0
  C  C94  1  0.42774000  0.82867000  0.40088000  1.0
  C  C95  1  0.68088000  0.08440000  0.35628000  1.0
  C  C96  1  0.66439000  0.01710000  0.27201000  1.0
  C  C97  1  0.54675000  0.96692000  0.23056000  1.0
  C  C98  1  0.58372000  0.91439000  0.15324000  1.0
  C  C99  1  0.50257000  0.84739000  0.08369000  1.0
  N  N100  1  0.00942000  0.20753000  0.77821000  1.0
  N  N101  1  0.93265000  0.24120000  0.84204000  1.0
  N  N102  1  0.99591000  0.76555000  0.72291000  1.0
  N  N103  1  0.93364000  0.71489000  0.65181000  1.0
  N  N104  1  0.79248000  0.99059000  0.72179000  1.0
  N  N105  1  0.75880000  0.06737000  0.65796000  1.0
  N  N106  1  0.23445000  0.00409000  0.77709000  1.0
  N  N107  1  0.28511000  0.06636000  0.84820000  1.0
  N  N108  1  0.99058000  0.79247000  0.22179000  1.0
  N  N109  1  0.06736000  0.75879000  0.15796000  1.0
  N  N110  1  0.00409000  0.23444000  0.27709000  1.0
  N  N111  1  0.06636000  0.28510000  0.34819000  1.0
  N  N112  1  0.20753000  0.00941000  0.27821000  1.0
  N  N113  1  0.24121000  0.93265000  0.34204000  1.0
  N  N114  1  0.76555000  0.99591000  0.22291000  1.0
  N  N115  1  0.71489000  0.93364000  0.15181000  1.0
  F  F116  1  0.98244000  0.94563000  0.89631000  1.0
  F  F117  1  0.87731000  0.09594000  0.98406000  1.0
  F  F118  1  0.11227000  0.12525000  0.96918000  1.0
  F  F119  1  0.05437000  0.01756000  0.60369000  1.0
  F  F120  1  0.90406000  0.12269000  0.51594000  1.0
  F  F121  1  0.87474000  0.88773000  0.53082000  1.0
  F  F122  1  0.01755000  0.05437000  0.10369000  1.0
  F  F123  1  0.12269000  0.90406000  0.01594000  1.0
  F  F124  1  0.88772000  0.87474000  0.03081000  1.0
  F  F125  1  0.94563000  0.98244000  0.39632000  1.0
  F  F126  1  0.09594000  0.87731000  0.48406000  1.0
  F  F127  1  0.12525000  0.11227000  0.46918000  1.0
