# generated using pymatgen
data_CuH4C6N4O3
_symmetry_space_group_name_H-M   'P 1'
_cell_length_a   6.38994000
_cell_length_b   8.00509000
_cell_length_c   17.00730000
_cell_angle_alpha   89.98610000
_cell_angle_beta   90.00770000
_cell_angle_gamma   89.97930000
_symmetry_Int_Tables_number   1
_chemical_formula_structural   CuH4C6N4O3
_chemical_formula_sum   'Cu4 H16 C24 N16 O12'
_cell_volume   869.95808119
_cell_formula_units_Z   4
loop_
 _symmetry_equiv_pos_site_id
 _symmetry_equiv_pos_as_xyz
  1  'x, y, z'
loop_
 _atom_site_type_symbol
 _atom_site_label
 _atom_site_symmetry_multiplicity
 _atom_site_fract_x
 _atom_site_fract_y
 _atom_site_fract_z
 _atom_site_occupancy
  Cu  Cu0  1  0.00000000  0.00000000  0.00000000  1.0
  Cu  Cu1  1  0.00001000  0.50000000  0.50000000  1.0
  Cu  Cu2  1  0.50000000  0.00000000  0.00000000  1.0
  Cu  Cu3  1  0.50001000  0.50000000  0.50000000  1.0
  H  H4  1  0.91417000  0.15136000  0.23345000  1.0
  H  H5  1  0.08574000  0.65108000  0.26657000  1.0
  H  H6  1  0.41408000  0.84895000  0.76653000  1.0
  H  H7  1  0.58590000  0.34890000  0.73357000  1.0
  H  H8  1  0.08582000  0.84863000  0.76655000  1.0
  H  H9  1  0.91428000  0.34892000  0.73342000  1.0
  H  H10  1  0.58591000  0.15106000  0.23347000  1.0
  H  H11  1  0.41412000  0.65110000  0.26642000  1.0
  H  H12  1  0.92771000  0.23519000  0.37844000  1.0
  H  H13  1  0.07232000  0.73499000  0.12155000  1.0
  H  H14  1  0.42759000  0.76502000  0.62155000  1.0
  H  H15  1  0.57230000  0.26502000  0.87859000  1.0
  H  H16  1  0.07228000  0.76480000  0.62156000  1.0
  H  H17  1  0.92768000  0.26501000  0.87845000  1.0
  H  H18  1  0.57241000  0.23499000  0.37845000  1.0
  H  H19  1  0.42770000  0.73499000  0.12141000  1.0
  C  C20  1  0.25006000  0.14477000  0.22292000  1.0
  C  C21  1  0.74992000  0.64470000  0.27704000  1.0
  C  C22  1  0.74993000  0.85523000  0.77708000  1.0
  C  C23  1  0.25009000  0.35530000  0.72295000  1.0
  C  C24  1  0.06231000  0.16916000  0.26378000  1.0
  C  C25  1  0.93768000  0.66897000  0.23622000  1.0
  C  C26  1  0.56220000  0.83101000  0.73622000  1.0
  C  C27  1  0.43777000  0.33102000  0.76386000  1.0
  C  C28  1  0.93769000  0.83084000  0.73622000  1.0
  C  C29  1  0.06233000  0.33103000  0.76378000  1.0
  C  C30  1  0.43779000  0.16900000  0.26378000  1.0
  C  C31  1  0.56224000  0.66898000  0.23614000  1.0
  C  C32  1  0.06472000  0.21567000  0.34178000  1.0
  C  C33  1  0.93529000  0.71549000  0.15819000  1.0
  C  C34  1  0.56464000  0.78446000  0.65821000  1.0
  C  C35  1  0.43531000  0.28451000  0.84188000  1.0
  C  C36  1  0.93528000  0.78433000  0.65822000  1.0
  C  C37  1  0.06471000  0.28451000  0.84181000  1.0
  C  C38  1  0.43535000  0.21555000  0.34180000  1.0
  C  C39  1  0.56469000  0.71549000  0.15812000  1.0
  C  C40  1  0.25004000  0.09123000  0.13895000  1.0
  C  C41  1  0.74993000  0.59124000  0.36106000  1.0
  C  C42  1  0.74996000  0.90878000  0.86105000  1.0
  C  C43  1  0.25009000  0.40875000  0.63894000  1.0
  N  N44  1  0.25007000  0.24002000  0.38029000  1.0
  N  N45  1  0.75001000  0.73992000  0.11964000  1.0
  N  N46  1  0.74993000  0.75998000  0.61972000  1.0
  N  N47  1  0.24999000  0.26008000  0.88036000  1.0
  N  N48  1  0.25005000  0.84131000  0.99872000  1.0
  N  N49  1  0.75008000  0.34128000  0.50128000  1.0
  N  N50  1  0.74994000  0.15870000  0.00128000  1.0
  N  N51  1  0.24993000  0.65871000  0.49872000  1.0
  N  N52  1  0.25005000  0.73652000  0.94651000  1.0
  N  N53  1  0.75011000  0.23640000  0.55345000  1.0
  N  N54  1  0.74994000  0.26347000  0.05349000  1.0
  N  N55  1  0.24989000  0.76361000  0.44654000  1.0
  N  N56  1  0.25004000  0.63619000  0.89768000  1.0
  N  N57  1  0.75011000  0.13593000  0.60226000  1.0
  N  N58  1  0.74995000  0.36381000  0.10233000  1.0
  N  N59  1  0.24990000  0.86407000  0.39774000  1.0
  O  O60  1  0.07110000  0.06989000  0.10744000  1.0
  O  O61  1  0.92886000  0.56997000  0.39259000  1.0
  O  O62  1  0.57106000  0.93007000  0.89255000  1.0
  O  O63  1  0.42900000  0.43000000  0.60743000  1.0
  O  O64  1  0.92890000  0.93012000  0.89256000  1.0
  O  O65  1  0.07115000  0.43003000  0.60741000  1.0
  O  O66  1  0.42893000  0.06993000  0.10745000  1.0
  O  O67  1  0.57101000  0.56999000  0.39257000  1.0
  O  O68  1  0.25007000  0.28390000  0.45409000  1.0
  O  O69  1  0.75005000  0.78387000  0.04582000  1.0
  O  O70  1  0.74993000  0.71609000  0.54591000  1.0
  O  O71  1  0.24994000  0.21614000  0.95418000  1.0
