# generated using pymatgen
data_AgH9C8SN2
_symmetry_space_group_name_H-M   'P 1'
_cell_length_a   8.03871000
_cell_length_b   8.40519000
_cell_length_c   13.26140000
_cell_angle_alpha   99.96620000
_cell_angle_beta   90.00000000
_cell_angle_gamma   90.00000000
_symmetry_Int_Tables_number   1
_chemical_formula_structural   AgH9C8SN2
_chemical_formula_sum   'Ag4 H36 C32 S4 N8'
_cell_volume   882.51039061
_cell_formula_units_Z   4
loop_
 _symmetry_equiv_pos_site_id
 _symmetry_equiv_pos_as_xyz
  1  'x, y, z'
loop_
 _atom_site_type_symbol
 _atom_site_label
 _atom_site_symmetry_multiplicity
 _atom_site_fract_x
 _atom_site_fract_y
 _atom_site_fract_z
 _atom_site_occupancy
  Ag  Ag0  1  0.94287000  0.82774000  0.86205000  1.0
  Ag  Ag1  1  0.44287000  0.17226000  0.63795000  1.0
  Ag  Ag2  1  0.05713000  0.17226000  0.13795000  1.0
  Ag  Ag3  1  0.55713000  0.82774000  0.36206000  1.0
  H  H4  1  0.59752000  0.79593000  0.96384000  1.0
  H  H5  1  0.09752000  0.20407000  0.53616000  1.0
  H  H6  1  0.40249000  0.20408000  0.03616000  1.0
  H  H7  1  0.90249000  0.79592000  0.46385000  1.0
  H  H8  1  0.58812000  0.77269000  0.82947000  1.0
  H  H9  1  0.08811000  0.22731000  0.67052000  1.0
  H  H10  1  0.41189000  0.22731000  0.17052000  1.0
  H  H11  1  0.91189000  0.77269000  0.32948000  1.0
  H  H12  1  0.43405000  0.68028000  0.89667000  1.0
  H  H13  1  0.93405000  0.31972000  0.60333000  1.0
  H  H14  1  0.56596000  0.31973000  0.10333000  1.0
  H  H15  1  0.06596000  0.68027000  0.39667000  1.0
  H  H16  1  0.46927000  0.39558000  0.88616000  1.0
  H  H17  1  0.96926000  0.60442000  0.61384000  1.0
  H  H18  1  0.53073000  0.60442000  0.11384000  1.0
  H  H19  1  0.03073000  0.39558000  0.38616000  1.0
  H  H20  1  0.65476000  0.15282000  0.86328000  1.0
  H  H21  1  0.15476000  0.84718000  0.63673000  1.0
  H  H22  1  0.34524000  0.84719000  0.13672000  1.0
  H  H23  1  0.84524000  0.15281000  0.36328000  1.0
  H  H24  1  0.96283000  0.19304000  0.85473000  1.0
  H  H25  1  0.46283000  0.80697000  0.64527000  1.0
  H  H26  1  0.03716000  0.80697000  0.14527000  1.0
  H  H27  1  0.53717000  0.19304000  0.35473000  1.0
  H  H28  1  0.15559000  0.56259000  0.81271000  1.0
  H  H29  1  0.65559000  0.43741000  0.68730000  1.0
  H  H30  1  0.84441000  0.43741000  0.18730000  1.0
  H  H31  1  0.34441000  0.56259000  0.31271000  1.0
  H  H32  1  0.16676000  0.54393000  0.94279000  1.0
  H  H33  1  0.66676000  0.45607000  0.55721000  1.0
  H  H34  1  0.83324000  0.45607000  0.05721000  1.0
  H  H35  1  0.33324000  0.54393000  0.44279000  1.0
  H  H36  1  0.19405000  0.36906000  0.84648000  1.0
  H  H37  1  0.69405000  0.63094000  0.65352000  1.0
  H  H38  1  0.80595000  0.63094000  0.15352000  1.0
  H  H39  1  0.30595000  0.36906000  0.34648000  1.0
  C  C40  1  0.27528000  0.03805000  0.84295000  1.0
  C  C41  1  0.77528000  0.96195000  0.65705000  1.0
  C  C42  1  0.72471000  0.96196000  0.15706000  1.0
  C  C43  1  0.22471000  0.03805000  0.34295000  1.0
  C  C44  1  0.67286000  0.56198000  0.88514000  1.0
  C  C45  1  0.17286000  0.43802000  0.61486000  1.0
  C  C46  1  0.32714000  0.43802000  0.11486000  1.0
  C  C47  1  0.82714000  0.56198000  0.38514000  1.0
  C  C48  1  0.60357000  0.40844000  0.88152000  1.0
  C  C49  1  0.10357000  0.59156000  0.61848000  1.0
  C  C50  1  0.39643000  0.59157000  0.11848000  1.0
  C  C51  1  0.89643000  0.40843000  0.38152000  1.0
  C  C52  1  0.70702000  0.27362000  0.86898000  1.0
  C  C53  1  0.20702000  0.72638000  0.63102000  1.0
  C  C54  1  0.29298000  0.72638000  0.13102000  1.0
  C  C55  1  0.79298000  0.27362000  0.36898000  1.0
  C  C56  1  0.87823000  0.29574000  0.86330000  1.0
  C  C57  1  0.37823000  0.70426000  0.63670000  1.0
  C  C58  1  0.12177000  0.70426000  0.13670000  1.0
  C  C59  1  0.62177000  0.29574000  0.36330000  1.0
  C  C60  1  0.94179000  0.45194000  0.86892000  1.0
  C  C61  1  0.44179000  0.54806000  0.63108000  1.0
  C  C62  1  0.05821000  0.54806000  0.13108000  1.0
  C  C63  1  0.55821000  0.45194000  0.36892000  1.0
  C  C64  1  0.56641000  0.70951000  0.89431000  1.0
  C  C65  1  0.06641000  0.29049000  0.60569000  1.0
  C  C66  1  0.43359000  0.29049000  0.10569000  1.0
  C  C67  1  0.93360000  0.70951000  0.39431000  1.0
  C  C68  1  0.12505000  0.48241000  0.86714000  1.0
  C  C69  1  0.62505000  0.51759000  0.63286000  1.0
  C  C70  1  0.87495000  0.51759000  0.13286000  1.0
  C  C71  1  0.37495000  0.48242000  0.36714000  1.0
  S  S72  1  0.19821000  0.96034000  0.93822000  1.0
  S  S73  1  0.69821000  0.03966000  0.56178000  1.0
  S  S74  1  0.80179000  0.03966000  0.06178000  1.0
  S  S75  1  0.30178000  0.96034000  0.43822000  1.0
  N  N76  1  0.83278000  0.90511000  0.72494000  1.0
  N  N77  1  0.33277000  0.09488000  0.77505000  1.0
  N  N78  1  0.16723000  0.09488000  0.27506000  1.0
  N  N79  1  0.66723000  0.90512000  0.22495000  1.0
  N  N80  1  0.83947000  0.58174000  0.87811000  1.0
  N  N81  1  0.33947000  0.41826000  0.62189000  1.0
  N  N82  1  0.16053000  0.41826000  0.12189000  1.0
  N  N83  1  0.66053000  0.58174000  0.37811000  1.0
