# generated using pymatgen
data_CdH8C14(SN3)2
_symmetry_space_group_name_H-M   'P 1'
_cell_length_a   5.67308000
_cell_length_b   8.52676165
_cell_length_c   17.73130000
_cell_angle_alpha   89.99880444
_cell_angle_beta   89.99930000
_cell_angle_gamma   105.90155634
_symmetry_Int_Tables_number   1
_chemical_formula_structural   CdH8C14(SN3)2
_chemical_formula_sum   'Cd2 H16 C28 S4 N12'
_cell_volume   824.89471099
_cell_formula_units_Z   2
loop_
 _symmetry_equiv_pos_site_id
 _symmetry_equiv_pos_as_xyz
  1  'x, y, z'
loop_
 _atom_site_type_symbol
 _atom_site_label
 _atom_site_symmetry_multiplicity
 _atom_site_fract_x
 _atom_site_fract_y
 _atom_site_fract_z
 _atom_site_occupancy
  Cd  Cd0  1  0.00000000  0.00000000  0.00000000  1.0
  Cd  Cd1  1  0.99999000  0.50000000  0.50000000  1.0
  H  H2  1  0.91184000  0.20693000  0.13835000  1.0
  H  H3  1  0.91187000  0.70694000  0.36165000  1.0
  H  H4  1  0.08816000  0.79307000  0.86165000  1.0
  H  H5  1  0.08815000  0.29307000  0.63835000  1.0
  H  H6  1  0.11275000  0.43430000  0.22505000  1.0
  H  H7  1  0.11282000  0.93432000  0.27495000  1.0
  H  H8  1  0.88723000  0.56570000  0.77495000  1.0
  H  H9  1  0.88721000  0.06569000  0.72505000  1.0
  H  H10  1  0.76635000  0.51379000  0.08699000  1.0
  H  H11  1  0.76638000  0.01379000  0.41301000  1.0
  H  H12  1  0.23364000  0.48620000  0.91301000  1.0
  H  H13  1  0.23363000  0.98620000  0.58699000  1.0
  H  H14  1  0.53568000  0.28231000  0.00590000  1.0
  H  H15  1  0.53571000  0.78230000  0.49410000  1.0
  H  H16  1  0.46430000  0.71768000  0.99410000  1.0
  H  H17  1  0.46431000  0.21769000  0.50590000  1.0
  C  C18  1  0.45840000  0.91416000  0.09166000  1.0
  C  C19  1  0.45841000  0.41418000  0.40834000  1.0
  C  C20  1  0.54159000  0.08584000  0.90834000  1.0
  C  C21  1  0.54156000  0.58583000  0.59166000  1.0
  C  C22  1  0.10000000  0.27928000  0.12857000  1.0
  C  C23  1  0.10005000  0.77930000  0.37143000  1.0
  C  C24  1  0.89998000  0.72071000  0.87143000  1.0
  C  C25  1  0.89999000  0.22071000  0.62857000  1.0
  C  C26  1  0.21230000  0.40625000  0.17673000  1.0
  C  C27  1  0.21236000  0.90626000  0.32326000  1.0
  C  C28  1  0.78769000  0.59375000  0.82327000  1.0
  C  C29  1  0.78768000  0.09375000  0.67674000  1.0
  C  C30  1  0.45577000  0.49306000  0.16191000  1.0
  C  C31  1  0.45583000  0.99307000  0.33809000  1.0
  C  C32  1  0.54422000  0.50694000  0.83809000  1.0
  C  C33  1  0.54421000  0.00694000  0.66190000  1.0
  C  C34  1  0.57664000  0.44941000  0.09972000  1.0
  C  C35  1  0.57668000  0.94942000  0.40027000  1.0
  C  C36  1  0.42334000  0.55058000  0.90028000  1.0
  C  C37  1  0.42334000  0.05059000  0.59973000  1.0
  C  C38  1  0.44858000  0.32076000  0.05464000  1.0
  C  C39  1  0.44861000  0.82076000  0.44536000  1.0
  C  C40  1  0.55141000  0.67923000  0.94536000  1.0
  C  C41  1  0.55141000  0.17923000  0.55464000  1.0
  C  C42  1  0.57922000  0.62416000  0.20978000  1.0
  C  C43  1  0.57927000  0.12417000  0.29022000  1.0
  C  C44  1  0.42076000  0.37584000  0.79022000  1.0
  C  C45  1  0.42074000  0.87584000  0.70978000  1.0
  S  S46  1  0.17206000  0.82962000  0.11234000  1.0
  S  S47  1  0.17203000  0.32961000  0.38765000  1.0
  S  S48  1  0.82794000  0.17039000  0.88765000  1.0
  S  S49  1  0.82791000  0.67038000  0.61235000  1.0
  N  N50  1  0.66665000  0.97679000  0.07693000  1.0
  N  N51  1  0.66667000  0.47680000  0.42306000  1.0
  N  N52  1  0.33335000  0.02321000  0.92306000  1.0
  N  N53  1  0.33332000  0.52320000  0.57694000  1.0
  N  N54  1  0.21468000  0.23774000  0.06842000  1.0
  N  N55  1  0.21472000  0.73774000  0.43157000  1.0
  N  N56  1  0.78530000  0.76225000  0.93157000  1.0
  N  N57  1  0.78530000  0.26226000  0.56843000  1.0
  N  N58  1  0.68041000  0.73255000  0.24832000  1.0
  N  N59  1  0.68045000  0.23258000  0.25168000  1.0
  N  N60  1  0.31959000  0.26744000  0.75168000  1.0
  N  N61  1  0.31957000  0.76743000  0.74832000  1.0
