# generated using pymatgen
data_Co2PH7(C4O3)2
_symmetry_space_group_name_H-M   'P 1'
_cell_length_a   5.23257000
_cell_length_b   7.39296000
_cell_length_c   12.52751107
_cell_angle_alpha   72.83823602
_cell_angle_beta   89.12883174
_cell_angle_gamma   87.02190000
_symmetry_Int_Tables_number   1
_chemical_formula_structural   Co2PH7(C4O3)2
_chemical_formula_sum   'Co4 P2 H14 C16 O12'
_cell_volume   462.41383493
_cell_formula_units_Z   2
loop_
 _symmetry_equiv_pos_site_id
 _symmetry_equiv_pos_as_xyz
  1  'x, y, z'
loop_
 _atom_site_type_symbol
 _atom_site_label
 _atom_site_symmetry_multiplicity
 _atom_site_fract_x
 _atom_site_fract_y
 _atom_site_fract_z
 _atom_site_occupancy
  Co  Co0  1  0.37842000  0.20431000  0.93004000  1.0
  Co  Co1  1  0.87837000  0.13420000  0.06993000  1.0
  Co  Co2  1  0.98278000  0.75470000  0.01333000  1.0
  Co  Co3  1  0.48303000  0.76768000  0.98672000  1.0
  P  P4  1  0.83041000  0.48926000  0.85996000  1.0
  P  P5  1  0.33039000  0.34926000  0.14002000  1.0
  H  H6  1  0.60852000  0.69949000  0.59676000  1.0
  H  H7  1  0.10840000  0.29619000  0.40333000  1.0
  H  H8  1  0.37385000  0.00530000  0.51262000  1.0
  H  H9  1  0.87410000  0.51801000  0.48743000  1.0
  H  H10  1  0.51153000  0.29887000  0.55106000  1.0
  H  H11  1  0.01179000  0.85016000  0.44896000  1.0
  H  H12  1  0.88699000  0.27631000  0.67532000  1.0
  H  H13  1  0.38705000  0.95193000  0.32450000  1.0
  H  H14  1  0.20353000  0.61756000  0.75991000  1.0
  H  H15  1  0.70339000  0.37744000  0.24018000  1.0
  H  H16  1  0.99691000  0.53283000  0.67636000  1.0
  H  H17  1  0.49685000  0.20928000  0.32365000  1.0
  H  H18  1  0.26215000  0.93132000  0.12507000  1.0
  H  H19  1  0.76202000  0.05643000  0.87495000  1.0
  C  C20  1  0.88142000  0.81098000  0.68463000  1.0
  C  C21  1  0.38133000  0.49561000  0.31547000  1.0
  C  C22  1  0.67194000  0.82718000  0.61310000  1.0
  C  C23  1  0.17182000  0.44028000  0.38697000  1.0
  C  C24  1  0.54016000  0.00012000  0.56491000  1.0
  C  C25  1  0.04030000  0.56522000  0.43511000  1.0
  C  C26  1  0.61785000  0.16408000  0.58591000  1.0
  C  C27  1  0.11797000  0.75024000  0.41405000  1.0
  C  C28  1  0.82617000  0.15159000  0.65553000  1.0
  C  C29  1  0.32618000  0.80739000  0.34439000  1.0
  C  C30  1  0.95840000  0.97765000  0.70678000  1.0
  C  C31  1  0.45815000  0.68452000  0.29319000  1.0
  C  C32  1  0.16214000  0.98080000  0.78890000  1.0
  C  C33  1  0.66188000  0.76966000  0.21108000  1.0
  C  C34  1  0.00394000  0.61671000  0.73531000  1.0
  C  C35  1  0.50379000  0.35211000  0.26471000  1.0
  O  O36  1  0.58820000  0.41378000  0.82602000  1.0
  O  O37  1  0.08830000  0.23972000  0.17394000  1.0
  O  O38  1  0.01727000  0.33108000  0.93173000  1.0
  O  O39  1  0.51739000  0.26305000  0.06823000  1.0
  O  O40  1  0.76544000  0.63429000  0.92685000  1.0
  O  O41  1  0.26540000  0.56121000  0.07303000  1.0
  O  O42  1  0.23132000  0.81930000  0.86040000  1.0
  O  O43  1  0.73141000  0.67952000  0.13969000  1.0
  O  O44  1  0.24619000  0.13727000  0.78979000  1.0
  O  O45  1  0.74579000  0.92707000  0.21018000  1.0
  O  O46  1  0.20035000  0.95862000  0.04830000  1.0
  O  O47  1  0.70025000  0.00702000  0.95172000  1.0
