# generated using pymatgen
data_AgH16C26S3N2(OF3)3
_symmetry_space_group_name_H-M   'P 1'
_cell_length_a   11.55020000
_cell_length_b   11.55020000
_cell_length_c   26.80120000
_cell_angle_alpha   95.74890000
_cell_angle_beta   95.74880000
_cell_angle_gamma   94.02460000
_symmetry_Int_Tables_number   1
_chemical_formula_structural   AgH16C26S3N2(OF3)3
_chemical_formula_sum   'Ag4 H64 C104 S12 N8 O12 F36'
_cell_volume   3527.95609005
_cell_formula_units_Z   4
loop_
 _symmetry_equiv_pos_site_id
 _symmetry_equiv_pos_as_xyz
  1  'x, y, z'
loop_
 _atom_site_type_symbol
 _atom_site_label
 _atom_site_symmetry_multiplicity
 _atom_site_fract_x
 _atom_site_fract_y
 _atom_site_fract_z
 _atom_site_occupancy
  Ag  Ag0  1  0.00711000  0.46102000  0.29015000  1.0
  Ag  Ag1  1  0.53898000  0.99289000  0.20985000  1.0
  Ag  Ag2  1  0.99290000  0.53897000  0.70985000  1.0
  Ag  Ag3  1  0.46103000  0.00711000  0.79015000  1.0
  H  H4  1  0.30337000  0.21597000  0.35643000  1.0
  H  H5  1  0.78403000  0.69663000  0.14357000  1.0
  H  H6  1  0.69663000  0.78404000  0.64357000  1.0
  H  H7  1  0.21596000  0.30337000  0.85643000  1.0
  H  H8  1  0.90529000  0.96547000  0.34517000  1.0
  H  H9  1  0.03453000  0.09471000  0.15483000  1.0
  H  H10  1  0.09471000  0.03453000  0.65483000  1.0
  H  H11  1  0.96547000  0.90529000  0.84517000  1.0
  H  H12  1  0.90331000  0.07143000  0.39746000  1.0
  H  H13  1  0.92857000  0.09668000  0.10254000  1.0
  H  H14  1  0.09668000  0.92857000  0.60254000  1.0
  H  H15  1  0.07144000  0.90332000  0.89746000  1.0
  H  H16  1  0.82966000  0.09237000  0.33788000  1.0
  H  H17  1  0.90763000  0.17034000  0.16212000  1.0
  H  H18  1  0.17034000  0.90763000  0.66212000  1.0
  H  H19  1  0.09237000  0.82966000  0.83788000  1.0
  H  H20  1  0.36147000  0.21523000  0.26209000  1.0
  H  H21  1  0.78477000  0.63853000  0.23791000  1.0
  H  H22  1  0.63853000  0.78477000  0.73791000  1.0
  H  H23  1  0.21523000  0.36147000  0.76209000  1.0
  H  H24  1  0.46244000  0.35537000  0.21119000  1.0
  H  H25  1  0.64463000  0.53756000  0.28881000  1.0
  H  H26  1  0.53756000  0.64463000  0.78881000  1.0
  H  H27  1  0.35537000  0.46244000  0.71119000  1.0
  H  H28  1  0.36136000  0.53193000  0.18832000  1.0
  H  H29  1  0.46807000  0.63864000  0.31168000  1.0
  H  H30  1  0.63864000  0.46807000  0.81168000  1.0
  H  H31  1  0.53193000  0.36136000  0.68832000  1.0
  H  H32  1  0.16533000  0.56119000  0.21863000  1.0
  H  H33  1  0.43881000  0.83467000  0.28137000  1.0
  H  H34  1  0.83467000  0.43881000  0.78138000  1.0
  H  H35  1  0.56119000  0.16533000  0.71863000  1.0
  H  H36  1  0.96651000  0.79303000  0.44038000  1.0
  H  H37  1  0.20697000  0.03349000  0.05962000  1.0
  H  H38  1  0.03349000  0.20697000  0.55962000  1.0
  H  H39  1  0.79303000  0.96651000  0.94038000  1.0
  H  H40  1  0.18076000  0.96115000  0.29405000  1.0
  H  H41  1  0.03885000  0.81924000  0.20595000  1.0
  H  H42  1  0.81924000  0.03885000  0.70595000  1.0
  H  H43  1  0.96115000  0.18076000  0.79405000  1.0
  H  H44  1  0.28428000  0.93403000  0.34348000  1.0
  H  H45  1  0.06596000  0.71571000  0.15652000  1.0
  H  H46  1  0.71572000  0.06597000  0.65652000  1.0
  H  H47  1  0.93404000  0.28428000  0.84348000  1.0
  H  H48  1  0.24898000  0.82814000  0.29047000  1.0
  H  H49  1  0.17186000  0.75102000  0.20952000  1.0
  H  H50  1  0.75102000  0.17186000  0.70952000  1.0
  H  H51  1  0.82815000  0.24898000  0.79047000  1.0
  H  H52  1  0.78758000  0.70062000  0.42412000  1.0
  H  H53  1  0.29938000  0.21242000  0.07588000  1.0
  H  H54  1  0.21242000  0.29939000  0.57587000  1.0
  H  H55  1  0.70062000  0.78758000  0.92412000  1.0
  H  H56  1  0.63706000  0.53801000  0.42991000  1.0
  H  H57  1  0.46199000  0.36293000  0.07009000  1.0
  H  H58  1  0.36294000  0.46199000  0.57009000  1.0
  H  H59  1  0.53801000  0.63706000  0.92991000  1.0
  H  H60  1  0.63708000  0.35123000  0.37209000  1.0
  H  H61  1  0.64877000  0.36292000  0.12791000  1.0
  H  H62  1  0.36292000  0.64877000  0.62791000  1.0
  H  H63  1  0.35123000  0.63708000  0.87209000  1.0
  H  H64  1  0.79122000  0.33494000  0.31406000  1.0
  H  H65  1  0.66506000  0.20877000  0.18594000  1.0
  H  H66  1  0.20878000  0.66506000  0.68594000  1.0
  H  H67  1  0.33494000  0.79122000  0.81406000  1.0
  C  C68  1  0.16384000  0.07790000  0.41401000  1.0
  C  C69  1  0.92210000  0.83616000  0.08599000  1.0
  C  C70  1  0.83616000  0.92210000  0.58599000  1.0
  C  C71  1  0.07790000  0.16383000  0.91401000  1.0
  C  C72  1  0.14217000  0.96590000  0.42433000  1.0
  C  C73  1  0.03410000  0.85783000  0.07567000  1.0
  C  C74  1  0.85783000  0.03410000  0.57567000  1.0
  C  C75  1  0.96590000  0.14217000  0.92433000  1.0
  C  C76  1  0.18583000  0.94980000  0.47783000  1.0
  C  C77  1  0.05020000  0.81417000  0.02217000  1.0
  C  C78  1  0.81417000  0.05020000  0.52217000  1.0
  C  C79  1  0.94980000  0.18583000  0.97783000  1.0
  C  C80  1  0.26012000  0.06622000  0.49852000  1.0
  C  C81  1  0.93379000  0.73988000  0.00148000  1.0
  C  C82  1  0.73988000  0.93379000  0.50148000  1.0
  C  C83  1  0.06621000  0.26012000  0.99852000  1.0
  C  C84  1  0.22365000  0.15310000  0.45985000  1.0
  C  C85  1  0.84689000  0.77635000  0.04015000  1.0
  C  C86  1  0.77635000  0.84690000  0.54015000  1.0
  C  C87  1  0.15310000  0.22365000  0.95985000  1.0
  C  C88  1  0.01656000  0.12200000  0.34347000  1.0
  C  C89  1  0.87800000  0.98344000  0.15653000  1.0
  C  C90  1  0.98344000  0.87800000  0.65653000  1.0
  C  C91  1  0.12200000  0.01656000  0.84347000  1.0
  C  C92  1  0.12998000  0.13022000  0.36778000  1.0
  C  C93  1  0.86978000  0.87002000  0.13222000  1.0
  C  C94  1  0.87002000  0.86978000  0.63222000  1.0
  C  C95  1  0.13022000  0.12998000  0.86778000  1.0
  C  C96  1  0.21057000  0.19937000  0.34371000  1.0
  C  C97  1  0.80063000  0.78943000  0.15629000  1.0
  C  C98  1  0.78943000  0.80063000  0.65629000  1.0
  C  C99  1  0.19937000  0.21057000  0.84371000  1.0
  C  C100  1  0.15903000  0.24393000  0.30202000  1.0
  C  C101  1  0.75607000  0.84097000  0.19798000  1.0
  C  C102  1  0.84097000  0.75607000  0.69798000  1.0
  C  C103  1  0.24393000  0.15904000  0.80202000  1.0
  C  C104  1  0.90790000  0.05994000  0.35655000  1.0
  C  C105  1  0.94005000  0.09210000  0.14345000  1.0
  C  C106  1  0.09210000  0.94005000  0.64345000  1.0
  C  C107  1  0.05994000  0.90790000  0.85655000  1.0
  C  C108  1  0.21593000  0.31949000  0.26961000  1.0
  C  C109  1  0.68051000  0.78407000  0.23039000  1.0
  C  C110  1  0.78407000  0.68051000  0.73039000  1.0
  C  C111  1  0.31949000  0.21593000  0.76961000  1.0
  C  C112  1  0.32339000  0.29479000  0.25257000  1.0
  C  C113  1  0.70521000  0.67661000  0.24743000  1.0
  C  C114  1  0.67661000  0.70521000  0.74743000  1.0
  C  C115  1  0.29479000  0.32339000  0.75257000  1.0
  C  C116  1  0.37791000  0.37203000  0.22400000  1.0
  C  C117  1  0.62797000  0.62209000  0.27600000  1.0
  C  C118  1  0.62209000  0.62797000  0.77601000  1.0
  C  C119  1  0.37203000  0.37791000  0.72400000  1.0
  C  C120  1  0.32238000  0.47030000  0.21129000  1.0
  C  C121  1  0.52970000  0.67762000  0.28871000  1.0
  C  C122  1  0.67763000  0.52971000  0.78871000  1.0
  C  C123  1  0.47030000  0.32238000  0.71129000  1.0
  C  C124  1  0.21456000  0.48801000  0.22826000  1.0
  C  C125  1  0.51199000  0.78544000  0.27174000  1.0
  C  C126  1  0.78544000  0.51199000  0.77174000  1.0
  C  C127  1  0.48801000  0.21456000  0.72826000  1.0
  C  C128  1  0.11926000  0.83575000  0.34219000  1.0
  C  C129  1  0.16425000  0.88074000  0.15780000  1.0
  C  C130  1  0.88074000  0.16425000  0.65780000  1.0
  C  C131  1  0.83575000  0.11926000  0.84220000  1.0
  C  C132  1  0.08821000  0.86574000  0.39043000  1.0
  C  C133  1  0.13426000  0.91179000  0.10957000  1.0
  C  C134  1  0.91179000  0.13425000  0.60957000  1.0
  C  C135  1  0.86575000  0.08821000  0.89043000  1.0
  C  C136  1  0.00062000  0.78522000  0.40393000  1.0
  C  C137  1  0.21478000  0.99938000  0.09607000  1.0
  C  C138  1  0.99938000  0.21478000  0.59607000  1.0
  C  C139  1  0.78522000  0.00061000  0.90393000  1.0
  C  C140  1  0.96370000  0.69595000  0.36630000  1.0
  C  C141  1  0.30405000  0.03630000  0.13370000  1.0
  C  C142  1  0.03630000  0.30405000  0.63370000  1.0
  C  C143  1  0.69595000  0.96370000  0.86630000  1.0
  C  C144  1  0.21260000  0.89242000  0.31620000  1.0
  C  C145  1  0.10758000  0.78739000  0.18380000  1.0
  C  C146  1  0.78740000  0.10758000  0.68380000  1.0
  C  C147  1  0.89242000  0.21260000  0.81620000  1.0
  C  C148  1  0.87358000  0.60204000  0.36810000  1.0
  C  C149  1  0.39796000  0.12642000  0.13190000  1.0
  C  C150  1  0.12642000  0.39796000  0.63190000  1.0
  C  C151  1  0.60204000  0.87358000  0.86810000  1.0
  C  C152  1  0.78770000  0.61733000  0.40133000  1.0
  C  C153  1  0.38267000  0.21230000  0.09867000  1.0
  C  C154  1  0.21230000  0.38267000  0.59867000  1.0
  C  C155  1  0.61733000  0.78770000  0.90133000  1.0
  C  C156  1  0.70355000  0.52701000  0.40402000  1.0
  C  C157  1  0.47299000  0.29646000  0.09598000  1.0
  C  C158  1  0.29646000  0.47299000  0.59598000  1.0
  C  C159  1  0.52701000  0.70354000  0.90402000  1.0
  C  C160  1  0.70353000  0.42308000  0.37249000  1.0
  C  C161  1  0.57692000  0.29647000  0.12751000  1.0
  C  C162  1  0.29647000  0.57692000  0.62751000  1.0
  C  C163  1  0.42308000  0.70353000  0.87249000  1.0
  C  C164  1  0.78927000  0.41393000  0.33980000  1.0
  C  C165  1  0.58606000  0.21073000  0.16020000  1.0
  C  C166  1  0.21073000  0.58606000  0.66020000  1.0
  C  C167  1  0.41393000  0.78927000  0.83980000  1.0
  C  C168  1  0.95635000  0.41909000  0.12183000  1.0
  C  C169  1  0.58091000  0.04364000  0.37817000  1.0
  C  C170  1  0.04364000  0.58092000  0.87817000  1.0
  C  C171  1  0.41908000  0.95636000  0.62183000  1.0
  S  S172  1  0.01064000  0.20110000  0.29234000  1.0
  S  S173  1  0.79890000  0.98937000  0.20766000  1.0
  S  S174  1  0.98936000  0.79890000  0.70766000  1.0
  S  S175  1  0.20110000  0.01064000  0.79234000  1.0
  S  S176  1  0.03860000  0.71116000  0.31399000  1.0
  S  S177  1  0.28884000  0.96140000  0.18601000  1.0
  S  S178  1  0.96140000  0.28884000  0.68601000  1.0
  S  S179  1  0.71117000  0.03860000  0.81399000  1.0
  S  S180  1  0.86978000  0.46573000  0.17425000  1.0
  S  S181  1  0.53427000  0.13021000  0.32574000  1.0
  S  S182  1  0.13021000  0.53427000  0.82575000  1.0
  S  S183  1  0.46573000  0.86979000  0.67425000  1.0
  N  N184  1  0.16320000  0.41578000  0.25740000  1.0
  N  N185  1  0.58422000  0.83680000  0.24260000  1.0
  N  N186  1  0.83680000  0.58422000  0.74260000  1.0
  N  N187  1  0.41577000  0.16320000  0.75740000  1.0
  N  N188  1  0.87350000  0.50019000  0.33784000  1.0
  N  N189  1  0.49981000  0.12650000  0.16216000  1.0
  N  N190  1  0.12650000  0.49981000  0.66216000  1.0
  N  N191  1  0.50019000  0.87350000  0.83784000  1.0
  O  O192  1  0.94810000  0.55727000  0.20500000  1.0
  O  O193  1  0.44273000  0.05190000  0.29499000  1.0
  O  O194  1  0.05190000  0.44273000  0.79500000  1.0
  O  O195  1  0.55727000  0.94810000  0.70500000  1.0
  O  O196  1  0.84889000  0.35989000  0.19883000  1.0
  O  O197  1  0.64011000  0.15111000  0.30117000  1.0
  O  O198  1  0.15111000  0.64011000  0.80117000  1.0
  O  O199  1  0.35989000  0.84889000  0.69883000  1.0
  O  O200  1  0.76694000  0.50807000  0.14813000  1.0
  O  O201  1  0.49193000  0.23306000  0.35187000  1.0
  O  O202  1  0.23306000  0.49193000  0.85187000  1.0
  O  O203  1  0.50808000  0.76694000  0.64813000  1.0
  F  F204  1  0.09561000  0.93097000  0.50732000  1.0
  F  F205  1  0.06904000  0.90439000  0.99268000  1.0
  F  F206  1  0.90439000  0.06904000  0.49268000  1.0
  F  F207  1  0.93096000  0.09561000  0.00732000  1.0
  F  F208  1  0.25079000  0.85516000  0.48029000  1.0
  F  F209  1  0.14484000  0.74921000  0.01971000  1.0
  F  F210  1  0.74921000  0.14484000  0.51971000  1.0
  F  F211  1  0.85516000  0.25079000  0.98029000  1.0
  F  F212  1  0.23960000  0.10524000  0.54652000  1.0
  F  F213  1  0.89476000  0.76040000  0.95348000  1.0
  F  F214  1  0.76041000  0.89476000  0.45348000  1.0
  F  F215  1  0.10524000  0.23960000  0.04652000  1.0
  F  F216  1  0.37602000  0.05128000  0.49892000  1.0
  F  F217  1  0.94873000  0.62398000  0.00109000  1.0
  F  F218  1  0.62398000  0.94872000  0.50108000  1.0
  F  F219  1  0.05128000  0.37603000  0.99892000  1.0
  F  F220  1  0.14674000  0.22783000  0.48004000  1.0
  F  F221  1  0.77217000  0.85326000  0.01996000  1.0
  F  F222  1  0.85326000  0.77217000  0.51995000  1.0
  F  F223  1  0.22783000  0.14674000  0.98005000  1.0
  F  F224  1  0.31791000  0.22362000  0.45061000  1.0
  F  F225  1  0.77638000  0.68209000  0.04939000  1.0
  F  F226  1  0.68209000  0.77638000  0.54939000  1.0
  F  F227  1  0.22362000  0.31791000  0.95061000  1.0
  F  F228  1  0.05306000  0.36828000  0.13931000  1.0
  F  F229  1  0.63172000  0.94694000  0.36069000  1.0
  F  F230  1  0.94694000  0.63173000  0.86069000  1.0
  F  F231  1  0.36828000  0.05306000  0.63931000  1.0
  F  F232  1  0.89117000  0.34074000  0.08729000  1.0
  F  F233  1  0.65927000  0.10883000  0.41271000  1.0
  F  F234  1  0.10883000  0.65928000  0.91271000  1.0
  F  F235  1  0.34073000  0.89117000  0.58729000  1.0
  F  F236  1  0.99214000  0.51193000  0.09828000  1.0
  F  F237  1  0.48808000  0.00785000  0.40172000  1.0
  F  F238  1  0.00786000  0.48809000  0.90172000  1.0
  F  F239  1  0.51192000  0.99214000  0.59828000  1.0
