# generated using pymatgen
data_TlH6C8N3
_symmetry_space_group_name_H-M   'P 1'
_cell_length_a   5.31909000
_cell_length_b   10.99960000
_cell_length_c   14.25100000
_cell_angle_alpha   104.43500000
_cell_angle_beta   89.99960000
_cell_angle_gamma   90.00000000
_symmetry_Int_Tables_number   1
_chemical_formula_structural   TlH6C8N3
_chemical_formula_sum   'Tl4 H24 C32 N12'
_cell_volume   807.47350863
_cell_formula_units_Z   4
loop_
 _symmetry_equiv_pos_site_id
 _symmetry_equiv_pos_as_xyz
  1  'x, y, z'
loop_
 _atom_site_type_symbol
 _atom_site_label
 _atom_site_symmetry_multiplicity
 _atom_site_fract_x
 _atom_site_fract_y
 _atom_site_fract_z
 _atom_site_occupancy
  Tl  Tl0  1  0.77822000  0.10691000  0.13204000  1.0
  Tl  Tl1  1  0.27822000  0.39309000  0.36797000  1.0
  Tl  Tl2  1  0.22178000  0.89309000  0.86796000  1.0
  Tl  Tl3  1  0.72178000  0.60691000  0.63204000  1.0
  H  H4  1  0.13724000  0.20470000  0.96460000  1.0
  H  H5  1  0.63725000  0.29531000  0.53541000  1.0
  H  H6  1  0.86275000  0.79530000  0.03541000  1.0
  H  H7  1  0.36277000  0.70469000  0.46459000  1.0
  H  H8  1  0.53174000  0.37146000  0.97727000  1.0
  H  H9  1  0.03174000  0.12854000  0.52274000  1.0
  H  H10  1  0.46826000  0.62854000  0.02274000  1.0
  H  H11  1  0.96828000  0.87146000  0.47726000  1.0
  H  H12  1  0.86716000  0.48528000  0.05717000  1.0
  H  H13  1  0.36716000  0.01472000  0.44283000  1.0
  H  H14  1  0.13284000  0.51472000  0.94283000  1.0
  H  H15  1  0.63284000  0.98529000  0.55716000  1.0
  H  H16  1  0.17291000  0.64474000  0.14700000  1.0
  H  H17  1  0.67291000  0.85526000  0.35300000  1.0
  H  H18  1  0.82708000  0.35526000  0.85301000  1.0
  H  H19  1  0.32709000  0.14474000  0.64699000  1.0
  H  H20  1  0.13519000  0.71940000  0.32734000  1.0
  H  H21  1  0.63520000  0.78059000  0.17266000  1.0
  H  H22  1  0.86480000  0.28060000  0.67266000  1.0
  H  H23  1  0.36480000  0.21940000  0.82734000  1.0
  H  H24  1  0.79354000  0.62951000  0.41063000  1.0
  H  H25  1  0.29354000  0.87049000  0.08937000  1.0
  H  H26  1  0.20646000  0.37049000  0.58937000  1.0
  H  H27  1  0.70647000  0.12951000  0.91063000  1.0
  C  C28  1  0.23561000  0.25869000  0.02836000  1.0
  C  C29  1  0.73562000  0.24131000  0.47165000  1.0
  C  C30  1  0.76438000  0.74131000  0.97165000  1.0
  C  C31  1  0.26439000  0.75868000  0.52835000  1.0
  C  C32  1  0.43616000  0.34239000  0.03524000  1.0
  C  C33  1  0.93617000  0.15761000  0.46476000  1.0
  C  C34  1  0.56382000  0.65761000  0.96476000  1.0
  C  C35  1  0.06384000  0.84239000  0.53523000  1.0
  C  C36  1  0.48115000  0.38409000  0.13572000  1.0
  C  C37  1  0.98116000  0.11591000  0.36429000  1.0
  C  C38  1  0.51884000  0.61591000  0.86429000  1.0
  C  C39  1  0.01886000  0.88409000  0.63571000  1.0
  C  C40  1  0.66409000  0.47567000  0.18663000  1.0
  C  C41  1  0.16409000  0.02432000  0.31337000  1.0
  C  C42  1  0.33590000  0.52432000  0.81337000  1.0
  C  C43  1  0.83592000  0.97568000  0.68662000  1.0
  C  C44  1  0.85383000  0.52085000  0.13534000  1.0
  C  C45  1  0.35382000  0.97916000  0.36466000  1.0
  C  C46  1  0.14617000  0.47916000  0.86466000  1.0
  C  C47  1  0.64620000  0.02085000  0.63533000  1.0
  C  C48  1  0.02424000  0.60882000  0.18527000  1.0
  C  C49  1  0.52425000  0.89118000  0.31473000  1.0
  C  C50  1  0.97575000  0.39118000  0.81473000  1.0
  C  C51  1  0.47575000  0.10883000  0.68527000  1.0
  C  C52  1  0.00451000  0.65052000  0.28591000  1.0
  C  C53  1  0.50450000  0.84949000  0.21410000  1.0
  C  C54  1  0.99549000  0.34948000  0.71410000  1.0
  C  C55  1  0.49550000  0.15051000  0.78590000  1.0
  C  C56  1  0.81291000  0.60061000  0.33177000  1.0
  C  C57  1  0.31291000  0.89938000  0.16823000  1.0
  C  C58  1  0.18709000  0.39939000  0.66823000  1.0
  C  C59  1  0.68709000  0.10061000  0.83176000  1.0
  N  N60  1  0.16685000  0.24979000  0.11809000  1.0
  N  N61  1  0.66686000  0.25022000  0.38192000  1.0
  N  N62  1  0.83313000  0.75022000  0.88192000  1.0
  N  N63  1  0.33315000  0.74978000  0.61807000  1.0
  N  N64  1  0.31647000  0.32589000  0.18367000  1.0
  N  N65  1  0.81647000  0.17412000  0.31634000  1.0
  N  N66  1  0.68352000  0.67412000  0.81634000  1.0
  N  N67  1  0.18354000  0.82589000  0.68366000  1.0
  N  N68  1  0.64546000  0.51634000  0.28433000  1.0
  N  N69  1  0.14546000  0.98366000  0.21567000  1.0
  N  N70  1  0.35454000  0.48366000  0.71567000  1.0
  N  N71  1  0.85455000  0.01634000  0.78432000  1.0
