# generated using pymatgen
data_ZnH10C18N2O5F4
_symmetry_space_group_name_H-M   'P 1'
_cell_length_a   8.75292000
_cell_length_b   10.27520000
_cell_length_c   10.47740000
_cell_angle_alpha   77.98610000
_cell_angle_beta   79.55000000
_cell_angle_gamma   69.88150000
_symmetry_Int_Tables_number   1
_chemical_formula_structural   ZnH10C18N2O5F4
_chemical_formula_sum   'Zn2 H20 C36 N4 O10 F8'
_cell_volume   859.23417385
_cell_formula_units_Z   2
loop_
 _symmetry_equiv_pos_site_id
 _symmetry_equiv_pos_as_xyz
  1  'x, y, z'
loop_
 _atom_site_type_symbol
 _atom_site_label
 _atom_site_symmetry_multiplicity
 _atom_site_fract_x
 _atom_site_fract_y
 _atom_site_fract_z
 _atom_site_occupancy
  Zn  Zn0  1  0.51568000  0.80008000  0.74197000  1.0
  Zn  Zn1  1  0.48431000  0.19992000  0.25803000  1.0
  H  H2  1  0.72590000  0.98736000  0.57799000  1.0
  H  H3  1  0.27410000  0.01264000  0.42201000  1.0
  H  H4  1  0.89890000  0.11339000  0.62777000  1.0
  H  H5  1  0.10109000  0.88661000  0.37222000  1.0
  H  H6  1  0.93281000  0.10000000  0.86526000  1.0
  H  H7  1  0.06719000  0.89999000  0.13474000  1.0
  H  H8  1  0.79432000  0.95847000  0.03967000  1.0
  H  H9  1  0.20568000  0.04153000  0.96032000  1.0
  H  H10  1  0.66980000  0.84129000  0.17280000  1.0
  H  H11  1  0.33019000  0.15872000  0.82720000  1.0
  H  H12  1  0.51903000  0.69170000  0.31941000  1.0
  H  H13  1  0.48097000  0.30830000  0.68059000  1.0
  H  H14  1  0.37187000  0.57198000  0.22090000  1.0
  H  H15  1  0.62813000  0.42802000  0.77911000  1.0
  H  H16  1  0.36921000  0.62408000  0.97473000  1.0
  H  H17  1  0.63078000  0.37592000  0.02527000  1.0
  H  H18  1  0.34694000  0.06336000  0.63291000  1.0
  H  H19  1  0.65305000  0.93665000  0.36709000  1.0
  H  H20  1  0.25002000  0.95038000  0.66381000  1.0
  H  H21  1  0.74997000  0.04962000  0.33618000  1.0
  C  C22  1  0.74592000  0.98214000  0.67874000  1.0
  C  C23  1  0.25408000  0.01785000  0.32126000  1.0
  C  C24  1  0.84204000  0.05296000  0.70773000  1.0
  C  C25  1  0.15796000  0.94704000  0.29227000  1.0
  C  C26  1  0.86039000  0.04409000  0.83900000  1.0
  C  C27  1  0.13961000  0.95591000  0.16100000  1.0
  C  C28  1  0.78369000  0.96462000  0.93643000  1.0
  C  C29  1  0.21631000  0.03538000  0.06357000  1.0
  C  C30  1  0.69001000  0.89518000  0.89973000  1.0
  C  C31  1  0.30998000  0.10482000  0.10026000  1.0
  C  C32  1  0.60367000  0.80802000  0.99549000  1.0
  C  C33  1  0.39633000  0.19198000  0.00451000  1.0
  C  C34  1  0.60582000  0.78887000  0.13137000  1.0
  C  C35  1  0.39418000  0.21113000  0.86863000  1.0
  C  C36  1  0.52095000  0.70486000  0.21353000  1.0
  C  C37  1  0.47904000  0.29514000  0.78647000  1.0
  C  C38  1  0.43677000  0.64039000  0.15954000  1.0
  C  C39  1  0.56323000  0.35961000  0.84046000  1.0
  C  C40  1  0.43649000  0.66693000  0.02387000  1.0
  C  C41  1  0.56351000  0.33307000  0.97613000  1.0
  C  C42  1  0.23216000  0.73085000  0.67502000  1.0
  C  C43  1  0.76785000  0.26914000  0.32499000  1.0
  C  C44  1  0.16933000  0.61250000  0.66694000  1.0
  C  C45  1  0.83068000  0.38749000  0.33306000  1.0
  C  C46  1  0.23161000  0.53445000  0.56441000  1.0
  C  C47  1  0.76839000  0.46555000  0.43559000  1.0
  C  C48  1  0.06124000  0.56803000  0.76648000  1.0
  C  C49  1  0.93878000  0.43196000  0.23353000  1.0
  C  C50  1  0.19941000  0.41142000  0.55993000  1.0
  C  C51  1  0.80058000  0.58858000  0.44007000  1.0
  C  C52  1  0.01747000  0.45033000  0.76428000  1.0
  C  C53  1  0.98254000  0.54967000  0.23572000  1.0
  C  C54  1  0.08817000  0.37354000  0.66186000  1.0
  C  C55  1  0.91182000  0.62646000  0.33814000  1.0
  C  C56  1  0.29709000  0.31525000  0.46250000  1.0
  C  C57  1  0.70290000  0.68476000  0.53750000  1.0
  N  N58  1  0.67237000  0.90540000  0.77212000  1.0
  N  N59  1  0.32763000  0.09460000  0.22788000  1.0
  N  N60  1  0.51789000  0.74819000  0.94450000  1.0
  N  N61  1  0.48211000  0.25181000  0.05550000  1.0
  O  O62  1  0.35078000  0.69214000  0.74382000  1.0
  O  O63  1  0.64922000  0.30787000  0.25619000  1.0
  O  O64  1  0.16625000  0.85134000  0.61492000  1.0
  O  O65  1  0.83375000  0.14865000  0.38508000  1.0
  O  O66  1  0.30344000  0.36574000  0.34077000  1.0
  O  O67  1  0.69655000  0.63426000  0.65922000  1.0
  O  O68  1  0.37564000  0.18968000  0.50665000  1.0
  O  O69  1  0.62435000  0.81032000  0.49335000  1.0
  O  O70  1  0.32416000  0.98633000  0.70101000  1.0
  O  O71  1  0.67584000  0.01367000  0.29899000  1.0
  F  F72  1  0.33914000  0.57670000  0.46790000  1.0
  F  F73  1  0.66085000  0.42330000  0.53209000  1.0
  F  F74  1  0.04572000  0.25831000  0.66266000  1.0
  F  F75  1  0.95427000  0.74169000  0.33733000  1.0
  F  F76  1  0.91075000  0.40963000  0.86098000  1.0
  F  F77  1  0.08927000  0.59036000  0.13903000  1.0
  F  F78  1  0.99676000  0.63895000  0.86919000  1.0
  F  F79  1  0.00328000  0.36103000  0.13082000  1.0
