# generated using pymatgen
data_Zn4H33C78N23O14
_symmetry_space_group_name_H-M   'P 1'
_cell_length_a   18.81360000
_cell_length_b   19.68870000
_cell_length_c   20.24240000
_cell_angle_alpha   106.51500000
_cell_angle_beta   109.64700000
_cell_angle_gamma   108.83800000
_symmetry_Int_Tables_number   1
_chemical_formula_structural   Zn4H33C78N23O14
_chemical_formula_sum   'Zn4 H33 C78 N23 O14'
_cell_volume   5999.24085486
_cell_formula_units_Z   1
loop_
 _symmetry_equiv_pos_site_id
 _symmetry_equiv_pos_as_xyz
  1  'x, y, z'
loop_
 _atom_site_type_symbol
 _atom_site_label
 _atom_site_symmetry_multiplicity
 _atom_site_fract_x
 _atom_site_fract_y
 _atom_site_fract_z
 _atom_site_occupancy
  Zn  Zn0  1  0.87620000  0.88199000  0.48953000  1.0
  Zn  Zn1  1  0.10631000  0.12260000  0.51560000  1.0
  Zn  Zn2  1  0.10422000  0.99133000  0.60627000  1.0
  Zn  Zn3  1  0.87061000  0.99816000  0.38256000  1.0
  H  H4  1  0.82368000  0.86992000  0.63820000  1.0
  H  H5  1  0.21720000  0.12770000  0.77662000  1.0
  H  H6  1  0.18450000  0.27453000  0.65773000  1.0
  H  H7  1  0.85835000  0.00205000  0.63405000  1.0
  H  H8  1  0.84820000  0.16122000  0.35277000  1.0
  H  H9  1  0.14824000  0.87285000  0.50407000  1.0
  H  H10  1  0.15843000  0.10591000  0.39079000  1.0
  H  H11  1  0.87359000  0.73655000  0.36883000  1.0
  H  H12  1  0.77974000  0.83878000  0.21796000  1.0
  H  H13  1  0.28944000  0.99431000  0.63644000  1.0
  H  H14  1  0.15395000  0.49023000  0.42839000  1.0
  H  H15  1  0.89812000  0.50870000  0.27412000  1.0
  H  H16  1  0.88334000  0.37905000  0.27411000  1.0
  H  H17  1  0.44987000  0.49175000  0.87656000  1.0
  H  H18  1  0.57611000  0.60916000  0.99479000  1.0
  H  H19  1  0.86266000  0.02963000  0.91919000  1.0
  H  H20  1  0.15113000  0.11439000  0.12707000  1.0
  H  H21  1  0.12289000  0.07148000  0.98903000  1.0
  H  H22  1  0.91177000  0.92726000  0.13431000  1.0
  H  H23  1  0.77780000  0.87316000  0.01269000  1.0
  H  H24  1  0.65643000  0.89465000  0.01925000  1.0
  H  H25  1  0.66988000  0.96963000  0.14875000  1.0
  H  H26  1  0.80430000  0.02746000  0.26878000  1.0
  H  H27  1  0.60948000  0.32260000  0.98433000  1.0
  H  H28  1  0.57366000  0.18264000  0.96256000  1.0
  H  H29  1  0.43117000  0.09124000  0.93961000  1.0
  H  H30  1  0.32572000  0.14141000  0.94069000  1.0
  H  H31  1  0.36223000  0.28207000  0.96384000  1.0
  H  H32  1  0.72547000  0.60423000  0.28277000  1.0
  H  H33  1  0.67903000  0.50818000  0.33422000  1.0
  H  H34  1  0.64438000  0.54662000  0.44363000  1.0
  H  H35  1  0.65391000  0.68146000  0.49891000  1.0
  H  H36  1  0.69631000  0.77673000  0.44451000  1.0
  C  C37  1  0.89070000  0.89443000  0.65343000  1.0
  C  C38  1  0.05148000  0.23406000  0.46644000  1.0
  C  C39  1  0.19487000  0.15118000  0.73603000  1.0
  C  C40  1  0.79710000  0.04005000  0.48342000  1.0
  C  C41  1  0.17872000  0.22673000  0.67527000  1.0
  C  C42  1  0.84456000  0.01194000  0.58215000  1.0
  C  C43  1  0.91330000  0.17811000  0.39231000  1.0
  C  C44  1  0.03054000  0.95071000  0.70956000  1.0
  C  C45  1  0.96229000  0.93850000  0.72831000  1.0
  C  C46  1  0.98867000  0.24512000  0.41428000  1.0
  C  C47  1  0.23079000  0.23051000  0.74624000  1.0
  C  C48  1  0.78956000  0.04227000  0.55148000  1.0
  C  C49  1  0.74367000  0.75554000  0.33144000  1.0
  C  C50  1  0.29397000  0.11968000  0.55921000  1.0
  C  C51  1  0.07988000  0.85119000  0.47845000  1.0
  C  C52  1  0.94966000  0.01478000  0.28015000  1.0
  C  C53  1  0.08938000  0.07351000  0.36112000  1.0
  C  C54  1  0.93904000  0.78131000  0.40915000  1.0
  C  C55  1  0.77361000  0.82088000  0.26262000  1.0
  C  C56  1  0.28173000  0.03384000  0.60970000  1.0
  C  C57  1  0.73546000  0.74307000  0.25605000  1.0
  C  C58  1  0.33969000  0.08337000  0.59359000  1.0
  C  C59  1  0.01428000  0.77586000  0.41791000  1.0
  C  C60  1  0.03083000  0.05614000  0.28612000  1.0
  C  C61  1  0.73490000  0.06111000  0.57623000  1.0
  C  C62  1  0.68013000  0.07207000  0.59120000  1.0
  C  C63  1  0.61730000  0.08112000  0.60267000  1.0
  C  C64  1  0.55510000  0.08614000  0.60736000  1.0
  C  C65  1  0.48526000  0.08880000  0.60769000  1.0
  C  C66  1  0.41844000  0.08903000  0.60311000  1.0
  C  C67  1  0.10514000  0.56544000  0.39330000  1.0
  C  C68  1  0.03306000  0.57473000  0.35437000  1.0
  C  C69  1  0.95385000  0.50400000  0.30762000  1.0
  C  C70  1  0.94552000  0.43176000  0.30783000  1.0
  C  C71  1  0.01664000  0.42623000  0.35497000  1.0
  C  C72  1  0.09732000  0.49318000  0.39428000  1.0
  C  C73  1  0.03289000  0.64850000  0.36594000  1.0
  C  C74  1  0.00658000  0.35834000  0.36866000  1.0
  C  C75  1  0.99866000  0.30510000  0.38947000  1.0
  C  C76  1  0.02184000  0.70757000  0.38431000  1.0
  C  C77  1  0.50856000  0.39407000  0.98391000  1.0
  C  C78  1  0.45837000  0.40692000  0.92280000  1.0
  C  C79  1  0.48652000  0.48411000  0.92596000  1.0
  C  C80  1  0.55695000  0.54923000  0.99118000  1.0
  C  C81  1  0.60231000  0.54032000  0.05688000  1.0
  C  C82  1  0.57880000  0.46162000  0.04926000  1.0
  C  C83  1  0.37967000  0.34467000  0.85994000  1.0
  C  C84  1  0.65953000  0.60907000  0.12855000  1.0
  C  C85  1  0.69574000  0.67123000  0.18837000  1.0
  C  C86  1  0.30815000  0.29430000  0.80821000  1.0
  C  C87  1  0.94352000  0.07425000  0.04116000  1.0
  C  C88  1  0.02283000  0.09264000  0.10148000  1.0
  C  C89  1  0.08846000  0.09604000  0.08090000  1.0
  C  C90  1  0.07255000  0.07153000  0.00418000  1.0
  C  C91  1  0.98926000  0.04160000  0.94324000  1.0
  C  C92  1  0.92608000  0.04717000  0.96343000  1.0
  C  C93  1  0.03487000  0.09564000  0.17461000  1.0
  C  C94  1  0.97264000  0.00452000  0.86529000  1.0
  C  C95  1  0.96606000  0.97000000  0.80122000  1.0
  C  C96  1  0.04216000  0.07953000  0.22993000  1.0
  C  C97  1  0.86731000  0.97972000  0.21056000  1.0
  C  C98  1  0.85853000  0.93633000  0.13721000  1.0
  C  C99  1  0.78308000  0.90566000  0.06907000  1.0
  C  C100  1  0.71481000  0.91736000  0.07281000  1.0
  C  C101  1  0.72236000  0.95942000  0.14521000  1.0
  C  C102  1  0.79825000  0.99080000  0.21353000  1.0
  C  C103  1  0.48808000  0.31170000  0.97553000  1.0
  C  C104  1  0.54761000  0.28323000  0.97577000  1.0
  C  C105  1  0.52723000  0.20431000  0.96308000  1.0
  C  C106  1  0.44736000  0.15308000  0.95015000  1.0
  C  C107  1  0.38811000  0.18124000  0.95063000  1.0
  C  C108  1  0.40830000  0.26003000  0.96324000  1.0
  C  C109  1  0.71613000  0.69803000  0.36133000  1.0
  C  C110  1  0.71000000  0.62150000  0.33020000  1.0
  C  C111  1  0.68429000  0.56751000  0.35971000  1.0
  C  C112  1  0.66490000  0.58910000  0.42093000  1.0
  C  C113  1  0.67073000  0.66498000  0.45227000  1.0
  C  C114  1  0.69573000  0.71897000  0.42257000  1.0
  N  N115  1  0.91654000  0.88599000  0.59788000  1.0
  N  N116  1  0.01603000  0.16728000  0.47406000  1.0
  N  N117  1  0.12835000  0.10388000  0.66371000  1.0
  N  N118  1  0.85168000  0.01206000  0.47640000  1.0
  N  N119  1  0.11881000  0.15046000  0.62531000  1.0
  N  N120  1  0.87988000  0.99340000  0.53557000  1.0
  N  N121  1  0.93158000  0.13275000  0.42809000  1.0
  N  N122  1  0.00206000  0.92082000  0.63206000  1.0
  N  N123  1  0.78509000  0.83557000  0.37827000  1.0
  N  N124  1  0.21599000  0.09364000  0.55470000  1.0
  N  N125  1  0.04553000  0.89616000  0.50395000  1.0
  N  N126  1  0.96118000  0.01129000  0.34839000  1.0
  N  N127  1  0.04741000  0.04769000  0.39850000  1.0
  N  N128  1  0.95879000  0.85313000  0.46154000  1.0
  N  N129  1  0.80329000  0.87516000  0.33532000  1.0
  N  N130  1  0.21004000  0.04135000  0.58696000  1.0
  N  N131  1  0.32590000  0.17656000  0.53174000  1.0
  N  N132  1  0.19140000  0.63362000  0.43847000  1.0
  N  N133  1  0.14087000  0.27762000  0.50450000  1.0
  N  N134  1  0.62837000  0.45258000  0.11739000  1.0
  N  N135  1  0.87590000  0.08213000  0.05892000  1.0
  N  N136  1  0.74882000  0.05157000  0.42075000  1.0
  N  N137  1  0.11942000  0.98752000  0.75753000  1.0
  O  O138  1  0.40429000  0.21175000  0.55832000  1.0
  O  O139  1  0.27388000  0.18643000  0.48301000  1.0
  O  O140  1  0.25205000  0.61988000  0.46616000  1.0
  O  O141  1  0.19871000  0.70072000  0.44612000  1.0
  O  O142  1  0.17627000  0.34299000  0.50560000  1.0
  O  O143  1  0.18253000  0.24572000  0.53699000  1.0
  O  O144  1  0.70592000  0.47805000  0.13962000  1.0
  O  O145  1  0.58981000  0.42195000  0.14859000  1.0
  O  O146  1  0.80379000  0.05285000  0.00292000  1.0
  O  O147  1  0.89526000  0.11905000  0.12822000  1.0
  O  O148  1  0.70260000  0.08232000  0.42822000  1.0
  O  O149  1  0.75424000  0.02665000  0.35817000  1.0
  O  O150  1  0.14954000  0.01504000  0.82936000  1.0
  O  O151  1  0.16580000  0.99061000  0.72330000  1.0
