# generated using pymatgen
data_CoH14C23S2(N2O3)2
_symmetry_space_group_name_H-M   'P 1'
_cell_length_a   9.29301000
_cell_length_b   9.98125000
_cell_length_c   12.69550000
_cell_angle_alpha   84.70350000
_cell_angle_beta   80.34680000
_cell_angle_gamma   71.38310000
_symmetry_Int_Tables_number   1
_chemical_formula_structural   CoH14C23S2(N2O3)2
_chemical_formula_sum   'Co2 H28 C46 S4 N8 O12'
_cell_volume   1099.21483664
_cell_formula_units_Z   2
loop_
 _symmetry_equiv_pos_site_id
 _symmetry_equiv_pos_as_xyz
  1  'x, y, z'
loop_
 _atom_site_type_symbol
 _atom_site_label
 _atom_site_symmetry_multiplicity
 _atom_site_fract_x
 _atom_site_fract_y
 _atom_site_fract_z
 _atom_site_occupancy
  Co  Co0  1  0.99298000  0.81371000  0.09784000  1.0
  Co  Co1  1  0.00702000  0.18628000  0.90217000  1.0
  H  H2  1  0.99908000  0.47553000  0.39844000  1.0
  H  H3  1  0.00093000  0.52447000  0.60156000  1.0
  H  H4  1  0.06197000  0.03935000  0.34896000  1.0
  H  H5  1  0.93802000  0.96065000  0.65104000  1.0
  H  H6  1  0.08268000  0.33167000  0.07799000  1.0
  H  H7  1  0.91732000  0.66833000  0.92201000  1.0
  H  H8  1  0.84768000  0.01248000  0.29943000  1.0
  H  H9  1  0.15232000  0.98752000  0.70058000  1.0
  H  H10  1  0.62363000  0.82718000  0.12022000  1.0
  H  H11  1  0.37637000  0.17282000  0.87979000  1.0
  H  H12  1  0.40397000  0.00496000  0.26599000  1.0
  H  H13  1  0.59603000  0.99504000  0.73401000  1.0
  H  H14  1  0.32810000  0.26607000  0.32659000  1.0
  H  H15  1  0.67189000  0.73394000  0.67341000  1.0
  H  H16  1  0.27218000  0.42733000  0.49004000  1.0
  H  H17  1  0.72781000  0.57267000  0.50995000  1.0
  H  H18  1  0.72515000  0.22871000  0.67635000  1.0
  H  H19  1  0.27485000  0.77128000  0.32365000  1.0
  H  H20  1  0.66748000  0.37960000  0.84483000  1.0
  H  H21  1  0.33252000  0.62040000  0.15517000  1.0
  H  H22  1  0.54232000  0.71304000  0.85331000  1.0
  H  H23  1  0.45769000  0.28695000  0.14668000  1.0
  H  H24  1  0.17316000  0.54297000  0.94034000  1.0
  H  H25  1  0.82685000  0.45702000  0.05966000  1.0
  H  H26  1  0.32369000  0.87936000  0.00618000  1.0
  H  H27  1  0.67632000  0.12064000  0.99382000  1.0
  H  H28  1  0.94277000  0.33133000  0.63741000  1.0
  H  H29  1  0.05724000  0.66867000  0.36259000  1.0
  C  C30  1  0.02168000  0.56704000  0.18943000  1.0
  C  C31  1  0.97833000  0.43296000  0.81057000  1.0
  C  C32  1  0.04162000  0.41953000  0.23338000  1.0
  C  C33  1  0.95839000  0.58047000  0.76663000  1.0
  C  C34  1  0.02244000  0.39121000  0.34376000  1.0
  C  C35  1  0.97756000  0.60879000  0.65624000  1.0
  C  C36  1  0.03119000  0.25465000  0.38519000  1.0
  C  C37  1  0.96881000  0.74535000  0.61481000  1.0
  C  C38  1  0.01152000  0.22660000  0.50345000  1.0
  C  C39  1  0.98849000  0.77339000  0.49655000  1.0
  C  C40  1  0.05887000  0.14490000  0.31596000  1.0
  C  C41  1  0.94113000  0.85510000  0.68405000  1.0
  C  C42  1  0.07652000  0.17295000  0.20500000  1.0
  C  C43  1  0.92347000  0.82705000  0.79500000  1.0
  C  C44  1  0.08861000  0.06199000  0.12890000  1.0
  C  C45  1  0.91138000  0.93801000  0.87110000  1.0
  C  C46  1  0.06977000  0.30992000  0.16412000  1.0
  C  C47  1  0.93024000  0.69008000  0.83588000  1.0
  C  C48  1  0.75902000  0.98664000  0.26805000  1.0
  C  C49  1  0.24098000  0.01336000  0.73195000  1.0
  C  C50  1  0.63762000  0.89400000  0.17788000  1.0
  C  C51  1  0.36237000  0.10599000  0.82212000  1.0
  C  C52  1  0.52742000  0.98147000  0.24874000  1.0
  C  C53  1  0.47258000  0.01853000  0.75126000  1.0
  C  C54  1  0.54117000  0.14222000  0.38379000  1.0
  C  C55  1  0.45882000  0.85778000  0.61621000  1.0
  C  C56  1  0.40349000  0.24915000  0.38665000  1.0
  C  C57  1  0.59650000  0.75085000  0.61335000  1.0
  C  C58  1  0.37335000  0.33505000  0.47539000  1.0
  C  C59  1  0.62665000  0.66496000  0.52461000  1.0
  C  C60  1  0.48881000  0.29323000  0.53908000  1.0
  C  C61  1  0.51119000  0.70678000  0.46092000  1.0
  C  C62  1  0.50057000  0.35447000  0.63462000  1.0
  C  C63  1  0.49943000  0.64553000  0.36538000  1.0
  C  C64  1  0.61921000  0.31473000  0.69576000  1.0
  C  C65  1  0.38079000  0.68527000  0.30424000  1.0
  C  C66  1  0.58841000  0.39531000  0.78752000  1.0
  C  C67  1  0.41159000  0.60469000  0.21248000  1.0
  C  C68  1  0.44596000  0.49539000  0.79606000  1.0
  C  C69  1  0.55405000  0.50461000  0.20394000  1.0
  C  C70  1  0.43422000  0.70412000  0.89540000  1.0
  C  C71  1  0.56578000  0.29589000  0.10460000  1.0
  C  C72  1  0.24064000  0.61432000  0.93906000  1.0
  C  C73  1  0.75936000  0.38569000  0.06094000  1.0
  C  C74  1  0.32580000  0.78387000  0.97113000  1.0
  C  C75  1  0.67421000  0.21613000  0.02887000  1.0
  S  S76  1  0.63469000  0.14470000  0.49017000  1.0
  S  S77  1  0.36531000  0.85531000  0.50983000  1.0
  S  S78  1  0.35030000  0.49403000  0.69056000  1.0
  S  S79  1  0.64970000  0.50597000  0.30943000  1.0
  N  N80  1  0.78097000  0.89843000  0.19075000  1.0
  N  N81  1  0.21902000  0.10157000  0.80925000  1.0
  N  N82  1  0.60615000  0.04007000  0.30606000  1.0
  N  N83  1  0.39384000  0.95993000  0.69394000  1.0
  N  N84  1  0.37882000  0.59661000  0.87490000  1.0
  N  N85  1  0.62118000  0.40339000  0.12509000  1.0
  N  N86  1  0.20562000  0.72734000  0.99775000  1.0
  N  N87  1  0.79438000  0.27266000  0.00225000  1.0
  O  O88  1  0.97332000  0.60317000  0.09962000  1.0
  O  O89  1  0.02670000  0.39682000  0.90038000  1.0
  O  O90  1  0.05356000  0.65705000  0.23965000  1.0
  O  O91  1  0.94645000  0.34295000  0.76035000  1.0
  O  O92  1  0.94191000  0.34553000  0.55666000  1.0
  O  O93  1  0.05810000  0.65447000  0.44335000  1.0
  O  O94  1  0.05487000  0.10818000  0.54634000  1.0
  O  O95  1  0.94513000  0.89183000  0.45366000  1.0
  O  O96  1  0.08030000  0.94217000  0.16859000  1.0
  O  O97  1  0.91969000  0.05783000  0.83142000  1.0
  O  O98  1  0.10500000  0.09322000  0.02889000  1.0
  O  O99  1  0.89499000  0.90678000  0.97112000  1.0
