# generated using pymatgen
data_CdH14C16(NO3)2
_symmetry_space_group_name_H-M   'P 1'
_cell_length_a   7.97900000
_cell_length_b   10.30300000
_cell_length_c   11.96970000
_cell_angle_alpha   89.44500000
_cell_angle_beta   77.35000000
_cell_angle_gamma   72.82400000
_symmetry_Int_Tables_number   1
_chemical_formula_structural   CdH14C16(NO3)2
_chemical_formula_sum   'Cd2 H28 C32 N4 O12'
_cell_volume   915.69904863
_cell_formula_units_Z   2
loop_
 _symmetry_equiv_pos_site_id
 _symmetry_equiv_pos_as_xyz
  1  'x, y, z'
loop_
 _atom_site_type_symbol
 _atom_site_label
 _atom_site_symmetry_multiplicity
 _atom_site_fract_x
 _atom_site_fract_y
 _atom_site_fract_z
 _atom_site_occupancy
  Cd  Cd0  1  0.21524000  0.88253000  0.51841000  1.0
  Cd  Cd1  1  0.78476000  0.11748000  0.48159000  1.0
  H  H2  1  0.56423000  0.81483000  0.56141000  1.0
  H  H3  1  0.43577000  0.18518000  0.43859000  1.0
  H  H4  1  0.46256000  0.70318000  0.59700000  1.0
  H  H5  1  0.53744000  0.29683000  0.40300000  1.0
  H  H6  1  0.77285000  0.64642000  0.17782000  1.0
  H  H7  1  0.22716000  0.35357000  0.82218000  1.0
  H  H8  1  0.26121000  0.05948000  0.30766000  1.0
  H  H9  1  0.73878000  0.94051000  0.69233000  1.0
  H  H10  1  0.83349000  0.67561000  0.77506000  1.0
  H  H11  1  0.16651000  0.32440000  0.22493000  1.0
  H  H12  1  0.48169000  0.06185000  0.12569000  1.0
  H  H13  1  0.51830000  0.93814000  0.87430000  1.0
  H  H14  1  0.68722000  0.49753000  0.84044000  1.0
  H  H15  1  0.31277000  0.50247000  0.15955000  1.0
  H  H16  1  0.53727000  0.66147000  0.35856000  1.0
  H  H17  1  0.46274000  0.33852000  0.64145000  1.0
  H  H18  1  0.81649000  0.26305000  0.74520000  1.0
  H  H19  1  0.18352000  0.73695000  0.25480000  1.0
  H  H20  1  0.23718000  0.38861000  0.52484000  1.0
  H  H21  1  0.76282000  0.61140000  0.47516000  1.0
  H  H22  1  0.17637000  0.82923000  0.91356000  1.0
  H  H23  1  0.82363000  0.17077000  0.08644000  1.0
  H  H24  1  0.99711000  0.85242000  0.84116000  1.0
  H  H25  1  0.00289000  0.14758000  0.15884000  1.0
  H  H26  1  0.84712000  0.96339000  0.19291000  1.0
  H  H27  1  0.15287000  0.03662000  0.80709000  1.0
  H  H28  1  0.08182000  0.89893000  0.13168000  1.0
  H  H29  1  0.91817000  0.10107000  0.86832000  1.0
  C  C30  1  0.77592000  0.84580000  0.02433000  1.0
  C  C31  1  0.22409000  0.15419000  0.97568000  1.0
  C  C32  1  0.66143000  0.73957000  0.20346000  1.0
  C  C33  1  0.33857000  0.26042000  0.79655000  1.0
  C  C34  1  0.64725000  0.85397000  0.13811000  1.0
  C  C35  1  0.35274000  0.14603000  0.86190000  1.0
  C  C36  1  0.12995000  0.64996000  0.60192000  1.0
  C  C37  1  0.87005000  0.35005000  0.39807000  1.0
  C  C38  1  0.37703000  0.97045000  0.27597000  1.0
  C  C39  1  0.62297000  0.02955000  0.72403000  1.0
  C  C40  1  0.88876000  0.57347000  0.73416000  1.0
  C  C41  1  0.11123000  0.42653000  0.26583000  1.0
  C  C42  1  0.50144000  0.97097000  0.17466000  1.0
  C  C43  1  0.49857000  0.02903000  0.82534000  1.0
  C  C44  1  0.80786000  0.47281000  0.77106000  1.0
  C  C45  1  0.19214000  0.52719000  0.22893000  1.0
  C  C46  1  0.53191000  0.74748000  0.30406000  1.0
  C  C47  1  0.46808000  0.25251000  0.69595000  1.0
  C  C48  1  0.04413000  0.54242000  0.64530000  1.0
  C  C49  1  0.95587000  0.45758000  0.35470000  1.0
  C  C50  1  0.88023000  0.34182000  0.71903000  1.0
  C  C51  1  0.11977000  0.65818000  0.28096000  1.0
  C  C52  1  0.11936000  0.16738000  0.57975000  1.0
  C  C53  1  0.88065000  0.83262000  0.42025000  1.0
  C  C54  1  0.11780000  0.41044000  0.59455000  1.0
  C  C55  1  0.88221000  0.58956000  0.40545000  1.0
  C  C56  1  0.03728000  0.30935000  0.63107000  1.0
  C  C57  1  0.96273000  0.69065000  0.36892000  1.0
  C  C58  1  0.04134000  0.89508000  0.90908000  1.0
  C  C59  1  0.95866000  0.10493000  0.09092000  1.0
  C  C60  1  0.95162000  0.96061000  0.11583000  1.0
  C  C61  1  0.04838000  0.03940000  0.88418000  1.0
  N  N62  1  0.39393000  0.86113000  0.34005000  1.0
  N  N63  1  0.60606000  0.13886000  0.65995000  1.0
  N  N64  1  0.91570000  0.89709000  0.01862000  1.0
  N  N65  1  0.08429000  0.10291000  0.98138000  1.0
  O  O66  1  0.27942000  0.12679000  0.52108000  1.0
  O  O67  1  0.72059000  0.87321000  0.47891000  1.0
  O  O68  1  0.74670000  0.79301000  0.94043000  1.0
  O  O69  1  0.25332000  0.20698000  0.05958000  1.0
  O  O70  1  0.28412000  0.61582000  0.53414000  1.0
  O  O71  1  0.71588000  0.38419000  0.46586000  1.0
  O  O72  1  0.03887000  0.77447000  0.63469000  1.0
  O  O73  1  0.96112000  0.22553000  0.36531000  1.0
  O  O74  1  0.02145000  0.08571000  0.60127000  1.0
  O  O75  1  0.97855000  0.91429000  0.39873000  1.0
  O  O76  1  0.45485000  0.79849000  0.61149000  1.0
  O  O77  1  0.54515000  0.20152000  0.38852000  1.0
