# generated using pymatgen
data_LaP4H20Ru2(CO5)4
_symmetry_space_group_name_H-M   'P 1'
_cell_length_a   9.78132000
_cell_length_b   9.78137000
_cell_length_c   14.74880000
_cell_angle_alpha   94.23930000
_cell_angle_beta   94.23470000
_cell_angle_gamma   98.75410000
_symmetry_Int_Tables_number   1
_chemical_formula_structural   LaP4H20Ru2(CO5)4
_chemical_formula_sum   'La2 P8 H40 Ru4 C8 O40'
_cell_volume   1385.64035836
_cell_formula_units_Z   2
loop_
 _symmetry_equiv_pos_site_id
 _symmetry_equiv_pos_as_xyz
  1  'x, y, z'
loop_
 _atom_site_type_symbol
 _atom_site_label
 _atom_site_symmetry_multiplicity
 _atom_site_fract_x
 _atom_site_fract_y
 _atom_site_fract_z
 _atom_site_occupancy
  La  La0  1  0.99489000  0.00976000  0.74409000  1.0
  La  La1  1  0.00977000  0.99491000  0.24409000  1.0
  P  P2  1  0.06662000  0.34965000  0.64536000  1.0
  P  P3  1  0.65858000  0.93950000  0.85812000  1.0
  P  P4  1  0.93950000  0.65860000  0.35813000  1.0
  P  P5  1  0.34970000  0.06665000  0.14540000  1.0
  P  P6  1  0.01125000  0.64818000  0.67259000  1.0
  P  P7  1  0.35794000  0.99593000  0.83301000  1.0
  P  P8  1  0.99589000  0.35795000  0.33297000  1.0
  P  P9  1  0.64821000  0.01125000  0.17259000  1.0
  H  H10  1  0.18741000  0.43640000  0.83542000  1.0
  H  H11  1  0.56754000  0.81999000  0.66828000  1.0
  H  H12  1  0.81998000  0.56763000  0.16828000  1.0
  H  H13  1  0.43644000  0.18743000  0.33545000  1.0
  H  H14  1  0.16570000  0.61752000  0.84521000  1.0
  H  H15  1  0.38675000  0.84357000  0.65963000  1.0
  H  H16  1  0.84352000  0.38681000  0.15961000  1.0
  H  H17  1  0.61756000  0.16572000  0.34524000  1.0
  H  H18  1  0.26930000  0.55450000  0.76195000  1.0
  H  H19  1  0.44986000  0.73826000  0.74198000  1.0
  H  H20  1  0.73822000  0.44995000  0.24197000  1.0
  H  H21  1  0.55454000  0.26934000  0.26200000  1.0
  H  H22  1  0.84647000  0.45130000  0.73775000  1.0
  H  H23  1  0.55149000  0.16088000  0.76766000  1.0
  H  H24  1  0.16087000  0.55149000  0.26764000  1.0
  H  H25  1  0.45133000  0.84647000  0.23776000  1.0
  H  H26  1  0.38445000  0.51141000  0.53999000  1.0
  H  H27  1  0.49505000  0.61666000  0.96784000  1.0
  H  H28  1  0.61671000  0.49509000  0.46778000  1.0
  H  H29  1  0.51142000  0.38439000  0.04004000  1.0
  H  H30  1  0.82294000  0.16351000  0.61527000  1.0
  H  H31  1  0.85032000  0.17566000  0.88568000  1.0
  H  H32  1  0.17568000  0.85032000  0.38568000  1.0
  H  H33  1  0.16355000  0.82297000  0.11529000  1.0
  H  H34  1  0.13857000  0.90301000  0.92452000  1.0
  H  H35  1  0.07562000  0.86189000  0.56332000  1.0
  H  H36  1  0.86194000  0.07559000  0.06332000  1.0
  H  H37  1  0.90307000  0.13859000  0.42454000  1.0
  H  H38  1  0.40514000  0.67231000  0.55274000  1.0
  H  H39  1  0.33450000  0.59994000  0.95353000  1.0
  H  H40  1  0.59993000  0.33453000  0.45348000  1.0
  H  H41  1  0.67232000  0.40519000  0.05274000  1.0
  H  H42  1  0.70571000  0.08072000  0.67013000  1.0
  H  H43  1  0.93231000  0.29364000  0.83176000  1.0
  H  H44  1  0.29369000  0.93231000  0.33178000  1.0
  H  H45  1  0.08074000  0.70572000  0.17013000  1.0
  H  H46  1  0.98269000  0.83596000  0.90116000  1.0
  H  H47  1  0.99790000  0.97913000  0.52156000  1.0
  H  H48  1  0.97910000  0.99772000  0.02154000  1.0
  H  H49  1  0.83605000  0.98269000  0.40120000  1.0
  Ru  Ru50  1  0.12119000  0.54381000  0.49917000  1.0
  Ru  Ru51  1  0.46559000  0.88463000  0.00533000  1.0
  Ru  Ru52  1  0.88463000  0.46558000  0.50531000  1.0
  Ru  Ru53  1  0.54384000  0.12119000  0.99918000  1.0
  C  C54  1  0.04890000  0.49460000  0.72974000  1.0
  C  C55  1  0.51136000  0.95816000  0.77502000  1.0
  C  C56  1  0.95815000  0.51139000  0.27501000  1.0
  C  C57  1  0.49464000  0.04891000  0.22976000  1.0
  C  C58  1  0.17608000  0.52790000  0.79814000  1.0
  C  C59  1  0.47659000  0.83174000  0.70606000  1.0
  C  C60  1  0.83171000  0.47667000  0.20605000  1.0
  C  C61  1  0.52794000  0.17610000  0.29816000  1.0
  O  O62  1  0.18053000  0.40282000  0.58265000  1.0
  O  O63  1  0.60616000  0.82512000  0.92076000  1.0
  O  O64  1  0.82511000  0.60616000  0.42076000  1.0
  O  O65  1  0.40287000  0.18056000  0.08268000  1.0
  O  O66  1  0.92107000  0.31529000  0.58833000  1.0
  O  O67  1  0.69469000  0.08437000  0.91610000  1.0
  O  O68  1  0.08436000  0.69470000  0.41612000  1.0
  O  O69  1  0.31531000  0.92110000  0.08837000  1.0
  O  O70  1  0.09803000  0.22908000  0.69633000  1.0
  O  O71  1  0.77928000  0.90813000  0.80669000  1.0
  O  O72  1  0.90814000  0.77931000  0.30671000  1.0
  O  O73  1  0.22913000  0.09809000  0.19637000  1.0
  O  O74  1  0.12860000  0.68727000  0.60796000  1.0
  O  O75  1  0.31870000  0.87887000  0.89817000  1.0
  O  O76  1  0.87884000  0.31871000  0.39815000  1.0
  O  O77  1  0.68731000  0.12859000  0.10795000  1.0
  O  O78  1  0.86900000  0.59778000  0.61567000  1.0
  O  O79  1  0.41096000  0.13795000  0.88963000  1.0
  O  O80  1  0.13792000  0.41095000  0.38960000  1.0
  O  O81  1  0.59779000  0.86900000  0.11568000  1.0
  O  O82  1  0.00347000  0.76337000  0.74474000  1.0
  O  O83  1  0.24031000  0.00420000  0.76320000  1.0
  O  O84  1  0.00413000  0.24032000  0.26313000  1.0
  O  O85  1  0.76339000  0.00346000  0.24474000  1.0
  O  O86  1  0.92885000  0.45003000  0.77954000  1.0
  O  O87  1  0.55465000  0.07906000  0.72581000  1.0
  O  O88  1  0.07904000  0.55467000  0.22580000  1.0
  O  O89  1  0.45009000  0.92887000  0.27954000  1.0
  O  O90  1  0.37492000  0.59363000  0.50734000  1.0
  O  O91  1  0.41290000  0.63258000  0.99875000  1.0
  O  O92  1  0.63254000  0.41294000  0.49871000  1.0
  O  O93  1  0.59363000  0.37496000  0.00735000  1.0
  O  O94  1  0.79431000  0.07507000  0.64254000  1.0
  O  O95  1  0.93643000  0.20209000  0.85550000  1.0
  O  O96  1  0.20213000  0.93643000  0.35550000  1.0
  O  O97  1  0.07510000  0.79433000  0.14255000  1.0
  O  O98  1  0.04256000  0.92465000  0.91958000  1.0
  O  O99  1  0.03096000  0.94271000  0.57866000  1.0
  O  O100  1  0.94274000  0.03089000  0.07865000  1.0
  O  O101  1  0.92474000  0.04259000  0.41958000  1.0
