# generated using pymatgen
data_ZnH18C36(NO5)2
_symmetry_space_group_name_H-M   'P 1'
_cell_length_a   9.72736000
_cell_length_b   10.84990000
_cell_length_c   27.82930000
_cell_angle_alpha   90.87160000
_cell_angle_beta   90.78890000
_cell_angle_gamma   93.03730000
_symmetry_Int_Tables_number   1
_chemical_formula_structural   ZnH18C36(NO5)2
_chemical_formula_sum   'Zn2 H36 C72 N4 O20'
_cell_volume   2932.35117743
_cell_formula_units_Z   2
loop_
 _symmetry_equiv_pos_site_id
 _symmetry_equiv_pos_as_xyz
  1  'x, y, z'
loop_
 _atom_site_type_symbol
 _atom_site_label
 _atom_site_symmetry_multiplicity
 _atom_site_fract_x
 _atom_site_fract_y
 _atom_site_fract_z
 _atom_site_occupancy
  Zn  Zn0  1  0.37768000  0.47415000  0.49899000  1.0
  Zn  Zn1  1  0.66589000  0.49658000  0.49703000  1.0
  H  H2  1  0.31798000  0.75037000  0.87147000  1.0
  H  H3  1  0.63718000  0.75409000  0.26923000  1.0
  H  H4  1  0.33333333  0.77928000  0.96031000  1.0
  H  H5  1  0.73093000  0.55154000  0.64888000  1.0
  H  H6  1  0.76586000  0.30029000  0.88200000  1.0
  H  H7  1  0.67592000  0.29510000  0.12832000  1.0
  H  H8  1  0.77623000  0.31959000  0.97139000  1.0
  H  H9  1  0.73486000  0.09954000  0.51438000  1.0
  H  H10  1  0.43080000  0.07317000  0.48143000  1.0
  H  H11  1  0.70410000  0.86778000  0.49952000  1.0
  H  H12  1  0.13785000  0.55454000  0.50889000  1.0
  H  H13  1  0.87303000  0.36820000  0.55060000  1.0
  H  H14  1  0.93545000  0.53728000  0.47212000  1.0
  H  H15  1  0.32419000  0.26520000  0.62385000  1.0
  H  H16  1  0.84118000  0.63409000  0.71438000  1.0
  H  H17  1  0.59581000  0.21199000  0.00146000  1.0
  H  H18  1  0.25968000  0.33685000  0.31982000  1.0
  H  H19  1  0.48853000  0.23661000  0.26935000  1.0
  H  H20  1  0.37861000  0.07593000  0.21449000  1.0
  H  H21  1  0.21398000  0.13458000  0.15108000  1.0
  H  H22  1  0.15085000  0.35431000  0.14467000  1.0
  H  H23  1  0.25774000  0.51416000  0.20028000  1.0
  H  H24  1  0.16362000  0.52882000  0.73544000  1.0
  H  H25  1  0.97506000  0.44938000  0.78815000  1.0
  H  H26  1  0.00061000  0.25589000  0.83339000  1.0
  H  H27  1  0.21679000  0.14285000  0.82662000  1.0
  H  H28  1  0.40529000  0.22356000  0.77444000  1.0
  H  H29  1  0.30783000  0.83000000  0.56281000  1.0
  H  H30  1  0.99591000  0.20463000  0.57692000  1.0
  H  H31  1  0.01066000  0.97883000  0.56550000  1.0
  H  H32  1  0.11257000  0.89504000  0.49090000  1.0
  H  H33  1  0.20458000  0.03830000  0.42850000  1.0
  H  H34  1  0.19462000  0.26390000  0.44020000  1.0
  H  H35  1  0.68833000  0.83861000  0.34297000  1.0
  H  H36  1  0.51723000  0.94218000  0.15027000  1.0
  H  H37  1  0.54375000  0.97743000  0.04748000  1.0
  C  C38  1  0.51010000  0.71628000  0.52134000  1.0
  C  C39  1  0.53366000  0.44960000  0.59197000  1.0
  C  C40  1  0.54216000  0.25285000  0.48613000  1.0
  C  C41  1  0.50785000  0.53526000  0.40699000  1.0
  C  C42  1  0.45572000  0.59711000  0.81670000  1.0
  C  C43  1  0.61212000  0.42195000  0.82144000  1.0
  C  C44  1  0.64252000  0.53470000  0.71956000  1.0
  C  C45  1  0.64307000  0.51757000  0.66977000  1.0
  C  C46  1  0.41434000  0.41622000  0.67105000  1.0
  C  C47  1  0.41194000  0.43027000  0.72162000  1.0
  C  C48  1  0.52698000  0.48874000  0.74482000  1.0
  C  C49  1  0.54496000  0.53106000  0.89720000  1.0
  C  C50  1  0.46193000  0.60848000  0.86989000  1.0
  C  C51  1  0.38513000  0.69511000  0.89301000  1.0
  C  C52  1  0.62060000  0.43994000  0.87421000  1.0
  C  C53  1  0.53138000  0.45831000  0.64569000  1.0
  C  C54  1  0.50517000  0.55587000  0.35326000  1.0
  C  C55  1  0.50963000  0.66685000  0.02183000  1.0
  C  C56  1  0.60984000  0.45979000  0.02716000  1.0
  C  C57  1  0.56194000  0.56883000  0.04964000  1.0
  C  C58  1  0.48842000  0.78140000  0.04551000  1.0
  C  C59  1  0.48619000  0.78763000  0.09660000  1.0
  C  C60  1  0.51621000  0.68528000  0.12380000  1.0
  C  C61  1  0.56395000  0.57878000  0.10080000  1.0
  C  C62  1  0.61260000  0.48166000  0.12871000  1.0
  C  C63  1  0.61917000  0.49228000  0.18152000  1.0
  C  C64  1  0.49402000  0.68700000  0.17607000  1.0
  C  C65  1  0.58140000  0.67353000  0.28386000  1.0
  C  C66  1  0.57013000  0.66279000  0.33376000  1.0
  C  C67  1  0.44037000  0.46767000  0.32172000  1.0
  C  C68  1  0.44622000  0.48116000  0.27129000  1.0
  C  C69  1  0.52267000  0.58327000  0.25304000  1.0
  C  C70  1  0.48462000  0.64353000  0.97087000  1.0
  C  C71  1  0.55191000  0.54480000  0.94819000  1.0
  C  C72  1  0.62533000  0.45876000  0.97542000  1.0
  C  C73  1  0.39609000  0.71244000  0.94296000  1.0
  C  C74  1  0.70458000  0.36624000  0.90095000  1.0
  C  C75  1  0.64037000  0.35829000  0.05631000  1.0
  C  C76  1  0.64748000  0.37289000  0.10662000  1.0
  C  C77  1  0.70735000  0.37596000  0.95106000  1.0
  C  C78  1  0.63377000  0.05268000  0.50789000  1.0
  C  C79  1  0.53105000  0.11773000  0.49033000  1.0
  C  C80  1  0.62017000  0.92079000  0.51339000  1.0
  C  C81  1  0.51131000  0.85247000  0.53098000  1.0
  C  C82  1  0.07647000  0.38242000  0.51370000  1.0
  C  C83  1  0.93413000  0.41776000  0.52357000  1.0
  C  C84  1  0.29649000  0.34981000  0.64381000  1.0
  C  C85  1  0.76476000  0.60120000  0.74160000  1.0
  C  C86  1  0.64486000  0.23015000  0.03745000  1.0
  C  C87  1  0.35748000  0.35922000  0.34026000  1.0
  C  C88  1  0.37987000  0.38585000  0.23867000  1.0
  C  C89  1  0.41266000  0.26171000  0.24250000  1.0
  C  C90  1  0.35242000  0.17206000  0.21126000  1.0
  C  C91  1  0.25879000  0.20505000  0.17578000  1.0
  C  C92  1  0.22516000  0.32825000  0.17191000  1.0
  C  C93  1  0.28556000  0.41833000  0.20296000  1.0
  C  C94  1  0.29577000  0.38093000  0.75137000  1.0
  C  C95  1  0.17438000  0.44417000  0.75540000  1.0
  C  C96  1  0.06903000  0.39949000  0.78506000  1.0
  C  C97  1  0.08396000  0.29119000  0.81073000  1.0
  C  C98  1  0.20472000  0.22774000  0.80685000  1.0
  C  C99  1  0.31061000  0.27261000  0.77743000  1.0
  C  C100  1  0.39610000  0.89893000  0.55931000  1.0
  C  C101  1  0.09263000  0.24901000  0.50895000  1.0
  C  C102  1  0.03888000  0.16804000  0.54400000  1.0
  C  C103  1  0.04834000  0.04129000  0.53773000  1.0
  C  C104  1  0.10661000  0.99453000  0.49600000  1.0
  C  C105  1  0.15867000  0.07458000  0.46098000  1.0
  C  C106  1  0.15330000  0.20178000  0.46744000  1.0
  C  C107  1  0.62458000  0.76904000  0.36351000  1.0
  C  C108  1  0.44711000  0.90514000  0.12107000  1.0
  C  C109  1  0.50404000  0.90397000  0.02186000  1.0
  N  N110  1  0.52764000  0.50072000  0.79638000  1.0
  N  N111  1  0.54578000  0.58963000  0.20210000  1.0
  N  N112  1  0.17083000  0.46672000  0.50486000  1.0
  N  N113  1  0.87549000  0.49871000  0.49861000  1.0
  O  O114  1  0.39394000  0.65604000  0.52221000  1.0
  O  O115  1  0.62504000  0.67153000  0.51198000  1.0
  O  O116  1  0.41714000  0.42875000  0.57109000  1.0
  O  O117  1  0.64909000  0.46735000  0.57186000  1.0
  O  O118  1  0.42772000  0.30371000  0.48092000  1.0
  O  O119  1  0.65996000  0.30932000  0.48999000  1.0
  O  O120  1  0.39454000  0.53747000  0.42873000  1.0
  O  O121  1  0.62565000  0.51537000  0.42435000  1.0
  O  O122  1  0.39265000  0.66709000  0.79126000  1.0
  O  O123  1  0.43189000  0.76944000  0.19628000  1.0
  O  O124  1  0.67305000  0.34151000  0.80018000  1.0
  O  O125  1  0.67907000  0.42079000  0.20714000  1.0
  O  O126  1  0.17755000  0.38111000  0.64546000  1.0
  O  O127  1  0.78710000  0.62110000  0.78456000  1.0
  O  O128  1  0.68964000  0.14494000  0.06062000  1.0
  O  O129  1  0.38976000  0.29828000  0.37480000  1.0
  O  O130  1  0.39603000  0.99949000  0.58010000  1.0
  O  O131  1  0.60170000  0.78563000  0.40614000  1.0
  O  O132  1  0.34646000  0.95980000  0.10802000  1.0
  O  O133  1  0.49214000  0.92904000  0.97928000  1.0
