# generated using pymatgen
data_Mn2H10C8O13
_symmetry_space_group_name_H-M   'P 1'
_cell_length_a   7.53455000
_cell_length_b   8.86759000
_cell_length_c   10.82040000
_cell_angle_alpha   89.98270000
_cell_angle_beta   89.98680000
_cell_angle_gamma   95.75690000
_symmetry_Int_Tables_number   1
_chemical_formula_structural   Mn2H10C8O13
_chemical_formula_sum   'Mn4 H20 C16 O26'
_cell_volume   719.30035572
_cell_formula_units_Z   2
loop_
 _symmetry_equiv_pos_site_id
 _symmetry_equiv_pos_as_xyz
  1  'x, y, z'
loop_
 _atom_site_type_symbol
 _atom_site_label
 _atom_site_symmetry_multiplicity
 _atom_site_fract_x
 _atom_site_fract_y
 _atom_site_fract_z
 _atom_site_occupancy
  Mn  Mn0  1  0.17042000  0.26450000  0.80689000  1.0
  Mn  Mn1  1  0.82987000  0.73530000  0.30685000  1.0
  Mn  Mn2  1  0.27437000  0.26358000  0.29707000  1.0
  Mn  Mn3  1  0.72547000  0.73635000  0.79709000  1.0
  H  H4  1  0.41889000  0.05167000  0.74376000  1.0
  H  H5  1  0.58078000  0.94770000  0.24386000  1.0
  H  H6  1  0.12587000  0.22169000  0.53598000  1.0
  H  H7  1  0.87432000  0.77851000  0.03605000  1.0
  H  H8  1  0.99226000  0.44493000  0.67740000  1.0
  H  H9  1  0.00808000  0.55537000  0.17738000  1.0
  H  H10  1  0.50036000  0.46247000  0.40627000  1.0
  H  H11  1  0.49993000  0.53664000  0.90620000  1.0
  H  H12  1  0.27301000  0.87486000  0.64508000  1.0
  H  H13  1  0.72580000  0.12486000  0.14500000  1.0
  H  H14  1  0.09811000  0.92059000  0.46219000  1.0
  H  H15  1  0.90146000  0.07950000  0.96219000  1.0
  H  H16  1  0.15146000  0.63825000  0.62418000  1.0
  H  H17  1  0.84925000  0.36195000  0.12435000  1.0
  H  H18  1  0.37551000  0.64873000  0.47040000  1.0
  H  H19  1  0.62574000  0.35091000  0.97049000  1.0
  H  H20  1  0.17825000  0.16118000  0.04520000  1.0
  H  H21  1  0.82134000  0.83902000  0.54506000  1.0
  H  H22  1  0.36116000  0.13120000  0.96929000  1.0
  H  H23  1  0.63851000  0.86863000  0.46904000  1.0
  C  C24  1  0.02863000  0.97005000  0.69476000  1.0
  C  C25  1  0.97068000  0.03055000  0.19473000  1.0
  C  C26  1  0.21473000  0.98280000  0.63589000  1.0
  C  C27  1  0.78457000  0.01713000  0.13587000  1.0
  C  C28  1  0.19549000  0.01140000  0.49691000  1.0
  C  C29  1  0.80405000  0.98864000  0.99691000  1.0
  C  C30  1  0.36692000  0.98727000  0.42656000  1.0
  C  C31  1  0.63270000  0.01272000  0.92647000  1.0
  C  C32  1  0.37577000  0.54762000  0.70485000  1.0
  C  C33  1  0.62467000  0.45206000  0.20501000  1.0
  C  C34  1  0.22199000  0.53624000  0.61137000  1.0
  C  C35  1  0.77847000  0.46383000  0.11149000  1.0
  C  C36  1  0.29086000  0.54047000  0.47907000  1.0
  C  C37  1  0.70980000  0.45946000  0.97920000  1.0
  C  C38  1  0.14103000  0.55253000  0.38550000  1.0
  C  C39  1  0.85984000  0.44793000  0.88567000  1.0
  O  O40  1  0.93530000  0.84140000  0.68355000  1.0
  O  O41  1  0.06334000  0.15955000  0.18351000  1.0
  O  O42  1  0.97699000  0.08621000  0.74468000  1.0
  O  O43  1  0.02293000  0.91462000  0.24465000  1.0
  O  O44  1  0.33067000  0.10121000  0.69386000  1.0
  O  O45  1  0.66904000  0.89839000  0.19383000  1.0
  O  O46  1  0.12882000  0.15247000  0.46509000  1.0
  O  O47  1  0.87072000  0.84759000  0.96509000  1.0
  O  O48  1  0.42104000  0.07634000  0.33852000  1.0
  O  O49  1  0.57858000  0.92352000  0.83858000  1.0
  O  O50  1  0.43921000  0.87129000  0.45790000  1.0
  O  O51  1  0.56046000  0.12880000  0.95757000  1.0
  O  O52  1  0.50174000  0.64979000  0.68695000  1.0
  O  O53  1  0.49876000  0.34991000  0.18691000  1.0
  O  O54  1  0.36230000  0.45785000  0.79828000  1.0
  O  O55  1  0.63812000  0.54140000  0.29867000  1.0
  O  O56  1  0.09636000  0.40545000  0.63415000  1.0
  O  O57  1  0.90383000  0.59479000  0.13429000  1.0
  O  O58  1  0.39325000  0.41670000  0.45327000  1.0
  O  O59  1  0.60672000  0.58275000  0.95326000  1.0
  O  O60  1  0.13728000  0.47146000  0.28736000  1.0
  O  O61  1  0.86307000  0.52889000  0.78744000  1.0
  O  O62  1  0.03408000  0.64925000  0.40970000  1.0
  O  O63  1  0.96731000  0.35162000  0.90988000  1.0
  O  O64  1  0.22911000  0.14356000  0.96303000  1.0
  O  O65  1  0.77052000  0.85610000  0.46278000  1.0
