# generated using pymatgen
data_ZnH9C28N2O6F5
_symmetry_space_group_name_H-M   'P 1'
_cell_length_a   12.64550000
_cell_length_b   13.33950000
_cell_length_c   23.64440000
_cell_angle_alpha   86.81160000
_cell_angle_beta   77.07930000
_cell_angle_gamma   80.74420000
_symmetry_Int_Tables_number   1
_chemical_formula_structural   ZnH9C28N2O6F5
_chemical_formula_sum   'Zn2 H18 C56 N4 O12 F10'
_cell_volume   3836.04637778
_cell_formula_units_Z   2
loop_
 _symmetry_equiv_pos_site_id
 _symmetry_equiv_pos_as_xyz
  1  'x, y, z'
loop_
 _atom_site_type_symbol
 _atom_site_label
 _atom_site_symmetry_multiplicity
 _atom_site_fract_x
 _atom_site_fract_y
 _atom_site_fract_z
 _atom_site_occupancy
  Zn  Zn0  1  0.61322000  0.51893000  0.49267000  1.0
  Zn  Zn1  1  0.39253000  0.48743000  0.51021000  1.0
  H  H2  1  0.68380000  0.56295000  0.19169000  1.0
  H  H3  1  0.39407000  0.43145000  0.34235000  1.0
  H  H4  1  0.69123000  0.56187000  0.29687000  1.0
  H  H5  1  0.67434000  0.90255000  0.48114000  1.0
  H  H6  1  0.71475000  0.68826000  0.43409000  1.0
  H  H7  1  0.10579000  0.68161000  0.39619000  1.0
  H  H8  1  0.90535000  0.73407000  0.40296000  1.0
  H  H9  1  0.29374000  0.32587000  0.57035000  1.0
  H  H10  1  0.64494000  0.50724000  0.77013000  1.0
  H  H11  1  0.29976000  0.48842000  0.81017000  1.0
  H  H12  1  0.55077000  0.82675000  0.49313000  1.0
  H  H13  1  0.76731000  0.19425000  0.49385000  1.0
  H  H14  1  0.40155000  0.26819000  0.45729000  1.0
  H  H15  1  0.81737000  0.44579000  0.53464000  1.0
  H  H16  1  0.64643000  0.50756000  0.66378000  1.0
  H  H17  1  0.30192000  0.48995000  0.70358000  1.0
  H  H18  1  0.38556000  0.43187000  0.23752000  1.0
  H  H19  1  0.52288000  0.24624000  0.06282000  1.0
  C  C20  1  0.57277000  0.30945000  0.49636000  1.0
  C  C21  1  0.47123000  0.59473000  0.87950000  1.0
  C  C22  1  0.57029000  0.50310000  0.75514000  1.0
  C  C23  1  0.47764000  0.50047000  0.61368000  1.0
  C  C24  1  0.57114000  0.50338000  0.69627000  1.0
  C  C25  1  0.47439000  0.49882000  0.67757000  1.0
  C  C26  1  0.37659000  0.49339000  0.71866000  1.0
  C  C27  1  0.37527000  0.49287000  0.77779000  1.0
  C  C28  1  0.47220000  0.49808000  0.79547000  1.0
  C  C29  1  0.45216000  0.46045000  0.25075000  1.0
  C  C30  1  0.45700000  0.45985000  0.30890000  1.0
  C  C31  1  0.51393000  0.31737000  0.03814000  1.0
  C  C32  1  0.54289000  0.49669000  0.32564000  1.0
  C  C33  1  0.62492000  0.53337000  0.28328000  1.0
  C  C34  1  0.62090000  0.53372000  0.22487000  1.0
  C  C35  1  0.42177000  0.69498000  0.49650000  1.0
  C  C36  1  0.53417000  0.49760000  0.20907000  1.0
  C  C37  1  0.27254000  0.96051000  0.46694000  1.0
  C  C38  1  0.39301000  0.80709000  0.48577000  1.0
  C  C39  1  0.70554000  0.14983000  0.48811000  1.0
  C  C40  1  0.72890000  0.04418000  0.48498000  1.0
  C  C41  1  0.65121000  0.98473000  0.48132000  1.0
  C  C42  1  0.50107000  0.31769000  0.98091000  1.0
  C  C43  1  0.54465000  0.03163000  0.47744000  1.0
  C  C44  1  0.52048000  0.13980000  0.47621000  1.0
  C  C45  1  0.45854000  0.97238000  0.47564000  1.0
  C  C46  1  0.35395000  0.02166000  0.46678000  1.0
  C  C47  1  0.54374000  0.49884000  0.38881000  1.0
  C  C48  1  0.34030000  0.12955000  0.45886000  1.0
  C  C49  1  0.41767000  0.18641000  0.46393000  1.0
  C  C50  1  0.47381000  0.86692000  0.48476000  1.0
  C  C51  1  0.29102000  0.85603000  0.47622000  1.0
  C  C52  1  0.60084000  0.19757000  0.48522000  1.0
  C  C53  1  0.49077000  0.40672000  0.94722000  1.0
  C  C54  1  0.88891000  0.66981000  0.43234000  1.0
  C  C55  1  0.22257000  0.36394000  0.55445000  1.0
  C  C56  1  0.11923000  0.33580000  0.57530000  1.0
  C  C57  1  0.02912000  0.38783000  0.55626000  1.0
  C  C58  1  0.04119000  0.46685000  0.51419000  1.0
  C  C59  1  0.51406000  0.59453000  0.12048000  1.0
  C  C60  1  0.15144000  0.48693000  0.49345000  1.0
  C  C61  1  0.95221000  0.52685000  0.49207000  1.0
  C  C62  1  0.97601000  0.60861000  0.45195000  1.0
  C  C63  1  0.08629000  0.62371000  0.42955000  1.0
  C  C64  1  0.49233000  0.50015000  0.97326000  1.0
  C  C65  1  0.16928000  0.56202000  0.44761000  1.0
  C  C66  1  0.84242000  0.50848000  0.50620000  1.0
  C  C67  1  0.78458000  0.64573000  0.44919000  1.0
  C  C68  1  0.53075000  0.40433000  0.12399000  1.0
  C  C69  1  0.51564000  0.40804000  0.06340000  1.0
  C  C70  1  0.50421000  0.50107000  0.03189000  1.0
  C  C71  1  0.50533000  0.59353000  0.05887000  1.0
  C  C72  1  0.48248000  0.59318000  0.94075000  1.0
  C  C73  1  0.48499000  0.68241000  0.96779000  1.0
  C  C74  1  0.49604000  0.68286000  0.02611000  1.0
  C  C75  1  0.48106000  0.40426000  0.88596000  1.0
  N  N76  1  0.52770000  0.49849000  0.14884000  1.0
  N  N77  1  0.47315000  0.49920000  0.85649000  1.0
  N  N78  1  0.76291000  0.56468000  0.48470000  1.0
  N  N79  1  0.23807000  0.43824000  0.51470000  1.0
  O  O80  1  0.64972000  0.36301000  0.48247000  1.0
  O  O81  1  0.62034000  0.53529000  0.40356000  1.0
  O  O82  1  0.46550000  0.46378000  0.42406000  1.0
  O  O83  1  0.50913000  0.67269000  0.14645000  1.0
  O  O84  1  0.54474000  0.32401000  0.15122000  1.0
  O  O85  1  0.48092000  0.32641000  0.86080000  1.0
  O  O86  1  0.46164000  0.67246000  0.84971000  1.0
  O  O87  1  0.47337000  0.34146000  0.52074000  1.0
  O  O88  1  0.57195000  0.50102000  0.58024000  1.0
  O  O89  1  0.38776000  0.50162000  0.59754000  1.0
  O  O90  1  0.52147000  0.66382000  0.49819000  1.0
  O  O91  1  0.34657000  0.63991000  0.50274000  1.0
  F  F92  1  0.20748000  0.80456000  0.47554000  1.0
  F  F93  1  0.49727000  0.77374000  0.04697000  1.0
  F  F94  1  0.24462000  0.17854000  0.44605000  1.0
  F  F95  1  0.17221000  0.00259000  0.45851000  1.0
  F  F96  1  0.83241000  0.99766000  0.48712000  1.0
  F  F97  1  0.49965000  0.22693000  0.95931000  1.0
  F  F98  1  0.93049000  0.36061000  0.57979000  1.0
  F  F99  1  0.10609000  0.26005000  0.61499000  1.0
  F  F100  1  0.27264000  0.56907000  0.42042000  1.0
  F  F101  1  0.47740000  0.77307000  0.94068000  1.0
