# generated using pymatgen
data_ErH13C18N3O8
_symmetry_space_group_name_H-M   'P 1'
_cell_length_a   5.85874000
_cell_length_b   10.43590000
_cell_length_c   14.41196930
_cell_angle_alpha   69.83131775
_cell_angle_beta   86.85212645
_cell_angle_gamma   82.76680000
_symmetry_Int_Tables_number   1
_chemical_formula_structural   ErH13C18N3O8
_chemical_formula_sum   'Er2 H26 C36 N6 O16'
_cell_volume   820.48881857
_cell_formula_units_Z   2
loop_
 _symmetry_equiv_pos_site_id
 _symmetry_equiv_pos_as_xyz
  1  'x, y, z'
loop_
 _atom_site_type_symbol
 _atom_site_label
 _atom_site_symmetry_multiplicity
 _atom_site_fract_x
 _atom_site_fract_y
 _atom_site_fract_z
 _atom_site_occupancy
  Er  Er0  1  0.38641000  0.25890000  0.48673000  1.0
  Er  Er1  1  0.61360000  0.74110000  0.51327000  1.0
  H  H2  1  0.13130000  0.55636000  0.42125000  1.0
  H  H3  1  0.86871000  0.44363000  0.57875000  1.0
  H  H4  1  0.39446000  0.56015000  0.39560000  1.0
  H  H5  1  0.60555000  0.43985000  0.60440000  1.0
  H  H6  1  0.74380000  0.03198000  0.52649000  1.0
  H  H7  1  0.25621000  0.96802000  0.47352000  1.0
  H  H8  1  0.86828000  0.15744000  0.52463000  1.0
  H  H9  1  0.13173000  0.84256000  0.47537000  1.0
  H  H10  1  0.51877000  0.14640000  0.83456000  1.0
  H  H11  1  0.48121000  0.85360000  0.16544000  1.0
  H  H12  1  0.36641000  0.07974000  0.01037000  1.0
  H  H13  1  0.63358000  0.92027000  0.98963000  1.0
  H  H14  1  0.83324000  0.33714000  0.74175000  1.0
  H  H15  1  0.16672000  0.66286000  0.25825000  1.0
  H  H16  1  0.59784000  0.25188000  0.01398000  1.0
  H  H17  1  0.40215000  0.74812000  0.98603000  1.0
  H  H18  1  0.42470000  0.19729000  0.18358000  1.0
  H  H19  1  0.57530000  0.80271000  0.81643000  1.0
  H  H20  1  0.08032000  0.97394000  0.29684000  1.0
  H  H21  1  0.91970000  0.02605000  0.70316000  1.0
  H  H22  1  0.55083000  0.49104000  0.22207000  1.0
  H  H23  1  0.44917000  0.50896000  0.77793000  1.0
  H  H24  1  0.61958000  0.56292000  0.03834000  1.0
  H  H25  1  0.38042000  0.43708000  0.96166000  1.0
  H  H26  1  0.25909000  0.31469000  0.25864000  1.0
  H  H27  1  0.74091000  0.68532000  0.74135000  1.0
  C  C28  1  0.25368000  0.28553000  0.66810000  1.0
  C  C29  1  0.74630000  0.71448000  0.33189000  1.0
  C  C30  1  0.18647000  0.24871000  0.77411000  1.0
  C  C31  1  0.81351000  0.75129000  0.22589000  1.0
  C  C32  1  0.33970000  0.17541000  0.85072000  1.0
  C  C33  1  0.66028000  0.82459000  0.14928000  1.0
  C  C34  1  0.25711000  0.13834000  0.94777000  1.0
  C  C35  1  0.74286000  0.86166000  0.05223000  1.0
  C  C36  1  0.02611000  0.17753000  0.96597000  1.0
  C  C37  1  0.97387000  0.82248000  0.03402000  1.0
  C  C38  1  0.95733000  0.28175000  0.79967000  1.0
  C  C39  1  0.04265000  0.71824000  0.20034000  1.0
  C  C40  1  0.92660000  0.14242000  0.06724000  1.0
  C  C41  1  0.07339000  0.85758000  0.93276000  1.0
  C  C42  1  0.69653000  0.19076000  0.07922000  1.0
  C  C43  1  0.30346000  0.80925000  0.92078000  1.0
  C  C44  1  0.60283000  0.16085000  0.17336000  1.0
  C  C45  1  0.39718000  0.83914000  0.82665000  1.0
  C  C46  1  0.74033000  0.08273000  0.25420000  1.0
  C  C47  1  0.25968000  0.91727000  0.74580000  1.0
  C  C48  1  0.96795000  0.03545000  0.23543000  1.0
  C  C49  1  0.03205000  0.96455000  0.76457000  1.0
  C  C50  1  0.64932000  0.06004000  0.35648000  1.0
  C  C51  1  0.35069000  0.93994000  0.64353000  1.0
  C  C52  1  0.87310000  0.34522000  0.36372000  1.0
  C  C53  1  0.12691000  0.65479000  0.63628000  1.0
  C  C54  1  0.90245000  0.39804000  0.25444000  1.0
  C  C55  1  0.09754000  0.60196000  0.74556000  1.0
  C  C56  1  0.71963000  0.46945000  0.19159000  1.0
  C  C57  1  0.28038000  0.53055000  0.80840000  1.0
  C  C58  1  0.75677000  0.50996000  0.09025000  1.0
  C  C59  1  0.24324000  0.49005000  0.90975000  1.0
  C  C60  1  0.97667000  0.47969000  0.05382000  1.0
  C  C61  1  0.02333000  0.52030000  0.94618000  1.0
  C  C62  1  0.11524000  0.37227000  0.21112000  1.0
  C  C63  1  0.88476000  0.62774000  0.78888000  1.0
  N  N64  1  0.87872000  0.24950000  0.89209000  1.0
  N  N65  1  0.12126000  0.75051000  0.10790000  1.0
  N  N66  1  0.06073000  0.06510000  0.14448000  1.0
  N  N67  1  0.93926000  0.93490000  0.85552000  1.0
  N  N68  1  0.15395000  0.41175000  0.11390000  1.0
  N  N69  1  0.84605000  0.58824000  0.88610000  1.0
  O  O70  1  0.09886000  0.31467000  0.60231000  1.0
  O  O71  1  0.90114000  0.68534000  0.39768000  1.0
  O  O72  1  0.46693000  0.28033000  0.64169000  1.0
  O  O73  1  0.53306000  0.71967000  0.35831000  1.0
  O  O74  1  0.49929000  0.15118000  0.36986000  1.0
  O  O75  1  0.50073000  0.84881000  0.63015000  1.0
  O  O76  1  0.73121000  0.95217000  0.42695000  1.0
  O  O77  1  0.26881000  0.04782000  0.57305000  1.0
  O  O78  1  0.67880000  0.37325000  0.40033000  1.0
  O  O79  1  0.32123000  0.62674000  0.59968000  1.0
  O  O80  1  0.04105000  0.27031000  0.41663000  1.0
  O  O81  1  0.95897000  0.72968000  0.58337000  1.0
  O  O82  1  0.27650000  0.49634000  0.42022000  1.0
  O  O83  1  0.72351000  0.50366000  0.57978000  1.0
  O  O84  1  0.73043000  0.11033000  0.55085000  1.0
  O  O85  1  0.26958000  0.88967000  0.44916000  1.0
