# generated using pymatgen
data_CaH14C12N2O5
_symmetry_space_group_name_H-M   'P 1'
_cell_length_a   7.49971000
_cell_length_b   11.14410000
_cell_length_c   15.76800000
_cell_angle_alpha   90.00030000
_cell_angle_beta   90.00160000
_cell_angle_gamma   89.99850000
_symmetry_Int_Tables_number   1
_chemical_formula_structural   CaH14C12N2O5
_chemical_formula_sum   'Ca4 H56 C48 N8 O20'
_cell_volume   1317.85030617
_cell_formula_units_Z   4
loop_
 _symmetry_equiv_pos_site_id
 _symmetry_equiv_pos_as_xyz
  1  'x, y, z'
loop_
 _atom_site_type_symbol
 _atom_site_label
 _atom_site_symmetry_multiplicity
 _atom_site_fract_x
 _atom_site_fract_y
 _atom_site_fract_z
 _atom_site_occupancy
  Ca  Ca0  1  0.98928000  0.79658000  0.23196000  1.0
  Ca  Ca1  1  0.01071000  0.29658000  0.76804000  1.0
  Ca  Ca2  1  0.51071000  0.29658000  0.73194000  1.0
  Ca  Ca3  1  0.48928000  0.79657000  0.26805000  1.0
  H  H4  1  0.14858000  0.39288000  0.00582000  1.0
  H  H5  1  0.85142000  0.89288000  0.99420000  1.0
  H  H6  1  0.35142000  0.89287000  0.50581000  1.0
  H  H7  1  0.64856000  0.39287000  0.49417000  1.0
  H  H8  1  0.15146000  0.48969000  0.09056000  1.0
  H  H9  1  0.84853000  0.98969000  0.90946000  1.0
  H  H10  1  0.34855000  0.98967000  0.59056000  1.0
  H  H11  1  0.65143000  0.48968000  0.40943000  1.0
  H  H12  1  0.41411000  0.58138000  0.14425000  1.0
  H  H13  1  0.58591000  0.08142000  0.85579000  1.0
  H  H14  1  0.08591000  0.08140000  0.64424000  1.0
  H  H15  1  0.91408000  0.58138000  0.35574000  1.0
  H  H16  1  0.43164000  0.32183000  0.94024000  1.0
  H  H17  1  0.56832000  0.82182000  0.05976000  1.0
  H  H18  1  0.06836000  0.82184000  0.44024000  1.0
  H  H19  1  0.93164000  0.32184000  0.55975000  1.0
  H  H20  1  0.91420000  0.48809000  0.02900000  1.0
  H  H21  1  0.08580000  0.98814000  0.97099000  1.0
  H  H22  1  0.58581000  0.98810000  0.52902000  1.0
  H  H23  1  0.41417000  0.48811000  0.47099000  1.0
  H  H24  1  0.03109000  0.22935000  0.36933000  1.0
  H  H25  1  0.96895000  0.72936000  0.63068000  1.0
  H  H26  1  0.46894000  0.72936000  0.86933000  1.0
  H  H27  1  0.53106000  0.22936000  0.13069000  1.0
  H  H28  1  0.99244000  0.07635000  0.39796000  1.0
  H  H29  1  0.00760000  0.57636000  0.60203000  1.0
  H  H30  1  0.50757000  0.57636000  0.89796000  1.0
  H  H31  1  0.49244000  0.07636000  0.10204000  1.0
  H  H32  1  0.81186000  0.17331000  0.37267000  1.0
  H  H33  1  0.18818000  0.67332000  0.62732000  1.0
  H  H34  1  0.68816000  0.67331000  0.87269000  1.0
  H  H35  1  0.31185000  0.17332000  0.12732000  1.0
  H  H36  1  0.84782000  0.32737000  0.28538000  1.0
  H  H37  1  0.15219000  0.82738000  0.71462000  1.0
  H  H38  1  0.65217000  0.82738000  0.78538000  1.0
  H  H39  1  0.34779000  0.32738000  0.21462000  1.0
  H  H40  1  0.75986000  0.33350000  0.18080000  1.0
  H  H41  1  0.24013000  0.83352000  0.81920000  1.0
  H  H42  1  0.74011000  0.83353000  0.68081000  1.0
  H  H43  1  0.25989000  0.33353000  0.31921000  1.0
  H  H44  1  0.98471000  0.37336000  0.19865000  1.0
  H  H45  1  0.01527000  0.87336000  0.80135000  1.0
  H  H46  1  0.51525000  0.87336000  0.69866000  1.0
  H  H47  1  0.48474000  0.37336000  0.30134000  1.0
  H  H48  1  0.01671000  0.06744000  0.10990000  1.0
  H  H49  1  0.98331000  0.56743000  0.89009000  1.0
  H  H50  1  0.48332000  0.56744000  0.60990000  1.0
  H  H51  1  0.51669000  0.06744000  0.39010000  1.0
  H  H52  1  0.00733000  0.22244000  0.07809000  1.0
  H  H53  1  0.99266000  0.72243000  0.92190000  1.0
  H  H54  1  0.49270000  0.72243000  0.57809000  1.0
  H  H55  1  0.50732000  0.22244000  0.42191000  1.0
  H  H56  1  0.80820000  0.13658000  0.08775000  1.0
  H  H57  1  0.19181000  0.63658000  0.91226000  1.0
  H  H58  1  0.69183000  0.63657000  0.58776000  1.0
  H  H59  1  0.30819000  0.13659000  0.41226000  1.0
  C  C60  1  0.67519000  0.54094000  0.09394000  1.0
  C  C61  1  0.32481000  0.04098000  0.90608000  1.0
  C  C62  1  0.82481000  0.04095000  0.59394000  1.0
  C  C63  1  0.17516000  0.54095000  0.40605000  1.0
  C  C64  1  0.77708000  0.62495000  0.14963000  1.0
  C  C65  1  0.22295000  0.12499000  0.85037000  1.0
  C  C66  1  0.72294000  0.12497000  0.64963000  1.0
  C  C67  1  0.27705000  0.62496000  0.35035000  1.0
  C  C68  1  0.49037000  0.52817000  0.09895000  1.0
  C  C69  1  0.50964000  0.02819000  0.90107000  1.0
  C  C70  1  0.00965000  0.02818000  0.59894000  1.0
  C  C71  1  0.99034000  0.52817000  0.40104000  1.0
  C  C72  1  0.40022000  0.44635000  0.04559000  1.0
  C  C73  1  0.59979000  0.94636000  0.95443000  1.0
  C  C74  1  0.09980000  0.94636000  0.54558000  1.0
  C  C75  1  0.90019000  0.44636000  0.45441000  1.0
  C  C76  1  0.49928000  0.38238000  0.98415000  1.0
  C  C77  1  0.50070000  0.88239000  0.01586000  1.0
  C  C78  1  0.00072000  0.88239000  0.48415000  1.0
  C  C79  1  0.99928000  0.38239000  0.51584000  1.0
  C  C80  1  0.68414000  0.39792000  0.97868000  1.0
  C  C81  1  0.31584000  0.89793000  0.02132000  1.0
  C  C82  1  0.81586000  0.89793000  0.47868000  1.0
  C  C83  1  0.18414000  0.39793000  0.52131000  1.0
  C  C84  1  0.77178000  0.47507000  0.03447000  1.0
  C  C85  1  0.22822000  0.97509000  0.96554000  1.0
  C  C86  1  0.72822000  0.97508000  0.53447000  1.0
  C  C87  1  0.27176000  0.47508000  0.46552000  1.0
  C  C88  1  0.96443000  0.10809000  0.26588000  1.0
  C  C89  1  0.03563000  0.60811000  0.73412000  1.0
  C  C90  1  0.53561000  0.60811000  0.76588000  1.0
  C  C91  1  0.46438000  0.10810000  0.23413000  1.0
  C  C92  1  0.79452000  0.34174000  0.91040000  1.0
  C  C93  1  0.20545000  0.84175000  0.08960000  1.0
  C  C94  1  0.70546000  0.84174000  0.41041000  1.0
  C  C95  1  0.29453000  0.34175000  0.58959000  1.0
  C  C96  1  0.94989000  0.14953000  0.35657000  1.0
  C  C97  1  0.05016000  0.64955000  0.64342000  1.0
  C  C98  1  0.55013000  0.64954000  0.85658000  1.0
  C  C99  1  0.44987000  0.14954000  0.14343000  1.0
  C  C100  1  0.87839000  0.31174000  0.21857000  1.0
  C  C101  1  0.12161000  0.81174000  0.78143000  1.0
  C  C102  1  0.62159000  0.81175000  0.71858000  1.0
  C  C103  1  0.37840000  0.31175000  0.28143000  1.0
  C  C104  1  0.94173000  0.15123000  0.11465000  1.0
  C  C105  1  0.05828000  0.65123000  0.88534000  1.0
  C  C106  1  0.55830000  0.65123000  0.61466000  1.0
  C  C107  1  0.44172000  0.15124000  0.38535000  1.0
  N  N108  1  0.21947000  0.42788000  0.05550000  1.0
  N  N109  1  0.78053000  0.92789000  0.94452000  1.0
  N  N110  1  0.28054000  0.92787000  0.55550000  1.0
  N  N111  1  0.71945000  0.42789000  0.44449000  1.0
  N  N112  1  0.92963000  0.18740000  0.20344000  1.0
  N  N113  1  0.07040000  0.68740000  0.79655000  1.0
  N  N114  1  0.57039000  0.68741000  0.70345000  1.0
  N  N115  1  0.42959000  0.18741000  0.29656000  1.0
  O  O116  1  0.93758000  0.60065000  0.16863000  1.0
  O  O117  1  0.06246000  0.10067000  0.83135000  1.0
  O  O118  1  0.56245000  0.10066000  0.66864000  1.0
  O  O119  1  0.43754000  0.60064000  0.33134000  1.0
  O  O120  1  0.70052000  0.72197000  0.17510000  1.0
  O  O121  1  0.29949000  0.22200000  0.82491000  1.0
  O  O122  1  0.79948000  0.22199000  0.67509000  1.0
  O  O123  1  0.20052000  0.72198000  0.32491000  1.0
  O  O124  1  0.71831000  0.29994000  0.84375000  1.0
  O  O125  1  0.28166000  0.79993000  0.15625000  1.0
  O  O126  1  0.78166000  0.79993000  0.34375000  1.0
  O  O127  1  0.21834000  0.29994000  0.65626000  1.0
  O  O128  1  0.00857000  0.00154000  0.24931000  1.0
  O  O129  1  0.99148000  0.50154000  0.75067000  1.0
  O  O130  1  0.49148000  0.50154000  0.74932000  1.0
  O  O131  1  0.50852000  0.00154000  0.25069000  1.0
  O  O132  1  0.96365000  0.34209000  0.91773000  1.0
  O  O133  1  0.03632000  0.84208000  0.08226000  1.0
  O  O134  1  0.53634000  0.84207000  0.41775000  1.0
  O  O135  1  0.46365000  0.34207000  0.58225000  1.0
