# generated using pymatgen
data_Zn3H10C12(N2O7)2
_symmetry_space_group_name_H-M   'P 1'
_cell_length_a   7.02613000
_cell_length_b   11.16550000
_cell_length_c   11.72370000
_cell_angle_alpha   90.00000000
_cell_angle_beta   103.98600000
_cell_angle_gamma   89.99990000
_symmetry_Int_Tables_number   1
_chemical_formula_structural   Zn3H10C12(N2O7)2
_chemical_formula_sum   'Zn6 H20 C24 N8 O28'
_cell_volume   892.46175980
_cell_formula_units_Z   2
loop_
 _symmetry_equiv_pos_site_id
 _symmetry_equiv_pos_as_xyz
  1  'x, y, z'
loop_
 _atom_site_type_symbol
 _atom_site_label
 _atom_site_symmetry_multiplicity
 _atom_site_fract_x
 _atom_site_fract_y
 _atom_site_fract_z
 _atom_site_occupancy
  Zn  Zn0  1  0.00000000  0.00000000  0.00000000  1.0
  Zn  Zn1  1  0.50000000  0.50000000  0.50000000  1.0
  Zn  Zn2  1  0.22223000  0.26061000  0.17041000  1.0
  Zn  Zn3  1  0.27777000  0.76062000  0.32959000  1.0
  Zn  Zn4  1  0.77777000  0.73938000  0.82959000  1.0
  Zn  Zn5  1  0.72223000  0.23939000  0.67042000  1.0
  H  H6  1  0.69580000  0.93119000  0.34961000  1.0
  H  H7  1  0.80420000  0.43119000  0.15040000  1.0
  H  H8  1  0.30420000  0.06882000  0.65040000  1.0
  H  H9  1  0.19580000  0.56881000  0.84960000  1.0
  H  H10  1  0.03604000  0.02235000  0.78698000  1.0
  H  H11  1  0.46396000  0.52235000  0.71302000  1.0
  H  H12  1  0.96396000  0.97765000  0.21302000  1.0
  H  H13  1  0.53604000  0.47765000  0.28698000  1.0
  H  H14  1  0.26341000  0.01734000  0.86726000  1.0
  H  H15  1  0.23660000  0.51734000  0.63274000  1.0
  H  H16  1  0.73659000  0.98266000  0.13273000  1.0
  H  H17  1  0.76340000  0.48266000  0.36726000  1.0
  H  H18  1  0.02163000  0.19874000  0.31272000  1.0
  H  H19  1  0.47837000  0.69874000  0.18728000  1.0
  H  H20  1  0.97837000  0.80126000  0.68728000  1.0
  H  H21  1  0.52163000  0.30126000  0.81272000  1.0
  H  H22  1  0.91297000  0.16029000  0.18629000  1.0
  H  H23  1  0.58702000  0.66029000  0.31371000  1.0
  H  H24  1  0.08703000  0.83971000  0.81371000  1.0
  H  H25  1  0.41297000  0.33971000  0.68629000  1.0
  C  C26  1  0.42233000  0.03251000  0.15841000  1.0
  C  C27  1  0.07767000  0.53251000  0.34159000  1.0
  C  C28  1  0.57767000  0.96749000  0.84159000  1.0
  C  C29  1  0.92233000  0.46749000  0.65841000  1.0
  C  C30  1  0.50879000  0.08288000  0.28068000  1.0
  C  C31  1  0.99121000  0.58289000  0.21932000  1.0
  C  C32  1  0.49121000  0.91711000  0.71932000  1.0
  C  C33  1  0.00880000  0.41712000  0.78068000  1.0
  C  C34  1  0.48793000  0.23713000  0.41471000  1.0
  C  C35  1  0.01207000  0.73712000  0.08529000  1.0
  C  C36  1  0.51207000  0.76288000  0.58529000  1.0
  C  C37  1  0.98793000  0.26287000  0.91471000  1.0
  C  C38  1  0.69578000  0.07225000  0.47709000  1.0
  C  C39  1  0.80422000  0.57225000  0.02291000  1.0
  C  C40  1  0.30422000  0.92775000  0.52292000  1.0
  C  C41  1  0.19578000  0.42775000  0.97709000  1.0
  C  C42  1  0.83073000  0.01010000  0.58130000  1.0
  C  C43  1  0.66927000  0.51010000  0.91870000  1.0
  C  C44  1  0.16927000  0.98990000  0.41871000  1.0
  C  C45  1  0.33073000  0.48990000  0.08129000  1.0
  C  C46  1  0.64252000  0.01921000  0.36637000  1.0
  C  C47  1  0.85748000  0.51921000  0.13363000  1.0
  C  C48  1  0.35748000  0.98079000  0.63363000  1.0
  C  C49  1  0.14253000  0.48079000  0.86637000  1.0
  N  N50  1  0.43690000  0.18880000  0.30350000  1.0
  N  N51  1  0.06310000  0.68880000  0.19650000  1.0
  N  N52  1  0.56310000  0.81120000  0.69650000  1.0
  N  N53  1  0.93690000  0.31120000  0.80350000  1.0
  N  N54  1  0.62437000  0.17830000  0.50053000  1.0
  N  N55  1  0.87563000  0.67830000  0.99947000  1.0
  N  N56  1  0.37563000  0.82170000  0.49947000  1.0
  N  N57  1  0.12437000  0.32170000  0.00053000  1.0
  O  O58  1  0.25785000  0.08170000  0.10556000  1.0
  O  O59  1  0.24215000  0.58170000  0.39444000  1.0
  O  O60  1  0.74216000  0.91830000  0.89444000  1.0
  O  O61  1  0.75784000  0.41830000  0.60556000  1.0
  O  O62  1  0.50862000  0.95063000  0.11961000  1.0
  O  O63  1  0.99138000  0.45063000  0.38039000  1.0
  O  O64  1  0.49138000  0.04937000  0.88039000  1.0
  O  O65  1  0.00862000  0.54937000  0.61961000  1.0
  O  O66  1  0.40414000  0.33106000  0.43632000  1.0
  O  O67  1  0.09586000  0.83106000  0.06368000  1.0
  O  O68  1  0.59586000  0.66894000  0.56368000  1.0
  O  O69  1  0.90414000  0.16894000  0.93632000  1.0
  O  O70  1  0.86953000  0.07165000  0.67755000  1.0
  O  O71  1  0.63048000  0.57164000  0.82245000  1.0
  O  O72  1  0.13048000  0.92836000  0.32245000  1.0
  O  O73  1  0.36952000  0.42835000  0.17755000  1.0
  O  O74  1  0.88833000  0.90641000  0.56825000  1.0
  O  O75  1  0.61167000  0.40641000  0.93175000  1.0
  O  O76  1  0.11167000  0.09359000  0.43176000  1.0
  O  O77  1  0.38833000  0.59359000  0.06825000  1.0
  O  O78  1  0.12721000  0.98314000  0.85710000  1.0
  O  O79  1  0.37279000  0.48314000  0.64290000  1.0
  O  O80  1  0.87279000  0.01686000  0.14290000  1.0
  O  O81  1  0.62721000  0.51686000  0.35710000  1.0
  O  O82  1  0.97818000  0.23176000  0.23147000  1.0
  O  O83  1  0.52182000  0.73176000  0.26853000  1.0
  O  O84  1  0.02182000  0.76824000  0.76853000  1.0
  O  O85  1  0.47819000  0.26824000  0.73147000  1.0
