# generated using pymatgen
data_CuPH13C17N2O5
_symmetry_space_group_name_H-M   'P 1'
_cell_length_a   11.06410000
_cell_length_b   11.06410000
_cell_length_c   19.15670000
_cell_angle_alpha   104.80200000
_cell_angle_beta   104.80300000
_cell_angle_gamma   95.06630000
_symmetry_Int_Tables_number   1
_chemical_formula_structural   CuPH13C17N2O5
_chemical_formula_sum   'Cu4 P4 H52 C68 N8 O20'
_cell_volume   2162.19202233
_cell_formula_units_Z   4
loop_
 _symmetry_equiv_pos_site_id
 _symmetry_equiv_pos_as_xyz
  1  'x, y, z'
loop_
 _atom_site_type_symbol
 _atom_site_label
 _atom_site_symmetry_multiplicity
 _atom_site_fract_x
 _atom_site_fract_y
 _atom_site_fract_z
 _atom_site_occupancy
  Cu  Cu0  1  0.54927000  0.91787000  0.37935000  1.0
  Cu  Cu1  1  0.08213000  0.45073000  0.12064000  1.0
  Cu  Cu2  1  0.45073000  0.08213000  0.62064000  1.0
  Cu  Cu3  1  0.91787000  0.54927000  0.87936000  1.0
  P  P4  1  0.28696000  0.97703000  0.41695000  1.0
  P  P5  1  0.02296000  0.71304000  0.08305000  1.0
  P  P6  1  0.71304000  0.02297000  0.58305000  1.0
  P  P7  1  0.97704000  0.28696000  0.91695000  1.0
  H  H8  1  0.64985000  0.39724000  0.49698000  1.0
  H  H9  1  0.60275000  0.35014000  0.00303000  1.0
  H  H10  1  0.35016000  0.60276000  0.50303000  1.0
  H  H11  1  0.39724000  0.64985000  0.99697000  1.0
  H  H12  1  0.46647000  0.04322000  0.26618000  1.0
  H  H13  1  0.95680000  0.53354000  0.23382000  1.0
  H  H14  1  0.53354000  0.95679000  0.73382000  1.0
  H  H15  1  0.04321000  0.46647000  0.76618000  1.0
  H  H16  1  0.35755000  0.68221000  0.32444000  1.0
  H  H17  1  0.31780000  0.64245000  0.17556000  1.0
  H  H18  1  0.64245000  0.31779000  0.67556000  1.0
  H  H19  1  0.68220000  0.35755000  0.82444000  1.0
  H  H20  1  0.76200000  0.54591000  0.42207000  1.0
  H  H21  1  0.45410000  0.23800000  0.07793000  1.0
  H  H22  1  0.23800000  0.45411000  0.57793000  1.0
  H  H23  1  0.54589000  0.76200000  0.92206000  1.0
  H  H24  1  0.35483000  0.45731000  0.32230000  1.0
  H  H25  1  0.54269000  0.64517000  0.17770000  1.0
  H  H26  1  0.64517000  0.54269000  0.67770000  1.0
  H  H27  1  0.45731000  0.35483000  0.82230000  1.0
  H  H28  1  0.74653000  0.76880000  0.41576000  1.0
  H  H29  1  0.23121000  0.25347000  0.08424000  1.0
  H  H30  1  0.25346000  0.23121000  0.58424000  1.0
  H  H31  1  0.76879000  0.74653000  0.91576000  1.0
  H  H32  1  0.46389000  0.26582000  0.25698000  1.0
  H  H33  1  0.73421000  0.53612000  0.24302000  1.0
  H  H34  1  0.53612000  0.73420000  0.74301000  1.0
  H  H35  1  0.26580000  0.46389000  0.75698000  1.0
  H  H36  1  0.63509000  0.17003000  0.49642000  1.0
  H  H37  1  0.82996000  0.36490000  0.00358000  1.0
  H  H38  1  0.36491000  0.82996000  0.50358000  1.0
  H  H39  1  0.17004000  0.63509000  0.99642000  1.0
  H  H40  1  0.27021000  0.24413000  0.46181000  1.0
  H  H41  1  0.75586000  0.72977000  0.03820000  1.0
  H  H42  1  0.72978000  0.75587000  0.53819000  1.0
  H  H43  1  0.24414000  0.27022000  0.96181000  1.0
  H  H44  1  0.12880000  0.09746000  0.18130000  1.0
  H  H45  1  0.90253000  0.87119000  0.31869000  1.0
  H  H46  1  0.87120000  0.90254000  0.81869000  1.0
  H  H47  1  0.09747000  0.12880000  0.68131000  1.0
  H  H48  1  0.20043000  0.94766000  0.25463000  1.0
  H  H49  1  0.05234000  0.79955000  0.24537000  1.0
  H  H50  1  0.79956000  0.05235000  0.74537000  1.0
  H  H51  1  0.94766000  0.20044000  0.75463000  1.0
  H  H52  1  0.20243000  0.39666000  0.38777000  1.0
  H  H53  1  0.60333000  0.79755000  0.11222000  1.0
  H  H54  1  0.79756000  0.60334000  0.61222000  1.0
  H  H55  1  0.39667000  0.20243000  0.88777000  1.0
  H  H56  1  0.15582000  0.79907000  0.36930000  1.0
  H  H57  1  0.20093000  0.84418000  0.13070000  1.0
  H  H58  1  0.84418000  0.20093000  0.63070000  1.0
  H  H59  1  0.79908000  0.15582000  0.86930000  1.0
  C  C60  1  0.60906000  0.32206000  0.44416000  1.0
  C  C61  1  0.67793000  0.39093000  0.05584000  1.0
  C  C62  1  0.39095000  0.67795000  0.55584000  1.0
  C  C63  1  0.32206000  0.60905000  0.94416000  1.0
  C  C64  1  0.50355000  0.12547000  0.31557000  1.0
  C  C65  1  0.87455000  0.49645000  0.18443000  1.0
  C  C66  1  0.49645000  0.87454000  0.68443000  1.0
  C  C67  1  0.12545000  0.50356000  0.81557000  1.0
  C  C68  1  0.44496000  0.64714000  0.34417000  1.0
  C  C69  1  0.35287000  0.55504000  0.15583000  1.0
  C  C70  1  0.55503000  0.35286000  0.65583000  1.0
  C  C71  1  0.64713000  0.44496000  0.84417000  1.0
  C  C72  1  0.55900000  0.35019000  0.37627000  1.0
  C  C73  1  0.64982000  0.44100000  0.12373000  1.0
  C  C74  1  0.44101000  0.64981000  0.62373000  1.0
  C  C75  1  0.35018000  0.55900000  0.87627000  1.0
  C  C76  1  0.55895000  0.48227000  0.37326000  1.0
  C  C77  1  0.51775000  0.44105000  0.12676000  1.0
  C  C78  1  0.44105000  0.51775000  0.62675000  1.0
  C  C79  1  0.48225000  0.55895000  0.87325000  1.0
  C  C80  1  0.67024000  0.57211000  0.39987000  1.0
  C  C81  1  0.42791000  0.32976000  0.10014000  1.0
  C  C82  1  0.32976000  0.42790000  0.60014000  1.0
  C  C83  1  0.57209000  0.67023000  0.89986000  1.0
  C  C84  1  0.44494000  0.52134000  0.34355000  1.0
  C  C85  1  0.47867000  0.55507000  0.15646000  1.0
  C  C86  1  0.55507000  0.47866000  0.65645000  1.0
  C  C87  1  0.52133000  0.44493000  0.84354000  1.0
  C  C88  1  0.66300000  0.69567000  0.39669000  1.0
  C  C89  1  0.30434000  0.33701000  0.10332000  1.0
  C  C90  1  0.33700000  0.30434000  0.60331000  1.0
  C  C91  1  0.69566000  0.66299000  0.89668000  1.0
  C  C92  1  0.50432000  0.24876000  0.31109000  1.0
  C  C93  1  0.75126000  0.49568000  0.18892000  1.0
  C  C94  1  0.49568000  0.75125000  0.68891000  1.0
  C  C95  1  0.24875000  0.50433000  0.81108000  1.0
  C  C96  1  0.60141000  0.19614000  0.44462000  1.0
  C  C97  1  0.80386000  0.39858000  0.05538000  1.0
  C  C98  1  0.39859000  0.80387000  0.55538000  1.0
  C  C99  1  0.19613000  0.60141000  0.94462000  1.0
  C  C100  1  0.23831000  0.21267000  0.40047000  1.0
  C  C101  1  0.78732000  0.76168000  0.09954000  1.0
  C  C102  1  0.76168000  0.78733000  0.59953000  1.0
  C  C103  1  0.21268000  0.23830000  0.90046000  1.0
  C  C104  1  0.16003000  0.12941000  0.24277000  1.0
  C  C105  1  0.87059000  0.83995000  0.25723000  1.0
  C  C106  1  0.83996000  0.87059000  0.75723000  1.0
  C  C107  1  0.12941000  0.16004000  0.74277000  1.0
  C  C108  1  0.16163000  0.25650000  0.28053000  1.0
  C  C109  1  0.74350000  0.83836000  0.21947000  1.0
  C  C110  1  0.83837000  0.74350000  0.71947000  1.0
  C  C111  1  0.25651000  0.16163000  0.78053000  1.0
  C  C112  1  0.19879000  0.04558000  0.28397000  1.0
  C  C113  1  0.95442000  0.80121000  0.21603000  1.0
  C  C114  1  0.80121000  0.95442000  0.71603000  1.0
  C  C115  1  0.04559000  0.19879000  0.78397000  1.0
  C  C116  1  0.23722000  0.08579000  0.36310000  1.0
  C  C117  1  0.91421000  0.76278000  0.13691000  1.0
  C  C118  1  0.76277000  0.91420000  0.63690000  1.0
  C  C119  1  0.08580000  0.23722000  0.86309000  1.0
  C  C120  1  0.20116000  0.29730000  0.35955000  1.0
  C  C121  1  0.70269000  0.79883000  0.14045000  1.0
  C  C122  1  0.79883000  0.70270000  0.64045000  1.0
  C  C123  1  0.29731000  0.20115000  0.85955000  1.0
  C  C124  1  0.12790000  0.35153000  0.23795000  1.0
  C  C125  1  0.64847000  0.87210000  0.26205000  1.0
  C  C126  1  0.87210000  0.64847000  0.76204000  1.0
  C  C127  1  0.35153000  0.12790000  0.73796000  1.0
  N  N128  1  0.55172000  0.73284000  0.37065000  1.0
  N  N129  1  0.26716000  0.44828000  0.12935000  1.0
  N  N130  1  0.44828000  0.26716000  0.62935000  1.0
  N  N131  1  0.73284000  0.55172000  0.87065000  1.0
  N  N132  1  0.55089000  0.09981000  0.38134000  1.0
  N  N133  1  0.90019000  0.44910000  0.11866000  1.0
  N  N134  1  0.44911000  0.90019000  0.61866000  1.0
  N  N135  1  0.09981000  0.55090000  0.88134000  1.0
  O  O136  1  0.36769000  0.89130000  0.37933000  1.0
  O  O137  1  0.10870000  0.63231000  0.12067000  1.0
  O  O138  1  0.63231000  0.10870000  0.62067000  1.0
  O  O139  1  0.89131000  0.36769000  0.87932000  1.0
  O  O140  1  0.14476000  0.46743000  0.27321000  1.0
  O  O141  1  0.53257000  0.85525000  0.22679000  1.0
  O  O142  1  0.85524000  0.53257000  0.72678000  1.0
  O  O143  1  0.46743000  0.14476000  0.77321000  1.0
  O  O144  1  0.33723000  0.04948000  0.49865000  1.0
  O  O145  1  0.95051000  0.66275000  0.00135000  1.0
  O  O146  1  0.66276000  0.95052000  0.50135000  1.0
  O  O147  1  0.04949000  0.33725000  0.99865000  1.0
  O  O148  1  0.15687000  0.88111000  0.40388000  1.0
  O  O149  1  0.11889000  0.84314000  0.09613000  1.0
  O  O150  1  0.84313000  0.11889000  0.59612000  1.0
  O  O151  1  0.88112000  0.15686000  0.90388000  1.0
  O  O152  1  0.08646000  0.30554000  0.16531000  1.0
  O  O153  1  0.69445000  0.91354000  0.33469000  1.0
  O  O154  1  0.91354000  0.69445000  0.83469000  1.0
  O  O155  1  0.30555000  0.08647000  0.66531000  1.0
