# generated using pymatgen
data_Zr3H24C49(BrO13)2
_symmetry_space_group_name_H-M   'P 1'
_cell_length_a   19.06630000
_cell_length_b   19.09860000
_cell_length_c   19.06662129
_cell_angle_alpha   60.10705289
_cell_angle_beta   89.55606780
_cell_angle_gamma   119.89000000
_symmetry_Int_Tables_number   1
_chemical_formula_structural   Zr3H24C49(BrO13)2
_chemical_formula_sum   'Zr6 H48 C98 Br4 O52'
_cell_volume   4906.27937764
_cell_formula_units_Z   2
loop_
 _symmetry_equiv_pos_site_id
 _symmetry_equiv_pos_as_xyz
  1  'x, y, z'
loop_
 _atom_site_type_symbol
 _atom_site_label
 _atom_site_symmetry_multiplicity
 _atom_site_fract_x
 _atom_site_fract_y
 _atom_site_fract_z
 _atom_site_occupancy
  Zr  Zr0  1  0.40897000  0.50552000  0.58971000  1.0
  Zr  Zr1  1  0.58938000  0.49415000  0.40931000  1.0
  Zr  Zr2  1  0.40300000  0.31431000  0.59591000  1.0
  Zr  Zr3  1  0.59556000  0.68536000  0.40333000  1.0
  Zr  Zr4  1  0.59163000  0.49984000  0.59196000  1.0
  Zr  Zr5  1  0.40685000  0.49983000  0.40720000  1.0
  H  H6  1  0.42542000  0.35852000  0.71867000  1.0
  H  H7  1  0.71832000  0.64119000  0.42573000  1.0
  H  H8  1  0.42175000  0.34930000  0.43184000  1.0
  H  H9  1  0.43151000  0.65036000  0.42211000  1.0
  H  H10  1  0.62347000  0.52474000  0.03489000  1.0
  H  H11  1  0.41245000  0.54680000  0.92902000  1.0
  H  H12  1  0.60510000  0.49176000  0.82299000  1.0
  H  H13  1  0.59968000  0.47878000  0.95823000  1.0
  H  H14  1  0.38271000  0.49113000  0.18346000  1.0
  H  H15  1  0.37961000  0.48765000  0.05627000  1.0
  H  H16  1  0.92880000  0.45304000  0.41273000  1.0
  H  H17  1  0.03465000  0.47513000  0.62372000  1.0
  H  H18  1  0.18322000  0.50873000  0.38296000  1.0
  H  H19  1  0.05612000  0.51237000  0.37979000  1.0
  H  H20  1  0.82277000  0.50818000  0.60527000  1.0
  H  H21  1  0.95802000  0.52120000  0.59986000  1.0
  H  H22  1  0.02874000  0.16015000  0.40718000  1.0
  H  H23  1  0.93013000  0.83935000  0.62927000  1.0
  H  H24  1  0.82817000  0.93239000  0.38117000  1.0
  H  H25  1  0.95682000  0.06266000  0.37943000  1.0
  H  H26  1  0.17811000  0.06794000  0.60979000  1.0
  H  H27  1  0.05365000  0.93784000  0.60678000  1.0
  H  H28  1  0.62910000  0.16036000  0.93031000  1.0
  H  H29  1  0.40691000  0.83946000  0.02901000  1.0
  H  H30  1  0.60958000  0.93175000  0.17831000  1.0
  H  H31  1  0.60666000  0.06185000  0.05374000  1.0
  H  H32  1  0.38101000  0.06734000  0.82834000  1.0
  H  H33  1  0.37929000  0.93704000  0.95695000  1.0
  H  H34  1  0.82301000  0.70654000  0.17079000  1.0
  H  H35  1  0.81514000  0.92083000  0.18290000  1.0
  H  H36  1  0.17048000  0.29313000  0.82338000  1.0
  H  H37  1  0.18256000  0.07881000  0.81548000  1.0
  H  H38  1  0.40252000  0.93144000  0.63162000  1.0
  H  H39  1  0.63128000  0.06816000  0.40295000  1.0
  H  H40  1  0.39233000  0.71276000  0.60320000  1.0
  H  H41  1  0.38491000  0.83488000  0.60808000  1.0
  H  H42  1  0.60281000  0.28684000  0.39276000  1.0
  H  H43  1  0.60776000  0.16479000  0.38530000  1.0
  H  H44  1  0.57694000  0.38021000  0.25241000  1.0
  H  H45  1  0.30907000  0.42553000  0.83399000  1.0
  H  H46  1  0.83366000  0.57424000  0.30934000  1.0
  H  H47  1  0.25204000  0.61936000  0.57739000  1.0
  H  H48  1  0.25265000  0.34254000  0.31239000  1.0
  H  H49  1  0.84851000  0.65986000  0.58208000  1.0
  H  H50  1  0.58187000  0.33982000  0.84880000  1.0
  H  H51  1  0.31216000  0.65729000  0.25298000  1.0
  H  H52  1  0.30426000  0.05921000  0.58271000  1.0
  H  H53  1  0.58241000  0.94026000  0.30468000  1.0
  C  C54  1  0.50587000  0.51352000  0.72777000  1.0
  C  C55  1  0.72747000  0.48622000  0.50616000  1.0
  C  C56  1  0.49767000  0.49809000  0.26504000  1.0
  C  C57  1  0.26473000  0.50160000  0.49801000  1.0
  C  C58  1  0.26104000  0.27213000  0.73383000  1.0
  C  C59  1  0.50876000  0.74210000  0.49497000  1.0
  C  C60  1  0.73350000  0.72751000  0.26140000  1.0
  C  C61  1  0.49464000  0.25756000  0.50912000  1.0
  C  C62  1  0.49823000  0.26384000  0.73490000  1.0
  C  C63  1  0.25662000  0.26383000  0.50748000  1.0
  C  C64  1  0.50717000  0.73586000  0.25695000  1.0
  C  C65  1  0.73463000  0.73587000  0.49849000  1.0
  C  C66  1  0.49949000  0.49976000  0.18635000  1.0
  C  C67  1  0.50560000  0.51523000  0.80477000  1.0
  C  C68  1  0.56761000  0.50915000  0.14377000  1.0
  C  C69  1  0.56817000  0.51281000  0.06887000  1.0
  C  C70  1  0.45153000  0.53185000  0.83468000  1.0
  C  C71  1  0.45179000  0.52942000  0.90906000  1.0
  C  C72  1  0.55993000  0.49874000  0.84938000  1.0
  C  C73  1  0.55785000  0.49389000  0.92444000  1.0
  C  C74  1  0.43314000  0.49368000  0.15266000  1.0
  C  C75  1  0.43308000  0.49439000  0.07955000  1.0
  C  C76  1  0.50102000  0.50464000  0.03567000  1.0
  C  C77  1  0.50321000  0.50855000  0.95626000  1.0
  C  C78  1  0.80453000  0.48462000  0.50584000  1.0
  C  C79  1  0.18605000  0.49997000  0.49981000  1.0
  C  C80  1  0.83445000  0.46798000  0.45179000  1.0
  C  C81  1  0.90885000  0.47045000  0.45203000  1.0
  C  C82  1  0.14346000  0.49058000  0.56794000  1.0
  C  C83  1  0.06861000  0.48703000  0.56843000  1.0
  C  C84  1  0.15242000  0.50617000  0.43340000  1.0
  C  C85  1  0.07936000  0.50555000  0.43330000  1.0
  C  C86  1  0.84915000  0.50118000  0.56012000  1.0
  C  C87  1  0.92423000  0.50606000  0.55805000  1.0
  C  C88  1  0.95606000  0.49139000  0.50340000  1.0
  C  C89  1  0.03546000  0.49528000  0.50124000  1.0
  C  C90  1  0.17826000  0.18753000  0.50636000  1.0
  C  C91  1  0.81063000  0.81233000  0.50163000  1.0
  C  C92  1  0.13570000  0.21320000  0.44852000  1.0
  C  C93  1  0.06258000  0.13878000  0.44993000  1.0
  C  C94  1  0.84043000  0.78647000  0.57180000  1.0
  C  C95  1  0.91090000  0.86106000  0.57257000  1.0
  C  C96  1  0.85302000  0.91272000  0.43395000  1.0
  C  C97  1  0.92471000  0.98586000  0.43427000  1.0
  C  C98  1  0.14598000  0.08730000  0.56391000  1.0
  C  C99  1  0.07502000  0.01439000  0.56272000  1.0
  C  C100  1  0.03143000  0.03856000  0.50554000  1.0
  C  C101  1  0.95533000  0.96158000  0.50385000  1.0
  C  C102  1  0.50144000  0.18741000  0.81083000  1.0
  C  C103  1  0.50609000  0.81214000  0.17853000  1.0
  C  C104  1  0.57160000  0.21325000  0.84063000  1.0
  C  C105  1  0.57238000  0.13864000  0.91108000  1.0
  C  C106  1  0.44823000  0.78643000  0.13599000  1.0
  C  C107  1  0.44970000  0.86086000  0.06282000  1.0
  C  C108  1  0.56369000  0.91238000  0.14618000  1.0
  C  C109  1  0.56254000  0.98528000  0.07517000  1.0
  C  C110  1  0.43378000  0.08702000  0.85319000  1.0
  C  C111  1  0.43410000  0.01384000  0.92487000  1.0
  C  C112  1  0.50368000  0.03811000  0.95549000  1.0
  C  C113  1  0.50535000  0.96110000  0.03160000  1.0
  C  C114  1  0.85300000  0.78373000  0.14600000  1.0
  C  C115  1  0.92902000  0.85935000  0.07438000  1.0
  C  C116  1  0.97367000  0.83858000  0.03440000  1.0
  C  C117  1  0.84772000  0.90552000  0.15143000  1.0
  C  C118  1  0.92278000  0.98335000  0.07956000  1.0
  C  C119  1  0.96097000  0.08576000  0.04537000  1.0
  C  C120  1  0.14564000  0.21592000  0.85334000  1.0
  C  C121  1  0.07403000  0.14031000  0.92937000  1.0
  C  C122  1  0.03406000  0.16106000  0.97404000  1.0
  C  C123  1  0.15105000  0.09411000  0.84805000  1.0
  C  C124  1  0.07919000  0.01630000  0.92311000  1.0
  C  C125  1  0.04498000  0.91388000  0.96129000  1.0
  C  C126  1  0.81320000  0.80713000  0.18390000  1.0
  C  C127  1  0.96414000  0.96087000  0.03920000  1.0
  C  C128  1  0.18353000  0.19252000  0.81351000  1.0
  C  C129  1  0.03885000  0.03880000  0.96447000  1.0
  C  C130  1  0.49517000  0.17911000  0.51076000  1.0
  C  C131  1  0.51038000  0.82052000  0.49554000  1.0
  C  C132  1  0.43825000  0.07766000  0.57859000  1.0
  C  C133  1  0.44462000  0.00878000  0.57672000  1.0
  C  C134  1  0.57822000  0.92197000  0.43865000  1.0
  C  C135  1  0.57636000  0.99083000  0.44504000  1.0
  C  C136  1  0.44239000  0.79148000  0.55683000  1.0
  C  C137  1  0.43982000  0.86093000  0.56038000  1.0
  C  C138  1  0.55645000  0.20813000  0.44278000  1.0
  C  C139  1  0.56003000  0.13871000  0.44021000  1.0
  C  C140  1  0.50406000  0.03714000  0.50723000  1.0
  C  C141  1  0.50686000  0.96248000  0.50445000  1.0
  C  C142  1  0.64483000  0.52171000  0.17080000  1.0
  C  C143  1  0.39766000  0.56202000  0.78770000  1.0
  C  C144  1  0.78740000  0.43775000  0.39798000  1.0
  C  C145  1  0.17043000  0.47788000  0.64522000  1.0
  C  C146  1  0.16062000  0.31709000  0.38548000  1.0
  C  C147  1  0.80027000  0.68253000  0.65065000  1.0
  C  C148  1  0.65045000  0.31720000  0.80050000  1.0
  C  C149  1  0.38508000  0.68254000  0.16097000  1.0
  C  C150  1  0.36998000  0.03592000  0.65627000  1.0
  C  C151  1  0.65591000  0.96373000  0.37040000  1.0
  Br  Br152  1  0.10275000  0.88614000  0.90835000  1.0
  Br  Br153  1  0.93235000  0.70472000  0.08711000  1.0
  Br  Br154  1  0.08678000  0.29491000  0.93277000  1.0
  Br  Br155  1  0.90803000  0.11349000  0.10316000  1.0
  O  O156  1  0.44762000  0.51586000  0.69588000  1.0
  O  O157  1  0.69555000  0.48383000  0.44794000  1.0
  O  O158  1  0.55704000  0.49796000  0.29576000  1.0
  O  O159  1  0.29542000  0.50171000  0.55740000  1.0
  O  O160  1  0.29056000  0.24300000  0.70194000  1.0
  O  O161  1  0.56841000  0.76966000  0.43574000  1.0
  O  O162  1  0.70159000  0.75662000  0.29092000  1.0
  O  O163  1  0.43545000  0.23003000  0.56879000  1.0
  O  O164  1  0.55830000  0.35438000  0.70299000  1.0
  O  O165  1  0.28828000  0.35431000  0.44791000  1.0
  O  O166  1  0.44757000  0.64538000  0.28865000  1.0
  O  O167  1  0.70271000  0.64533000  0.55860000  1.0
  O  O168  1  0.28766000  0.23381000  0.56585000  1.0
  O  O169  1  0.56553000  0.76590000  0.28800000  1.0
  O  O170  1  0.70747000  0.76513000  0.43617000  1.0
  O  O171  1  0.43587000  0.23456000  0.70779000  1.0
  O  O172  1  0.29388000  0.36245000  0.70414000  1.0
  O  O173  1  0.55281000  0.34715000  0.44679000  1.0
  O  O174  1  0.70382000  0.63719000  0.29425000  1.0
  O  O175  1  0.44645000  0.65251000  0.55314000  1.0
  O  O176  1  0.29701000  0.50468000  0.43672000  1.0
  O  O177  1  0.56189000  0.50649000  0.70065000  1.0
  O  O178  1  0.70032000  0.49319000  0.56222000  1.0
  O  O179  1  0.43636000  0.49498000  0.29734000  1.0
  O  O180  1  0.45108000  0.60788000  0.44352000  1.0
  O  O181  1  0.44318000  0.39179000  0.45140000  1.0
  O  O182  1  0.65598000  0.60067000  0.44694000  1.0
  O  O183  1  0.44661000  0.39899000  0.65633000  1.0
  O  O184  1  0.53489000  0.42044000  0.54034000  1.0
  O  O185  1  0.54000000  0.57925000  0.53524000  1.0
  O  O186  1  0.53807000  0.57412000  0.38400000  1.0
  O  O187  1  0.38365000  0.42555000  0.53841000  1.0
  O  O188  1  0.63711000  0.43636000  0.22890000  1.0
  O  O189  1  0.71333000  0.60157000  0.13732000  1.0
  O  O190  1  0.31646000  0.48901000  0.80430000  1.0
  O  O191  1  0.42192000  0.64802000  0.74347000  1.0
  O  O192  1  0.80394000  0.51074000  0.31677000  1.0
  O  O193  1  0.74313000  0.35174000  0.42231000  1.0
  O  O194  1  0.22856000  0.56319000  0.63754000  1.0
  O  O195  1  0.13687000  0.39799000  0.71370000  1.0
  O  O196  1  0.22274000  0.37295000  0.30831000  1.0
  O  O197  1  0.12166000  0.34677000  0.39763000  1.0
  O  O198  1  0.82252000  0.62836000  0.64300000  1.0
  O  O199  1  0.75868000  0.65154000  0.72028000  1.0
  O  O200  1  0.64279000  0.37134000  0.82279000  1.0
  O  O201  1  0.72008000  0.34823000  0.75888000  1.0
  O  O202  1  0.30796000  0.62681000  0.22311000  1.0
  O  O203  1  0.39709000  0.65275000  0.12206000  1.0
  O  O204  1  0.29520000  0.02411000  0.64426000  1.0
  O  O205  1  0.37508000  0.00448000  0.72775000  1.0
  O  O206  1  0.64396000  0.97550000  0.29561000  1.0
  O  O207  1  0.72741000  0.99529000  0.37548000  1.0
