# generated using pymatgen
data_AlH12C17O5
_symmetry_space_group_name_H-M   'P 1'
_cell_length_a   6.65349000
_cell_length_b   20.29140000
_cell_length_c   23.96190000
_cell_angle_alpha   90.40010000
_cell_angle_beta   90.83080000
_cell_angle_gamma   90.73020000
_symmetry_Int_Tables_number   1
_chemical_formula_structural   AlH12C17O5
_chemical_formula_sum   'Al4 H48 C68 O20'
_cell_volume   3234.37732128
_cell_formula_units_Z   4
loop_
 _symmetry_equiv_pos_site_id
 _symmetry_equiv_pos_as_xyz
  1  'x, y, z'
loop_
 _atom_site_type_symbol
 _atom_site_label
 _atom_site_symmetry_multiplicity
 _atom_site_fract_x
 _atom_site_fract_y
 _atom_site_fract_z
 _atom_site_occupancy
  Al  Al0  1  0.90054000  0.50197000  0.49840000  1.0
  Al  Al1  1  0.40080000  0.49845000  0.50260000  1.0
  Al  Al2  1  0.27717000  0.99789000  0.00186000  1.0
  Al  Al3  1  0.77709000  0.00117000  0.99743000  1.0
  H  H4  1  0.76616000  0.63580000  0.17287000  1.0
  H  H5  1  0.98718000  0.62681000  0.34628000  1.0
  H  H6  1  0.38806000  0.70514000  0.47245000  1.0
  H  H7  1  0.41284000  0.86382000  0.32690000  1.0
  H  H8  1  0.72750000  0.69459000  0.08525000  1.0
  H  H9  1  0.79027000  0.79444000  0.02738000  1.0
  H  H10  1  0.19012000  0.87317000  0.15359000  1.0
  H  H11  1  0.89518000  0.62941000  0.26860000  1.0
  H  H12  1  0.28333000  0.87032000  0.23124000  1.0
  H  H13  1  0.45202000  0.80482000  0.41452000  1.0
  H  H14  1  0.16077000  0.36932000  0.23254000  1.0
  H  H15  1  0.08983000  0.29830000  0.15717000  1.0
  H  H16  1  0.78037000  0.18391000  0.24360000  1.0
  H  H17  1  0.76619000  0.24785000  0.19425000  1.0
  H  H18  1  0.81598000  0.32819000  0.26425000  1.0
  H  H19  1  0.79839000  0.26485000  0.31399000  1.0
  H  H20  1  0.33978000  0.16701000  0.24018000  1.0
  H  H21  1  0.11776000  0.13004000  0.26546000  1.0
  H  H22  1  0.35257000  0.23176000  0.32165000  1.0
  H  H23  1  0.32243000  0.26011000  0.17056000  1.0
  H  H24  1  0.37598000  0.32407000  0.25141000  1.0
  H  H25  1  0.11366000  0.20251000  0.34190000  1.0
  H  H26  1  0.25746000  0.74717000  0.80109000  1.0
  H  H27  1  0.33529000  0.66378000  0.73659000  1.0
  H  H28  1  0.89111000  0.68873000  0.75215000  1.0
  H  H29  1  0.69274000  0.63383000  0.76851000  1.0
  H  H30  1  0.58379000  0.70156000  0.84147000  1.0
  H  H31  1  0.81174000  0.74609000  0.83432000  1.0
  H  H32  1  0.59565000  0.79808000  0.65889000  1.0
  H  H33  1  0.84294000  0.77641000  0.67847000  1.0
  H  H34  1  0.60483000  0.87159000  0.73493000  1.0
  H  H35  1  0.29939000  0.72281000  0.68392000  1.0
  H  H36  1  0.27255000  0.80878000  0.74959000  1.0
  H  H37  1  0.82751000  0.83707000  0.76214000  1.0
  H  H38  1  0.28107000  0.36386000  0.82654000  1.0
  H  H39  1  0.49275000  0.37374000  0.65388000  1.0
  H  H40  1  0.87783000  0.29546000  0.52858000  1.0
  H  H41  1  0.89665000  0.13576000  0.67341000  1.0
  H  H42  1  0.24163000  0.30423000  0.91366000  1.0
  H  H43  1  0.30045000  0.20408000  0.97133000  1.0
  H  H44  1  0.68643000  0.12615000  0.84609000  1.0
  H  H45  1  0.40593000  0.37089000  0.73137000  1.0
  H  H46  1  0.77200000  0.12878000  0.76859000  1.0
  H  H47  1  0.93574000  0.19519000  0.58622000  1.0
  H  H48  1  0.63677000  0.53561000  0.43469000  1.0
  H  H49  1  0.14214000  0.47120000  0.56918000  1.0
  H  H50  1  0.54104000  0.96562000  0.06614000  1.0
  H  H51  1  0.03673000  0.03178000  0.93237000  1.0
  C  C52  1  0.65850000  0.57720000  0.57867000  1.0
  C  C53  1  0.65644000  0.40040000  0.55509000  1.0
  C  C54  1  0.14823000  0.42323000  0.42279000  1.0
  C  C55  1  0.15563000  0.60017000  0.44556000  1.0
  C  C56  1  0.99672000  0.83853000  0.08800000  1.0
  C  C57  1  0.18066000  0.66128000  0.41191000  1.0
  C  C58  1  0.82681000  0.73423000  0.10052000  1.0
  C  C59  1  0.86272000  0.78875000  0.06812000  1.0
  C  C60  1  0.08805000  0.83362000  0.14013000  1.0
  C  C61  1  0.04198000  0.78060000  0.17601000  1.0
  C  C62  1  0.91120000  0.72943000  0.15493000  1.0
  C  C63  1  0.11665000  0.77711000  0.23302000  1.0
  C  C64  1  0.06177000  0.72267000  0.26683000  1.0
  C  C65  1  0.93587000  0.67182000  0.24337000  1.0
  C  C66  1  0.86366000  0.67501000  0.18974000  1.0
  C  C67  1  0.24279000  0.82790000  0.25647000  1.0
  C  C68  1  0.31509000  0.82466000  0.31009000  1.0
  C  C69  1  0.26763000  0.77023000  0.34490000  1.0
  C  C70  1  0.13642000  0.71919000  0.32384000  1.0
  C  C71  1  0.35225000  0.76531000  0.39929000  1.0
  C  C72  1  0.31539000  0.71087000  0.43172000  1.0
  C  C73  1  0.08965000  0.66624000  0.35976000  1.0
  C  C74  1  0.17939000  0.27369000  0.18960000  1.0
  C  C75  1  0.85691000  0.22886000  0.22914000  1.0
  C  C76  1  0.87930000  0.28060000  0.27662000  1.0
  C  C77  1  0.14069000  0.37552000  0.37781000  1.0
  C  C78  1  0.06659000  0.20996000  0.20725000  1.0
  C  C79  1  0.21501000  0.31936000  0.24085000  1.0
  C  C80  1  0.10441000  0.29133000  0.29224000  1.0
  C  C81  1  0.19688000  0.22382000  0.30694000  1.0
  C  C82  1  0.18831000  0.17763000  0.25531000  1.0
  C  C83  1  0.12575000  0.33681000  0.33900000  1.0
  C  C84  1  0.04876000  0.16436000  0.16045000  1.0
  C  C85  1  0.03679000  0.12527000  0.12184000  1.0
  C  C86  1  0.38539000  0.71259000  0.72230000  1.0
  C  C87  1  0.72932000  0.68592000  0.76082000  1.0
  C  C88  1  0.67560000  0.72927000  0.81166000  1.0
  C  C89  1  0.51668000  0.87455000  0.87680000  1.0
  C  C90  1  0.61198000  0.70912000  0.70827000  1.0
  C  C91  1  0.35116000  0.76618000  0.76724000  1.0
  C  C92  1  0.55576000  0.79022000  0.79200000  1.0
  C  C93  1  0.67685000  0.82478000  0.74540000  1.0
  C  C94  1  0.68810000  0.77933000  0.69354000  1.0
  C  C95  1  0.53000000  0.83567000  0.83826000  1.0
  C  C96  1  0.64134000  0.66377000  0.66212000  1.0
  C  C97  1  0.65812000  0.62492000  0.62367000  1.0
  C  C98  1  0.49995000  0.16041000  0.91123000  1.0
  C  C99  1  0.67887000  0.33932000  0.58872000  1.0
  C  C100  1  0.33677000  0.26468000  0.89854000  1.0
  C  C101  1  0.37070000  0.20998000  0.93084000  1.0
  C  C102  1  0.58804000  0.16558000  0.85937000  1.0
  C  C103  1  0.54354000  0.21876000  0.82356000  1.0
  C  C104  1  0.41847000  0.26986000  0.84446000  1.0
  C  C105  1  0.61502000  0.22249000  0.76683000  1.0
  C  C106  1  0.56356000  0.27731000  0.73317000  1.0
  C  C107  1  0.44381000  0.32818000  0.75649000  1.0
  C  C108  1  0.37407000  0.32464000  0.80981000  1.0
  C  C109  1  0.73430000  0.17152000  0.74349000  1.0
  C  C110  1  0.80394000  0.17502000  0.69015000  1.0
  C  C111  1  0.75971000  0.22983000  0.65550000  1.0
  C  C112  1  0.63494000  0.28102000  0.67641000  1.0
  C  C113  1  0.84119000  0.23488000  0.60138000  1.0
  C  C114  1  0.80766000  0.28961000  0.56909000  1.0
  C  C115  1  0.59084000  0.33423000  0.64060000  1.0
  C  C116  1  0.52274000  0.09928000  0.94480000  1.0
  C  C117  1  0.51698000  0.92227000  0.92178000  1.0
  C  C118  1  0.02076000  0.89971000  0.05449000  1.0
  C  C119  1  0.03124000  0.07710000  0.07718000  1.0
  O  O120  1  0.48294000  0.42484000  0.54752000  1.0
  O  O121  1  0.82789000  0.55909000  0.56030000  1.0
  O  O122  1  0.98008000  0.57824000  0.45586000  1.0
  O  O123  1  0.82089000  0.42416000  0.53712000  1.0
  O  O124  1  0.97973000  0.44669000  0.43704000  1.0
  O  O125  1  0.48522000  0.55712000  0.56223000  1.0
  O  O126  1  0.64640000  0.50759000  0.46719000  1.0
  O  O127  1  0.32064000  0.43811000  0.44329000  1.0
  O  O128  1  0.32012000  0.57393000  0.46068000  1.0
  O  O129  1  0.14910000  0.49363000  0.53371000  1.0
  O  O130  1  0.68982000  0.94398000  0.93705000  1.0
  O  O131  1  0.35792000  0.07437000  0.96142000  1.0
  O  O132  1  0.20109000  0.05544000  0.06214000  1.0
  O  O133  1  0.34777000  0.93881000  0.94127000  1.0
  O  O134  1  0.19577000  0.92316000  0.04576000  1.0
  O  O135  1  0.69696000  0.07599000  0.95363000  1.0
  O  O136  1  0.53162000  0.99246000  0.03295000  1.0
  O  O137  1  0.85606000  0.92456000  0.03785000  1.0
  O  O138  1  0.85894000  0.06009000  0.05779000  1.0
  O  O139  1  0.02868000  0.00633000  0.96634000  1.0
