# generated using pymatgen
data_CuMo2PH12C13(NO5)2
_symmetry_space_group_name_H-M   'P 1'
_cell_length_a   7.93552000
_cell_length_b   10.51490000
_cell_length_c   12.81140000
_cell_angle_alpha   100.89100000
_cell_angle_beta   103.92500000
_cell_angle_gamma   110.54100000
_symmetry_Int_Tables_number   1
_chemical_formula_structural   CuMo2PH12C13(NO5)2
_chemical_formula_sum   'Cu2 Mo4 P2 H24 C26 N4 O20'
_cell_volume   926.62193064
_cell_formula_units_Z   2
loop_
 _symmetry_equiv_pos_site_id
 _symmetry_equiv_pos_as_xyz
  1  'x, y, z'
loop_
 _atom_site_type_symbol
 _atom_site_label
 _atom_site_symmetry_multiplicity
 _atom_site_fract_x
 _atom_site_fract_y
 _atom_site_fract_z
 _atom_site_occupancy
  Cu  Cu0  1  0.38072000  0.83571000  0.29453000  1.0
  Cu  Cu1  1  0.61928000  0.16429000  0.70547000  1.0
  Mo  Mo2  1  0.52095000  0.53145000  0.38078000  1.0
  Mo  Mo3  1  0.47906000  0.46855000  0.61922000  1.0
  Mo  Mo4  1  0.71794000  0.81265000  0.68432000  1.0
  Mo  Mo5  1  0.28206000  0.18735000  0.31568000  1.0
  P  P6  1  0.74810000  0.03038000  0.51984000  1.0
  P  P7  1  0.25190000  0.96962000  0.48016000  1.0
  H  H8  1  0.94383000  0.67959000  0.25949000  1.0
  H  H9  1  0.05616000  0.32042000  0.74050000  1.0
  H  H10  1  0.65143000  0.56394000  0.08771000  1.0
  H  H11  1  0.34856000  0.43606000  0.91229000  1.0
  H  H12  1  0.68638000  0.54724000  0.89519000  1.0
  H  H13  1  0.31362000  0.45277000  0.10481000  1.0
  H  H14  1  0.91341000  0.59390000  0.78119000  1.0
  H  H15  1  0.08658000  0.40610000  0.21881000  1.0
  H  H16  1  0.24430000  0.70092000  0.77821000  1.0
  H  H17  1  0.75570000  0.29908000  0.22179000  1.0
  H  H18  1  0.60234000  0.84136000  0.88990000  1.0
  H  H19  1  0.39766000  0.15864000  0.11010000  1.0
  H  H20  1  0.85930000  0.96283000  0.07942000  1.0
  H  H21  1  0.14069000  0.03717000  0.92058000  1.0
  H  H22  1  0.76915000  0.96325000  0.25319000  1.0
  H  H23  1  0.23085000  0.03674000  0.74680000  1.0
  H  H24  1  0.07591000  0.10529000  0.62021000  1.0
  H  H25  1  0.92408000  0.89471000  0.37979000  1.0
  H  H26  1  0.04228000  0.15441000  0.49495000  1.0
  H  H27  1  0.95773000  0.84559000  0.50506000  1.0
  H  H28  1  0.32112000  0.71022000  0.55949000  1.0
  H  H29  1  0.67888000  0.28978000  0.44051000  1.0
  H  H30  1  0.37507000  0.86116000  0.63445000  1.0
  H  H31  1  0.62493000  0.13884000  0.36555000  1.0
  C  C32  1  0.95421000  0.67186000  0.17532000  1.0
  C  C33  1  0.04579000  0.32815000  0.82468000  1.0
  C  C34  1  0.79108000  0.60620000  0.07763000  1.0
  C  C35  1  0.20892000  0.39380000  0.92237000  1.0
  C  C36  1  0.81000000  0.59624000  0.97218000  1.0
  C  C37  1  0.19000000  0.40376000  0.02782000  1.0
  C  C38  1  0.99460000  0.65225000  0.96348000  1.0
  C  C39  1  0.00539000  0.34775000  0.03651000  1.0
  C  C40  1  0.15002000  0.71775000  0.06589000  1.0
  C  C41  1  0.84997000  0.28225000  0.93411000  1.0
  C  C42  1  0.03370000  0.64642000  0.85952000  1.0
  C  C43  1  0.96629000  0.35358000  0.14047000  1.0
  C  C44  1  0.21646000  0.70503000  0.85792000  1.0
  C  C45  1  0.78354000  0.29497000  0.14208000  1.0
  C  C46  1  0.37538000  0.77444000  0.96094000  1.0
  C  C47  1  0.62462000  0.22555000  0.03906000  1.0
  C  C48  1  0.34022000  0.77938000  0.06442000  1.0
  C  C49  1  0.65977000  0.22061000  0.93557000  1.0
  C  C50  1  0.56767000  0.84121000  0.96705000  1.0
  C  C51  1  0.43232000  0.15879000  0.03295000  1.0
  C  C52  1  0.70971000  0.90863000  0.07129000  1.0
  C  C53  1  0.29029000  0.09137000  0.92871000  1.0
  C  C54  1  0.66163000  0.90810000  0.16994000  1.0
  C  C55  1  0.33837000  0.09189000  0.83005000  1.0
  C  C56  1  0.99133000  0.06633000  0.53007000  1.0
  C  C57  1  0.00867000  0.93367000  0.46993000  1.0
  N  N58  1  0.12853000  0.72671000  0.16876000  1.0
  N  N59  1  0.87147000  0.27328000  0.83124000  1.0
  N  N60  1  0.48179000  0.84400000  0.16606000  1.0
  N  N61  1  0.51822000  0.15600000  0.83394000  1.0
  O  O62  1  0.67436000  0.89810000  0.56148000  1.0
  O  O63  1  0.32565000  0.10191000  0.43852000  1.0
  O  O64  1  0.63122000  0.98953000  0.39395000  1.0
  O  O65  1  0.36878000  0.01048000  0.60605000  1.0
  O  O66  1  0.74450000  0.16302000  0.59156000  1.0
  O  O67  1  0.25549000  0.83698000  0.40843000  1.0
  O  O68  1  0.41689000  0.63013000  0.31726000  1.0
  O  O69  1  0.58313000  0.36988000  0.68274000  1.0
  O  O70  1  0.74614000  0.58055000  0.37263000  1.0
  O  O71  1  0.25387000  0.41944000  0.62738000  1.0
  O  O72  1  0.56446000  0.62383000  0.53690000  1.0
  O  O73  1  0.43554000  0.37618000  0.46310000  1.0
  O  O74  1  0.37658000  0.34995000  0.26333000  1.0
  O  O75  1  0.62341000  0.65006000  0.73667000  1.0
  O  O76  1  0.94458000  0.82966000  0.69436000  1.0
  O  O77  1  0.05542000  0.17033000  0.30564000  1.0
  O  O78  1  0.75083000  0.95062000  0.79543000  1.0
  O  O79  1  0.24917000  0.04938000  0.20457000  1.0
  O  O80  1  0.38144000  0.76872000  0.63835000  1.0
  O  O81  1  0.61856000  0.23128000  0.36165000  1.0
