# generated using pymatgen
data_CuH8C10IN2
_symmetry_space_group_name_H-M   'P 1'
_cell_length_a   9.45202000
_cell_length_b   9.49619000
_cell_length_c   12.16950000
_cell_angle_alpha   89.99990000
_cell_angle_beta   68.12300000
_cell_angle_gamma   89.99990000
_symmetry_Int_Tables_number   1
_chemical_formula_structural   CuH8C10IN2
_chemical_formula_sum   'Cu4 H32 C40 I4 N8'
_cell_volume   1013.65027534
_cell_formula_units_Z   4
loop_
 _symmetry_equiv_pos_site_id
 _symmetry_equiv_pos_as_xyz
  1  'x, y, z'
loop_
 _atom_site_type_symbol
 _atom_site_label
 _atom_site_symmetry_multiplicity
 _atom_site_fract_x
 _atom_site_fract_y
 _atom_site_fract_z
 _atom_site_occupancy
  Cu  Cu0  1  0.56377000  0.87325000  0.48338000  1.0
  Cu  Cu1  1  0.93623000  0.37324000  0.01662000  1.0
  Cu  Cu2  1  0.43622000  0.12676000  0.51662000  1.0
  Cu  Cu3  1  0.06377000  0.62675000  0.98338000  1.0
  H  H4  1  0.62963000  0.71185000  0.86468000  1.0
  H  H5  1  0.87037000  0.21185000  0.63531000  1.0
  H  H6  1  0.37037000  0.28815000  0.13531000  1.0
  H  H7  1  0.12963000  0.78815000  0.36468000  1.0
  H  H8  1  0.53696000  0.80728000  0.25689000  1.0
  H  H9  1  0.96304000  0.30728000  0.24311000  1.0
  H  H10  1  0.46304000  0.19272000  0.74311000  1.0
  H  H11  1  0.03696000  0.69272000  0.75689000  1.0
  H  H12  1  0.63510000  0.68426000  0.06851000  1.0
  H  H13  1  0.86490000  0.18426000  0.43149000  1.0
  H  H14  1  0.36490000  0.31574000  0.93149000  1.0
  H  H15  1  0.13510000  0.81574000  0.56851000  1.0
  H  H16  1  0.23020000  0.45233000  0.31887000  1.0
  H  H17  1  0.26979000  0.95233000  0.18113000  1.0
  H  H18  1  0.76979000  0.54767000  0.68113000  1.0
  H  H19  1  0.73021000  0.04767000  0.81887000  1.0
  H  H20  1  0.14815000  0.61356000  0.19435000  1.0
  H  H21  1  0.35185000  0.11356000  0.30565000  1.0
  H  H22  1  0.85185000  0.38644000  0.80565000  1.0
  H  H23  1  0.64815000  0.88644000  0.69435000  1.0
  H  H24  1  0.38309000  0.67986000  0.83600000  1.0
  H  H25  1  0.11691000  0.17987000  0.66400000  1.0
  H  H26  1  0.61691000  0.32013000  0.16400000  1.0
  H  H27  1  0.88308000  0.82014000  0.33600000  1.0
  H  H28  1  0.37260000  0.62335000  0.58959000  1.0
  H  H29  1  0.12740000  0.12335000  0.91041000  1.0
  H  H30  1  0.62740000  0.37665000  0.41041000  1.0
  H  H31  1  0.87260000  0.87665000  0.08959000  1.0
  H  H32  1  0.22561000  0.44529000  0.52739000  1.0
  H  H33  1  0.27439000  0.94529000  0.97261000  1.0
  H  H34  1  0.77439000  0.55471000  0.47261000  1.0
  H  H35  1  0.72561000  0.05471000  0.02739000  1.0
  C  C36  1  0.52578000  0.68963000  0.94040000  1.0
  C  C37  1  0.97422000  0.18963000  0.55960000  1.0
  C  C38  1  0.47422000  0.31037000  0.05960000  1.0
  C  C39  1  0.02578000  0.81037000  0.44040000  1.0
  C  C40  1  0.38529000  0.63046000  0.27040000  1.0
  C  C41  1  0.11471000  0.13046000  0.22960000  1.0
  C  C42  1  0.61471000  0.36954000  0.72960000  1.0
  C  C43  1  0.88529000  0.86954000  0.77040000  1.0
  C  C44  1  0.39171000  0.64609000  0.14812000  1.0
  C  C45  1  0.10828000  0.14609000  0.35188000  1.0
  C  C46  1  0.60829000  0.35390000  0.85188000  1.0
  C  C47  1  0.89172000  0.85390000  0.64812000  1.0
  C  C48  1  0.46742000  0.72389000  0.31312000  1.0
  C  C49  1  0.03258000  0.22388000  0.18688000  1.0
  C  C50  1  0.53258000  0.27611000  0.68688000  1.0
  C  C51  1  0.96742000  0.77611000  0.81312000  1.0
  C  C52  1  0.52855000  0.67642000  0.05348000  1.0
  C  C53  1  0.97145000  0.17642000  0.44652000  1.0
  C  C54  1  0.47145000  0.32357000  0.94652000  1.0
  C  C55  1  0.02855000  0.82358000  0.55348000  1.0
  C  C56  1  0.29571000  0.52771000  0.34833000  1.0
  C  C57  1  0.20428000  0.02771000  0.15166000  1.0
  C  C58  1  0.70428000  0.47229000  0.65167000  1.0
  C  C59  1  0.79572000  0.97229000  0.84833000  1.0
  C  C60  1  0.25870000  0.63350000  0.12382000  1.0
  C  C61  1  0.24130000  0.13349000  0.37618000  1.0
  C  C62  1  0.74130000  0.36650000  0.87618000  1.0
  C  C63  1  0.75870000  0.86650000  0.62382000  1.0
  C  C64  1  0.38910000  0.67229000  0.92358000  1.0
  C  C65  1  0.11090000  0.17229000  0.57642000  1.0
  C  C66  1  0.61090000  0.32771000  0.07642000  1.0
  C  C67  1  0.88910000  0.82771000  0.42358000  1.0
  C  C68  1  0.37598000  0.62184000  0.49903000  1.0
  C  C69  1  0.12402000  0.12184000  0.00097000  1.0
  C  C70  1  0.62402000  0.37816000  0.50097000  1.0
  C  C71  1  0.87598000  0.87816000  0.99903000  1.0
  C  C72  1  0.29253000  0.52336000  0.46367000  1.0
  C  C73  1  0.20747000  0.02336000  0.03633000  1.0
  C  C74  1  0.70747000  0.47664000  0.53633000  1.0
  C  C75  1  0.79253000  0.97664000  0.96367000  1.0
  I  I76  1  0.34582000  0.93501000  0.69307000  1.0
  I  I77  1  0.15418000  0.43501000  0.80693000  1.0
  I  I78  1  0.65418000  0.06499000  0.30693000  1.0
  I  I79  1  0.84582000  0.56499000  0.19307000  1.0
  N  N80  1  0.46178000  0.72221000  0.42532000  1.0
  N  N81  1  0.03822000  0.22221000  0.07468000  1.0
  N  N82  1  0.53822000  0.27779000  0.57468000  1.0
  N  N83  1  0.96178000  0.77779000  0.92532000  1.0
  N  N84  1  0.25612000  0.64592000  0.01433000  1.0
  N  N85  1  0.24388000  0.14592000  0.48567000  1.0
  N  N86  1  0.74388000  0.35408000  0.98567000  1.0
  N  N87  1  0.75612000  0.85408000  0.51433000  1.0
