# generated using pymatgen
data_CdH9C13N(O3F2)2
_symmetry_space_group_name_H-M   'P 1'
_cell_length_a   6.13328000
_cell_length_b   7.86527000
_cell_length_c   30.20250000
_cell_angle_alpha   89.99960000
_cell_angle_beta   90.00010000
_cell_angle_gamma   89.99990000
_symmetry_Int_Tables_number   1
_chemical_formula_structural   CdH9C13N(O3F2)2
_chemical_formula_sum   'Cd4 H36 C52 N4 O24 F16'
_cell_volume   1456.96567592
_cell_formula_units_Z   4
loop_
 _symmetry_equiv_pos_site_id
 _symmetry_equiv_pos_as_xyz
  1  'x, y, z'
loop_
 _atom_site_type_symbol
 _atom_site_label
 _atom_site_symmetry_multiplicity
 _atom_site_fract_x
 _atom_site_fract_y
 _atom_site_fract_z
 _atom_site_occupancy
  Cd  Cd0  1  0.11782000  0.34345000  0.30063000  1.0
  Cd  Cd1  1  0.38219000  0.65655000  0.80062000  1.0
  Cd  Cd2  1  0.61783000  0.15655000  0.69937000  1.0
  Cd  Cd3  1  0.88218000  0.84346000  0.19938000  1.0
  H  H4  1  0.83130000  0.25445000  0.38662000  1.0
  H  H5  1  0.66870000  0.74553000  0.88663000  1.0
  H  H6  1  0.33131000  0.24554000  0.61337000  1.0
  H  H7  1  0.16870000  0.75446000  0.11337000  1.0
  H  H8  1  0.82589000  0.30321000  0.46914000  1.0
  H  H9  1  0.67411000  0.69677000  0.96915000  1.0
  H  H10  1  0.32587000  0.19678000  0.53086000  1.0
  H  H11  1  0.17410000  0.80321000  0.03086000  1.0
  H  H12  1  0.13950000  0.45780000  0.50401000  1.0
  H  H13  1  0.36049000  0.54219000  0.00401000  1.0
  H  H14  1  0.63947000  0.04220000  0.49599000  1.0
  H  H15  1  0.86049000  0.95781000  0.99599000  1.0
  H  H16  1  0.45100000  0.55208000  0.45544000  1.0
  H  H17  1  0.04899000  0.44791000  0.95544000  1.0
  H  H18  1  0.95099000  0.94791000  0.54455000  1.0
  H  H19  1  0.54899000  0.05209000  0.04456000  1.0
  H  H20  1  0.42940000  0.49084000  0.37375000  1.0
  H  H21  1  0.07061000  0.50915000  0.87374000  1.0
  H  H22  1  0.92940000  0.00915000  0.62625000  1.0
  H  H23  1  0.57061000  0.99084000  0.12626000  1.0
  H  H24  1  0.66710000  0.19024000  0.30421000  1.0
  H  H25  1  0.83290000  0.80977000  0.80421000  1.0
  H  H26  1  0.16711000  0.30977000  0.69579000  1.0
  H  H27  1  0.33290000  0.69023000  0.19579000  1.0
  H  H28  1  0.85419000  0.05588000  0.29545000  1.0
  H  H29  1  0.64581000  0.94412000  0.79545000  1.0
  H  H30  1  0.35420000  0.44413000  0.70455000  1.0
  H  H31  1  0.14581000  0.55588000  0.20455000  1.0
  H  H32  1  0.43167000  0.61891000  0.28954000  1.0
  H  H33  1  0.06836000  0.38108000  0.78954000  1.0
  H  H34  1  0.93164000  0.88109000  0.71046000  1.0
  H  H35  1  0.56833000  0.11891000  0.21046000  1.0
  H  H36  1  0.50317000  0.45052000  0.26401000  1.0
  H  H37  1  0.99683000  0.54947000  0.76401000  1.0
  H  H38  1  0.00317000  0.04947000  0.73599000  1.0
  H  H39  1  0.49683000  0.95052000  0.23599000  1.0
  C  C40  1  0.10165000  0.27236000  0.11567000  1.0
  C  C41  1  0.39833000  0.72766000  0.61567000  1.0
  C  C42  1  0.60167000  0.22765000  0.88433000  1.0
  C  C43  1  0.89836000  0.77235000  0.38433000  1.0
  C  C44  1  0.03952000  0.32800000  0.07377000  1.0
  C  C45  1  0.46044000  0.67200000  0.57377000  1.0
  C  C46  1  0.53953000  0.17200000  0.92623000  1.0
  C  C47  1  0.96047000  0.82801000  0.42624000  1.0
  C  C48  1  0.84592000  0.41840000  0.06897000  1.0
  C  C49  1  0.65405000  0.58161000  0.56897000  1.0
  C  C50  1  0.34593000  0.08161000  0.93103000  1.0
  C  C51  1  0.15407000  0.91839000  0.43104000  1.0
  C  C52  1  0.72083000  0.45629000  0.10621000  1.0
  C  C53  1  0.77915000  0.54371000  0.60621000  1.0
  C  C54  1  0.22083000  0.04371000  0.89379000  1.0
  C  C55  1  0.27919000  0.95629000  0.39379000  1.0
  C  C56  1  0.78504000  0.40520000  0.14839000  1.0
  C  C57  1  0.71497000  0.59481000  0.64839000  1.0
  C  C58  1  0.28503000  0.09481000  0.85161000  1.0
  C  C59  1  0.21498000  0.90520000  0.35162000  1.0
  C  C60  1  0.97660000  0.30787000  0.15291000  1.0
  C  C61  1  0.52339000  0.69214000  0.65291000  1.0
  C  C62  1  0.47660000  0.19214000  0.84709000  1.0
  C  C63  1  0.02341000  0.80786000  0.34709000  1.0
  C  C64  1  0.05259000  0.25078000  0.19829000  1.0
  C  C65  1  0.44742000  0.74924000  0.69829000  1.0
  C  C66  1  0.55260000  0.24921000  0.80171000  1.0
  C  C67  1  0.94744000  0.75077000  0.30171000  1.0
  C  C68  1  0.65586000  0.45887000  0.18903000  1.0
  C  C69  1  0.84413000  0.54113000  0.68903000  1.0
  C  C70  1  0.15586000  0.04113000  0.81097000  1.0
  C  C71  1  0.34414000  0.95887000  0.31097000  1.0
  C  C72  1  0.96380000  0.31989000  0.40368000  1.0
  C  C73  1  0.53620000  0.68009000  0.90368000  1.0
  C  C74  1  0.46379000  0.18010000  0.59632000  1.0
  C  C75  1  0.03621000  0.81990000  0.09632000  1.0
  C  C76  1  0.96301000  0.34674000  0.44925000  1.0
  C  C77  1  0.53697000  0.65325000  0.94925000  1.0
  C  C78  1  0.46301000  0.15326000  0.55075000  1.0
  C  C79  1  0.03698000  0.84674000  0.05075000  1.0
  C  C80  1  0.13886000  0.43154000  0.46857000  1.0
  C  C81  1  0.36115000  0.56845000  0.96857000  1.0
  C  C82  1  0.63885000  0.06845000  0.53143000  1.0
  C  C83  1  0.86115000  0.93155000  0.03143000  1.0
  C  C84  1  0.31118000  0.48481000  0.44174000  1.0
  C  C85  1  0.18882000  0.51518000  0.94174000  1.0
  C  C86  1  0.81118000  0.01519000  0.55826000  1.0
  C  C87  1  0.68882000  0.98482000  0.05826000  1.0
  C  C88  1  0.30026000  0.45226000  0.39642000  1.0
  C  C89  1  0.19974000  0.54773000  0.89643000  1.0
  C  C90  1  0.80026000  0.04774000  0.60357000  1.0
  C  C91  1  0.69975000  0.95227000  0.10358000  1.0
  N  N92  1  0.12929000  0.37247000  0.37783000  1.0
  N  N93  1  0.37073000  0.62752000  0.87783000  1.0
  N  N94  1  0.62927000  0.12753000  0.62217000  1.0
  N  N95  1  0.87072000  0.87248000  0.12217000  1.0
  O  O96  1  0.08705000  0.37253000  0.22542000  1.0
  O  O97  1  0.41294000  0.62747000  0.72543000  1.0
  O  O98  1  0.58706000  0.12747000  0.77458000  1.0
  O  O99  1  0.91295000  0.87253000  0.27458000  1.0
  O  O100  1  0.07765000  0.09645000  0.20638000  1.0
  O  O101  1  0.42238000  0.90354000  0.70637000  1.0
  O  O102  1  0.57764000  0.40356000  0.79362000  1.0
  O  O103  1  0.92237000  0.59646000  0.29363000  1.0
  O  O104  1  0.62677000  0.61793000  0.19430000  1.0
  O  O105  1  0.87323000  0.38208000  0.69430000  1.0
  O  O106  1  0.12677000  0.88207000  0.80570000  1.0
  O  O107  1  0.37323000  0.11792000  0.30570000  1.0
  O  O108  1  0.58625000  0.34426000  0.21451000  1.0
  O  O109  1  0.91374000  0.65574000  0.71451000  1.0
  O  O110  1  0.08626000  0.15574000  0.78548000  1.0
  O  O111  1  0.41375000  0.84426000  0.28549000  1.0
  O  O112  1  0.82265000  0.16819000  0.31000000  1.0
  O  O113  1  0.67735000  0.83181000  0.81000000  1.0
  O  O114  1  0.32266000  0.33182000  0.68999000  1.0
  O  O115  1  0.17735000  0.66819000  0.19000000  1.0
  O  O116  1  0.43912000  0.49323000  0.29222000  1.0
  O  O117  1  0.06090000  0.50676000  0.79222000  1.0
  O  O118  1  0.93910000  0.00677000  0.70778000  1.0
  O  O119  1  0.56089000  0.99323000  0.20778000  1.0
  F  F120  1  0.29263000  0.18651000  0.11910000  1.0
  F  F121  1  0.20736000  0.81350000  0.61910000  1.0
  F  F122  1  0.79264000  0.31348000  0.88090000  1.0
  F  F123  1  0.70738000  0.68652000  0.38090000  1.0
  F  F124  1  0.16463000  0.29444000  0.03792000  1.0
  F  F125  1  0.33534000  0.70556000  0.53792000  1.0
  F  F126  1  0.66465000  0.20556000  0.96208000  1.0
  F  F127  1  0.83536000  0.79445000  0.46209000  1.0
  F  F128  1  0.78202000  0.46958000  0.02821000  1.0
  F  F129  1  0.71794000  0.53042000  0.52821000  1.0
  F  F130  1  0.28204000  0.03042000  0.97179000  1.0
  F  F131  1  0.21796000  0.96959000  0.47179000  1.0
  F  F132  1  0.53316000  0.54466000  0.09968000  1.0
  F  F133  1  0.96685000  0.45535000  0.59968000  1.0
  F  F134  1  0.03315000  0.95535000  0.90032000  1.0
  F  F135  1  0.46686000  0.04466000  0.40033000  1.0
