# generated using pymatgen
data_Cd3H44C52S2(N7O8)2
_symmetry_space_group_name_H-M   'P 1'
_cell_length_a   10.18320000
_cell_length_b   13.54030000
_cell_length_c   13.66490000
_cell_angle_alpha   73.11330000
_cell_angle_beta   81.50110000
_cell_angle_gamma   81.14000000
_symmetry_Int_Tables_number   1
_chemical_formula_structural   Cd3H44C52S2(N7O8)2
_chemical_formula_sum   'Cd3 H44 C52 S2 N14 O16'
_cell_volume   1770.79594033
_cell_formula_units_Z   1
loop_
 _symmetry_equiv_pos_site_id
 _symmetry_equiv_pos_as_xyz
  1  'x, y, z'
loop_
 _atom_site_type_symbol
 _atom_site_label
 _atom_site_symmetry_multiplicity
 _atom_site_fract_x
 _atom_site_fract_y
 _atom_site_fract_z
 _atom_site_occupancy
  Cd  Cd0  1  0.66300000  0.40622000  0.54721000  1.0
  Cd  Cd1  1  0.33701000  0.59378000  0.45279000  1.0
  Cd  Cd2  1  0.00000000  0.00000000  0.00000000  1.0
  H  H3  1  0.98256000  0.10409000  0.68885000  1.0
  H  H4  1  0.01744000  0.89591000  0.31115000  1.0
  H  H5  1  0.40246000  0.12765000  0.67880000  1.0
  H  H6  1  0.59754000  0.87235000  0.32120000  1.0
  H  H7  1  0.13815000  0.39354000  0.53174000  1.0
  H  H8  1  0.86185000  0.60646000  0.46826000  1.0
  H  H9  1  0.66142000  0.24259000  0.42491000  1.0
  H  H10  1  0.33858000  0.75741000  0.57509000  1.0
  H  H11  1  0.66150000  0.22680000  0.24566000  1.0
  H  H12  1  0.33850000  0.77320000  0.75434000  1.0
  H  H13  1  0.70403000  0.55512000  0.13266000  1.0
  H  H14  1  0.29597000  0.44488000  0.86735000  1.0
  H  H15  1  0.70448000  0.55652000  0.31617000  1.0
  H  H16  1  0.29551000  0.44348000  0.68384000  1.0
  H  H17  1  0.64960000  0.28285000  0.95727000  1.0
  H  H18  1  0.35041000  0.71715000  0.04273000  1.0
  H  H19  1  0.64523000  0.27692000  0.77381000  1.0
  H  H20  1  0.35478000  0.72309000  0.22619000  1.0
  H  H21  1  0.66806000  0.59195000  0.65861000  1.0
  H  H22  1  0.33194000  0.40806000  0.34139000  1.0
  H  H23  1  0.67451000  0.61184000  0.83735000  1.0
  H  H24  1  0.32549000  0.38816000  0.16266000  1.0
  H  H25  1  0.00790000  0.21781000  0.82243000  1.0
  H  H26  1  0.99210000  0.78219000  0.17757000  1.0
  H  H27  1  0.00422000  0.40850000  0.80635000  1.0
  H  H28  1  0.99578000  0.59150000  0.19364000  1.0
  H  H29  1  0.03856000  0.32505000  0.13273000  1.0
  H  H30  1  0.96145000  0.67495000  0.86727000  1.0
  H  H31  1  0.04239000  0.13823000  0.13541000  1.0
  H  H32  1  0.95761000  0.86177000  0.86459000  1.0
  H  H33  1  0.57958000  0.99675000  0.74552000  1.0
  H  H34  1  0.42041000  0.00324000  0.25448000  1.0
  H  H35  1  0.64100000  0.12017000  0.68439000  1.0
  H  H36  1  0.35900000  0.87982000  0.31560000  1.0
  H  H37  1  0.75433000  0.01098000  0.74010000  1.0
  H  H38  1  0.24566000  0.98901000  0.25990000  1.0
  H  H39  1  0.42249000  0.04925000  0.88236000  1.0
  H  H40  1  0.57751000  0.95076000  0.11763000  1.0
  H  H41  1  0.48196000  0.12037000  0.95585000  1.0
  H  H42  1  0.51804000  0.87963000  0.04415000  1.0
  H  H43  1  0.45167000  0.18087000  0.82454000  1.0
  H  H44  1  0.54834000  0.81913000  0.17545000  1.0
  H  H45  1  0.69058000  0.08777000  0.97673000  1.0
  H  H46  1  0.30942000  0.91223000  0.02327000  1.0
  C  C47  1  0.04812000  0.25333000  0.60716000  1.0
  C  C48  1  0.95188000  0.74667000  0.39284000  1.0
  C  C49  1  0.06748000  0.14898000  0.66444000  1.0
  C  C50  1  0.93252000  0.85102000  0.33556000  1.0
  C  C51  1  0.19517000  0.10469000  0.69097000  1.0
  C  C52  1  0.80483000  0.89531000  0.30903000  1.0
  C  C53  1  0.30297000  0.16278000  0.65946000  1.0
  C  C54  1  0.69703000  0.83722000  0.34054000  1.0
  C  C55  1  0.28379000  0.26690000  0.60149000  1.0
  C  C56  1  0.71621000  0.73310000  0.39851000  1.0
  C  C57  1  0.15608000  0.31221000  0.57543000  1.0
  C  C58  1  0.84392000  0.68779000  0.42457000  1.0
  C  C59  1  0.91057000  0.30390000  0.58260000  1.0
  C  C60  1  0.08943000  0.69610000  0.41740000  1.0
  C  C61  1  0.39977000  0.32944000  0.57065000  1.0
  C  C62  1  0.60023000  0.67056000  0.42935000  1.0
  C  C63  1  0.66981000  0.30989000  0.35799000  1.0
  C  C64  1  0.33019000  0.69011000  0.64201000  1.0
  C  C65  1  0.66998000  0.30118000  0.25886000  1.0
  C  C66  1  0.33002000  0.69882000  0.74114000  1.0
  C  C67  1  0.68077000  0.39082000  0.17668000  1.0
  C  C68  1  0.31923000  0.60918000  0.82332000  1.0
  C  C69  1  0.69418000  0.48502000  0.19580000  1.0
  C  C70  1  0.30582000  0.51498000  0.80421000  1.0
  C  C71  1  0.69410000  0.48564000  0.29695000  1.0
  C  C72  1  0.30590000  0.51436000  0.70305000  1.0
  C  C73  1  0.66270000  0.44833000  0.90922000  1.0
  C  C74  1  0.33730000  0.55167000  0.09078000  1.0
  C  C75  1  0.65372000  0.35221000  0.89249000  1.0
  C  C76  1  0.34628000  0.64779000  0.10751000  1.0
  C  C77  1  0.65048000  0.34913000  0.79238000  1.0
  C  C78  1  0.34952000  0.65088000  0.20762000  1.0
  C  C79  1  0.66463000  0.52613000  0.72726000  1.0
  C  C80  1  0.33538000  0.47387000  0.27274000  1.0
  C  C81  1  0.66824000  0.53670000  0.82525000  1.0
  C  C82  1  0.33177000  0.46331000  0.17475000  1.0
  C  C83  1  0.01506000  0.24506000  0.88892000  1.0
  C  C84  1  0.98494000  0.75494000  0.11108000  1.0
  C  C85  1  0.01297000  0.35030000  0.88014000  1.0
  C  C86  1  0.98703000  0.64970000  0.11985000  1.0
  C  C87  1  0.01889000  0.38009000  0.96927000  1.0
  C  C88  1  0.98111000  0.61990000  0.03072000  1.0
  C  C89  1  0.03266000  0.30359000  0.06281000  1.0
  C  C90  1  0.96735000  0.69640000  0.93718000  1.0
  C  C91  1  0.03589000  0.20046000  0.06422000  1.0
  C  C92  1  0.96411000  0.79954000  0.93578000  1.0
  C  C93  1  0.65167000  0.04854000  0.74764000  1.0
  C  C94  1  0.34833000  0.95145000  0.25236000  1.0
  C  C95  1  0.48757000  0.10793000  0.87941000  1.0
  C  C96  1  0.51242000  0.89207000  0.12059000  1.0
  C  C97  1  0.72381000  0.06890000  0.90286000  1.0
  C  C98  1  0.27618000  0.93110000  0.09714000  1.0
  S  S99  1  0.21922000  0.97480000  0.77277000  1.0
  S  S100  1  0.78078000  0.02520000  0.22723000  1.0
  N  N101  1  0.68100000  0.40015000  0.37670000  1.0
  N  N102  1  0.31900000  0.59985000  0.62330000  1.0
  N  N103  1  0.67907000  0.37852000  0.07768000  1.0
  N  N104  1  0.32093000  0.62148000  0.92233000  1.0
  N  N105  1  0.66494000  0.46294000  0.00759000  1.0
  N  N106  1  0.33506000  0.53707000  0.99241000  1.0
  N  N107  1  0.65484000  0.43438000  0.71144000  1.0
  N  N108  1  0.34516000  0.56562000  0.28856000  1.0
  N  N109  1  0.02540000  0.17198000  0.97913000  1.0
  N  N110  1  0.97460000  0.82802000  0.02086000  1.0
  N  N111  1  0.01085000  0.48816000  0.95781000  1.0
  N  N112  1  0.98915000  0.51184000  0.04219000  1.0
  N  N113  1  0.62548000  0.07389000  0.84623000  1.0
  N  N114  1  0.37452000  0.92610000  0.15377000  1.0
  O  O115  1  0.89655000  0.40117000  0.53721000  1.0
  O  O116  1  0.10344000  0.59883000  0.46279000  1.0
  O  O117  1  0.81388000  0.24864000  0.61014000  1.0
  O  O118  1  0.18612000  0.75135000  0.38986000  1.0
  O  O119  1  0.38993000  0.41466000  0.49985000  1.0
  O  O120  1  0.61007000  0.58534000  0.50015000  1.0
  O  O121  1  0.50391000  0.29384000  0.61746000  1.0
  O  O122  1  0.49609000  0.70616000  0.38254000  1.0
  O  O123  1  0.36108000  0.93708000  0.75622000  1.0
  O  O124  1  0.63892000  0.06292000  0.24378000  1.0
  O  O125  1  0.12666000  0.91634000  0.74719000  1.0
  O  O126  1  0.87334000  0.08366000  0.25281000  1.0
  O  O127  1  0.18558000  0.98890000  0.87885000  1.0
  O  O128  1  0.81442000  0.01110000  0.12116000  1.0
  O  O129  1  0.84542000  0.04363000  0.87743000  1.0
  O  O130  1  0.15457000  0.95637000  0.12258000  1.0
