# generated using pymatgen
data_Na2Zn3H12(C10O9)2
_symmetry_space_group_name_H-M   'P 1'
_cell_length_a   7.39182000
_cell_length_b   10.45730000
_cell_length_c   16.54200000
_cell_angle_alpha   86.84730000
_cell_angle_beta   81.04780000
_cell_angle_gamma   69.30290000
_symmetry_Int_Tables_number   1
_chemical_formula_structural   Na2Zn3H12(C10O9)2
_chemical_formula_sum   'Na4 Zn6 H24 C40 O36'
_cell_volume   1181.57756889
_cell_formula_units_Z   2
loop_
 _symmetry_equiv_pos_site_id
 _symmetry_equiv_pos_as_xyz
  1  'x, y, z'
loop_
 _atom_site_type_symbol
 _atom_site_label
 _atom_site_symmetry_multiplicity
 _atom_site_fract_x
 _atom_site_fract_y
 _atom_site_fract_z
 _atom_site_occupancy
  Na  Na0  1  0.64007000  0.72073000  0.25006000  1.0
  Na  Na1  1  0.35993000  0.27927000  0.74994000  1.0
  Na  Na2  1  0.86988000  0.26038000  0.74998000  1.0
  Na  Na3  1  0.13012000  0.73962000  0.25002000  1.0
  Zn  Zn4  1  0.86906000  0.98408000  0.40152000  1.0
  Zn  Zn5  1  0.14681000  0.98422000  0.09853000  1.0
  Zn  Zn6  1  0.13094000  0.01592000  0.59848000  1.0
  Zn  Zn7  1  0.85319000  0.01578000  0.90147000  1.0
  Zn  Zn8  1  0.84796000  0.30427000  0.25001000  1.0
  Zn  Zn9  1  0.15204000  0.69573000  0.74999000  1.0
  H  H10  1  0.59814000  0.15633000  0.32560000  1.0
  H  H11  1  0.24589000  0.15632000  0.17436000  1.0
  H  H12  1  0.40186000  0.84367000  0.67440000  1.0
  H  H13  1  0.75411000  0.84368000  0.82564000  1.0
  H  H14  1  0.57134000  0.00469000  0.33120000  1.0
  H  H15  1  0.42426000  0.00461000  0.16877000  1.0
  H  H16  1  0.42865000  0.99531000  0.66880000  1.0
  H  H17  1  0.57574000  0.99540000  0.83123000  1.0
  H  H18  1  0.91639000  0.48546000  0.36397000  1.0
  H  H19  1  0.59791000  0.48542000  0.13620000  1.0
  H  H20  1  0.08361000  0.51454000  0.63603000  1.0
  H  H21  1  0.40209000  0.51458000  0.86380000  1.0
  H  H22  1  0.63670000  0.73389000  0.57673000  1.0
  H  H23  1  0.62969000  0.73415000  0.92362000  1.0
  H  H24  1  0.36330000  0.26611000  0.42327000  1.0
  H  H25  1  0.37032000  0.26585000  0.07638000  1.0
  H  H26  1  0.68165000  0.31144000  0.57963000  1.0
  H  H27  1  0.00608000  0.31142000  0.92040000  1.0
  H  H28  1  0.31835000  0.68856000  0.42037000  1.0
  H  H29  1  0.99392000  0.68858000  0.07960000  1.0
  H  H30  1  0.21670000  0.04519000  0.40154000  1.0
  H  H31  1  0.73835000  0.04502000  0.09837000  1.0
  H  H32  1  0.78330000  0.95481000  0.59846000  1.0
  H  H33  1  0.26164000  0.95498000  0.90163000  1.0
  C  C34  1  0.84174000  0.49473000  0.42678000  1.0
  C  C35  1  0.66331000  0.49471000  0.07340000  1.0
  C  C36  1  0.15827000  0.50527000  0.57322000  1.0
  C  C37  1  0.33670000  0.50529000  0.92660000  1.0
  C  C38  1  0.64737000  0.52401000  0.58761000  1.0
  C  C39  1  0.82833000  0.52412000  0.91255000  1.0
  C  C40  1  0.35263000  0.47599000  0.41239000  1.0
  C  C41  1  0.17167000  0.47588000  0.08745000  1.0
  C  C42  1  0.80757000  0.38253000  0.46767000  1.0
  C  C43  1  0.80950000  0.38249000  0.03244000  1.0
  C  C44  1  0.19243000  0.61747000  0.53233000  1.0
  C  C45  1  0.19050000  0.61751000  0.96756000  1.0
  C  C46  1  0.82060000  0.74040000  0.42449000  1.0
  C  C47  1  0.43899000  0.74045000  0.07576000  1.0
  C  C48  1  0.17940000  0.25960000  0.57551000  1.0
  C  C49  1  0.56101000  0.25955000  0.92424000  1.0
  C  C50  1  0.68430000  0.63487000  0.54703000  1.0
  C  C51  1  0.68092000  0.63502000  0.95324000  1.0
  C  C52  1  0.31570000  0.36513000  0.45297000  1.0
  C  C53  1  0.31908000  0.36498000  0.04676000  1.0
  C  C54  1  0.71111000  0.39766000  0.54819000  1.0
  C  C55  1  0.89068000  0.39767000  0.95190000  1.0
  C  C56  1  0.28888000  0.60234000  0.45181000  1.0
  C  C57  1  0.10932000  0.60233000  0.04810000  1.0
  C  C58  1  0.78130000  0.62065000  0.46682000  1.0
  C  C59  1  0.59804000  0.62072000  0.03343000  1.0
  C  C60  1  0.21870000  0.37934000  0.53318000  1.0
  C  C61  1  0.40196000  0.37928000  0.96657000  1.0
  C  C62  1  0.52169000  0.54093000  0.66899000  1.0
  C  C63  1  0.93683000  0.54089000  0.83109000  1.0
  C  C64  1  0.47831000  0.45907000  0.33101000  1.0
  C  C65  1  0.06318000  0.45910000  0.16891000  1.0
  C  C66  1  0.86790000  0.24780000  0.42598000  1.0
  C  C67  1  0.88420000  0.24772000  0.07406000  1.0
  C  C68  1  0.13210000  0.75220000  0.57402000  1.0
  C  C69  1  0.11580000  0.75228000  0.92593000  1.0
  C  C70  1  0.26877000  0.95479000  0.36127000  1.0
  C  C71  1  0.77664000  0.95463000  0.13866000  1.0
  C  C72  1  0.73123000  0.04521000  0.63873000  1.0
  C  C73  1  0.22336000  0.04537000  0.86134000  1.0
  O  O74  1  0.82830000  0.15067000  0.46617000  1.0
  O  O75  1  0.02095000  0.15070000  0.03379000  1.0
  O  O76  1  0.17170000  0.84933000  0.53383000  1.0
  O  O77  1  0.97905000  0.84930000  0.96621000  1.0
  O  O78  1  0.14177000  0.90529000  0.34504000  1.0
  O  O79  1  0.95314000  0.90511000  0.15489000  1.0
  O  O80  1  0.85823000  0.09471000  0.65496000  1.0
  O  O81  1  0.04685000  0.09489000  0.84511000  1.0
  O  O82  1  0.79556000  0.84366000  0.47005000  1.0
  O  O83  1  0.36071000  0.84364000  0.03015000  1.0
  O  O84  1  0.20444000  0.15634000  0.52995000  1.0
  O  O85  1  0.63929000  0.15636000  0.96985000  1.0
  O  O86  1  0.66603000  0.05649000  0.32696000  1.0
  O  O87  1  0.27778000  0.05649000  0.17299000  1.0
  O  O88  1  0.33397000  0.94352000  0.67304000  1.0
  O  O89  1  0.72222000  0.94351000  0.82701000  1.0
  O  O90  1  0.95723000  0.23294000  0.35252000  1.0
  O  O91  1  0.81019000  0.23266000  0.14756000  1.0
  O  O92  1  0.04277000  0.76706000  0.64748000  1.0
  O  O93  1  0.18981000  0.76734000  0.85244000  1.0
  O  O94  1  0.41917000  0.66626000  0.69194000  1.0
  O  O95  1  0.91464000  0.66618000  0.80823000  1.0
  O  O96  1  0.58083000  0.33374000  0.30806000  1.0
  O  O97  1  0.08536000  0.33382000  0.19177000  1.0
  O  O98  1  0.87578000  0.73629000  0.34851000  1.0
  O  O99  1  0.38798000  0.73636000  0.15173000  1.0
  O  O100  1  0.12422000  0.26371000  0.65149000  1.0
  O  O101  1  0.61202000  0.26363000  0.84827000  1.0
  O  O102  1  0.50918000  0.43865000  0.70903000  1.0
  O  O103  1  0.05064000  0.43854000  0.79087000  1.0
  O  O104  1  0.49082000  0.56135000  0.29097000  1.0
  O  O105  1  0.94935000  0.56147000  0.20913000  1.0
  O  O106  1  0.44748000  0.90586000  0.33401000  1.0
  O  O107  1  0.64684000  0.90574000  0.16594000  1.0
  O  O108  1  0.55252000  0.09414000  0.66599000  1.0
  O  O109  1  0.35316000  0.09426000  0.83407000  1.0
