# generated using pymatgen
data_Zr6H20C51(O17F5)2
_symmetry_space_group_name_H-M   'P 1'
_cell_length_a   14.78399266
_cell_length_b   14.79100000
_cell_length_c   14.80280520
_cell_angle_alpha   119.93652662
_cell_angle_beta   119.88747191
_cell_angle_gamma   60.05862911
_symmetry_Int_Tables_number   1
_chemical_formula_structural   Zr6H20C51(O17F5)2
_chemical_formula_sum   'Zr6 H20 C51 O34 F10'
_cell_volume   2292.91050831
_cell_formula_units_Z   1
loop_
 _symmetry_equiv_pos_site_id
 _symmetry_equiv_pos_as_xyz
  1  'x, y, z'
loop_
 _atom_site_type_symbol
 _atom_site_label
 _atom_site_symmetry_multiplicity
 _atom_site_fract_x
 _atom_site_fract_y
 _atom_site_fract_z
 _atom_site_occupancy
  Zr  Zr0  1  0.61935000  0.61765000  0.11501000  1.0
  Zr  Zr1  1  0.38096000  0.37827000  0.87954000  1.0
  Zr  Zr2  1  0.62037000  0.37918000  0.11715000  1.0
  Zr  Zr3  1  0.37937000  0.61713000  0.87727000  1.0
  Zr  Zr4  1  0.38109000  0.61786000  0.11735000  1.0
  Zr  Zr5  1  0.61909000  0.37847000  0.87686000  1.0
  H  H6  1  0.59425000  0.59296000  0.27890000  1.0
  H  H7  1  0.21781000  0.59179000  0.90614000  1.0
  H  H8  1  0.59498000  0.21550000  0.90371000  1.0
  H  H9  1  0.59270000  0.59179000  0.90068000  1.0
  H  H10  1  0.35855000  0.90885000  0.40596000  1.0
  H  H11  1  0.62181000  0.10761000  0.56776000  1.0
  H  H12  1  0.94908000  0.32465000  0.89836000  1.0
  H  H13  1  0.07002000  0.65455000  0.11562000  1.0
  H  H14  1  0.11234000  0.93057000  0.87927000  1.0
  H  H15  1  0.91134000  0.08962000  0.13965000  1.0
  H  H16  1  0.36030000  0.64184000  0.58840000  1.0
  H  H17  1  0.61470000  0.33337000  0.38321000  1.0
  H  H18  1  0.89544000  0.37551000  0.43147000  1.0
  H  H19  1  0.98090000  0.63480000  0.34829000  1.0
  H  H20  1  0.89622000  0.73533000  0.43203000  1.0
  H  H21  1  0.06608000  0.73544000  0.60304000  1.0
  H  H22  1  0.15114000  0.63344000  0.51968000  1.0
  H  H23  1  0.63311000  0.91472000  0.14506000  1.0
  H  H24  1  0.34322000  0.10494000  0.87241000  1.0
  H  H25  1  0.15926000  0.24243000  0.56293000  1.0
  C  C26  1  0.49813000  0.80717000  0.29422000  1.0
  C  C27  1  0.20472000  0.48932000  0.00374000  1.0
  C  C28  1  0.49138000  0.20039000  0.68849000  1.0
  C  C29  1  0.80694000  0.49607000  0.00182000  1.0
  C  C30  1  0.80566000  0.49473000  0.29729000  1.0
  C  C31  1  0.48963000  0.80709000  0.99836000  1.0
  C  C32  1  0.19626000  0.49910000  0.69506000  1.0
  C  C33  1  0.49856000  0.20055000  0.00705000  1.0
  C  C34  1  0.49277000  0.49581000  0.29582000  1.0
  C  C35  1  0.81019000  0.20217000  0.00110000  1.0
  C  C36  1  0.49341000  0.48827000  0.68590000  1.0
  C  C37  1  0.20262000  0.80735000  0.00640000  1.0
  C  C38  1  0.48689000  0.10347000  0.58356000  1.0
  C  C39  1  0.49470000  0.91192000  0.39140000  1.0
  C  C40  1  0.41200000  0.04654000  0.53403000  1.0
  C  C41  1  0.56690000  0.97124000  0.43825000  1.0
  C  C42  1  0.41606000  0.95270000  0.44109000  1.0
  C  C43  1  0.56381000  0.06423000  0.53231000  1.0
  C  C44  1  0.10709000  0.48557000  0.00654000  1.0
  C  C45  1  0.91124000  0.49414000  0.00675000  1.0
  C  C46  1  0.07183000  0.39289000  0.94735000  1.0
  C  C47  1  0.94855000  0.58564000  0.06849000  1.0
  C  C48  1  0.97559000  0.39706000  0.94646000  1.0
  C  C49  1  0.04392000  0.58193000  0.06843000  1.0
  C  C50  1  0.91567000  0.10590000  0.00541000  1.0
  C  C51  1  0.10633000  0.91278000  0.01179000  1.0
  C  C52  1  0.97575000  0.05994000  0.93412000  1.0
  C  C53  1  0.04886000  0.96137000  0.08604000  1.0
  C  C54  1  0.06836000  0.96542000  0.93657000  1.0
  C  C55  1  0.95562000  0.05515000  0.08275000  1.0
  C  C56  1  0.48635000  0.49244000  0.39176000  1.0
  C  C57  1  0.48960000  0.48352000  0.58079000  1.0
  C  C58  1  0.41361000  0.57739000  0.45036000  1.0
  C  C59  1  0.55915000  0.39647000  0.51952000  1.0
  C  C60  1  0.41546000  0.57352000  0.54287000  1.0
  C  C61  1  0.55836000  0.40096000  0.42781000  1.0
  C  C62  1  0.90449000  0.49681000  0.39897000  1.0
  C  C63  1  0.09489000  0.50008000  0.59642000  1.0
  C  C64  1  0.96233000  0.56795000  0.44107000  1.0
  C  C65  1  0.03325000  0.43116000  0.55753000  1.0
  C  C66  1  0.05543000  0.56844000  0.53641000  1.0
  C  C67  1  0.94185000  0.42885000  0.46016000  1.0
  C  C68  1  0.96742000  0.65850000  0.42486000  1.0
  C  C69  1  0.07358000  0.65842000  0.53223000  1.0
  C  C70  1  0.49369000  0.10471000  0.01219000  1.0
  C  C71  1  0.48459000  0.91296000  0.00332000  1.0
  C  C72  1  0.57299000  0.05051000  0.08995000  1.0
  C  C73  1  0.40235000  0.97025000  0.92881000  1.0
  C  C74  1  0.56923000  0.95659000  0.08541000  1.0
  C  C75  1  0.40684000  0.06339000  0.93243000  1.0
  C  C76  1  0.05131000  0.37116000  0.62634000  1.0
  O  O77  1  0.57665000  0.76468000  0.25645000  1.0
  O  O78  1  0.24340000  0.41468000  0.92620000  1.0
  O  O79  1  0.41697000  0.23892000  0.73057000  1.0
  O  O80  1  0.76450000  0.57399000  0.07598000  1.0
  O  O81  1  0.76528000  0.41874000  0.25922000  1.0
  O  O82  1  0.41683000  0.76365000  0.91899000  1.0
  O  O83  1  0.23547000  0.57588000  0.73327000  1.0
  O  O84  1  0.57724000  0.23828000  0.08043000  1.0
  O  O85  1  0.41977000  0.57469000  0.25837000  1.0
  O  O86  1  0.76681000  0.23836000  0.92138000  1.0
  O  O87  1  0.57305000  0.41555000  0.72905000  1.0
  O  O88  1  0.24054000  0.76469000  0.08003000  1.0
  O  O89  1  0.77015000  0.23862000  0.07659000  1.0
  O  O90  1  0.41792000  0.56732000  0.72603000  1.0
  O  O91  1  0.23814000  0.76719000  0.92670000  1.0
  O  O92  1  0.57206000  0.42019000  0.25989000  1.0
  O  O93  1  0.76764000  0.57017000  0.25666000  1.0
  O  O94  1  0.42412000  0.23579000  0.92717000  1.0
  O  O95  1  0.23700000  0.42147000  0.73375000  1.0
  O  O96  1  0.56892000  0.76675000  0.07329000  1.0
  O  O97  1  0.76770000  0.41993000  0.92347000  1.0
  O  O98  1  0.42276000  0.76726000  0.25846000  1.0
  O  O99  1  0.23981000  0.56974000  0.07767000  1.0
  O  O100  1  0.57128000  0.23567000  0.72873000  1.0
  O  O101  1  0.56611000  0.56501000  0.92763000  1.0
  O  O102  1  0.56808000  0.29573000  0.93006000  1.0
  O  O103  1  0.29804000  0.56557000  0.93163000  1.0
  O  O104  1  0.56766000  0.56600000  0.19879000  1.0
  O  O105  1  0.45145000  0.44853000  0.04797000  1.0
  O  O106  1  0.45015000  0.64695000  0.04607000  1.0
  O  O107  1  0.44985000  0.44830000  0.84871000  1.0
  O  O108  1  0.64857000  0.44854000  0.04570000  1.0
  O  O109  1  0.11487000  0.26284000  0.60598000  1.0
  O  O110  1  0.00251000  0.41611000  0.69193000  1.0
  F  F111  1  0.33251000  0.08094000  0.57631000  1.0
  F  F112  1  0.64302000  0.93932000  0.39318000  1.0
  F  F113  1  0.13207000  0.29547000  0.89083000  1.0
  F  F114  1  0.89057000  0.68277000  0.12856000  1.0
  F  F115  1  0.94502000  0.10635000  0.85965000  1.0
  F  F116  1  0.08114000  0.91709000  0.16280000  1.0
  F  F117  1  0.34010000  0.66805000  0.42021000  1.0
  F  F118  1  0.62999000  0.30448000  0.54795000  1.0
  F  F119  1  0.65766000  0.08716000  0.17177000  1.0
  F  F120  1  0.31563000  0.93568000  0.84944000  1.0
