# generated using pymatgen
data_V4P2H18C20N4O15
_symmetry_space_group_name_H-M   'P 1'
_cell_length_a   8.28861000
_cell_length_b   9.15958000
_cell_length_c   9.55194000
_cell_angle_alpha   97.52630000
_cell_angle_beta   109.59600000
_cell_angle_gamma   98.39200000
_symmetry_Int_Tables_number   1
_chemical_formula_structural   V4P2H18C20N4O15
_chemical_formula_sum   'V4 P2 H18 C20 N4 O15'
_cell_volume   663.15303721
_cell_formula_units_Z   1
loop_
 _symmetry_equiv_pos_site_id
 _symmetry_equiv_pos_as_xyz
  1  'x, y, z'
loop_
 _atom_site_type_symbol
 _atom_site_label
 _atom_site_symmetry_multiplicity
 _atom_site_fract_x
 _atom_site_fract_y
 _atom_site_fract_z
 _atom_site_occupancy
  V  V0  1  0.47490000  0.68812000  0.48204000  1.0
  V  V1  1  0.52510000  0.31189000  0.51797000  1.0
  V  V2  1  0.05847000  0.77518000  0.37716000  1.0
  V  V3  1  0.94153000  0.22482000  0.62284000  1.0
  P  P4  1  0.72267000  0.92301000  0.37896000  1.0
  P  P5  1  0.27733000  0.07700000  0.62104000  1.0
  H  H6  1  0.26280000  0.99880000  0.23168000  1.0
  H  H7  1  0.73721000  0.00120000  0.76832000  1.0
  H  H8  1  0.27307000  0.02546000  0.97505000  1.0
  H  H9  1  0.72693000  0.97453000  0.02494000  1.0
  H  H10  1  0.05741000  0.84324000  0.74670000  1.0
  H  H11  1  0.94259000  0.15675000  0.25330000  1.0
  H  H12  1  0.85337000  0.63735000  0.78168000  1.0
  H  H13  1  0.14663000  0.36265000  0.21832000  1.0
  H  H14  1  0.69831000  0.47115000  0.83393000  1.0
  H  H15  1  0.30170000  0.52884000  0.16607000  1.0
  H  H16  1  0.52107000  0.27583000  0.91112000  1.0
  H  H17  1  0.47894000  0.72416000  0.08889000  1.0
  H  H18  1  0.57769000  0.29081000  0.19012000  1.0
  H  H19  1  0.42231000  0.70919000  0.80988000  1.0
  H  H20  1  0.81340000  0.49534000  0.37605000  1.0
  H  H21  1  0.18660000  0.50466000  0.62395000  1.0
  H  H22  1  0.54796000  0.07474000  0.29124000  1.0
  H  H23  1  0.45204000  0.92527000  0.70876000  1.0
  C  C24  1  0.17735000  0.91988000  0.12908000  1.0
  C  C25  1  0.82264000  0.08011000  0.87092000  1.0
  C  C26  1  0.18018000  0.93541000  0.98688000  1.0
  C  C27  1  0.81982000  0.06458000  0.01311000  1.0
  C  C28  1  0.06090000  0.83392000  0.86001000  1.0
  C  C29  1  0.93911000  0.16607000  0.13998000  1.0
  C  C30  1  0.94577000  0.71854000  0.87961000  1.0
  C  C31  1  0.05424000  0.28145000  0.12039000  1.0
  C  C32  1  0.95383000  0.70759000  0.02645000  1.0
  C  C33  1  0.04617000  0.29240000  0.97355000  1.0
  C  C34  1  0.84514000  0.58788000  0.06293000  1.0
  C  C35  1  0.15486000  0.41212000  0.93707000  1.0
  C  C36  1  0.71802000  0.47417000  0.95267000  1.0
  C  C37  1  0.28198000  0.52582000  0.04733000  1.0
  C  C38  1  0.61975000  0.36526000  0.99605000  1.0
  C  C39  1  0.38025000  0.63473000  0.00395000  1.0
  C  C40  1  0.65137000  0.37250000  0.14977000  1.0
  C  C41  1  0.34864000  0.62750000  0.85023000  1.0
  C  C42  1  0.78102000  0.48676000  0.25467000  1.0
  C  C43  1  0.21898000  0.51323000  0.74534000  1.0
  N  N44  1  0.06741000  0.80858000  0.14838000  1.0
  N  N45  1  0.93259000  0.19142000  0.85162000  1.0
  N  N46  1  0.87672000  0.59284000  0.21309000  1.0
  N  N47  1  0.12328000  0.40716000  0.78691000  1.0
  O  O48  1  0.50001000  0.50001000  0.50001000  1.0
  O  O49  1  0.53041000  0.79257000  0.65061000  1.0
  O  O50  1  0.46959000  0.20745000  0.34940000  1.0
  O  O51  1  0.26297000  0.68531000  0.38275000  1.0
  O  O52  1  0.73703000  0.31469000  0.61726000  1.0
  O  O53  1  0.02288000  0.70909000  0.51477000  1.0
  O  O54  1  0.97711000  0.29091000  0.48523000  1.0
  O  O55  1  0.86671000  0.88964000  0.32277000  1.0
  O  O56  1  0.13329000  0.11036000  0.67723000  1.0
  O  O57  1  0.77734000  0.02702000  0.53268000  1.0
  O  O58  1  0.22266000  0.97299000  0.46732000  1.0
  O  O59  1  0.59864000  0.99177000  0.25085000  1.0
  O  O60  1  0.40135000  0.00823000  0.74915000  1.0
  O  O61  1  0.61112000  0.76957000  0.38357000  1.0
  O  O62  1  0.38889000  0.23044000  0.61644000  1.0
