# generated using pymatgen
data_CdH28C29(NO)4
_symmetry_space_group_name_H-M   'P 1'
_cell_length_a   10.87060000
_cell_length_b   10.87060000
_cell_length_c   24.16330000
_cell_angle_alpha   91.91310000
_cell_angle_beta   91.91290000
_cell_angle_gamma   99.49920000
_symmetry_Int_Tables_number   1
_chemical_formula_structural   CdH28C29(NO)4
_chemical_formula_sum   'Cd4 H112 C116 N16 O16'
_cell_volume   2812.46156410
_cell_formula_units_Z   4
loop_
 _symmetry_equiv_pos_site_id
 _symmetry_equiv_pos_as_xyz
  1  'x, y, z'
loop_
 _atom_site_type_symbol
 _atom_site_label
 _atom_site_symmetry_multiplicity
 _atom_site_fract_x
 _atom_site_fract_y
 _atom_site_fract_z
 _atom_site_occupancy
  Cd  Cd0  1  0.50000000  0.50000000  0.00000000  1.0
  Cd  Cd1  1  0.50000000  0.50000000  0.50000000  1.0
  Cd  Cd2  1  0.94776000  0.05224000  0.25000000  1.0
  Cd  Cd3  1  0.05224000  0.94776000  0.75000000  1.0
  H  H4  1  0.78915000  0.66487000  0.03594000  1.0
  H  H5  1  0.33513000  0.21085000  0.46406000  1.0
  H  H6  1  0.21084000  0.33513000  0.96406000  1.0
  H  H7  1  0.66487000  0.78915000  0.53594000  1.0
  H  H8  1  0.62804000  0.58522000  0.87539000  1.0
  H  H9  1  0.41478000  0.37196000  0.62461000  1.0
  H  H10  1  0.37196000  0.41478000  0.12461000  1.0
  H  H11  1  0.58522000  0.62804000  0.37539000  1.0
  H  H12  1  0.85569000  0.73853000  0.86645000  1.0
  H  H13  1  0.26146000  0.14431000  0.63355000  1.0
  H  H14  1  0.14432000  0.26146000  0.13355000  1.0
  H  H15  1  0.73854000  0.85568000  0.36645000  1.0
  H  H16  1  0.97546000  0.91527000  0.90250000  1.0
  H  H17  1  0.08473000  0.02454000  0.59750000  1.0
  H  H18  1  0.02454000  0.08473000  0.09750000  1.0
  H  H19  1  0.91527000  0.97546000  0.40250000  1.0
  H  H20  1  0.17506000  0.05045000  0.93119000  1.0
  H  H21  1  0.94955000  0.82494000  0.56881000  1.0
  H  H22  1  0.82494000  0.94955000  0.06881000  1.0
  H  H23  1  0.05045000  0.17506000  0.43119000  1.0
  H  H24  1  0.00015000  0.69397000  0.04649000  1.0
  H  H25  1  0.30604000  0.99985000  0.45351000  1.0
  H  H26  1  0.99985000  0.30604000  0.95351000  1.0
  H  H27  1  0.69396000  0.00015000  0.54649000  1.0
  H  H28  1  0.39123000  0.16197000  0.97916000  1.0
  H  H29  1  0.83803000  0.60878000  0.52084000  1.0
  H  H30  1  0.60877000  0.83803000  0.02084000  1.0
  H  H31  1  0.16197000  0.39122000  0.47916000  1.0
  H  H32  1  0.58371000  0.22553000  0.03756000  1.0
  H  H33  1  0.77447000  0.41629000  0.46244000  1.0
  H  H34  1  0.41629000  0.77447000  0.96244000  1.0
  H  H35  1  0.22553000  0.58371000  0.53756000  1.0
  H  H36  1  0.46368000  0.93623000  0.15158000  1.0
  H  H37  1  0.06377000  0.53632000  0.34842000  1.0
  H  H38  1  0.53632000  0.06377000  0.84842000  1.0
  H  H39  1  0.93623000  0.46367000  0.65158000  1.0
  H  H40  1  0.19878000  0.63765000  0.09399000  1.0
  H  H41  1  0.36235000  0.80122000  0.40601000  1.0
  H  H42  1  0.80122000  0.36235000  0.90601000  1.0
  H  H43  1  0.63765000  0.19878000  0.59399000  1.0
  H  H44  1  0.34802000  0.70969000  0.12204000  1.0
  H  H45  1  0.29032000  0.65198000  0.37796000  1.0
  H  H46  1  0.65198000  0.29032000  0.87796000  1.0
  H  H47  1  0.70968000  0.34801000  0.62204000  1.0
  H  H48  1  0.32039000  0.69422000  0.04940000  1.0
  H  H49  1  0.30578000  0.67961000  0.45060000  1.0
  H  H50  1  0.67961000  0.30578000  0.95060000  1.0
  H  H51  1  0.69422000  0.32039000  0.54940000  1.0
  H  H52  1  0.08643000  0.78913000  0.14826000  1.0
  H  H53  1  0.21087000  0.91358000  0.35174000  1.0
  H  H54  1  0.91357000  0.21087000  0.85174000  1.0
  H  H55  1  0.78913000  0.08642000  0.64826000  1.0
  H  H56  1  0.13657000  0.95229000  0.14477000  1.0
  H  H57  1  0.04771000  0.86343000  0.35523000  1.0
  H  H58  1  0.86342000  0.04771000  0.85523000  1.0
  H  H59  1  0.95229000  0.13657000  0.64477000  1.0
  H  H60  1  0.23226000  0.85947000  0.17940000  1.0
  H  H61  1  0.14053000  0.76774000  0.32060000  1.0
  H  H62  1  0.76774000  0.14053000  0.82060000  1.0
  H  H63  1  0.85947000  0.23226000  0.67940000  1.0
  H  H64  1  0.67251000  0.94701000  0.16609000  1.0
  H  H65  1  0.05299000  0.32749000  0.33391000  1.0
  H  H66  1  0.32749000  0.05299000  0.83391000  1.0
  H  H67  1  0.94701000  0.67251000  0.66609000  1.0
  H  H68  1  0.69288000  0.31632000  0.11051000  1.0
  H  H69  1  0.68368000  0.30712000  0.38949000  1.0
  H  H70  1  0.30712000  0.68368000  0.88949000  1.0
  H  H71  1  0.31632000  0.69288000  0.61051000  1.0
  H  H72  1  0.90053000  0.30035000  0.17998000  1.0
  H  H73  1  0.69966000  0.09947000  0.32002000  1.0
  H  H74  1  0.09947000  0.69965000  0.82002000  1.0
  H  H75  1  0.30035000  0.90053000  0.67998000  1.0
  H  H76  1  0.34845000  0.16854000  0.19017000  1.0
  H  H77  1  0.83146000  0.65156000  0.30983000  1.0
  H  H78  1  0.65156000  0.83146000  0.80983000  1.0
  H  H79  1  0.16854000  0.34844000  0.69017000  1.0
  H  H80  1  0.29212000  0.37909000  0.21071000  1.0
  H  H81  1  0.62091000  0.70788000  0.28929000  1.0
  H  H82  1  0.70788000  0.62091000  0.78929000  1.0
  H  H83  1  0.37909000  0.29212000  0.71071000  1.0
  H  H84  1  0.45331000  0.37355000  0.22138000  1.0
  H  H85  1  0.62645000  0.54669000  0.27862000  1.0
  H  H86  1  0.54669000  0.62645000  0.77862000  1.0
  H  H87  1  0.37355000  0.45331000  0.72138000  1.0
  H  H88  1  0.37990000  0.49495000  0.29881000  1.0
  H  H89  1  0.50505000  0.62010000  0.20119000  1.0
  H  H90  1  0.62010000  0.50505000  0.70119000  1.0
  H  H91  1  0.49495000  0.37990000  0.79881000  1.0
  H  H92  1  0.26152000  0.36960000  0.31236000  1.0
  H  H93  1  0.63040000  0.73848000  0.18764000  1.0
  H  H94  1  0.73848000  0.63040000  0.68765000  1.0
  H  H95  1  0.36960000  0.26152000  0.81236000  1.0
  H  H96  1  0.54205000  0.36320000  0.31993000  1.0
  H  H97  1  0.63681000  0.45795000  0.18007000  1.0
  H  H98  1  0.45796000  0.63680000  0.68007000  1.0
  H  H99  1  0.36320000  0.54205000  0.81993000  1.0
  H  H100  1  0.48430000  0.15624000  0.35945000  1.0
  H  H101  1  0.84376000  0.51570000  0.14055000  1.0
  H  H102  1  0.51570000  0.84376000  0.64055000  1.0
  H  H103  1  0.15624000  0.48430000  0.85945000  1.0
  H  H104  1  0.32336000  0.16340000  0.34863000  1.0
  H  H105  1  0.83660000  0.67665000  0.15137000  1.0
  H  H106  1  0.67665000  0.83660000  0.65137000  1.0
  H  H107  1  0.16340000  0.32336000  0.84863000  1.0
  H  H108  1  0.51468000  0.16147000  0.25833000  1.0
  H  H109  1  0.83853000  0.48533000  0.24167000  1.0
  H  H110  1  0.48533000  0.83853000  0.74167000  1.0
  H  H111  1  0.16147000  0.51468000  0.75833000  1.0
  H  H112  1  0.39072000  0.03938000  0.27184000  1.0
  H  H113  1  0.96062000  0.60928000  0.22816000  1.0
  H  H114  1  0.60928000  0.96062000  0.72816000  1.0
  H  H115  1  0.03938000  0.39072000  0.77184000  1.0
  C  C116  1  0.77648000  0.66090000  0.99127000  1.0
  C  C117  1  0.33910000  0.22352000  0.50873000  1.0
  C  C118  1  0.22352000  0.33910000  0.00873000  1.0
  C  C119  1  0.66089000  0.77648000  0.49127000  1.0
  C  C120  1  0.69637000  0.62418000  0.90758000  1.0
  C  C121  1  0.37582000  0.30363000  0.59242000  1.0
  C  C122  1  0.30363000  0.37581000  0.09242000  1.0
  C  C123  1  0.62418000  0.69637000  0.40758000  1.0
  C  C124  1  0.80944000  0.69992000  0.90283000  1.0
  C  C125  1  0.30008000  0.19057000  0.59718000  1.0
  C  C126  1  0.19057000  0.30007000  0.09717000  1.0
  C  C127  1  0.69993000  0.80943000  0.40283000  1.0
  C  C128  1  0.97598000  0.79815000  0.97299000  1.0
  C  C129  1  0.20185000  0.02401000  0.52701000  1.0
  C  C130  1  0.02401000  0.20185000  0.02701000  1.0
  C  C131  1  0.79815000  0.97598000  0.47299000  1.0
  C  C132  1  0.02545000  0.89721000  0.94037000  1.0
  C  C133  1  0.10279000  0.97455000  0.55964000  1.0
  C  C134  1  0.97455000  0.10279000  0.05963000  1.0
  C  C135  1  0.89721000  0.02545000  0.44037000  1.0
  C  C136  1  0.13765000  0.97329000  0.95670000  1.0
  C  C137  1  0.02672000  0.86235000  0.54330000  1.0
  C  C138  1  0.86235000  0.02671000  0.04330000  1.0
  C  C139  1  0.97328000  0.13765000  0.45670000  1.0
  C  C140  1  0.20001000  0.94969000  0.00573000  1.0
  C  C141  1  0.05032000  0.79999000  0.49427000  1.0
  C  C142  1  0.79999000  0.05032000  0.99427000  1.0
  C  C143  1  0.94968000  0.20001000  0.50573000  1.0
  C  C144  1  0.14915000  0.84990000  0.03840000  1.0
  C  C145  1  0.15011000  0.85085000  0.46160000  1.0
  C  C146  1  0.85084000  0.15011000  0.96160000  1.0
  C  C147  1  0.84989000  0.14915000  0.53840000  1.0
  C  C148  1  0.03800000  0.77321000  0.02215000  1.0
  C  C149  1  0.22679000  0.96200000  0.47785000  1.0
  C  C150  1  0.96200000  0.22679000  0.97785000  1.0
  C  C151  1  0.77321000  0.03800000  0.52215000  1.0
  C  C152  1  0.23339000  0.84032000  0.08914000  1.0
  C  C153  1  0.15968000  0.76661000  0.41086000  1.0
  C  C154  1  0.76661000  0.15968000  0.91086000  1.0
  C  C155  1  0.84032000  0.23339000  0.58914000  1.0
  C  C156  1  0.34009000  0.94698000  0.08058000  1.0
  C  C157  1  0.05302000  0.65991000  0.41942000  1.0
  C  C158  1  0.65991000  0.05302000  0.91942000  1.0
  C  C159  1  0.94698000  0.34009000  0.58058000  1.0
  C  C160  1  0.31832000  0.01077000  0.03215000  1.0
  C  C161  1  0.98924000  0.68168000  0.46785000  1.0
  C  C162  1  0.68168000  0.98923000  0.96785000  1.0
  C  C163  1  0.01077000  0.31831000  0.53215000  1.0
  C  C164  1  0.40513000  0.11218000  0.01669000  1.0
  C  C165  1  0.88782000  0.59487000  0.48331000  1.0
  C  C166  1  0.59487000  0.88782000  0.98331000  1.0
  C  C167  1  0.11218000  0.40513000  0.51669000  1.0
  C  C168  1  0.51383000  0.14840000  0.04942000  1.0
  C  C169  1  0.85160000  0.48618000  0.45058000  1.0
  C  C170  1  0.48617000  0.85160000  0.95058000  1.0
  C  C171  1  0.14840000  0.51382000  0.54942000  1.0
  C  C172  1  0.53493000  0.08447000  0.09734000  1.0
  C  C173  1  0.91552000  0.46507000  0.40266000  1.0
  C  C174  1  0.46507000  0.91553000  0.90266000  1.0
  C  C175  1  0.08447000  0.53493000  0.59734000  1.0
  C  C176  1  0.44745000  0.98384000  0.11365000  1.0
  C  C177  1  0.01616000  0.55255000  0.38635000  1.0
  C  C178  1  0.55255000  0.01616000  0.88635000  1.0
  C  C179  1  0.98384000  0.44745000  0.61365000  1.0
  C  C180  1  0.27783000  0.71303000  0.08866000  1.0
  C  C181  1  0.28697000  0.72217000  0.41134000  1.0
  C  C182  1  0.72217000  0.28697000  0.91134000  1.0
  C  C183  1  0.71303000  0.27783000  0.58866000  1.0
  C  C184  1  0.16816000  0.86148000  0.14340000  1.0
  C  C185  1  0.13852000  0.83184000  0.35660000  1.0
  C  C186  1  0.83184000  0.13852000  0.85660000  1.0
  C  C187  1  0.86148000  0.16816000  0.64340000  1.0
  C  C188  1  0.70685000  0.04545000  0.16167000  1.0
  C  C189  1  0.95455000  0.29315000  0.33833000  1.0
  C  C190  1  0.29315000  0.95455000  0.83833000  1.0
  C  C191  1  0.04545000  0.70685000  0.66167000  1.0
  C  C192  1  0.72103000  0.23862000  0.13230000  1.0
  C  C193  1  0.76138000  0.27897000  0.36771000  1.0
  C  C194  1  0.27897000  0.76137000  0.86770000  1.0
  C  C195  1  0.23862000  0.72103000  0.63229000  1.0
  C  C196  1  0.82161000  0.22957000  0.16686000  1.0
  C  C197  1  0.77043000  0.17839000  0.33314000  1.0
  C  C198  1  0.17839000  0.77043000  0.83314000  1.0
  C  C199  1  0.22957000  0.82161000  0.66686000  1.0
  C  C200  1  0.19386000  0.15087000  0.24099000  1.0
  C  C201  1  0.84913000  0.80615000  0.25901000  1.0
  C  C202  1  0.80615000  0.84913000  0.75901000  1.0
  C  C203  1  0.15087000  0.19386000  0.74099000  1.0
  C  C204  1  0.33242000  0.19814000  0.23311000  1.0
  C  C205  1  0.80186000  0.66758000  0.26689000  1.0
  C  C206  1  0.66758000  0.80186000  0.76689000  1.0
  C  C207  1  0.19814000  0.33242000  0.73311000  1.0
  C  C208  1  0.35991000  0.34184000  0.23731000  1.0
  C  C209  1  0.65816000  0.64009000  0.26269000  1.0
  C  C210  1  0.64010000  0.65817000  0.76270000  1.0
  C  C211  1  0.34184000  0.35990000  0.73730000  1.0
  C  C212  1  0.35653000  0.39241000  0.29692000  1.0
  C  C213  1  0.60759000  0.64347000  0.20308000  1.0
  C  C214  1  0.64347000  0.60759000  0.70308000  1.0
  C  C215  1  0.39241000  0.35653000  0.79692000  1.0
  C  C216  1  0.44674000  0.33741000  0.33506000  1.0
  C  C217  1  0.66259000  0.55326000  0.16494000  1.0
  C  C218  1  0.55326000  0.66259000  0.66495000  1.0
  C  C219  1  0.33741000  0.44674000  0.83506000  1.0
  C  C220  1  0.41677000  0.19370000  0.33261000  1.0
  C  C221  1  0.80630000  0.58322000  0.16739000  1.0
  C  C222  1  0.58323000  0.80630000  0.66739000  1.0
  C  C223  1  0.19370000  0.41678000  0.83261000  1.0
  C  C224  1  0.41856000  0.14144000  0.27299000  1.0
  C  C225  1  0.85857000  0.58144000  0.22701000  1.0
  C  C226  1  0.58144000  0.85856000  0.72701000  1.0
  C  C227  1  0.14144000  0.41856000  0.77299000  1.0
  C  C228  1  0.45201000  0.38892000  0.39468000  1.0
  C  C229  1  0.61108000  0.54798000  0.10532000  1.0
  C  C230  1  0.54799000  0.61108000  0.60532000  1.0
  C  C231  1  0.38892000  0.45202000  0.89468000  1.0
  N  N232  1  0.67709000  0.60067000  0.96262000  1.0
  N  N233  1  0.39933000  0.32292000  0.53739000  1.0
  N  N234  1  0.32291000  0.39933000  0.03738000  1.0
  N  N235  1  0.60067000  0.67708000  0.46262000  1.0
  N  N236  1  0.85991000  0.72259000  0.95650000  1.0
  N  N237  1  0.27741000  0.14009000  0.54350000  1.0
  N  N238  1  0.14009000  0.27741000  0.04350000  1.0
  N  N239  1  0.72258000  0.85991000  0.45650000  1.0
  N  N240  1  0.64811000  0.12092000  0.12945000  1.0
  N  N241  1  0.87908000  0.35189000  0.37055000  1.0
  N  N242  1  0.35189000  0.87908000  0.87055000  1.0
  N  N243  1  0.12092000  0.64811000  0.62945000  1.0
  N  N244  1  0.81178000  0.10907000  0.18468000  1.0
  N  N245  1  0.89093000  0.18822000  0.31532000  1.0
  N  N246  1  0.18822000  0.89093000  0.81532000  1.0
  N  N247  1  0.10907000  0.81178000  0.68468000  1.0
  O  O248  1  0.54901000  0.37714000  0.42482000  1.0
  O  O249  1  0.62286000  0.45099000  0.07518000  1.0
  O  O250  1  0.45099000  0.62286000  0.57518000  1.0
  O  O251  1  0.37714000  0.54901000  0.92482000  1.0
  O  O252  1  0.36458000  0.44117000  0.41295000  1.0
  O  O253  1  0.55883000  0.63542000  0.08705000  1.0
  O  O254  1  0.63542000  0.55883000  0.58705000  1.0
  O  O255  1  0.44117000  0.36458000  0.91295000  1.0
  O  O256  1  0.11415000  0.19112000  0.20907000  1.0
  O  O257  1  0.80888000  0.88585000  0.29092000  1.0
  O  O258  1  0.88585000  0.80889000  0.79093000  1.0
  O  O259  1  0.19111000  0.11415000  0.70907000  1.0
  O  O260  1  0.16055000  0.07192000  0.27768000  1.0
  O  O261  1  0.92808000  0.83946000  0.22232000  1.0
  O  O262  1  0.83946000  0.92808000  0.72232000  1.0
  O  O263  1  0.07191000  0.16055000  0.77768000  1.0
