# generated using pymatgen
data_PrH19C21NO8
_symmetry_space_group_name_H-M   'P 1'
_cell_length_a   12.29770000
_cell_length_b   12.30820000
_cell_length_c   18.48192996
_cell_angle_alpha   102.56102713
_cell_angle_beta   108.03510406
_cell_angle_gamma   101.99000000
_symmetry_Int_Tables_number   1
_chemical_formula_structural   PrH19C21NO8
_chemical_formula_sum   'Pr4 H76 C84 N4 O32'
_cell_volume   2479.70210309
_cell_formula_units_Z   4
loop_
 _symmetry_equiv_pos_site_id
 _symmetry_equiv_pos_as_xyz
  1  'x, y, z'
loop_
 _atom_site_type_symbol
 _atom_site_label
 _atom_site_symmetry_multiplicity
 _atom_site_fract_x
 _atom_site_fract_y
 _atom_site_fract_z
 _atom_site_occupancy
  Pr  Pr0  1  0.17175000  0.59312000  0.00684000  1.0
  Pr  Pr1  1  0.08630000  0.16470000  0.49309000  1.0
  Pr  Pr2  1  0.82825000  0.40687000  0.99316000  1.0
  Pr  Pr3  1  0.91370000  0.83530000  0.50691000  1.0
  H  H4  1  0.17885000  0.73526000  0.16711000  1.0
  H  H5  1  0.06829000  0.01181000  0.33275000  1.0
  H  H6  1  0.82115000  0.26474000  0.83289000  1.0
  H  H7  1  0.93170000  0.98818000  0.66724000  1.0
  H  H8  1  0.17978000  0.80606000  0.10760000  1.0
  H  H9  1  0.19867000  0.07218000  0.39225000  1.0
  H  H10  1  0.82022000  0.19394000  0.89240000  1.0
  H  H11  1  0.80133000  0.92782000  0.60775000  1.0
  H  H12  1  0.26213000  0.85162000  0.54605000  1.0
  H  H13  1  0.80550000  0.71600000  0.95394000  1.0
  H  H14  1  0.73788000  0.14839000  0.45395000  1.0
  H  H15  1  0.19450000  0.28400000  0.04606000  1.0
  H  H16  1  0.39155000  0.75177000  0.62184000  1.0
  H  H17  1  0.62972000  0.76946000  0.87817000  1.0
  H  H18  1  0.60845000  0.24823000  0.37816000  1.0
  H  H19  1  0.37028000  0.23053000  0.12183000  1.0
  H  H20  1  0.48251000  0.82912000  0.77155000  1.0
  H  H21  1  0.55716000  0.71052000  0.72846000  1.0
  H  H22  1  0.51749000  0.17088000  0.22845000  1.0
  H  H23  1  0.44283000  0.28947000  0.27153000  1.0
  H  H24  1  0.44064000  0.99945000  0.84184000  1.0
  H  H25  1  0.65713000  0.59818000  0.65812000  1.0
  H  H26  1  0.55936000  0.00055000  0.15816000  1.0
  H  H27  1  0.34287000  0.40182000  0.34188000  1.0
  H  H28  1  0.12036000  0.07851000  0.70270000  1.0
  H  H29  1  0.87626000  0.41798000  0.79745000  1.0
  H  H30  1  0.87964000  0.92149000  0.29730000  1.0
  H  H31  1  0.12374000  0.58201000  0.20255000  1.0
  H  H32  1  0.07568000  0.23942000  0.78440000  1.0
  H  H33  1  0.95548000  0.29168000  0.71568000  1.0
  H  H34  1  0.92432000  0.76058000  0.21560000  1.0
  H  H35  1  0.04452000  0.70832000  0.28432000  1.0
  H  H36  1  0.43782000  0.35480000  0.95375000  1.0
  H  H37  1  0.90085000  0.48388000  0.54608000  1.0
  H  H38  1  0.56219000  0.64520000  0.04625000  1.0
  H  H39  1  0.09915000  0.51612000  0.45392000  1.0
  H  H40  1  0.48474000  0.19731000  0.87046000  1.0
  H  H41  1  0.82654000  0.61394000  0.62940000  1.0
  H  H42  1  0.51526000  0.80269000  0.12954000  1.0
  H  H43  1  0.17346000  0.38606000  0.37060000  1.0
  H  H44  1  0.33119000  0.02059000  0.04388000  1.0
  H  H45  1  0.47740000  0.28763000  0.45640000  1.0
  H  H46  1  0.66881000  0.97941000  0.95612000  1.0
  H  H47  1  0.52260000  0.71237000  0.54360000  1.0
  H  H48  1  0.51912000  0.80163000  0.95424000  1.0
  H  H49  1  0.34695000  0.56439000  0.54568000  1.0
  H  H50  1  0.48088000  0.19837000  0.04576000  1.0
  H  H51  1  0.65305000  0.43561000  0.45432000  1.0
  H  H52  1  0.42648000  0.53746000  0.11940000  1.0
  H  H53  1  0.91821000  0.30693000  0.38071000  1.0
  H  H54  1  0.57351000  0.46253000  0.88059000  1.0
  H  H55  1  0.08179000  0.69307000  0.61929000  1.0
  H  H56  1  0.58131000  0.51653000  0.20201000  1.0
  H  H57  1  0.81428000  0.37911000  0.29813000  1.0
  H  H58  1  0.41869000  0.48347000  0.79799000  1.0
  H  H59  1  0.18572000  0.62089000  0.70187000  1.0
  H  H60  1  0.58055000  0.52063000  0.29938000  1.0
  H  H61  1  0.72102000  0.28105000  0.20075000  1.0
  H  H62  1  0.41945000  0.47937000  0.70062000  1.0
  H  H63  1  0.27898000  0.71895000  0.79925000  1.0
  H  H64  1  0.66424000  0.64560000  0.28505000  1.0
  H  H65  1  0.86034000  0.37908000  0.21507000  1.0
  H  H66  1  0.33576000  0.35440000  0.71495000  1.0
  H  H67  1  0.13966000  0.62092000  0.78493000  1.0
  H  H68  1  0.38083000  0.71294000  0.28456000  1.0
  H  H69  1  0.92839000  0.09652000  0.21540000  1.0
  H  H70  1  0.61917000  0.28706000  0.71544000  1.0
  H  H71  1  0.07161000  0.90349000  0.78460000  1.0
  H  H72  1  0.54002000  0.76001000  0.34104000  1.0
  H  H73  1  0.91902000  0.19924000  0.15901000  1.0
  H  H74  1  0.45998000  0.23999000  0.65896000  1.0
  H  H75  1  0.08098000  0.80076000  0.84099000  1.0
  H  H76  1  0.44604000  0.63232000  0.34659000  1.0
  H  H77  1  0.78567000  0.09974000  0.15342000  1.0
  H  H78  1  0.55395000  0.36768000  0.65341000  1.0
  H  H79  1  0.21433000  0.90027000  0.84658000  1.0
  C  C80  1  0.33235000  0.02760000  0.73515000  1.0
  C  C81  1  0.79226000  0.59693000  0.76482000  1.0
  C  C82  1  0.66765000  0.97240000  0.26485000  1.0
  C  C83  1  0.20774000  0.40306000  0.23518000  1.0
  C  C84  1  0.28296000  0.98457000  0.65091000  1.0
  C  C85  1  0.83361000  0.63192000  0.84907000  1.0
  C  C86  1  0.71704000  0.01543000  0.34909000  1.0
  C  C87  1  0.16639000  0.36808000  0.15093000  1.0
  C  C88  1  0.30322000  0.88477000  0.61095000  1.0
  C  C89  1  0.77370000  0.69211000  0.88903000  1.0
  C  C90  1  0.69678000  0.11524000  0.38905000  1.0
  C  C91  1  0.22630000  0.30789000  0.11097000  1.0
  C  C92  1  0.37560000  0.82880000  0.65362000  1.0
  C  C93  1  0.67495000  0.72168000  0.84636000  1.0
  C  C94  1  0.62440000  0.17120000  0.34638000  1.0
  C  C95  1  0.32504000  0.27831000  0.15363000  1.0
  C  C96  1  0.42647000  0.87187000  0.73684000  1.0
  C  C97  1  0.63465000  0.68918000  0.76314000  1.0
  C  C98  1  0.57353000  0.12813000  0.26316000  1.0
  C  C99  1  0.36535000  0.31082000  0.23686000  1.0
  C  C100  1  0.40409000  0.96922000  0.77679000  1.0
  C  C101  1  0.69204000  0.62680000  0.72317000  1.0
  C  C102  1  0.59591000  0.03077000  0.22321000  1.0
  C  C103  1  0.30796000  0.37320000  0.27683000  1.0
  C  C104  1  0.30571000  0.12575000  0.78122000  1.0
  C  C105  1  0.84446000  0.52437000  0.71875000  1.0
  C  C106  1  0.69429000  0.87425000  0.21878000  1.0
  C  C107  1  0.15555000  0.47563000  0.28126000  1.0
  C  C108  1  0.19034000  0.13904000  0.75744000  1.0
  C  C109  1  0.88187000  0.43308000  0.74263000  1.0
  C  C110  1  0.80966000  0.86096000  0.24256000  1.0
  C  C111  1  0.11814000  0.56692000  0.25737000  1.0
  C  C112  1  0.16467000  0.22858000  0.80288000  1.0
  C  C113  1  0.92596000  0.36203000  0.69717000  1.0
  C  C114  1  0.83533000  0.77142000  0.19712000  1.0
  C  C115  1  0.07404000  0.63797000  0.30283000  1.0
  C  C116  1  0.25312000  0.30659000  0.87385000  1.0
  C  C117  1  0.93272000  0.37924000  0.62606000  1.0
  C  C118  1  0.74688000  0.69341000  0.12615000  1.0
  C  C119  1  0.06729000  0.62076000  0.37394000  1.0
  C  C120  1  0.36837000  0.29374000  0.89875000  1.0
  C  C121  1  0.89485000  0.46945000  0.60111000  1.0
  C  C122  1  0.63163000  0.70626000  0.10125000  1.0
  C  C123  1  0.10515000  0.53054000  0.39889000  1.0
  C  C124  1  0.39412000  0.20479000  0.85241000  1.0
  C  C125  1  0.85217000  0.54147000  0.64747000  1.0
  C  C126  1  0.60587000  0.79520000  0.14758000  1.0
  C  C127  1  0.14783000  0.45852000  0.35253000  1.0
  C  C128  1  0.22359000  0.40296000  0.92076000  1.0
  C  C129  1  0.98196000  0.30256000  0.57911000  1.0
  C  C130  1  0.77641000  0.59704000  0.07924000  1.0
  C  C131  1  0.01804000  0.69744000  0.42089000  1.0
  C  C132  1  0.21423000  0.04638000  0.60098000  1.0
  C  C133  1  0.94551000  0.61317000  0.89894000  1.0
  C  C134  1  0.78577000  0.95362000  0.39902000  1.0
  C  C135  1  0.05449000  0.38682000  0.10106000  1.0
  C  C136  1  0.33210000  0.79715000  0.99982000  1.0
  C  C137  1  0.29751000  0.33199000  0.50023000  1.0
  C  C138  1  0.66790000  0.20285000  0.00018000  1.0
  C  C139  1  0.70249000  0.66801000  0.49977000  1.0
  C  C140  1  0.41723000  0.90193000  0.99834000  1.0
  C  C141  1  0.40373000  0.41879000  0.50175000  1.0
  C  C142  1  0.58277000  0.09807000  0.00166000  1.0
  C  C143  1  0.59627000  0.58121000  0.49825000  1.0
  C  C144  1  0.40546000  0.01312000  0.02472000  1.0
  C  C145  1  0.48884000  0.38093000  0.47546000  1.0
  C  C146  1  0.59454000  0.98688000  0.97528000  1.0
  C  C147  1  0.51117000  0.61908000  0.52455000  1.0
  C  C148  1  0.51194000  0.88917000  0.97362000  1.0
  C  C149  1  0.41529000  0.53804000  0.52632000  1.0
  C  C150  1  0.48805000  0.11083000  0.02638000  1.0
  C  C151  1  0.58472000  0.46196000  0.47368000  1.0
  C  C152  1  0.40539000  0.59357000  0.16503000  1.0
  C  C153  1  0.92861000  0.24029000  0.33500000  1.0
  C  C154  1  0.59461000  0.40643000  0.83497000  1.0
  C  C155  1  0.07140000  0.75972000  0.66500000  1.0
  C  C156  1  0.58210000  0.57162000  0.25756000  1.0
  C  C157  1  0.81385000  0.32441000  0.24257000  1.0
  C  C158  1  0.41790000  0.42838000  0.74244000  1.0
  C  C159  1  0.18615000  0.67559000  0.75743000  1.0
  C  C160  1  0.46000000  0.68470000  0.30725000  1.0
  C  C161  1  0.87742000  0.15298000  0.19276000  1.0
  C  C162  1  0.54000000  0.31530000  0.69275000  1.0
  C  C163  1  0.12258000  0.84702000  0.80724000  1.0
  N  N164  1  0.47737000  0.61384000  0.23997000  1.0
  N  N165  1  0.87380000  0.23742000  0.26010000  1.0
  N  N166  1  0.52263000  0.38616000  0.76003000  1.0
  N  N167  1  0.12620000  0.76258000  0.73990000  1.0
  O  O168  1  0.12876000  0.42933000  0.88780000  1.0
  O  O169  1  0.04124000  0.24071000  0.61210000  1.0
  O  O170  1  0.87124000  0.57067000  0.11220000  1.0
  O  O171  1  0.95877000  0.75929000  0.38790000  1.0
  O  O172  1  0.29370000  0.45814000  0.99338000  1.0
  O  O173  1  0.96434000  0.29979000  0.50643000  1.0
  O  O174  1  0.70630000  0.54186000  0.00662000  1.0
  O  O175  1  0.03566000  0.70021000  0.49357000  1.0
  O  O176  1  0.26263000  0.81252000  0.03797000  1.0
  O  O177  1  0.27502000  0.22453000  0.46212000  1.0
  O  O178  1  0.73737000  0.18748000  0.96203000  1.0
  O  O179  1  0.72499000  0.77547000  0.53788000  1.0
  O  O180  1  0.33206000  0.69567000  0.96498000  1.0
  O  O181  1  0.23059000  0.36661000  0.53497000  1.0
  O  O182  1  0.66794000  0.30433000  0.03502000  1.0
  O  O183  1  0.76941000  0.63339000  0.46503000  1.0
  O  O184  1  0.26246000  0.15023000  0.60612000  1.0
  O  O185  1  0.04424000  0.65619000  0.89371000  1.0
  O  O186  1  0.73754000  0.84977000  0.39388000  1.0
  O  O187  1  0.95576000  0.34381000  0.10629000  1.0
  O  O188  1  0.10673000  0.99046000  0.55022000  1.0
  O  O189  1  0.94042000  0.55644000  0.94971000  1.0
  O  O190  1  0.89327000  0.00954000  0.44978000  1.0
  O  O191  1  0.05958000  0.44356000  0.05029000  1.0
  O  O192  1  0.12835000  0.74228000  0.11704000  1.0
  O  O193  1  0.12538000  0.01142000  0.38285000  1.0
  O  O194  1  0.87165000  0.25772000  0.88296000  1.0
  O  O195  1  0.87462000  0.98858000  0.61715000  1.0
  O  O196  1  0.31755000  0.63376000  0.14472000  1.0
  O  O197  1  0.98921000  0.17282000  0.35519000  1.0
  O  O198  1  0.68245000  0.36624000  0.85528000  1.0
  O  O199  1  0.01079000  0.82719000  0.64481000  1.0
