# generated using pymatgen
data_Zn3P2H10C4(N5O4)2
_symmetry_space_group_name_H-M   'P 1'
_cell_length_a   5.20616000
_cell_length_b   9.88105491
_cell_length_c   15.31960000
_cell_angle_alpha   98.10910775
_cell_angle_beta   99.78080000
_cell_angle_gamma   105.27316851
_symmetry_Int_Tables_number   1
_chemical_formula_structural   Zn3P2H10C4(N5O4)2
_chemical_formula_sum   'Zn6 P4 H20 C8 N20 O16'
_cell_volume   734.74240718
_cell_formula_units_Z   2
loop_
 _symmetry_equiv_pos_site_id
 _symmetry_equiv_pos_as_xyz
  1  'x, y, z'
loop_
 _atom_site_type_symbol
 _atom_site_label
 _atom_site_symmetry_multiplicity
 _atom_site_fract_x
 _atom_site_fract_y
 _atom_site_fract_z
 _atom_site_occupancy
  Zn  Zn0  1  0.28711000  0.17033000  0.53406000  1.0
  Zn  Zn1  1  0.08282000  0.32959000  0.96589000  1.0
  Zn  Zn2  1  0.71288000  0.82967000  0.46594000  1.0
  Zn  Zn3  1  0.91718000  0.67041000  0.03412000  1.0
  Zn  Zn4  1  0.47635000  0.74998000  0.74997000  1.0
  Zn  Zn5  1  0.52366000  0.25002000  0.25003000  1.0
  P  P6  1  0.70044000  0.12408000  0.41652000  1.0
  P  P7  1  0.65990000  0.37590000  0.08355000  1.0
  P  P8  1  0.29956000  0.87592000  0.58348000  1.0
  P  P9  1  0.34010000  0.62410000  0.91645000  1.0
  H  H10  1  0.93866000  0.58916000  0.78083000  1.0
  H  H11  1  0.06873000  0.91058000  0.71913000  1.0
  H  H12  1  0.06134000  0.41084000  0.21917000  1.0
  H  H13  1  0.93126000  0.08941000  0.28087000  1.0
  H  H14  1  0.04079000  0.34127000  0.75490000  1.0
  H  H15  1  0.44477000  0.15855000  0.74500000  1.0
  H  H16  1  0.95921000  0.65873000  0.24510000  1.0
  H  H17  1  0.55522000  0.84145000  0.25500000  1.0
  H  H18  1  0.87209000  0.22705000  0.65039000  1.0
  H  H19  1  0.49468000  0.27282000  0.84951000  1.0
  H  H20  1  0.12791000  0.77295000  0.34961000  1.0
  H  H21  1  0.50531000  0.72718000  0.15049000  1.0
  H  H22  1  0.12255000  0.57549000  0.59285000  1.0
  H  H23  1  0.45423000  0.92453000  0.90711000  1.0
  H  H24  1  0.87746000  0.42451000  0.40716000  1.0
  H  H25  1  0.54577000  0.07547000  0.09289000  1.0
  H  H26  1  0.04157000  0.39434000  0.54260000  1.0
  H  H27  1  0.60482000  0.10567000  0.95736000  1.0
  H  H28  1  0.95843000  0.60566000  0.45740000  1.0
  H  H29  1  0.39518000  0.89433000  0.04264000  1.0
  C  C30  1  0.72448000  0.39188000  0.68513000  1.0
  C  C31  1  0.14765000  0.10792000  0.81481000  1.0
  C  C32  1  0.27552000  0.60812000  0.31487000  1.0
  C  C33  1  0.85235000  0.89208000  0.18519000  1.0
  C  C34  1  0.40839000  0.47797000  0.62717000  1.0
  C  C35  1  0.80329000  0.02197000  0.87274000  1.0
  C  C36  1  0.59161000  0.52203000  0.37283000  1.0
  C  C37  1  0.19672000  0.97803000  0.12726000  1.0
  N  N38  1  0.49773000  0.35944000  0.61801000  1.0
  N  N39  1  0.02039000  0.14046000  0.88189000  1.0
  N  N40  1  0.50227000  0.64056000  0.38199000  1.0
  N  N41  1  0.97962000  0.85954000  0.11811000  1.0
  N  N42  1  0.76909000  0.52407000  0.73213000  1.0
  N  N43  1  0.01304000  0.97573000  0.76783000  1.0
  N  N44  1  0.23092000  0.47594000  0.26787000  1.0
  N  N45  1  0.98695000  0.02426000  0.23217000  1.0
  N  N46  1  0.56734000  0.58017000  0.69593000  1.0
  N  N47  1  0.79130000  0.91972000  0.80402000  1.0
  N  N48  1  0.43268000  0.41984000  0.30407000  1.0
  N  N49  1  0.20870000  0.08028000  0.19598000  1.0
  N  N50  1  0.87189000  0.30209000  0.70344000  1.0
  N  N51  1  0.36653000  0.19769000  0.79648000  1.0
  N  N52  1  0.12811000  0.69791000  0.29656000  1.0
  N  N53  1  0.63347000  0.80231000  0.20352000  1.0
  N  N54  1  0.18692000  0.48952000  0.57255000  1.0
  N  N55  1  0.62492000  0.01047000  0.92738000  1.0
  N  N56  1  0.81306000  0.51047000  0.42745000  1.0
  N  N57  1  0.37510000  0.98953000  0.07263000  1.0
  O  O58  1  0.91273000  0.19076000  0.50781000  1.0
  O  O59  1  0.71449000  0.30922000  0.99229000  1.0
  O  O60  1  0.08726000  0.80924000  0.49219000  1.0
  O  O61  1  0.28551000  0.69078000  0.00771000  1.0
  O  O62  1  0.79613000  0.20609000  0.34133000  1.0
  O  O63  1  0.74889000  0.29398000  0.15877000  1.0
  O  O64  1  0.20387000  0.79391000  0.65867000  1.0
  O  O65  1  0.25112000  0.70602000  0.84123000  1.0
  O  O66  1  0.41934000  0.14061000  0.42500000  1.0
  O  O67  1  0.35374000  0.35924000  0.07499000  1.0
  O  O68  1  0.58067000  0.85940000  0.57500000  1.0
  O  O69  1  0.64626000  0.64076000  0.92501000  1.0
  O  O70  1  0.68725000  0.96553000  0.38553000  1.0
  O  O71  1  0.83597000  0.53452000  0.11451000  1.0
  O  O72  1  0.31275000  0.03447000  0.61447000  1.0
  O  O73  1  0.16404000  0.46548000  0.88549000  1.0
