# generated using pymatgen
data_Cu2BH26WC22(SN3)3
_symmetry_space_group_name_H-M   'P 1'
_cell_length_a   12.62620000
_cell_length_b   23.21345000
_cell_length_c   23.21340000
_cell_angle_alpha   119.99978625
_cell_angle_beta   90.00010000
_cell_angle_gamma   90.00010000
_symmetry_Int_Tables_number   1
_chemical_formula_structural   Cu2BH26WC22(SN3)3
_chemical_formula_sum   'Cu12 B6 H156 W6 C132 S18 N54'
_cell_volume   5892.27051066
_cell_formula_units_Z   6
loop_
 _symmetry_equiv_pos_site_id
 _symmetry_equiv_pos_as_xyz
  1  'x, y, z'
loop_
 _atom_site_type_symbol
 _atom_site_label
 _atom_site_symmetry_multiplicity
 _atom_site_fract_x
 _atom_site_fract_y
 _atom_site_fract_z
 _atom_site_occupancy
  Cu  Cu0  1  0.94360000  0.03579000  0.45995000  1.0
  Cu  Cu1  1  0.94359000  0.42416000  0.96420000  1.0
  Cu  Cu2  1  0.94360000  0.54005000  0.57584000  1.0
  Cu  Cu3  1  0.44360000  0.96421000  0.54005000  1.0
  Cu  Cu4  1  0.44360000  0.57583000  0.03579000  1.0
  Cu  Cu5  1  0.44360000  0.45996000  0.42416000  1.0
  Cu  Cu6  1  0.16595000  0.04463000  0.45005000  1.0
  Cu  Cu7  1  0.16594000  0.40542000  0.95537000  1.0
  Cu  Cu8  1  0.16595000  0.54996000  0.59459000  1.0
  Cu  Cu9  1  0.66596000  0.95538000  0.54996000  1.0
  Cu  Cu10  1  0.66595000  0.59458000  0.04463000  1.0
  Cu  Cu11  1  0.66594000  0.45006000  0.40543000  1.0
  B  B12  1  0.99834000  0.23912000  0.39066000  1.0
  B  B13  1  0.99834000  0.15154000  0.76087000  1.0
  B  B14  1  0.99834000  0.60934000  0.84846000  1.0
  B  B15  1  0.49834000  0.76088000  0.60934000  1.0
  B  B16  1  0.49833000  0.84846000  0.23913000  1.0
  B  B17  1  0.49833000  0.39067000  0.15155000  1.0
  H  H18  1  0.98757000  0.28655000  0.38367000  1.0
  H  H19  1  0.98757000  0.09712000  0.71345000  1.0
  H  H20  1  0.98757000  0.61633000  0.90288000  1.0
  H  H21  1  0.48757000  0.71345000  0.61634000  1.0
  H  H22  1  0.48757000  0.90288000  0.28655000  1.0
  H  H23  1  0.48757000  0.38366000  0.09711000  1.0
  H  H24  1  0.02996000  0.91524000  0.32316000  1.0
  H  H25  1  0.02998000  0.40792000  0.08476000  1.0
  H  H26  1  0.02997000  0.67684000  0.59208000  1.0
  H  H27  1  0.52997000  0.08476000  0.67684000  1.0
  H  H28  1  0.52997000  0.59208000  0.91524000  1.0
  H  H29  1  0.52997000  0.32316000  0.40792000  1.0
  H  H30  1  0.02741000  0.79127000  0.27841000  1.0
  H  H31  1  0.02741000  0.48714000  0.20872000  1.0
  H  H32  1  0.02741000  0.72158000  0.51286000  1.0
  H  H33  1  0.52741000  0.20872000  0.72158000  1.0
  H  H34  1  0.52741000  0.51286000  0.79128000  1.0
  H  H35  1  0.52741000  0.27841000  0.48713000  1.0
  H  H36  1  0.04506000  0.83286000  0.48125000  1.0
  H  H37  1  0.04506000  0.64839000  0.16714000  1.0
  H  H38  1  0.04506000  0.51875000  0.35161000  1.0
  H  H39  1  0.54506000  0.16714000  0.51875000  1.0
  H  H40  1  0.54506000  0.35160000  0.83285000  1.0
  H  H41  1  0.54506000  0.48125000  0.64839000  1.0
  H  H42  1  0.05014000  0.95433000  0.51719000  1.0
  H  H43  1  0.05015000  0.56286000  0.04567000  1.0
  H  H44  1  0.05014000  0.48281000  0.43714000  1.0
  H  H45  1  0.55014000  0.04567000  0.48280000  1.0
  H  H46  1  0.55013000  0.43713000  0.95432000  1.0
  H  H47  1  0.55014000  0.51719000  0.56287000  1.0
  H  H48  1  0.89070000  0.37758000  0.48059000  1.0
  H  H49  1  0.89070000  0.10302000  0.62243000  1.0
  H  H50  1  0.89070000  0.51941000  0.89699000  1.0
  H  H51  1  0.39070000  0.62242000  0.51941000  1.0
  H  H52  1  0.39070000  0.89699000  0.37758000  1.0
  H  H53  1  0.39070000  0.48058000  0.10300000  1.0
  H  H54  1  0.75395000  0.37330000  0.49393000  1.0
  H  H55  1  0.75395000  0.12064000  0.62671000  1.0
  H  H56  1  0.75395000  0.50607000  0.87937000  1.0
  H  H57  1  0.25395000  0.62670000  0.50607000  1.0
  H  H58  1  0.25395000  0.87937000  0.37330000  1.0
  H  H59  1  0.25394000  0.49393000  0.12063000  1.0
  H  H60  1  0.80567000  0.33144000  0.41210000  1.0
  H  H61  1  0.80566000  0.08067000  0.66856000  1.0
  H  H62  1  0.80567000  0.58790000  0.91934000  1.0
  H  H63  1  0.30567000  0.66856000  0.58790000  1.0
  H  H64  1  0.30566000  0.91933000  0.33144000  1.0
  H  H65  1  0.30566000  0.41210000  0.08066000  1.0
  H  H66  1  0.72046000  0.29089000  0.54504000  1.0
  H  H67  1  0.72044000  0.25415000  0.70912000  1.0
  H  H68  1  0.72045000  0.45496000  0.74585000  1.0
  H  H69  1  0.22045000  0.70911000  0.45496000  1.0
  H  H70  1  0.22045000  0.74585000  0.29088000  1.0
  H  H71  1  0.22045000  0.54504000  0.25415000  1.0
  H  H72  1  0.78317000  0.11788000  0.49933000  1.0
  H  H73  1  0.78317000  0.38146000  0.88213000  1.0
  H  H74  1  0.78318000  0.50066000  0.61854000  1.0
  H  H75  1  0.28317000  0.88212000  0.50067000  1.0
  H  H76  1  0.28317000  0.61855000  0.11788000  1.0
  H  H77  1  0.28317000  0.49934000  0.38145000  1.0
  H  H78  1  0.73616000  0.19423000  0.56670000  1.0
  H  H79  1  0.73616000  0.37248000  0.80578000  1.0
  H  H80  1  0.73617000  0.43329000  0.62752000  1.0
  H  H81  1  0.23617000  0.80577000  0.43329000  1.0
  H  H82  1  0.23616000  0.62752000  0.19422000  1.0
  H  H83  1  0.23617000  0.56671000  0.37248000  1.0
  H  H84  1  0.86883000  0.16890000  0.56592000  1.0
  H  H85  1  0.86883000  0.39702000  0.83111000  1.0
  H  H86  1  0.86883000  0.43409000  0.60299000  1.0
  H  H87  1  0.36883000  0.83111000  0.43409000  1.0
  H  H88  1  0.36883000  0.60298000  0.16889000  1.0
  H  H89  1  0.36883000  0.56591000  0.39701000  1.0
  H  H90  1  0.86462000  0.25250000  0.28359000  1.0
  H  H91  1  0.86462000  0.03109000  0.74750000  1.0
  H  H92  1  0.86462000  0.71641000  0.96891000  1.0
  H  H93  1  0.36462000  0.74750000  0.71641000  1.0
  H  H94  1  0.36462000  0.96891000  0.25250000  1.0
  H  H95  1  0.36462000  0.28359000  0.03109000  1.0
  H  H96  1  0.91494000  0.20656000  0.20136000  1.0
  H  H97  1  0.91494000  0.99480000  0.79343000  1.0
  H  H98  1  0.91494000  0.79864000  0.00520000  1.0
  H  H99  1  0.41494000  0.79344000  0.79864000  1.0
  H  H100  1  0.41494000  0.00520000  0.20656000  1.0
  H  H101  1  0.41494000  0.20136000  0.99480000  1.0
  H  H102  1  0.99923000  0.26095000  0.26796000  1.0
  H  H103  1  0.99923000  0.00701000  0.73904000  1.0
  H  H104  1  0.99923000  0.73204000  0.99299000  1.0
  H  H105  1  0.49923000  0.73905000  0.73204000  1.0
  H  H106  1  0.49923000  0.99299000  0.26095000  1.0
  H  H107  1  0.49923000  0.26796000  0.00701000  1.0
  H  H108  1  0.94984000  0.07655000  0.16461000  1.0
  H  H109  1  0.94984000  0.08806000  0.92345000  1.0
  H  H110  1  0.94985000  0.83539000  0.91194000  1.0
  H  H111  1  0.44984000  0.92345000  0.83539000  1.0
  H  H112  1  0.44984000  0.91195000  0.07656000  1.0
  H  H113  1  0.44984000  0.16461000  0.08806000  1.0
  H  H114  1  0.98025000  0.96930000  0.17253000  1.0
  H  H115  1  0.98025000  0.20323000  0.03069000  1.0
  H  H116  1  0.98025000  0.82746000  0.79676000  1.0
  H  H117  1  0.48025000  0.03070000  0.82747000  1.0
  H  H118  1  0.48025000  0.79677000  0.96931000  1.0
  H  H119  1  0.48025000  0.17254000  0.20324000  1.0
  H  H120  1  0.97059000  0.97626000  0.25253000  1.0
  H  H121  1  0.97059000  0.27627000  0.02374000  1.0
  H  H122  1  0.97059000  0.74747000  0.72373000  1.0
  H  H123  1  0.47059000  0.02374000  0.74747000  1.0
  H  H124  1  0.47059000  0.72373000  0.97626000  1.0
  H  H125  1  0.47059000  0.25253000  0.27627000  1.0
  H  H126  1  0.09562000  0.98333000  0.22206000  1.0
  H  H127  1  0.09562000  0.23873000  0.01667000  1.0
  H  H128  1  0.09562000  0.77794000  0.76127000  1.0
  H  H129  1  0.59562000  0.01667000  0.77794000  1.0
  H  H130  1  0.59562000  0.76127000  0.98333000  1.0
  H  H131  1  0.59562000  0.22206000  0.23873000  1.0
  H  H132  1  0.16640000  0.33525000  0.38115000  1.0
  H  H133  1  0.16640000  0.04591000  0.66476000  1.0
  H  H134  1  0.16639000  0.61884000  0.95409000  1.0
  H  H135  1  0.66640000  0.66475000  0.61885000  1.0
  H  H136  1  0.66640000  0.95410000  0.33525000  1.0
  H  H137  1  0.66640000  0.38115000  0.04590000  1.0
  H  H138  1  0.24124000  0.38117000  0.45501000  1.0
  H  H139  1  0.24124000  0.07383000  0.61883000  1.0
  H  H140  1  0.24123000  0.54499000  0.92616000  1.0
  H  H141  1  0.74124000  0.61883000  0.54500000  1.0
  H  H142  1  0.74124000  0.92616000  0.38116000  1.0
  H  H143  1  0.74123000  0.45500000  0.07384000  1.0
  H  H144  1  0.10127000  0.37928000  0.45944000  1.0
  H  H145  1  0.10127000  0.08016000  0.62072000  1.0
  H  H146  1  0.10126000  0.54056000  0.91984000  1.0
  H  H147  1  0.60127000  0.62072000  0.54056000  1.0
  H  H148  1  0.60127000  0.91984000  0.37928000  1.0
  H  H149  1  0.60127000  0.45943000  0.08016000  1.0
  H  H150  1  0.33232000  0.30163000  0.49521000  1.0
  H  H151  1  0.33232000  0.19358000  0.69837000  1.0
  H  H152  1  0.33231000  0.50478000  0.80641000  1.0
  H  H153  1  0.83231000  0.69837000  0.50479000  1.0
  H  H154  1  0.83232000  0.80642000  0.30163000  1.0
  H  H155  1  0.83231000  0.49521000  0.19358000  1.0
  H  H156  1  0.25439000  0.17244000  0.53273000  1.0
  H  H157  1  0.25438000  0.36029000  0.82756000  1.0
  H  H158  1  0.25439000  0.46727000  0.63971000  1.0
  H  H159  1  0.75439000  0.82756000  0.46727000  1.0
  H  H160  1  0.75439000  0.63971000  0.17244000  1.0
  H  H161  1  0.75439000  0.53273000  0.36029000  1.0
  H  H162  1  0.36990000  0.20341000  0.51357000  1.0
  H  H163  1  0.36990000  0.31017000  0.79660000  1.0
  H  H164  1  0.36989000  0.48643000  0.68984000  1.0
  H  H165  1  0.86990000  0.79659000  0.48643000  1.0
  H  H166  1  0.86990000  0.68984000  0.20341000  1.0
  H  H167  1  0.86989000  0.51357000  0.31016000  1.0
  H  H168  1  0.31392000  0.12569000  0.45347000  1.0
  H  H169  1  0.31392000  0.32778000  0.87431000  1.0
  H  H170  1  0.31392000  0.54653000  0.67222000  1.0
  H  H171  1  0.81392000  0.87431000  0.54654000  1.0
  H  H172  1  0.81392000  0.67223000  0.12569000  1.0
  H  H173  1  0.81392000  0.45347000  0.32778000  1.0
  W  W174  1  0.03121000  0.10354000  0.40905000  1.0
  W  W175  1  0.03121000  0.30550000  0.89645000  1.0
  W  W176  1  0.03121000  0.59095000  0.69449000  1.0
  W  W177  1  0.53121000  0.89646000  0.59095000  1.0
  W  W178  1  0.53121000  0.69449000  0.10354000  1.0
  W  W179  1  0.53121000  0.40905000  0.30551000  1.0
  C  C180  1  0.77373000  0.98656000  0.51845000  1.0
  C  C181  1  0.77372000  0.53189000  0.01345000  1.0
  C  C182  1  0.77371000  0.48157000  0.46812000  1.0
  C  C183  1  0.27372000  0.01344000  0.48156000  1.0
  C  C184  1  0.27371000  0.46811000  0.98655000  1.0
  C  C185  1  0.27372000  0.51844000  0.53188000  1.0
  C  C186  1  0.03325000  0.89433000  0.35614000  1.0
  C  C187  1  0.03326000  0.46181000  0.10567000  1.0
  C  C188  1  0.03325000  0.64386000  0.53819000  1.0
  C  C189  1  0.53325000  0.10567000  0.64386000  1.0
  C  C190  1  0.53325000  0.53819000  0.89433000  1.0
  C  C191  1  0.53325000  0.35614000  0.46181000  1.0
  C  C192  1  0.03085000  0.82608000  0.33166000  1.0
  C  C193  1  0.03085000  0.50558000  0.17392000  1.0
  C  C194  1  0.03084000  0.66833000  0.49442000  1.0
  C  C195  1  0.53085000  0.17391000  0.66833000  1.0
  C  C196  1  0.53085000  0.49442000  0.82608000  1.0
  C  C197  1  0.53085000  0.33166000  0.50557000  1.0
  C  C198  1  0.03312000  0.80261000  0.37687000  1.0
  C  C199  1  0.03312000  0.57425000  0.19739000  1.0
  C  C200  1  0.03312000  0.62313000  0.42574000  1.0
  C  C201  1  0.53313000  0.19739000  0.62314000  1.0
  C  C202  1  0.53312000  0.42574000  0.80261000  1.0
  C  C203  1  0.53312000  0.37686000  0.57425000  1.0
  C  C204  1  0.04077000  0.84931000  0.44491000  1.0
  C  C205  1  0.04078000  0.59560000  0.15068000  1.0
  C  C206  1  0.04077000  0.55508000  0.40439000  1.0
  C  C207  1  0.54078000  0.15069000  0.55509000  1.0
  C  C208  1  0.54077000  0.40439000  0.84931000  1.0
  C  C209  1  0.54078000  0.44491000  0.59560000  1.0
  C  C210  1  0.04421000  0.91643000  0.46476000  1.0
  C  C211  1  0.04422000  0.54833000  0.08358000  1.0
  C  C212  1  0.04421000  0.53525000  0.45168000  1.0
  C  C213  1  0.54421000  0.08357000  0.53524000  1.0
  C  C214  1  0.54421000  0.45167000  0.91642000  1.0
  C  C215  1  0.54421000  0.46475000  0.54832000  1.0
  C  C216  1  0.03018000  0.73064000  0.35374000  1.0
  C  C217  1  0.03018000  0.62310000  0.26936000  1.0
  C  C218  1  0.03018000  0.64625000  0.37689000  1.0
  C  C219  1  0.53018000  0.26935000  0.64625000  1.0
  C  C220  1  0.53018000  0.37690000  0.73064000  1.0
  C  C221  1  0.53018000  0.35374000  0.62310000  1.0
  C  C222  1  0.82149000  0.34453000  0.46376000  1.0
  C  C223  1  0.82148000  0.11923000  0.65547000  1.0
  C  C224  1  0.82149000  0.53625000  0.88078000  1.0
  C  C225  1  0.32149000  0.65548000  0.53625000  1.0
  C  C226  1  0.32148000  0.88077000  0.34453000  1.0
  C  C227  1  0.32148000  0.46375000  0.11922000  1.0
  C  C228  1  0.83803000  0.28525000  0.47114000  1.0
  C  C229  1  0.83803000  0.18590000  0.71475000  1.0
  C  C230  1  0.83803000  0.52886000  0.81411000  1.0
  C  C231  1  0.33803000  0.71475000  0.52886000  1.0
  C  C232  1  0.33803000  0.81410000  0.28525000  1.0
  C  C233  1  0.33803000  0.47114000  0.18589000  1.0
  C  C234  1  0.78579000  0.26586000  0.51145000  1.0
  C  C235  1  0.78578000  0.24560000  0.73414000  1.0
  C  C236  1  0.78579000  0.48854000  0.75441000  1.0
  C  C237  1  0.28579000  0.73414000  0.48855000  1.0
  C  C238  1  0.28578000  0.75440000  0.26586000  1.0
  C  C239  1  0.28578000  0.51146000  0.24559000  1.0
  C  C240  1  0.83459000  0.20708000  0.50070000  1.0
  C  C241  1  0.83458000  0.29362000  0.79292000  1.0
  C  C242  1  0.83459000  0.49930000  0.70639000  1.0
  C  C243  1  0.33459000  0.79292000  0.49930000  1.0
  C  C244  1  0.33459000  0.70638000  0.20708000  1.0
  C  C245  1  0.33459000  0.50070000  0.29361000  1.0
  C  C246  1  0.80448000  0.16974000  0.53463000  1.0
  C  C247  1  0.80448000  0.36489000  0.83026000  1.0
  C  C248  1  0.80448000  0.46537000  0.63511000  1.0
  C  C249  1  0.30448000  0.83026000  0.46537000  1.0
  C  C250  1  0.30448000  0.63511000  0.16974000  1.0
  C  C251  1  0.30448000  0.53463000  0.36489000  1.0
  C  C252  1  0.93395000  0.22507000  0.25383000  1.0
  C  C253  1  0.93394000  0.02876000  0.77492000  1.0
  C  C254  1  0.93394000  0.74617000  0.97124000  1.0
  C  C255  1  0.43394000  0.77493000  0.74617000  1.0
  C  C256  1  0.43394000  0.97124000  0.22507000  1.0
  C  C257  1  0.43394000  0.25383000  0.02876000  1.0
  C  C258  1  0.96208000  0.16807000  0.26352000  1.0
  C  C259  1  0.96208000  0.09545000  0.83192000  1.0
  C  C260  1  0.96208000  0.73648000  0.90455000  1.0
  C  C261  1  0.46207000  0.83193000  0.73648000  1.0
  C  C262  1  0.46207000  0.90455000  0.16807000  1.0
  C  C263  1  0.46208000  0.26352000  0.09545000  1.0
  C  C264  1  0.96595000  0.10027000  0.21750000  1.0
  C  C265  1  0.96594000  0.11723000  0.89973000  1.0
  C  C266  1  0.96595000  0.78251000  0.88278000  1.0
  C  C267  1  0.46594000  0.89973000  0.78250000  1.0
  C  C268  1  0.46594000  0.88278000  0.10028000  1.0
  C  C269  1  0.46594000  0.21750000  0.11723000  1.0
  C  C270  1  0.99467000  0.06818000  0.25278000  1.0
  C  C271  1  0.99467000  0.18460000  0.93182000  1.0
  C  C272  1  0.99467000  0.74722000  0.81540000  1.0
  C  C273  1  0.49466000  0.93182000  0.74722000  1.0
  C  C274  1  0.49467000  0.81540000  0.06818000  1.0
  C  C275  1  0.49467000  0.25278000  0.18460000  1.0
  C  C276  1  0.01110000  0.99527000  0.22354000  1.0
  C  C277  1  0.01111000  0.22827000  0.00472000  1.0
  C  C278  1  0.01111000  0.77645000  0.77173000  1.0
  C  C279  1  0.51110000  0.00472000  0.77645000  1.0
  C  C280  1  0.51110000  0.77173000  0.99528000  1.0
  C  C281  1  0.51110000  0.22355000  0.22828000  1.0
  C  C282  1  0.17151000  0.34940000  0.43386000  1.0
  C  C283  1  0.17151000  0.08446000  0.65060000  1.0
  C  C284  1  0.17150000  0.56614000  0.91554000  1.0
  C  C285  1  0.67151000  0.65060000  0.56614000  1.0
  C  C286  1  0.67151000  0.91554000  0.34940000  1.0
  C  C287  1  0.67150000  0.43386000  0.08446000  1.0
  C  C288  1  0.18074000  0.29017000  0.44241000  1.0
  C  C289  1  0.18074000  0.15224000  0.70983000  1.0
  C  C290  1  0.18074000  0.55759000  0.84776000  1.0
  C  C291  1  0.68074000  0.70983000  0.55759000  1.0
  C  C292  1  0.68074000  0.84776000  0.29017000  1.0
  C  C293  1  0.68074000  0.44241000  0.15224000  1.0
  C  C294  1  0.26097000  0.27343000  0.47248000  1.0
  C  C295  1  0.26097000  0.19905000  0.72657000  1.0
  C  C296  1  0.26097000  0.52751000  0.80094000  1.0
  C  C297  1  0.76097000  0.72657000  0.52752000  1.0
  C  C298  1  0.76097000  0.80095000  0.27343000  1.0
  C  C299  1  0.76097000  0.47248000  0.19905000  1.0
  C  C300  1  0.23149000  0.21314000  0.46800000  1.0
  C  C301  1  0.23150000  0.25486000  0.78686000  1.0
  C  C302  1  0.23149000  0.53199000  0.74514000  1.0
  C  C303  1  0.73150000  0.78686000  0.53200000  1.0
  C  C304  1  0.73149000  0.74514000  0.21314000  1.0
  C  C305  1  0.73149000  0.46800000  0.25486000  1.0
  C  C306  1  0.29538000  0.17653000  0.49318000  1.0
  C  C307  1  0.29538000  0.31665000  0.82347000  1.0
  C  C308  1  0.29538000  0.50682000  0.68335000  1.0
  C  C309  1  0.79538000  0.82347000  0.50682000  1.0
  C  C310  1  0.79538000  0.68335000  0.17653000  1.0
  C  C311  1  0.79538000  0.49318000  0.31665000  1.0
  S  S312  1  0.88964000  0.03574000  0.36925000  1.0
  S  S313  1  0.88965000  0.33351000  0.96425000  1.0
  S  S314  1  0.88965000  0.63074000  0.66648000  1.0
  S  S315  1  0.38964000  0.96426000  0.63075000  1.0
  S  S316  1  0.38964000  0.66649000  0.03575000  1.0
  S  S317  1  0.38964000  0.36926000  0.33352000  1.0
  S  S318  1  0.05379000  0.12290000  0.51743000  1.0
  S  S319  1  0.05378000  0.39453000  0.87709000  1.0
  S  S320  1  0.05379000  0.48257000  0.60547000  1.0
  S  S321  1  0.55380000  0.87710000  0.48256000  1.0
  S  S322  1  0.55378000  0.60547000  0.12290000  1.0
  S  S323  1  0.55378000  0.51744000  0.39453000  1.0
  S  S324  1  0.16778000  0.03626000  0.35139000  1.0
  S  S325  1  0.16778000  0.31512000  0.96374000  1.0
  S  S326  1  0.16779000  0.64862000  0.68488000  1.0
  S  S327  1  0.66779000  0.96374000  0.64862000  1.0
  S  S328  1  0.66779000  0.68488000  0.03626000  1.0
  S  S329  1  0.66778000  0.35139000  0.31513000  1.0
  N  N330  1  0.84266000  0.00600000  0.49875000  1.0
  N  N331  1  0.84265000  0.49275000  0.99400000  1.0
  N  N332  1  0.84264000  0.50126000  0.50725000  1.0
  N  N333  1  0.34265000  0.99399000  0.50125000  1.0
  N  N334  1  0.34264000  0.50725000  0.00600000  1.0
  N  N335  1  0.34265000  0.49875000  0.49275000  1.0
  N  N336  1  0.03905000  0.93893000  0.42147000  1.0
  N  N337  1  0.03906000  0.48254000  0.06106000  1.0
  N  N338  1  0.03904000  0.57852000  0.51746000  1.0
  N  N339  1  0.53905000  0.06106000  0.57852000  1.0
  N  N340  1  0.53905000  0.51746000  0.93894000  1.0
  N  N341  1  0.53905000  0.42148000  0.48255000  1.0
  N  N342  1  0.02999000  0.71222000  0.40029000  1.0
  N  N343  1  0.02999000  0.68807000  0.28778000  1.0
  N  N344  1  0.02999000  0.59971000  0.31193000  1.0
  N  N345  1  0.52999000  0.28778000  0.59972000  1.0
  N  N346  1  0.52999000  0.31193000  0.71222000  1.0
  N  N347  1  0.52999000  0.40028000  0.68806000  1.0
  N  N348  1  0.91404000  0.23935000  0.43799000  1.0
  N  N349  1  0.91404000  0.19865000  0.76065000  1.0
  N  N350  1  0.91404000  0.56200000  0.80135000  1.0
  N  N351  1  0.41404000  0.76065000  0.56201000  1.0
  N  N352  1  0.41404000  0.80136000  0.23936000  1.0
  N  N353  1  0.41404000  0.43800000  0.19865000  1.0
  N  N354  1  0.91345000  0.19097000  0.45532000  1.0
  N  N355  1  0.91345000  0.26435000  0.80903000  1.0
  N  N356  1  0.91345000  0.54468000  0.73565000  1.0
  N  N357  1  0.41346000  0.80903000  0.54468000  1.0
  N  N358  1  0.41345000  0.73565000  0.19097000  1.0
  N  N359  1  0.41345000  0.45532000  0.26435000  1.0
  N  N360  1  0.98797000  0.17529000  0.32339000  1.0
  N  N361  1  0.98798000  0.14810000  0.82471000  1.0
  N  N362  1  0.98798000  0.67661000  0.85190000  1.0
  N  N363  1  0.48797000  0.82471000  0.67662000  1.0
  N  N364  1  0.48797000  0.85191000  0.17530000  1.0
  N  N365  1  0.48797000  0.32339000  0.14810000  1.0
  N  N366  1  0.00708000  0.11479000  0.31798000  1.0
  N  N367  1  0.00709000  0.20318000  0.88520000  1.0
  N  N368  1  0.00709000  0.68203000  0.79682000  1.0
  N  N369  1  0.50708000  0.88521000  0.68203000  1.0
  N  N370  1  0.50708000  0.79682000  0.11479000  1.0
  N  N371  1  0.50708000  0.31797000  0.20318000  1.0
  N  N372  1  0.10702000  0.24135000  0.42101000  1.0
  N  N373  1  0.10702000  0.17966000  0.75865000  1.0
  N  N374  1  0.10702000  0.57899000  0.82034000  1.0
  N  N375  1  0.60702000  0.75865000  0.57899000  1.0
  N  N376  1  0.60702000  0.82034000  0.24135000  1.0
  N  N377  1  0.60702000  0.42101000  0.17966000  1.0
  N  N378  1  0.13638000  0.19376000  0.43649000  1.0
  N  N379  1  0.13638000  0.24273000  0.80624000  1.0
  N  N380  1  0.13638000  0.56351000  0.75727000  1.0
  N  N381  1  0.63638000  0.80624000  0.56351000  1.0
  N  N382  1  0.63638000  0.75727000  0.19376000  1.0
  N  N383  1  0.63638000  0.43649000  0.24273000  1.0
