# generated using pymatgen
data_Ag2H9C14N3(ClO)4
_symmetry_space_group_name_H-M   'P 1'
_cell_length_a   7.46685000
_cell_length_b   8.82200000
_cell_length_c   14.23050000
_cell_angle_alpha   91.28840000
_cell_angle_beta   101.87700000
_cell_angle_gamma   101.98600000
_symmetry_Int_Tables_number   1
_chemical_formula_structural   Ag2H9C14N3(ClO)4
_chemical_formula_sum   'Ag4 H18 C28 N6 Cl8 O8'
_cell_volume   895.24634546
_cell_formula_units_Z   2
loop_
 _symmetry_equiv_pos_site_id
 _symmetry_equiv_pos_as_xyz
  1  'x, y, z'
loop_
 _atom_site_type_symbol
 _atom_site_label
 _atom_site_symmetry_multiplicity
 _atom_site_fract_x
 _atom_site_fract_y
 _atom_site_fract_z
 _atom_site_occupancy
  Ag  Ag0  1  0.34791000  0.01190000  0.09247000  1.0
  Ag  Ag1  1  0.65209000  0.98809000  0.90753000  1.0
  Ag  Ag2  1  0.06988000  0.28944000  0.10290000  1.0
  Ag  Ag3  1  0.93012000  0.71056000  0.89710000  1.0
  H  H4  1  0.15848000  0.72325000  0.38431000  1.0
  H  H5  1  0.84152000  0.27675000  0.61569000  1.0
  H  H6  1  0.43712000  0.05448000  0.28709000  1.0
  H  H7  1  0.56288000  0.94552000  0.71291000  1.0
  H  H8  1  0.34050000  0.98865000  0.38817000  1.0
  H  H9  1  0.65950000  0.01135000  0.61183000  1.0
  H  H10  1  0.19990000  0.05619000  0.28696000  1.0
  H  H11  1  0.80010000  0.94381000  0.71304000  1.0
  H  H12  1  0.11743000  0.33124000  0.30924000  1.0
  H  H13  1  0.88256000  0.66876000  0.69076000  1.0
  H  H14  1  0.89233000  0.36718000  0.26657000  1.0
  H  H15  1  0.10767000  0.63282000  0.73343000  1.0
  H  H16  1  0.02578000  0.44951000  0.38254000  1.0
  H  H17  1  0.97422000  0.55049000  0.61746000  1.0
  H  H18  1  0.31969000  0.72916000  0.01104000  1.0
  H  H19  1  0.68032000  0.27083000  0.98897000  1.0
  H  H20  1  0.21413000  0.53388000  0.00778000  1.0
  H  H21  1  0.78587000  0.46611000  0.99222000  1.0
  C  C22  1  0.20965000  0.66461000  0.12737000  1.0
  C  C23  1  0.79035000  0.33538000  0.87264000  1.0
  C  C24  1  0.11738000  0.55944000  0.26227000  1.0
  C  C25  1  0.88262000  0.44056000  0.73773000  1.0
  C  C26  1  0.17223000  0.70645000  0.31036000  1.0
  C  C27  1  0.82777000  0.29355000  0.68964000  1.0
  C  C28  1  0.24694000  0.83207000  0.26219000  1.0
  C  C29  1  0.75306000  0.16792000  0.73781000  1.0
  C  C30  1  0.31126000  0.99193000  0.30969000  1.0
  C  C31  1  0.68874000  0.00807000  0.69031000  1.0
  C  C32  1  0.03360000  0.42009000  0.30849000  1.0
  C  C33  1  0.96640000  0.57991000  0.69151000  1.0
  C  C34  1  0.80894000  0.04129000  0.17636000  1.0
  C  C35  1  0.19106000  0.95871000  0.82364000  1.0
  C  C36  1  0.74978000  0.89400000  0.22561000  1.0
  C  C37  1  0.25022000  0.10601000  0.77439000  1.0
  C  C38  1  0.74865000  0.89976000  0.32377000  1.0
  C  C39  1  0.25134000  0.10024000  0.67623000  1.0
  C  C40  1  0.69082000  0.76341000  0.36875000  1.0
  C  C41  1  0.30918000  0.23659000  0.63125000  1.0
  C  C42  1  0.63546000  0.61953000  0.31490000  1.0
  C  C43  1  0.36454000  0.38048000  0.68510000  1.0
  C  C44  1  0.63967000  0.61359000  0.21653000  1.0
  C  C45  1  0.36033000  0.38641000  0.78347000  1.0
  C  C46  1  0.69795000  0.74992000  0.17236000  1.0
  C  C47  1  0.30205000  0.25008000  0.82763000  1.0
  C  C48  1  0.70968000  0.74914000  0.06764000  1.0
  C  C49  1  0.29033000  0.25086000  0.93236000  1.0
  N  N50  1  0.26082000  0.81151000  0.16995000  1.0
  N  N51  1  0.73918000  0.18848000  0.83005000  1.0
  N  N52  1  0.22791000  0.64485000  0.03566000  1.0
  N  N53  1  0.77209000  0.35515000  0.96434000  1.0
  N  N54  1  0.14035000  0.53814000  0.17165000  1.0
  N  N55  1  0.85965000  0.46186000  0.82835000  1.0
  Cl  Cl56  1  0.81997000  0.07572000  0.39052000  1.0
  Cl  Cl57  1  0.18004000  0.92429000  0.60948000  1.0
  Cl  Cl58  1  0.68579000  0.77216000  0.48848000  1.0
  Cl  Cl59  1  0.31420000  0.22785000  0.51152000  1.0
  Cl  Cl60  1  0.56430000  0.45311000  0.36955000  1.0
  Cl  Cl61  1  0.43569000  0.54689000  0.63045000  1.0
  Cl  Cl62  1  0.56815000  0.43820000  0.15073000  1.0
  Cl  Cl63  1  0.43186000  0.56180000  0.84927000  1.0
  O  O64  1  0.69689000  0.12993000  0.15705000  1.0
  O  O65  1  0.30311000  0.87007000  0.84295000  1.0
  O  O66  1  0.97314000  0.06068000  0.15903000  1.0
  O  O67  1  0.02686000  0.93933000  0.84097000  1.0
  O  O68  1  0.60546000  0.82711000  0.01585000  1.0
  O  O69  1  0.39454000  0.17289000  0.98415000  1.0
  O  O70  1  0.82166000  0.67684000  0.04163000  1.0
  O  O71  1  0.17835000  0.32317000  0.95837000  1.0
