# generated using pymatgen
data_MnH24C22(NO)6
_symmetry_space_group_name_H-M   'P 1'
_cell_length_a   8.48268000
_cell_length_b   11.82160000
_cell_length_c   12.19610000
_cell_angle_alpha   68.40500000
_cell_angle_beta   89.67720000
_cell_angle_gamma   88.63510000
_symmetry_Int_Tables_number   1
_chemical_formula_structural   MnH24C22(NO)6
_chemical_formula_sum   'Mn2 H48 C44 N12 O12'
_cell_volume   1136.83693896
_cell_formula_units_Z   2
loop_
 _symmetry_equiv_pos_site_id
 _symmetry_equiv_pos_as_xyz
  1  'x, y, z'
loop_
 _atom_site_type_symbol
 _atom_site_label
 _atom_site_symmetry_multiplicity
 _atom_site_fract_x
 _atom_site_fract_y
 _atom_site_fract_z
 _atom_site_occupancy
  Mn  Mn0  1  0.00000000  0.00000000  0.00000000  1.0
  Mn  Mn1  1  0.50000000  0.50000000  0.00000000  1.0
  H  H2  1  0.05529000  0.80039000  0.92892000  1.0
  H  H3  1  0.55701000  0.70759000  0.06521000  1.0
  H  H4  1  0.94471000  0.19960000  0.07108000  1.0
  H  H5  1  0.44299000  0.29241000  0.93479000  1.0
  H  H6  1  0.06314000  0.39683000  0.07788000  1.0
  H  H7  1  0.57338000  0.10671000  0.91076000  1.0
  H  H8  1  0.93686000  0.60317000  0.92212000  1.0
  H  H9  1  0.42662000  0.89328000  0.08925000  1.0
  H  H10  1  0.99274000  0.30990000  0.21805000  1.0
  H  H11  1  0.49107000  0.20093000  0.77570000  1.0
  H  H12  1  0.00726000  0.69011000  0.78195000  1.0
  H  H13  1  0.50893000  0.79907000  0.22430000  1.0
  H  H14  1  0.11506000  0.51553000  0.19046000  1.0
  H  H15  1  0.62876000  0.99932000  0.78653000  1.0
  H  H16  1  0.88494000  0.48447000  0.80954000  1.0
  H  H17  1  0.37124000  0.00068000  0.21348000  1.0
  H  H18  1  0.94012000  0.58706000  0.11320000  1.0
  H  H19  1  0.46088000  0.92358000  0.86567000  1.0
  H  H20  1  0.05988000  0.41294000  0.88680000  1.0
  H  H21  1  0.53912000  0.07641000  0.13433000  1.0
  H  H22  1  0.77330000  0.65169000  0.24569000  1.0
  H  H23  1  0.28470000  0.87068000  0.73318000  1.0
  H  H24  1  0.22670000  0.34831000  0.75431000  1.0
  H  H25  1  0.71529000  0.12932000  0.26682000  1.0
  H  H26  1  0.69962000  0.55302000  0.48293000  1.0
  H  H27  1  0.20703000  0.97518000  0.49688000  1.0
  H  H28  1  0.30039000  0.44699000  0.51707000  1.0
  H  H29  1  0.79296000  0.02483000  0.50312000  1.0
  H  H30  1  0.02291000  0.18636000  0.53733000  1.0
  H  H31  1  0.53054000  0.33064000  0.44433000  1.0
  H  H32  1  0.97709000  0.81364000  0.46267000  1.0
  H  H33  1  0.46947000  0.66936000  0.55566000  1.0
  H  H34  1  0.05933000  0.03646000  0.74220000  1.0
  H  H35  1  0.57101000  0.47767000  0.24154000  1.0
  H  H36  1  0.94068000  0.96354000  0.25780000  1.0
  H  H37  1  0.42901000  0.52232000  0.75845000  1.0
  H  H38  1  0.73242000  0.40268000  0.68211000  1.0
  H  H39  1  0.23633000  0.12835000  0.29652000  1.0
  H  H40  1  0.26758000  0.59732000  0.31789000  1.0
  H  H41  1  0.76367000  0.87165000  0.70349000  1.0
  H  H42  1  0.78882000  0.24828000  0.87996000  1.0
  H  H43  1  0.29713000  0.27775000  0.10010000  1.0
  H  H44  1  0.21118000  0.75172000  0.12004000  1.0
  H  H45  1  0.70286000  0.72224000  0.89990000  1.0
  H  H46  1  0.87741000  0.81497000  0.97881000  1.0
  H  H47  1  0.38301000  0.69603000  0.01283000  1.0
  H  H48  1  0.12259000  0.18503000  0.02119000  1.0
  H  H49  1  0.61699000  0.30397000  0.98717000  1.0
  C  C50  1  0.81352000  0.38618000  0.08722000  1.0
  C  C51  1  0.32316000  0.11184000  0.91079000  1.0
  C  C52  1  0.18648000  0.61381000  0.91278000  1.0
  C  C53  1  0.67684000  0.88817000  0.08921000  1.0
  C  C54  1  0.97046000  0.39450000  0.14208000  1.0
  C  C55  1  0.47823000  0.11252000  0.84780000  1.0
  C  C56  1  0.02954000  0.60550000  0.85792000  1.0
  C  C57  1  0.52177000  0.88747000  0.15220000  1.0
  C  C58  1  0.98908000  0.50304000  0.17899000  1.0
  C  C59  1  0.50248000  0.00992000  0.80200000  1.0
  C  C60  1  0.01092000  0.49696000  0.82101000  1.0
  C  C61  1  0.49752000  0.99008000  0.19800000  1.0
  C  C62  1  0.80938000  0.56625000  0.31418000  1.0
  C  C63  1  0.31888000  0.95626000  0.66598000  1.0
  C  C64  1  0.19061000  0.43375000  0.68582000  1.0
  C  C65  1  0.68112000  0.04375000  0.33401000  1.0
  C  C66  1  0.77402000  0.51369000  0.43301000  1.0
  C  C67  1  0.28127000  0.01162000  0.54744000  1.0
  C  C68  1  0.22598000  0.48632000  0.56699000  1.0
  C  C69  1  0.71873000  0.98839000  0.45256000  1.0
  C  C70  1  0.85929000  0.40093000  0.47332000  1.0
  C  C71  1  0.36536000  0.12204000  0.50790000  1.0
  C  C72  1  0.14071000  0.59907000  0.52668000  1.0
  C  C73  1  0.63464000  0.87796000  0.49210000  1.0
  C  C74  1  0.87487000  0.30869000  0.59135000  1.0
  C  C75  1  0.38046000  0.21410000  0.39026000  1.0
  C  C76  1  0.12513000  0.69132000  0.40865000  1.0
  C  C77  1  0.61954000  0.78590000  0.60973000  1.0
  C  C78  1  0.96647000  0.20215000  0.61096000  1.0
  C  C79  1  0.47384000  0.31690000  0.37050000  1.0
  C  C80  1  0.03354000  0.79785000  0.38905000  1.0
  C  C81  1  0.52618000  0.68310000  0.62950000  1.0
  C  C82  1  0.98846000  0.11935000  0.72484000  1.0
  C  C83  1  0.49897000  0.39846000  0.25748000  1.0
  C  C84  1  0.01155000  0.88066000  0.27516000  1.0
  C  C85  1  0.50104000  0.60154000  0.74251000  1.0
  C  C86  1  0.80654000  0.32331000  0.69045000  1.0
  C  C87  1  0.31240000  0.20367000  0.28959000  1.0
  C  C88  1  0.19345000  0.67668000  0.30954000  1.0
  C  C89  1  0.68759000  0.79633000  0.71042000  1.0
  C  C90  1  0.83736000  0.23657000  0.80183000  1.0
  C  C91  1  0.34497000  0.28774000  0.17847000  1.0
  C  C92  1  0.16263000  0.76343000  0.19817000  1.0
  C  C93  1  0.65502000  0.71227000  0.82153000  1.0
  N  N94  1  0.92725000  0.13581000  0.82049000  1.0
  N  N95  1  0.43864000  0.38466000  0.15998000  1.0
  N  N96  1  0.07276000  0.86419000  0.17951000  1.0
  N  N97  1  0.56137000  0.61534000  0.84002000  1.0
  N  N98  1  0.94137000  0.38613000  0.38413000  1.0
  N  N99  1  0.44855000  0.13277000  0.59785000  1.0
  N  N100  1  0.05863000  0.61387000  0.61587000  1.0
  N  N101  1  0.55145000  0.86723000  0.40215000  1.0
  N  N102  1  0.90892000  0.48649000  0.28951000  1.0
  N  N103  1  0.41834000  0.03207000  0.69182000  1.0
  N  N104  1  0.09107000  0.51352000  0.71049000  1.0
  N  N105  1  0.58166000  0.96793000  0.30818000  1.0
  O  O106  1  0.72286000  0.48106000  0.05445000  1.0
  O  O107  1  0.23948000  0.01794000  0.93836000  1.0
  O  O108  1  0.27714000  0.51894000  0.94555000  1.0
  O  O109  1  0.76052000  0.98206000  0.06164000  1.0
  O  O110  1  0.78337000  0.28731000  0.07344000  1.0
  O  O111  1  0.28802000  0.20609000  0.93517000  1.0
  O  O112  1  0.21663000  0.71269000  0.92656000  1.0
  O  O113  1  0.71198000  0.79392000  0.06483000  1.0
  O  O114  1  0.96555000  0.85760000  0.92621000  1.0
  O  O115  1  0.46740000  0.65228000  0.07015000  1.0
  O  O116  1  0.03444000  0.14240000  0.07379000  1.0
  O  O117  1  0.53260000  0.34771000  0.92985000  1.0
