# generated using pymatgen
data_CoH14C13(NCl)2
_symmetry_space_group_name_H-M   'P 1'
_cell_length_a   5.34406000
_cell_length_b   9.62548000
_cell_length_c   13.10240000
_cell_angle_alpha   89.99870000
_cell_angle_beta   89.99970000
_cell_angle_gamma   90.87850000
_symmetry_Int_Tables_number   1
_chemical_formula_structural   CoH14C13(NCl)2
_chemical_formula_sum   'Co2 H28 C26 N4 Cl4'
_cell_volume   673.89700072
_cell_formula_units_Z   2
loop_
 _symmetry_equiv_pos_site_id
 _symmetry_equiv_pos_as_xyz
  1  'x, y, z'
loop_
 _atom_site_type_symbol
 _atom_site_label
 _atom_site_symmetry_multiplicity
 _atom_site_fract_x
 _atom_site_fract_y
 _atom_site_fract_z
 _atom_site_occupancy
  Co  Co0  1  0.08081000  0.28475000  0.75000000  1.0
  Co  Co1  1  0.91919000  0.71524000  0.25000000  1.0
  H  H2  1  0.53462000  0.42022000  0.84390000  1.0
  H  H3  1  0.46536000  0.57977000  0.34390000  1.0
  H  H4  1  0.46538000  0.57979000  0.15610000  1.0
  H  H5  1  0.53463000  0.42021000  0.65611000  1.0
  H  H6  1  0.78699000  0.38997000  0.00026000  1.0
  H  H7  1  0.21302000  0.61002000  0.50027000  1.0
  H  H8  1  0.21304000  0.61003000  0.99974000  1.0
  H  H9  1  0.78698000  0.38998000  0.49974000  1.0
  H  H10  1  0.27712000  0.05976000  0.08931000  1.0
  H  H11  1  0.72289000  0.94024000  0.58929000  1.0
  H  H12  1  0.72292000  0.94024000  0.91069000  1.0
  H  H13  1  0.27709000  0.05977000  0.41070000  1.0
  H  H14  1  0.03995000  0.10422000  0.92759000  1.0
  H  H15  1  0.96004000  0.89578000  0.42758000  1.0
  H  H16  1  0.96008000  0.89578000  0.07241000  1.0
  H  H17  1  0.03992000  0.10423000  0.57241000  1.0
  H  H18  1  0.88228000  0.25096000  0.15059000  1.0
  H  H19  1  0.11773000  0.74903000  0.65059000  1.0
  H  H20  1  0.11774000  0.74903000  0.84941000  1.0
  H  H21  1  0.88226000  0.25097000  0.34941000  1.0
  H  H22  1  0.74177000  0.08283000  0.15899000  1.0
  H  H23  1  0.25823000  0.91717000  0.65898000  1.0
  H  H24  1  0.25824000  0.91717000  0.84102000  1.0
  H  H25  1  0.74175000  0.08284000  0.34102000  1.0
  H  H26  1  0.37248000  0.18765000  0.24999000  1.0
  H  H27  1  0.62752000  0.81235000  0.74999000  1.0
  H  H28  1  0.53165000  0.35011000  0.24999000  1.0
  H  H29  1  0.46835000  0.64989000  0.75000000  1.0
  C  C30  1  0.48074000  0.34164000  0.89990000  1.0
  C  C31  1  0.51925000  0.65836000  0.39990000  1.0
  C  C32  1  0.51926000  0.65837000  0.10011000  1.0
  C  C33  1  0.48074000  0.34164000  0.60011000  1.0
  C  C34  1  0.62209000  0.32400000  0.98787000  1.0
  C  C35  1  0.37792000  0.67600000  0.48788000  1.0
  C  C36  1  0.37794000  0.67600000  0.01213000  1.0
  C  C37  1  0.62207000  0.32401000  0.51213000  1.0
  C  C38  1  0.55511000  0.22066000  0.05829000  1.0
  C  C39  1  0.44489000  0.77934000  0.55829000  1.0
  C  C40  1  0.44493000  0.77933000  0.94171000  1.0
  C  C41  1  0.55508000  0.22067000  0.44171000  1.0
  C  C42  1  0.33947000  0.14096000  0.03654000  1.0
  C  C43  1  0.66053000  0.85904000  0.53654000  1.0
  C  C44  1  0.66056000  0.85903000  0.96346000  1.0
  C  C45  1  0.33945000  0.14097000  0.46346000  1.0
  C  C46  1  0.20737000  0.16423000  0.94744000  1.0
  C  C47  1  0.79262000  0.83577000  0.44744000  1.0
  C  C48  1  0.79265000  0.83577000  0.05256000  1.0
  C  C49  1  0.20735000  0.16423000  0.55256000  1.0
  C  C50  1  0.70207000  0.19466000  0.15358000  1.0
  C  C51  1  0.29793000  0.80534000  0.65357000  1.0
  C  C52  1  0.29795000  0.80533000  0.84643000  1.0
  C  C53  1  0.70205000  0.19467000  0.34642000  1.0
  C  C54  1  0.55948000  0.23718000  0.25000000  1.0
  C  C55  1  0.44052000  0.76282000  0.75000000  1.0
  N  N56  1  0.27703000  0.26235000  0.87871000  1.0
  N  N57  1  0.72297000  0.73764000  0.37871000  1.0
  N  N58  1  0.72299000  0.73765000  0.12129000  1.0
  N  N59  1  0.27702000  0.26235000  0.62129000  1.0
  Cl  Cl60  1  0.80197000  0.10916000  0.75000000  1.0
  Cl  Cl61  1  0.19802000  0.89084000  0.25000000  1.0
  Cl  Cl62  1  0.95230000  0.50225000  0.75000000  1.0
  Cl  Cl63  1  0.04769000  0.49774000  0.25000000  1.0
