# generated using pymatgen
data_ZnH11C15NO6
_symmetry_space_group_name_H-M   'P 1'
_cell_length_a   5.21857000
_cell_length_b   8.84705000
_cell_length_c   14.77590000
_cell_angle_alpha   87.40670000
_cell_angle_beta   89.99920000
_cell_angle_gamma   89.99960000
_symmetry_Int_Tables_number   1
_chemical_formula_structural   ZnH11C15NO6
_chemical_formula_sum   'Zn2 H22 C30 N2 O12'
_cell_volume   681.48913344
_cell_formula_units_Z   2
loop_
 _symmetry_equiv_pos_site_id
 _symmetry_equiv_pos_as_xyz
  1  'x, y, z'
loop_
 _atom_site_type_symbol
 _atom_site_label
 _atom_site_symmetry_multiplicity
 _atom_site_fract_x
 _atom_site_fract_y
 _atom_site_fract_z
 _atom_site_occupancy
  Zn  Zn0  1  0.54945000  0.62267000  0.66606000  1.0
  Zn  Zn1  1  0.45057000  0.12266000  0.66606000  1.0
  H  H2  1  0.47625000  0.04429000  0.14089000  1.0
  H  H3  1  0.52371000  0.54429000  0.14088000  1.0
  H  H4  1  0.92326000  0.95001000  0.44736000  1.0
  H  H5  1  0.07674000  0.45003000  0.44735000  1.0
  H  H6  1  0.92620000  0.07367000  0.29328000  1.0
  H  H7  1  0.07376000  0.57368000  0.29328000  1.0
  H  H8  1  0.62959000  0.84163000  0.23422000  1.0
  H  H9  1  0.37039000  0.34163000  0.23422000  1.0
  H  H10  1  0.62139000  0.71556000  0.38847000  1.0
  H  H11  1  0.37863000  0.21554000  0.38848000  1.0
  H  H12  1  0.85283000  0.06919000  0.95168000  1.0
  H  H13  1  0.14717000  0.56918000  0.95168000  1.0
  H  H14  1  0.97634000  0.19415000  0.80481000  1.0
  H  H15  1  0.02367000  0.69415000  0.80481000  1.0
  H  H16  1  0.60996000  0.40979000  0.93504000  1.0
  H  H17  1  0.39004000  0.90979000  0.93504000  1.0
  H  H18  1  0.50774000  0.26831000  0.07892000  1.0
  H  H19  1  0.49226000  0.76832000  0.07893000  1.0
  H  H20  1  0.92424000  0.45215000  0.62320000  1.0
  H  H21  1  0.07578000  0.95215000  0.62320000  1.0
  H  H22  1  0.00224000  0.63168000  0.62738000  1.0
  H  H23  1  0.99778000  0.13169000  0.62737000  1.0
  C  C24  1  0.27315000  0.75159000  0.51991000  1.0
  C  C25  1  0.72688000  0.25159000  0.51991000  1.0
  C  C26  1  0.27203000  0.82436000  0.42762000  1.0
  C  C27  1  0.72797000  0.32435000  0.42762000  1.0
  C  C28  1  0.07688000  0.92568000  0.40023000  1.0
  C  C29  1  0.92311000  0.42568000  0.40023000  1.0
  C  C30  1  0.07730000  0.99477000  0.31382000  1.0
  C  C31  1  0.92266000  0.49478000  0.31382000  1.0
  C  C32  1  0.27647000  0.96340000  0.25346000  1.0
  C  C33  1  0.72349000  0.46341000  0.25346000  1.0
  C  C34  1  0.47294000  0.86277000  0.28074000  1.0
  C  C35  1  0.52704000  0.36278000  0.28074000  1.0
  C  C36  1  0.46989000  0.79370000  0.36690000  1.0
  C  C37  1  0.53011000  0.29370000  0.36690000  1.0
  C  C38  1  0.09394000  0.07881000  0.11148000  1.0
  C  C39  1  0.90603000  0.57881000  0.11148000  1.0
  C  C40  1  0.17194000  0.15912000  0.02476000  1.0
  C  C41  1  0.82806000  0.65911000  0.02476000  1.0
  C  C42  1  0.02177000  0.14130000  0.94727000  1.0
  C  C43  1  0.97823000  0.64130000  0.94728000  1.0
  C  C44  1  0.08982000  0.21330000  0.86504000  1.0
  C  C45  1  0.91019000  0.71329000  0.86504000  1.0
  C  C46  1  0.30087000  0.31103000  0.86095000  1.0
  C  C47  1  0.69913000  0.81104000  0.86095000  1.0
  C  C48  1  0.44760000  0.33240000  0.93877000  1.0
  C  C49  1  0.55240000  0.83240000  0.93877000  1.0
  C  C50  1  0.38796000  0.25366000  0.01957000  1.0
  C  C51  1  0.61203000  0.75365000  0.01957000  1.0
  C  C52  1  0.37014000  0.39812000  0.77587000  1.0
  C  C53  1  0.62986000  0.89812000  0.77588000  1.0
  N  N54  1  0.29433000  0.03461000  0.16668000  1.0
  N  N55  1  0.70565000  0.53461000  0.16668000  1.0
  O  O56  1  0.90761000  0.54501000  0.65908000  1.0
  O  O57  1  0.09240000  0.04501000  0.65908000  1.0
  O  O58  1  0.10203000  0.78614000  0.57713000  1.0
  O  O59  1  0.89800000  0.28614000  0.57712000  1.0
  O  O60  1  0.44839000  0.65258000  0.53876000  1.0
  O  O61  1  0.55166000  0.15256000  0.53876000  1.0
  O  O62  1  0.86548000  0.05290000  0.13069000  1.0
  O  O63  1  0.13454000  0.55288000  0.13069000  1.0
  O  O64  1  0.38890000  0.33751000  0.69955000  1.0
  O  O65  1  0.61112000  0.83751000  0.69955000  1.0
  O  O66  1  0.41242000  0.53944000  0.78277000  1.0
  O  O67  1  0.58759000  0.03944000  0.78277000  1.0
