# generated using pymatgen
data_KH24C14S2(N2O3)2
_symmetry_space_group_name_H-M   'P 1'
_cell_length_a   8.16997000
_cell_length_b   8.51087000
_cell_length_c   9.05041000
_cell_angle_alpha   70.97780000
_cell_angle_beta   63.32770000
_cell_angle_gamma   64.60590000
_symmetry_Int_Tables_number   1
_chemical_formula_structural   KH24C14S2(N2O3)2
_chemical_formula_sum   'K1 H24 C14 S2 N4 O6'
_cell_volume   501.01997883
_cell_formula_units_Z   1
loop_
 _symmetry_equiv_pos_site_id
 _symmetry_equiv_pos_as_xyz
  1  'x, y, z'
loop_
 _atom_site_type_symbol
 _atom_site_label
 _atom_site_symmetry_multiplicity
 _atom_site_fract_x
 _atom_site_fract_y
 _atom_site_fract_z
 _atom_site_occupancy
  K  K0  1  0.50000000  0.99999000  0.50001000  1.0
  H  H1  1  0.17359000  0.60570000  0.64801000  1.0
  H  H2  1  0.82641000  0.39430000  0.35199000  1.0
  H  H3  1  0.06968000  0.84020000  0.63057000  1.0
  H  H4  1  0.93032000  0.15980000  0.36943000  1.0
  H  H5  1  0.23698000  0.84863000  0.32595000  1.0
  H  H6  1  0.76302000  0.15137000  0.67405000  1.0
  H  H7  1  0.35260000  0.61448000  0.35251000  1.0
  H  H8  1  0.64740000  0.38551000  0.64749000  1.0
  H  H9  1  0.67633000  0.66149000  0.24344000  1.0
  H  H10  1  0.32366000  0.33851000  0.75656000  1.0
  H  H11  1  0.56142000  0.73476000  0.09367000  1.0
  H  H12  1  0.43858000  0.26523000  0.90633000  1.0
  H  H13  1  0.73507000  0.94511000  0.93695000  1.0
  H  H14  1  0.26493000  0.05489000  0.06305000  1.0
  H  H15  1  0.85384000  0.84575000  0.08692000  1.0
  H  H16  1  0.14616000  0.15425000  0.91308000  1.0
  H  H17  1  0.85760000  0.15634000  0.93303000  1.0
  H  H18  1  0.14240000  0.84365000  0.06697000  1.0
  H  H19  1  0.60240000  0.23518000  0.04809000  1.0
  H  H20  1  0.39760000  0.76482000  0.95191000  1.0
  H  H21  1  0.36283000  0.60779000  0.80510000  1.0
  H  H22  1  0.63717000  0.39221000  0.19490000  1.0
  H  H23  1  0.10473000  0.67480000  0.91091000  1.0
  H  H24  1  0.89527000  0.32520000  0.08909000  1.0
  C  C25  1  0.19822000  0.72543000  0.64290000  1.0
  C  C26  1  0.80178000  0.27457000  0.35710000  1.0
  C  C27  1  0.36444000  0.74038000  0.34908000  1.0
  C  C28  1  0.63556000  0.25962000  0.65092000  1.0
  C  C29  1  0.55013000  0.75954000  0.21098000  1.0
  C  C30  1  0.44987000  0.24045000  0.78902000  1.0
  C  C31  1  0.72957000  0.95307000  0.05864000  1.0
  C  C32  1  0.27043000  0.04693000  0.94136000  1.0
  C  C33  1  0.74008000  0.12817000  0.04984000  1.0
  C  C34  1  0.25992000  0.87182000  0.95016000  1.0
  C  C35  1  0.22405000  0.71190000  0.80174000  1.0
  C  C36  1  0.77596000  0.28810000  0.19826000  1.0
  C  C37  1  0.05222000  0.41537000  0.53996000  1.0
  C  C38  1  0.94778000  0.58465000  0.46003000  1.0
  S  S39  1  0.19928000  0.42084000  0.24305000  1.0
  S  S40  1  0.80071000  0.57917000  0.75694000  1.0
  N  N41  1  0.19854000  0.30833000  0.43205000  1.0
  N  N42  1  0.80146000  0.69168000  0.56794000  1.0
  N  N43  1  0.01450000  0.60610000  0.29165000  1.0
  N  N44  1  0.98549000  0.39392000  0.70835000  1.0
  O  O45  1  0.36948000  0.74202000  0.50394000  1.0
  O  O46  1  0.63052000  0.25798000  0.49606000  1.0
  O  O47  1  0.55241000  0.93291000  0.18821000  1.0
  O  O48  1  0.44759000  0.06709000  0.81179000  1.0
  O  O49  1  0.77546000  0.12246000  0.19322000  1.0
  O  O50  1  0.22454000  0.87754000  0.80678000  1.0
