# generated using pymatgen
data_Mn3H32C22(NO7)2
_symmetry_space_group_name_H-M   'P 1'
_cell_length_a   8.08255000
_cell_length_b   8.96966000
_cell_length_c   9.81767000
_cell_angle_alpha   83.88640000
_cell_angle_beta   82.39160000
_cell_angle_gamma   77.39710000
_symmetry_Int_Tables_number   1
_chemical_formula_structural   Mn3H32C22(NO7)2
_chemical_formula_sum   'Mn3 H32 C22 N2 O14'
_cell_volume   686.27454428
_cell_formula_units_Z   1
loop_
 _symmetry_equiv_pos_site_id
 _symmetry_equiv_pos_as_xyz
  1  'x, y, z'
loop_
 _atom_site_type_symbol
 _atom_site_label
 _atom_site_symmetry_multiplicity
 _atom_site_fract_x
 _atom_site_fract_y
 _atom_site_fract_z
 _atom_site_occupancy
  Mn  Mn0  1  0.50000000  0.00000000  0.50000000  1.0
  Mn  Mn1  1  0.67707000  0.62606000  0.56879000  1.0
  Mn  Mn2  1  0.32293000  0.37394000  0.43121000  1.0
  H  H3  1  0.90909000  0.61957000  0.73146000  1.0
  H  H4  1  0.09091000  0.38043000  0.26854000  1.0
  H  H5  1  0.00453000  0.46136000  0.65826000  1.0
  H  H6  1  0.99547000  0.53864000  0.34174000  1.0
  H  H7  1  0.04415000  0.74032000  0.17977000  1.0
  H  H8  1  0.95585000  0.25969000  0.82023000  1.0
  H  H9  1  0.96889000  0.94520000  0.16530000  1.0
  H  H10  1  0.03111000  0.05481000  0.83469000  1.0
  H  H11  1  0.86874000  0.82506000  0.08606000  1.0
  H  H12  1  0.13125000  0.17494000  0.91394000  1.0
  H  H13  1  0.03311000  0.78406000  0.48330000  1.0
  H  H14  1  0.96689000  0.21595000  0.51670000  1.0
  H  H15  1  0.14526000  0.93971000  0.44147000  1.0
  H  H16  1  0.85474000  0.06030000  0.55854000  1.0
  H  H17  1  0.10353000  0.86904000  0.61411000  1.0
  H  H18  1  0.89648000  0.13096000  0.38589000  1.0
  H  H19  1  0.70741000  0.04131000  0.90759000  1.0
  H  H20  1  0.29259000  0.95870000  0.09241000  1.0
  H  H21  1  0.50967000  0.00003000  0.87438000  1.0
  H  H22  1  0.49033000  0.99997000  0.12562000  1.0
  H  H23  1  0.61134000  0.11707000  0.75212000  1.0
  H  H24  1  0.38866000  0.88294000  0.24789000  1.0
  H  H25  1  0.62690000  0.35486000  0.78102000  1.0
  H  H26  1  0.37311000  0.64513000  0.21898000  1.0
  H  H27  1  0.40259000  0.27335000  0.95739000  1.0
  H  H28  1  0.59741000  0.72665000  0.04260000  1.0
  H  H29  1  0.14525000  0.46890000  0.03265000  1.0
  H  H30  1  0.85474000  0.53110000  0.96734000  1.0
  H  H31  1  0.12144000  0.74116000  0.92653000  1.0
  H  H32  1  0.87856000  0.25883000  0.07347000  1.0
  H  H33  1  0.35872000  0.80434000  0.75726000  1.0
  H  H34  1  0.64129000  0.19566000  0.24274000  1.0
  C  C35  1  0.80736000  0.82235000  0.30545000  1.0
  C  C36  1  0.19265000  0.17765000  0.69455000  1.0
  C  C37  1  0.93152000  0.83363000  0.17699000  1.0
  C  C38  1  0.06848000  0.16638000  0.82301000  1.0
  C  C39  1  0.30158000  0.72185000  0.50138000  1.0
  C  C40  1  0.69842000  0.27815000  0.49862000  1.0
  C  C41  1  0.13511000  0.83547000  0.50781000  1.0
  C  C42  1  0.86489000  0.16454000  0.49220000  1.0
  C  C43  1  0.72739000  0.87661000  0.75753000  1.0
  C  C44  1  0.27261000  0.12339000  0.24247000  1.0
  C  C45  1  0.63571000  0.01828000  0.82786000  1.0
  C  C46  1  0.36429000  0.98172000  0.17214000  1.0
  C  C47  1  0.51232000  0.43653000  0.81641000  1.0
  C  C48  1  0.48769000  0.56346000  0.18359000  1.0
  C  C49  1  0.38744000  0.39167000  0.91389000  1.0
  C  C50  1  0.61256000  0.60832000  0.08610000  1.0
  C  C51  1  0.24388000  0.50118000  0.95563000  1.0
  C  C52  1  0.75612000  0.49882000  0.04436000  1.0
  C  C53  1  0.23226000  0.65202000  0.89913000  1.0
  C  C54  1  0.76775000  0.34798000  0.10087000  1.0
  C  C55  1  0.36377000  0.68741000  0.80322000  1.0
  C  C56  1  0.63623000  0.31259000  0.19678000  1.0
  N  N57  1  0.50125000  0.58129000  0.76056000  1.0
  N  N58  1  0.49876000  0.41870000  0.23944000  1.0
  O  O59  1  0.69548000  0.94188000  0.33333333  1.0
  O  O60  1  0.30452000  0.05813000  0.66666667  1.0
  O  O61  1  0.82192000  0.69371000  0.37783000  1.0
  O  O62  1  0.17808000  0.30629000  0.62217000  1.0
  O  O63  1  0.44117000  0.77301000  0.48999000  1.0
  O  O64  1  0.55883000  0.22699000  0.51001000  1.0
  O  O65  1  0.30131000  0.58081000  0.51316000  1.0
  O  O66  1  0.69869000  0.41919000  0.48684000  1.0
  O  O67  1  0.67149000  0.85396000  0.64492000  1.0
  O  O68  1  0.32851000  0.14604000  0.35509000  1.0
  O  O69  1  0.84882000  0.78668000  0.81027000  1.0
  O  O70  1  0.15118000  0.21333000  0.18973000  1.0
  O  O71  1  0.89345000  0.53063000  0.68466000  1.0
  O  O72  1  0.10655000  0.46937000  0.31534000  1.0
