# generated using pymatgen
data_Tb2Cu3H38C42(N3O17)2
_symmetry_space_group_name_H-M   'P 1'
_cell_length_a   11.41470000
_cell_length_b   13.11740000
_cell_length_c   18.95640000
_cell_angle_alpha   89.99930000
_cell_angle_beta   88.14630000
_cell_angle_gamma   89.99980000
_symmetry_Int_Tables_number   1
_chemical_formula_structural   Tb2Cu3H38C42(N3O17)2
_chemical_formula_sum   'Tb4 Cu6 H76 C84 N12 O68'
_cell_volume   2836.87888251
_cell_formula_units_Z   2
loop_
 _symmetry_equiv_pos_site_id
 _symmetry_equiv_pos_as_xyz
  1  'x, y, z'
loop_
 _atom_site_type_symbol
 _atom_site_label
 _atom_site_symmetry_multiplicity
 _atom_site_fract_x
 _atom_site_fract_y
 _atom_site_fract_z
 _atom_site_occupancy
  Tb  Tb0  1  0.13659000  0.06412000  0.14485000  1.0
  Tb  Tb1  1  0.36341000  0.56411000  0.35516000  1.0
  Tb  Tb2  1  0.86341000  0.93589000  0.85515000  1.0
  Tb  Tb3  1  0.63659000  0.43588000  0.64485000  1.0
  Cu  Cu4  1  0.84403000  0.40608000  0.32643000  1.0
  Cu  Cu5  1  0.65596000  0.90608000  0.17357000  1.0
  Cu  Cu6  1  0.15596000  0.59392000  0.67356000  1.0
  Cu  Cu7  1  0.34404000  0.09392000  0.82643000  1.0
  Cu  Cu8  1  0.00001000  0.00000000  0.50000000  1.0
  Cu  Cu9  1  0.50001000  0.50000000  0.00000000  1.0
  H  H10  1  0.19526000  0.20969000  0.25996000  1.0
  H  H11  1  0.30473000  0.70969000  0.24004000  1.0
  H  H12  1  0.80474000  0.79031000  0.74004000  1.0
  H  H13  1  0.69526000  0.29031000  0.75996000  1.0
  H  H14  1  0.18989000  0.25525000  0.18228000  1.0
  H  H15  1  0.31011000  0.75524000  0.31772000  1.0
  H  H16  1  0.81012000  0.74476000  0.81772000  1.0
  H  H17  1  0.68989000  0.24475000  0.68228000  1.0
  H  H18  1  0.01138000  0.25435000  0.09339000  1.0
  H  H19  1  0.48862000  0.75435000  0.40661000  1.0
  H  H20  1  0.98862000  0.74565000  0.90661000  1.0
  H  H21  1  0.51138000  0.24565000  0.59339000  1.0
  H  H22  1  0.14540000  0.26043000  0.06057000  1.0
  H  H23  1  0.35459000  0.76042000  0.43943000  1.0
  H  H24  1  0.85459000  0.73958000  0.93943000  1.0
  H  H25  1  0.64541000  0.23957000  0.56057000  1.0
  H  H26  1  0.19169000  0.02634000  0.99457000  1.0
  H  H27  1  0.30829000  0.52629000  0.50543000  1.0
  H  H28  1  0.80829000  0.97370000  0.00542000  1.0
  H  H29  1  0.69169000  0.47366000  0.49457000  1.0
  H  H30  1  0.07401000  0.95473000  0.99824000  1.0
  H  H31  1  0.42610000  0.45483000  0.50177000  1.0
  H  H32  1  0.92609000  0.04518000  0.00177000  1.0
  H  H33  1  0.57403000  0.54529000  0.49824000  1.0
  H  H34  1  0.35362000  0.91843000  0.17996000  1.0
  H  H35  1  0.14637000  0.41842000  0.32004000  1.0
  H  H36  1  0.64638000  0.08158000  0.82004000  1.0
  H  H37  1  0.85362000  0.58158000  0.67995000  1.0
  H  H38  1  0.24454000  0.92541000  0.23537000  1.0
  H  H39  1  0.25546000  0.42541000  0.26463000  1.0
  H  H40  1  0.75545000  0.07460000  0.76463000  1.0
  H  H41  1  0.74455000  0.57459000  0.73537000  1.0
  H  H42  1  0.96209000  0.90021000  0.15498000  1.0
  H  H43  1  0.53789000  0.40021000  0.34501000  1.0
  H  H44  1  0.03790000  0.09979000  0.84502000  1.0
  H  H45  1  0.46209000  0.59979000  0.65498000  1.0
  H  H46  1  0.06535000  0.83884000  0.11503000  1.0
  H  H47  1  0.43464000  0.33888000  0.38500000  1.0
  H  H48  1  0.93465000  0.16112000  0.88499000  1.0
  H  H49  1  0.56535000  0.66117000  0.61503000  1.0
  H  H50  1  0.60737000  0.34691000  0.18263000  1.0
  H  H51  1  0.89262000  0.84691000  0.31738000  1.0
  H  H52  1  0.39264000  0.65309000  0.81738000  1.0
  H  H53  1  0.10736000  0.15309000  0.68262000  1.0
  H  H54  1  0.42961000  0.23939000  0.20323000  1.0
  H  H55  1  0.07038000  0.73940000  0.29678000  1.0
  H  H56  1  0.57038000  0.76061000  0.79677000  1.0
  H  H57  1  0.92961000  0.26061000  0.70322000  1.0
  H  H58  1  0.45090000  0.05044000  0.20214000  1.0
  H  H59  1  0.04910000  0.55045000  0.29786000  1.0
  H  H60  1  0.54910000  0.94956000  0.79786000  1.0
  H  H61  1  0.95090000  0.44956000  0.70214000  1.0
  H  H62  1  0.79759000  0.96741000  0.33458000  1.0
  H  H63  1  0.70241000  0.46741000  0.16541000  1.0
  H  H64  1  0.20241000  0.03260000  0.66541000  1.0
  H  H65  1  0.29759000  0.53259000  0.83458000  1.0
  H  H66  1  0.61869000  0.07003000  0.35184000  1.0
  H  H67  1  0.88131000  0.57003000  0.14816000  1.0
  H  H68  1  0.38131000  0.92997000  0.64816000  1.0
  H  H69  1  0.11869000  0.42997000  0.85184000  1.0
  H  H70  1  0.63673000  0.26241000  0.35156000  1.0
  H  H71  1  0.86326000  0.76241000  0.14845000  1.0
  H  H72  1  0.36327000  0.73760000  0.64845000  1.0
  H  H73  1  0.13673000  0.23760000  0.85155000  1.0
  H  H74  1  0.92354000  0.56438000  0.48752000  1.0
  H  H75  1  0.57646000  0.06438000  0.01248000  1.0
  H  H76  1  0.07646000  0.43562000  0.51248000  1.0
  H  H77  1  0.42353000  0.93562000  0.98751000  1.0
  H  H78  1  0.74896000  0.67859000  0.49800000  1.0
  H  H79  1  0.75104000  0.17857000  0.00200000  1.0
  H  H80  1  0.25104000  0.32143000  0.50199000  1.0
  H  H81  1  0.24896000  0.82141000  0.99800000  1.0
  H  H82  1  0.77961000  0.86795000  0.50478000  1.0
  H  H83  1  0.72040000  0.36794000  0.99522000  1.0
  H  H84  1  0.22041000  0.13206000  0.49522000  1.0
  H  H85  1  0.27961000  0.63205000  0.00478000  1.0
  C  C86  1  0.83627000  0.04784000  0.15800000  1.0
  C  C87  1  0.66372000  0.54784000  0.34200000  1.0
  C  C88  1  0.16373000  0.95216000  0.84200000  1.0
  C  C89  1  0.33627000  0.45215000  0.65800000  1.0
  C  C90  1  0.72825000  0.11145000  0.16809000  1.0
  C  C91  1  0.77175000  0.61145000  0.33191000  1.0
  C  C92  1  0.27175000  0.88855000  0.83191000  1.0
  C  C93  1  0.22825000  0.38854000  0.66810000  1.0
  C  C94  1  0.72479000  0.21842000  0.16751000  1.0
  C  C95  1  0.77520000  0.71842000  0.33250000  1.0
  C  C96  1  0.27521000  0.78157000  0.83249000  1.0
  C  C97  1  0.22479000  0.28157000  0.66751000  1.0
  C  C98  1  0.82926000  0.28817000  0.15090000  1.0
  C  C99  1  0.67074000  0.78817000  0.34910000  1.0
  C  C100  1  0.17074000  0.71183000  0.84910000  1.0
  C  C101  1  0.32925000  0.21182000  0.65090000  1.0
  C  C102  1  0.61529000  0.26432000  0.18196000  1.0
  C  C103  1  0.88470000  0.76432000  0.31804000  1.0
  C  C104  1  0.38471000  0.73568000  0.81804000  1.0
  C  C105  1  0.11529000  0.23567000  0.68196000  1.0
  C  C106  1  0.51578000  0.20554000  0.19386000  1.0
  C  C107  1  0.98421000  0.70555000  0.30614000  1.0
  C  C108  1  0.48422000  0.79446000  0.80614000  1.0
  C  C109  1  0.01578000  0.29446000  0.69386000  1.0
  C  C110  1  0.52652000  0.09953000  0.19302000  1.0
  C  C111  1  0.97347000  0.59953000  0.30697000  1.0
  C  C112  1  0.47348000  0.90047000  0.80697000  1.0
  C  C113  1  0.02652000  0.40047000  0.69303000  1.0
  C  C114  1  0.02653000  0.26672000  0.33272000  1.0
  C  C115  1  0.47346000  0.76672000  0.16728000  1.0
  C  C116  1  0.97347000  0.73328000  0.66728000  1.0
  C  C117  1  0.52653000  0.23328000  0.83272000  1.0
  C  C118  1  0.91676000  0.20395000  0.33239000  1.0
  C  C119  1  0.58324000  0.70395000  0.16762000  1.0
  C  C120  1  0.08325000  0.79605000  0.66761000  1.0
  C  C121  1  0.41675000  0.29605000  0.83239000  1.0
  C  C122  1  0.91466000  0.09757000  0.32838000  1.0
  C  C123  1  0.58534000  0.59757000  0.17161000  1.0
  C  C124  1  0.08535000  0.90243000  0.67162000  1.0
  C  C125  1  0.41465000  0.40243000  0.82838000  1.0
  C  C126  1  0.02229000  0.03080000  0.31739000  1.0
  C  C127  1  0.47772000  0.53080000  0.18262000  1.0
  C  C128  1  0.97772000  0.96919000  0.68261000  1.0
  C  C129  1  0.52228000  0.46919000  0.81739000  1.0
  C  C130  1  0.80490000  0.04990000  0.33598000  1.0
  C  C131  1  0.69510000  0.54989000  0.16402000  1.0
  C  C132  1  0.19510000  0.95011000  0.66402000  1.0
  C  C133  1  0.30490000  0.45011000  0.83598000  1.0
  C  C134  1  0.70353000  0.10731000  0.34514000  1.0
  C  C135  1  0.79646000  0.60731000  0.15486000  1.0
  C  C136  1  0.29647000  0.89269000  0.65487000  1.0
  C  C137  1  0.20353000  0.39270000  0.84514000  1.0
  C  C138  1  0.71289000  0.21317000  0.34563000  1.0
  C  C139  1  0.78711000  0.71317000  0.15438000  1.0
  C  C140  1  0.28712000  0.78683000  0.65438000  1.0
  C  C141  1  0.21289000  0.28683000  0.84563000  1.0
  C  C142  1  0.17104000  0.85233000  0.49758000  1.0
  C  C143  1  0.32898000  0.35233000  0.00242000  1.0
  C  C144  1  0.82897000  0.14767000  0.50242000  1.0
  C  C145  1  0.67103000  0.64767000  0.99758000  1.0
  C  C146  1  0.05656000  0.79523000  0.49522000  1.0
  C  C147  1  0.44345000  0.29523000  0.00477000  1.0
  C  C148  1  0.94345000  0.20477000  0.50477000  1.0
  C  C149  1  0.55656000  0.70477000  0.99522000  1.0
  C  C150  1  0.04765000  0.68940000  0.49022000  1.0
  C  C151  1  0.45235000  0.18941000  0.00977000  1.0
  C  C152  1  0.95235000  0.31059000  0.50977000  1.0
  C  C153  1  0.54765000  0.81059000  0.99022000  1.0
  C  C154  1  0.15339000  0.62139000  0.48071000  1.0
  C  C155  1  0.34661000  0.12140000  0.01929000  1.0
  C  C156  1  0.84661000  0.37860000  0.51929000  1.0
  C  C157  1  0.65339000  0.87861000  0.98070000  1.0
  C  C158  1  0.93516000  0.64645000  0.49218000  1.0
  C  C159  1  0.56484000  0.14645000  0.00782000  1.0
  C  C160  1  0.06484000  0.35355000  0.50782000  1.0
  C  C161  1  0.43516000  0.85354000  0.99217000  1.0
  C  C162  1  0.83740000  0.70932000  0.49816000  1.0
  C  C163  1  0.66261000  0.20931000  0.00184000  1.0
  C  C164  1  0.16261000  0.29069000  0.50183000  1.0
  C  C165  1  0.33739000  0.79068000  0.99816000  1.0
  C  C166  1  0.85277000  0.81466000  0.50169000  1.0
  C  C167  1  0.64724000  0.31465000  0.99831000  1.0
  C  C168  1  0.14724000  0.18535000  0.49830000  1.0
  C  C169  1  0.35277000  0.68534000  0.00170000  1.0
  N  N170  1  0.63030000  0.05456000  0.18088000  1.0
  N  N171  1  0.86970000  0.55455000  0.31912000  1.0
  N  N172  1  0.36970000  0.94544000  0.81912000  1.0
  N  N173  1  0.13030000  0.44544000  0.68088000  1.0
  N  N174  1  0.81697000  0.25918000  0.33914000  1.0
  N  N175  1  0.68302000  0.75918000  0.16086000  1.0
  N  N176  1  0.18303000  0.74082000  0.66086000  1.0
  N  N177  1  0.31697000  0.24082000  0.83914000  1.0
  N  N178  1  0.96032000  0.85498000  0.50036000  1.0
  N  N179  1  0.53969000  0.35498000  0.99964000  1.0
  N  N180  1  0.03969000  0.14502000  0.49964000  1.0
  N  N181  1  0.46032000  0.64502000  0.00036000  1.0
  O  O182  1  0.93324000  0.08826000  0.14230000  1.0
  O  O183  1  0.56675000  0.58826000  0.35771000  1.0
  O  O184  1  0.06676000  0.91174000  0.85770000  1.0
  O  O185  1  0.43324000  0.41173000  0.64230000  1.0
  O  O186  1  0.82383000  0.95053000  0.16669000  1.0
  O  O187  1  0.67616000  0.45053000  0.33333333  1.0
  O  O188  1  0.17616000  0.04947000  0.83331000  1.0
  O  O189  1  0.32384000  0.54947000  0.66666667  1.0
  O  O190  1  0.87531000  0.28051000  0.08932000  1.0
  O  O191  1  0.62470000  0.78050000  0.41069000  1.0
  O  O192  1  0.12470000  0.71950000  0.91069000  1.0
  O  O193  1  0.37531000  0.21949000  0.58932000  1.0
  O  O194  1  0.85617000  0.35015000  0.19861000  1.0
  O  O195  1  0.64382000  0.85014000  0.30140000  1.0
  O  O196  1  0.14382000  0.64986000  0.80140000  1.0
  O  O197  1  0.35618000  0.14985000  0.69861000  1.0
  O  O198  1  0.01168000  0.36506000  0.33076000  1.0
  O  O199  1  0.48831000  0.86506000  0.16924000  1.0
  O  O200  1  0.98832000  0.63494000  0.66924000  1.0
  O  O201  1  0.51168000  0.13494000  0.83076000  1.0
  O  O202  1  0.12495000  0.22608000  0.33632000  1.0
  O  O203  1  0.37504000  0.72607000  0.16368000  1.0
  O  O204  1  0.87505000  0.77393000  0.66368000  1.0
  O  O205  1  0.62495000  0.27393000  0.83632000  1.0
  O  O206  1  0.07783000  0.03925000  0.25773000  1.0
  O  O207  1  0.42218000  0.53925000  0.24228000  1.0
  O  O208  1  0.92217000  0.96075000  0.74227000  1.0
  O  O209  1  0.57783000  0.46075000  0.75773000  1.0
  O  O210  1  0.04394000  0.96812000  0.36458000  1.0
  O  O211  1  0.45606000  0.46812000  0.13542000  1.0
  O  O212  1  0.95606000  0.03187000  0.63541000  1.0
  O  O213  1  0.54394000  0.53187000  0.86458000  1.0
  O  O214  1  0.16316000  0.94967000  0.50245000  1.0
  O  O215  1  0.33685000  0.44968000  0.99755000  1.0
  O  O216  1  0.83685000  0.05032000  0.49755000  1.0
  O  O217  1  0.66316000  0.55033000  0.00245000  1.0
  O  O218  1  0.26494000  0.80281000  0.49809000  1.0
  O  O219  1  0.23507000  0.30282000  0.00191000  1.0
  O  O220  1  0.73507000  0.19718000  0.50192000  1.0
  O  O221  1  0.76494000  0.69718000  0.99809000  1.0
  O  O222  1  0.19152000  0.60851000  0.41756000  1.0
  O  O223  1  0.30849000  0.10851000  0.08244000  1.0
  O  O224  1  0.80849000  0.39148000  0.58245000  1.0
  O  O225  1  0.69152000  0.89148000  0.91755000  1.0
  O  O226  1  0.19189000  0.57573000  0.53428000  1.0
  O  O227  1  0.30810000  0.07573000  0.96573000  1.0
  O  O228  1  0.80809000  0.42426000  0.46573000  1.0
  O  O229  1  0.69189000  0.92426000  0.03428000  1.0
  O  O230  1  0.22757000  0.20257000  0.21060000  1.0
  O  O231  1  0.27243000  0.70257000  0.28940000  1.0
  O  O232  1  0.77244000  0.79743000  0.78940000  1.0
  O  O233  1  0.72756000  0.29742000  0.71060000  1.0
  O  O234  1  0.09424000  0.22757000  0.09799000  1.0
  O  O235  1  0.40575000  0.72757000  0.40200000  1.0
  O  O236  1  0.90576000  0.77243000  0.90200000  1.0
  O  O237  1  0.59425000  0.27242000  0.59800000  1.0
  O  O238  1  0.12081000  0.00211000  0.02505000  1.0
  O  O239  1  0.37914000  0.50204000  0.47492000  1.0
  O  O240  1  0.87914000  0.99795000  0.97493000  1.0
  O  O241  1  0.62080000  0.49789000  0.52505000  1.0
  O  O242  1  0.28059000  0.95705000  0.19353000  1.0
  O  O243  1  0.21940000  0.45706000  0.30646000  1.0
  O  O244  1  0.71940000  0.04294000  0.80647000  1.0
  O  O245  1  0.78059000  0.54295000  0.69352000  1.0
  O  O246  1  0.04872000  0.88921000  0.15157000  1.0
  O  O247  1  0.45127000  0.38920000  0.34843000  1.0
  O  O248  1  0.95128000  0.11080000  0.84842000  1.0
  O  O249  1  0.54872000  0.61079000  0.65156000  1.0
