# generated using pymatgen
data_V2Cd2H8C2N2O7
_symmetry_space_group_name_H-M   'P 1'
_cell_length_a   5.15509000
_cell_length_b   6.34588000
_cell_length_c   14.71160000
_cell_angle_alpha   90.00000000
_cell_angle_beta   90.00000000
_cell_angle_gamma   89.99890000
_symmetry_Int_Tables_number   1
_chemical_formula_structural   V2Cd2H8C2N2O7
_chemical_formula_sum   'V4 Cd4 H16 C4 N4 O14'
_cell_volume   481.26914065
_cell_formula_units_Z   2
loop_
 _symmetry_equiv_pos_site_id
 _symmetry_equiv_pos_as_xyz
  1  'x, y, z'
loop_
 _atom_site_type_symbol
 _atom_site_label
 _atom_site_symmetry_multiplicity
 _atom_site_fract_x
 _atom_site_fract_y
 _atom_site_fract_z
 _atom_site_occupancy
  V  V0  1  0.46209000  0.50000000  0.12128000  1.0
  V  V1  1  0.53791000  0.50000000  0.87872000  1.0
  V  V2  1  0.03791000  0.00000000  0.62128000  1.0
  V  V3  1  0.96209000  0.00000000  0.37872000  1.0
  Cd  Cd4  1  0.89005000  0.50001000  0.27218000  1.0
  Cd  Cd5  1  0.10995000  0.50000000  0.72782000  1.0
  Cd  Cd6  1  0.60995000  0.99999000  0.77218000  1.0
  Cd  Cd7  1  0.39005000  0.00000000  0.22782000  1.0
  H  H8  1  0.73938000  0.36013000  0.48556000  1.0
  H  H9  1  0.26061000  0.36016000  0.51444000  1.0
  H  H10  1  0.76062000  0.13987000  0.98556000  1.0
  H  H11  1  0.23940000  0.13984000  0.01444000  1.0
  H  H12  1  0.26062000  0.63987000  0.51444000  1.0
  H  H13  1  0.73940000  0.63985000  0.48555000  1.0
  H  H14  1  0.23938000  0.86013000  0.01444000  1.0
  H  H15  1  0.76060000  0.86016000  0.98555000  1.0
  H  H16  1  0.44048000  0.37069000  0.35920000  1.0
  H  H17  1  0.55952000  0.37069000  0.64080000  1.0
  H  H18  1  0.05952000  0.12931000  0.85920000  1.0
  H  H19  1  0.94048000  0.12931000  0.14080000  1.0
  H  H20  1  0.55952000  0.62932000  0.64081000  1.0
  H  H21  1  0.44047000  0.62931000  0.35920000  1.0
  H  H22  1  0.94047000  0.87068000  0.14080000  1.0
  H  H23  1  0.05953000  0.87069000  0.85920000  1.0
  C  C24  1  0.62131000  0.50000000  0.47024000  1.0
  C  C25  1  0.37870000  0.50001000  0.52976000  1.0
  C  C26  1  0.87869000  0.00000000  0.97024000  1.0
  C  C27  1  0.12130000  0.99999000  0.02976000  1.0
  N  N28  1  0.55516000  0.49999000  0.37284000  1.0
  N  N29  1  0.44484000  0.50000000  0.62716000  1.0
  N  N30  1  0.94484000  0.00001000  0.87284000  1.0
  N  N31  1  0.05516000  0.00000000  0.12716000  1.0
  O  O32  1  0.60753000  0.28215000  0.16888000  1.0
  O  O33  1  0.39247000  0.28215000  0.83112000  1.0
  O  O34  1  0.89247000  0.21785000  0.66888000  1.0
  O  O35  1  0.10753000  0.21785000  0.33112000  1.0
  O  O36  1  0.39247000  0.71785000  0.83112000  1.0
  O  O37  1  0.60753000  0.71785000  0.16888000  1.0
  O  O38  1  0.10753000  0.78215000  0.33112000  1.0
  O  O39  1  0.89247000  0.78216000  0.66888000  1.0
  O  O40  1  0.14621000  0.50000000  0.14828000  1.0
  O  O41  1  0.85378000  0.49999000  0.85172000  1.0
  O  O42  1  0.35379000  0.00000000  0.64828000  1.0
  O  O43  1  0.64622000  0.00001000  0.35172000  1.0
  O  O44  1  0.50000000  0.50000000  0.00000000  1.0
  O  O45  1  0.00000000  0.00000000  0.50000000  1.0
