# generated using pymatgen
data_Cd2H6C9N7Cl3
_symmetry_space_group_name_H-M   'P 1'
_cell_length_a   6.87433000
_cell_length_b   7.38335000
_cell_length_c   14.11800000
_cell_angle_alpha   89.99980000
_cell_angle_beta   94.17150000
_cell_angle_gamma   89.99990000
_symmetry_Int_Tables_number   1
_chemical_formula_structural   Cd2H6C9N7Cl3
_chemical_formula_sum   'Cd4 H12 C18 N14 Cl6'
_cell_volume   714.66899890
_cell_formula_units_Z   2
loop_
 _symmetry_equiv_pos_site_id
 _symmetry_equiv_pos_as_xyz
  1  'x, y, z'
loop_
 _atom_site_type_symbol
 _atom_site_label
 _atom_site_symmetry_multiplicity
 _atom_site_fract_x
 _atom_site_fract_y
 _atom_site_fract_z
 _atom_site_occupancy
  Cd  Cd0  1  0.70701000  0.87297000  0.15855000  1.0
  Cd  Cd1  1  0.29299000  0.37297000  0.84145000  1.0
  Cd  Cd2  1  0.16484000  0.11841000  0.07792000  1.0
  Cd  Cd3  1  0.83516000  0.61841000  0.92208000  1.0
  H  H4  1  0.08614000  0.51453000  0.21005000  1.0
  H  H5  1  0.91387000  0.01451000  0.78995000  1.0
  H  H6  1  0.97617000  0.47142000  0.37284000  1.0
  H  H7  1  0.02383000  0.97141000  0.62716000  1.0
  H  H8  1  0.57395000  0.38814000  0.47976000  1.0
  H  H9  1  0.42604000  0.88815000  0.52024000  1.0
  H  H10  1  0.67923000  0.41886000  0.31686000  1.0
  H  H11  1  0.32077000  0.91888000  0.68314000  1.0
  H  H12  1  0.87568000  0.42273000  0.67572000  1.0
  H  H13  1  0.12431000  0.92273000  0.32428000  1.0
  H  H14  1  0.45144000  0.30841000  0.61419000  1.0
  H  H15  1  0.54856000  0.80840000  0.38581000  1.0
  C  C16  1  0.44708000  0.48003000  0.15559000  1.0
  C  C17  1  0.55293000  0.98003000  0.84441000  1.0
  C  C18  1  0.38968000  0.47058000  0.25320000  1.0
  C  C19  1  0.61032000  0.97058000  0.74680000  1.0
  C  C20  1  0.19159000  0.48481000  0.26920000  1.0
  C  C21  1  0.80841000  0.98480000  0.73080000  1.0
  C  C22  1  0.12958000  0.46178000  0.35979000  1.0
  C  C23  1  0.87042000  0.96176000  0.64021000  1.0
  C  C24  1  0.26616000  0.42573000  0.43548000  1.0
  C  C25  1  0.73384000  0.92572000  0.56452000  1.0
  C  C26  1  0.46550000  0.41396000  0.42114000  1.0
  C  C27  1  0.53450000  0.91396000  0.57886000  1.0
  C  C28  1  0.52600000  0.43518000  0.32977000  1.0
  C  C29  1  0.47400000  0.93518000  0.67024000  1.0
  C  C30  1  0.00524000  0.40384000  0.63696000  1.0
  C  C31  1  0.99475000  0.90384000  0.36303000  1.0
  C  C32  1  0.29872000  0.34539000  0.60811000  1.0
  C  C33  1  0.70128000  0.84539000  0.39189000  1.0
  N  N34  1  0.59522000  0.57521000  0.12300000  1.0
  N  N35  1  0.40478000  0.07521000  0.87700000  1.0
  N  N36  1  0.59271000  0.53661000  0.02992000  1.0
  N  N37  1  0.40729000  0.03661000  0.97008000  1.0
  N  N38  1  0.44911000  0.42548000  0.00641000  1.0
  N  N39  1  0.55090000  0.92548000  0.99359000  1.0
  N  N40  1  0.35520000  0.38698000  0.08358000  1.0
  N  N41  1  0.64481000  0.88698000  0.91642000  1.0
  N  N42  1  0.19901000  0.40173000  0.52743000  1.0
  N  N43  1  0.80098000  0.90173000  0.47257000  1.0
  N  N44  1  0.00938000  0.43915000  0.54519000  1.0
  N  N45  1  0.99061000  0.93915000  0.45481000  1.0
  N  N46  1  0.18021000  0.34487000  0.67866000  1.0
  N  N47  1  0.81978000  0.84486000  0.32134000  1.0
  Cl  Cl48  1  0.86269000  0.19342000  0.16681000  1.0
  Cl  Cl49  1  0.13731000  0.69342000  0.83319000  1.0
  Cl  Cl50  1  0.02338000  0.76942000  0.07467000  1.0
  Cl  Cl51  1  0.97662000  0.26941000  0.92534000  1.0
  Cl  Cl52  1  0.38518000  0.99295000  0.22240000  1.0
  Cl  Cl53  1  0.61482000  0.49295000  0.77760000  1.0
