# generated using pymatgen
data_CuH8C12N5
_symmetry_space_group_name_H-M   'P 1'
_cell_length_a   7.96648000
_cell_length_b   10.22420000
_cell_length_c   13.11580000
_cell_angle_alpha   90.00000000
_cell_angle_beta   106.06500000
_cell_angle_gamma   89.99980000
_symmetry_Int_Tables_number   1
_chemical_formula_structural   CuH8C12N5
_chemical_formula_sum   'Cu4 H32 C48 N20'
_cell_volume   1026.57491921
_cell_formula_units_Z   4
loop_
 _symmetry_equiv_pos_site_id
 _symmetry_equiv_pos_as_xyz
  1  'x, y, z'
loop_
 _atom_site_type_symbol
 _atom_site_label
 _atom_site_symmetry_multiplicity
 _atom_site_fract_x
 _atom_site_fract_y
 _atom_site_fract_z
 _atom_site_occupancy
  Cu  Cu0  1  0.90455000  0.50705000  0.60749000  1.0
  Cu  Cu1  1  0.59545000  0.00705000  0.89251000  1.0
  Cu  Cu2  1  0.09545000  0.49295000  0.39251000  1.0
  Cu  Cu3  1  0.40455000  0.99295000  0.10749000  1.0
  H  H4  1  0.52941000  0.94168000  0.66555000  1.0
  H  H5  1  0.97060000  0.44168000  0.83446000  1.0
  H  H6  1  0.47059000  0.05832000  0.33445000  1.0
  H  H7  1  0.02941000  0.55832000  0.16555000  1.0
  H  H8  1  0.62351000  0.02987000  0.51381000  1.0
  H  H9  1  0.87650000  0.52987000  0.98619000  1.0
  H  H10  1  0.37649000  0.97013000  0.48619000  1.0
  H  H11  1  0.12350000  0.47013000  0.01381000  1.0
  H  H12  1  0.95884000  0.29758000  0.72839000  1.0
  H  H13  1  0.54115000  0.79758000  0.77161000  1.0
  H  H14  1  0.04116000  0.70242000  0.27161000  1.0
  H  H15  1  0.45884000  0.20242000  0.22838000  1.0
  H  H16  1  0.85876000  0.19524000  0.87581000  1.0
  H  H17  1  0.64123000  0.69523000  0.62419000  1.0
  H  H18  1  0.14124000  0.80476000  0.12419000  1.0
  H  H19  1  0.35877000  0.30476000  0.37581000  1.0
  H  H20  1  0.69624000  0.34450000  0.99803000  1.0
  H  H21  1  0.80376000  0.84450000  0.50197000  1.0
  H  H22  1  0.30376000  0.65550000  0.00197000  1.0
  H  H23  1  0.19624000  0.15550000  0.49803000  1.0
  H  H24  1  0.72915000  0.41409000  0.18346000  1.0
  H  H25  1  0.77085000  0.91408000  0.31654000  1.0
  H  H26  1  0.27085000  0.58591000  0.81654000  1.0
  H  H27  1  0.22915000  0.08591000  0.68346000  1.0
  H  H28  1  0.98036000  0.04316000  0.28466000  1.0
  H  H29  1  0.51963000  0.54316000  0.21534000  1.0
  H  H30  1  0.01963000  0.95684000  0.71534000  1.0
  H  H31  1  0.48037000  0.45683000  0.78466000  1.0
  H  H32  1  0.94594000  0.99221000  0.09384000  1.0
  H  H33  1  0.55405000  0.49221000  0.40616000  1.0
  H  H34  1  0.05405000  0.00779000  0.90616000  1.0
  H  H35  1  0.44595000  0.50778000  0.59384000  1.0
  C  C36  1  0.82998000  0.23431000  0.51541000  1.0
  C  C37  1  0.67002000  0.73431000  0.98459000  1.0
  C  C38  1  0.17002000  0.76569000  0.48459000  1.0
  C  C39  1  0.32997000  0.26569000  0.01541000  1.0
  C  C40  1  0.85792000  0.25857000  0.36084000  1.0
  C  C41  1  0.64208000  0.75857000  0.13916000  1.0
  C  C42  1  0.14208000  0.74143000  0.63916000  1.0
  C  C43  1  0.35791000  0.24143000  0.86084000  1.0
  C  C44  1  0.62694000  0.01909000  0.67804000  1.0
  C  C45  1  0.87307000  0.51908000  0.82196000  1.0
  C  C46  1  0.37306000  0.98092000  0.32196000  1.0
  C  C47  1  0.12694000  0.48092000  0.17804000  1.0
  C  C48  1  0.67588000  0.06983000  0.59287000  1.0
  C  C49  1  0.82412000  0.56983000  0.90713000  1.0
  C  C50  1  0.32412000  0.93017000  0.40713000  1.0
  C  C51  1  0.17588000  0.43017000  0.09287000  1.0
  C  C52  1  0.79101000  0.17611000  0.60717000  1.0
  C  C53  1  0.70900000  0.67611000  0.89283000  1.0
  C  C54  1  0.20900000  0.82389000  0.39283000  1.0
  C  C55  1  0.29100000  0.32389000  0.10717000  1.0
  C  C56  1  0.86099000  0.22035000  0.71156000  1.0
  C  C57  1  0.63901000  0.72035000  0.78844000  1.0
  C  C58  1  0.13901000  0.77965000  0.28844000  1.0
  C  C59  1  0.36099000  0.27965000  0.21156000  1.0
  C  C60  1  0.80803000  0.16353000  0.79352000  1.0
  C  C61  1  0.69197000  0.66353000  0.70648000  1.0
  C  C62  1  0.19197000  0.83647000  0.20648000  1.0
  C  C63  1  0.30803000  0.33647000  0.29352000  1.0
  C  C64  1  0.76099000  0.28009000  0.06359000  1.0
  C  C65  1  0.73900000  0.78008000  0.43641000  1.0
  C  C66  1  0.23900000  0.71992000  0.93640000  1.0
  C  C67  1  0.26100000  0.21992000  0.56359000  1.0
  C  C68  1  0.77769000  0.31883000  0.16768000  1.0
  C  C69  1  0.72231000  0.81883000  0.33232000  1.0
  C  C70  1  0.22231000  0.68117000  0.83232000  1.0
  C  C71  1  0.27769000  0.18117000  0.66768000  1.0
  C  C72  1  0.85309000  0.23167000  0.25023000  1.0
  C  C73  1  0.64691000  0.73167000  0.24977000  1.0
  C  C74  1  0.14690000  0.76833000  0.74977000  1.0
  C  C75  1  0.35309000  0.26833000  0.75023000  1.0
  C  C76  1  0.91652000  0.11249000  0.22308000  1.0
  C  C77  1  0.58348000  0.61249000  0.27692000  1.0
  C  C78  1  0.08348000  0.88751000  0.77692000  1.0
  C  C79  1  0.41652000  0.38751000  0.72309000  1.0
  C  C80  1  0.89763000  0.08432000  0.11680000  1.0
  C  C81  1  0.60237000  0.58432000  0.38320000  1.0
  C  C82  1  0.10237000  0.91568000  0.88320000  1.0
  C  C83  1  0.39763000  0.41568000  0.61680000  1.0
  N  N84  1  0.88377000  0.35936000  0.51048000  1.0
  N  N85  1  0.61623000  0.85937000  0.98952000  1.0
  N  N86  1  0.11623000  0.64064000  0.48952000  1.0
  N  N87  1  0.38377000  0.14064000  0.01048000  1.0
  N  N88  1  0.90370000  0.37483000  0.41066000  1.0
  N  N89  1  0.59630000  0.87483000  0.08934000  1.0
  N  N90  1  0.09630000  0.62517000  0.58934000  1.0
  N  N91  1  0.40370000  0.12517000  0.91066000  1.0
  N  N92  1  0.81124000  0.16855000  0.42314000  1.0
  N  N93  1  0.68876000  0.66855000  0.07686000  1.0
  N  N94  1  0.18876000  0.83145000  0.57686000  1.0
  N  N95  1  0.31123000  0.33145000  0.92314000  1.0
  N  N96  1  0.68950000  0.06478000  0.77855000  1.0
  N  N97  1  0.81050000  0.56478000  0.72145000  1.0
  N  N98  1  0.31050000  0.93522000  0.22145000  1.0
  N  N99  1  0.18950000  0.43522000  0.27855000  1.0
  N  N100  1  0.81770000  0.16452000  0.03695000  1.0
  N  N101  1  0.68230000  0.66452000  0.46305000  1.0
  N  N102  1  0.18230000  0.83548000  0.96305000  1.0
  N  N103  1  0.31770000  0.33548000  0.53695000  1.0
