# generated using pymatgen
data_ErH11C18(NO3)2
_symmetry_space_group_name_H-M   'P 1'
_cell_length_a   8.83799000
_cell_length_b   9.36598000
_cell_length_c   10.66530000
_cell_angle_alpha   80.24940000
_cell_angle_beta   76.68470000
_cell_angle_gamma   73.38770000
_symmetry_Int_Tables_number   1
_chemical_formula_structural   ErH11C18(NO3)2
_chemical_formula_sum   'Er2 H22 C36 N4 O12'
_cell_volume   818.15662073
_cell_formula_units_Z   2
loop_
 _symmetry_equiv_pos_site_id
 _symmetry_equiv_pos_as_xyz
  1  'x, y, z'
loop_
 _atom_site_type_symbol
 _atom_site_label
 _atom_site_symmetry_multiplicity
 _atom_site_fract_x
 _atom_site_fract_y
 _atom_site_fract_z
 _atom_site_occupancy
  Er  Er0  1  0.09028000  0.38393000  0.35469000  1.0
  Er  Er1  1  0.90973000  0.61607000  0.64531000  1.0
  H  H2  1  0.24825000  0.02556000  0.48824000  1.0
  H  H3  1  0.75175000  0.97444000  0.51177000  1.0
  H  H4  1  0.49100000  0.80862000  0.45602000  1.0
  H  H5  1  0.50899000  0.19138000  0.54398000  1.0
  H  H6  1  0.69315000  0.81261000  0.24644000  1.0
  H  H7  1  0.30685000  0.18738000  0.75356000  1.0
  H  H8  1  0.77798000  0.94903000  0.02918000  1.0
  H  H9  1  0.22202000  0.05096000  0.97081000  1.0
  H  H10  1  0.71461000  0.16336000  0.86352000  1.0
  H  H11  1  0.28539000  0.83664000  0.13648000  1.0
  H  H12  1  0.53215000  0.40586000  0.79213000  1.0
  H  H13  1  0.46785000  0.59414000  0.20787000  1.0
  H  H14  1  0.27090000  0.60268000  0.84319000  1.0
  H  H15  1  0.72910000  0.39732000  0.15681000  1.0
  H  H16  1  0.10091000  0.58592000  0.06077000  1.0
  H  H17  1  0.89909000  0.41408000  0.93923000  1.0
  H  H18  1  0.99986000  0.10893000  0.85852000  1.0
  H  H19  1  0.00014000  0.89106000  0.14148000  1.0
  H  H20  1  0.03345000  0.96692000  0.60912000  1.0
  H  H21  1  0.96655000  0.03308000  0.39088000  1.0
  H  H22  1  0.62731000  0.41656000  0.39213000  1.0
  H  H23  1  0.37269000  0.58344000  0.60787000  1.0
  C  C24  1  0.33694000  0.02255000  0.39822000  1.0
  C  C25  1  0.66305000  0.97746000  0.60178000  1.0
  C  C26  1  0.47412000  0.90143000  0.37952000  1.0
  C  C27  1  0.52587000  0.09857000  0.62048000  1.0
  C  C28  1  0.58536000  0.90455000  0.26515000  1.0
  C  C29  1  0.41463000  0.09545000  0.73485000  1.0
  C  C30  1  0.55837000  0.02846000  0.16961000  1.0
  C  C31  1  0.44163000  0.97154000  0.83040000  1.0
  C  C32  1  0.66748000  0.03800000  0.04836000  1.0
  C  C33  1  0.33252000  0.96200000  0.95164000  1.0
  C  C34  1  0.63293000  0.15676000  0.95668000  1.0
  C  C35  1  0.36707000  0.84324000  0.04332000  1.0
  C  C36  1  0.48956000  0.27513000  0.97929000  1.0
  C  C37  1  0.51044000  0.72487000  0.02071000  1.0
  C  C38  1  0.44994000  0.39789000  0.88509000  1.0
  C  C39  1  0.55006000  0.60211000  0.11492000  1.0
  C  C40  1  0.30867000  0.50756000  0.91309000  1.0
  C  C41  1  0.69133000  0.49244000  0.08691000  1.0
  C  C42  1  0.21009000  0.49733000  0.03647000  1.0
  C  C43  1  0.78991000  0.50267000  0.96353000  1.0
  C  C44  1  0.38133000  0.27201000  0.10038000  1.0
  C  C45  1  0.61867000  0.72798000  0.89962000  1.0
  C  C46  1  0.41526000  0.14552000  0.19673000  1.0
  C  C47  1  0.58475000  0.85448000  0.80327000  1.0
  C  C48  1  0.01114000  0.24208000  0.66543000  1.0
  C  C49  1  0.98886000  0.75793000  0.33457000  1.0
  C  C50  1  0.01332000  0.10154000  0.75517000  1.0
  C  C51  1  0.98668000  0.89846000  0.24483000  1.0
  C  C52  1  0.02442000  0.97164000  0.71223000  1.0
  C  C53  1  0.97558000  0.02836000  0.28777000  1.0
  C  C54  1  0.02594000  0.82702000  0.79765000  1.0
  C  C55  1  0.97406000  0.17298000  0.20234000  1.0
  C  C56  1  0.69609000  0.52411000  0.53081000  1.0
  C  C57  1  0.30392000  0.47589000  0.46919000  1.0
  C  C58  1  0.57921000  0.48052000  0.47547000  1.0
  C  C59  1  0.42079000  0.51947000  0.52453000  1.0
  N  N60  1  0.30718000  0.14153000  0.31049000  1.0
  N  N61  1  0.69282000  0.85847000  0.68951000  1.0
  N  N62  1  0.24579000  0.38453000  0.12842000  1.0
  N  N63  1  0.75421000  0.61547000  0.87158000  1.0
  O  O64  1  0.06163000  0.23102000  0.54434000  1.0
  O  O65  1  0.93837000  0.76899000  0.45566000  1.0
  O  O66  1  0.95741000  0.36507000  0.71662000  1.0
  O  O67  1  0.04260000  0.63492000  0.28339000  1.0
  O  O68  1  0.05093000  0.71279000  0.73294000  1.0
  O  O69  1  0.94907000  0.28721000  0.26706000  1.0
  O  O70  1  0.00885000  0.81967000  0.91734000  1.0
  O  O71  1  0.99114000  0.18034000  0.08265000  1.0
  O  O72  1  0.84401000  0.49576000  0.47274000  1.0
  O  O73  1  0.15599000  0.50424000  0.52725000  1.0
  O  O74  1  0.65073000  0.59033000  0.63265000  1.0
  O  O75  1  0.34927000  0.40967000  0.36735000  1.0
