# generated using pymatgen
data_CdH20C17S(N2O3)2
_symmetry_space_group_name_H-M   'P 1'
_cell_length_a   8.96805000
_cell_length_b   10.89170000
_cell_length_c   12.88170000
_cell_angle_alpha   67.90130000
_cell_angle_beta   75.72480000
_cell_angle_gamma   67.79880000
_symmetry_Int_Tables_number   1
_chemical_formula_structural   CdH20C17S(N2O3)2
_chemical_formula_sum   'Cd2 H40 C34 S2 N8 O12'
_cell_volume   1071.35740604
_cell_formula_units_Z   2
loop_
 _symmetry_equiv_pos_site_id
 _symmetry_equiv_pos_as_xyz
  1  'x, y, z'
loop_
 _atom_site_type_symbol
 _atom_site_label
 _atom_site_symmetry_multiplicity
 _atom_site_fract_x
 _atom_site_fract_y
 _atom_site_fract_z
 _atom_site_occupancy
  Cd  Cd0  1  0.65523000  0.88272000  0.66975000  1.0
  Cd  Cd1  1  0.34477000  0.11728000  0.33025000  1.0
  H  H2  1  0.05808000  0.74349000  0.66621000  1.0
  H  H3  1  0.94192000  0.25651000  0.33379000  1.0
  H  H4  1  0.60505000  0.59431000  0.64344000  1.0
  H  H5  1  0.39494000  0.40569000  0.35656000  1.0
  H  H6  1  0.67192000  0.35457000  0.62718000  1.0
  H  H7  1  0.32808000  0.64543000  0.37281000  1.0
  H  H8  1  0.95242000  0.19308000  0.62942000  1.0
  H  H9  1  0.04758000  0.80692000  0.37058000  1.0
  H  H10  1  0.17984000  0.26238000  0.64125000  1.0
  H  H11  1  0.82016000  0.73762000  0.35875000  1.0
  H  H12  1  0.33393000  0.57642000  0.60297000  1.0
  H  H13  1  0.66606000  0.42358000  0.39703000  1.0
  H  H14  1  0.34019000  0.40440000  0.61933000  1.0
  H  H15  1  0.65981000  0.59560000  0.38067000  1.0
  H  H16  1  0.28520000  0.52573000  0.81185000  1.0
  H  H17  1  0.71480000  0.47427000  0.18815000  1.0
  H  H18  1  0.46840000  0.41045000  0.76877000  1.0
  H  H19  1  0.53160000  0.58955000  0.23123000  1.0
  H  H20  1  0.15157000  0.34106000  0.87798000  1.0
  H  H21  1  0.84843000  0.65894000  0.12203000  1.0
  H  H22  1  0.31633000  0.23432000  0.81065000  1.0
  H  H23  1  0.68367000  0.76568000  0.18935000  1.0
  H  H24  1  0.16670000  0.30735000  0.08081000  1.0
  H  H25  1  0.83331000  0.69265000  0.91920000  1.0
  H  H26  1  0.62818000  0.14454000  0.79509000  1.0
  H  H27  1  0.37182000  0.85546000  0.20491000  1.0
  H  H28  1  0.89294000  0.98877000  0.86140000  1.0
  H  H29  1  0.10706000  0.01123000  0.13860000  1.0
  H  H30  1  0.93514000  0.91692000  0.06169000  1.0
  H  H31  1  0.06487000  0.08308000  0.93831000  1.0
  H  H32  1  0.71513000  0.00342000  0.20211000  1.0
  H  H33  1  0.28487000  0.99658000  0.79789000  1.0
  H  H34  1  0.53805000  0.16067000  0.56535000  1.0
  H  H35  1  0.46195000  0.83933000  0.43465000  1.0
  H  H36  1  0.39328000  0.09799000  0.59101000  1.0
  H  H37  1  0.60672000  0.90201000  0.40899000  1.0
  H  H38  1  0.94752000  0.96662000  0.66316000  1.0
  H  H39  1  0.05248000  0.03338000  0.33684000  1.0
  H  H40  1  0.81146000  0.07723000  0.58121000  1.0
  H  H41  1  0.18854000  0.92277000  0.41879000  1.0
  C  C42  1  0.01272000  0.66666667  0.66101000  1.0
  C  C43  1  0.98728000  0.33333333  0.33899000  1.0
  C  C44  1  0.85671000  0.56032000  0.65088000  1.0
  C  C45  1  0.14328000  0.43969000  0.34912000  1.0
  C  C46  1  0.72858000  0.52177000  0.64286000  1.0
  C  C47  1  0.27142000  0.47823000  0.35714000  1.0
  C  C48  1  0.76728000  0.38892000  0.63465000  1.0
  C  C49  1  0.23272000  0.61108000  0.36535000  1.0
  C  C50  1  0.92771000  0.29641000  0.63484000  1.0
  C  C51  1  0.07229000  0.70360000  0.36516000  1.0
  C  C52  1  0.05609000  0.33383000  0.64202000  1.0
  C  C53  1  0.94391000  0.66618000  0.35797000  1.0
  C  C54  1  0.01784000  0.46720000  0.64939000  1.0
  C  C55  1  0.98216000  0.53281000  0.35061000  1.0
  C  C56  1  0.28870000  0.48925000  0.65704000  1.0
  C  C57  1  0.71130000  0.51075000  0.34296000  1.0
  C  C58  1  0.33581000  0.43925000  0.77575000  1.0
  C  C59  1  0.66419000  0.56075000  0.22425000  1.0
  C  C60  1  0.28341000  0.31288000  0.85356000  1.0
  C  C61  1  0.71659000  0.68712000  0.14644000  1.0
  C  C62  1  0.29380000  0.25127000  0.06208000  1.0
  C  C63  1  0.70620000  0.74873000  0.93792000  1.0
  C  C64  1  0.52256000  0.16262000  0.96321000  1.0
  C  C65  1  0.47744000  0.83738000  0.03680000  1.0
  C  C66  1  0.64555000  0.11674000  0.88275000  1.0
  C  C67  1  0.35445000  0.88325000  0.11725000  1.0
  C  C68  1  0.79361000  0.02775000  0.92120000  1.0
  C  C69  1  0.20639000  0.97224000  0.07880000  1.0
  C  C70  1  0.81743000  0.98709000  0.03513000  1.0
  C  C71  1  0.18257000  0.01291000  0.96487000  1.0
  C  C72  1  0.69507000  0.03383000  0.11484000  1.0
  C  C73  1  0.30493000  0.96616000  0.88516000  1.0
  C  C74  1  0.54496000  0.12189000  0.07786000  1.0
  C  C75  1  0.45504000  0.87811000  0.92214000  1.0
  S  S76  1  0.28879000  0.88832000  0.61168000  1.0
  S  S77  1  0.71121000  0.11168000  0.38833000  1.0
  N  N78  1  0.85853000  0.68361000  0.65905000  1.0
  N  N79  1  0.14147000  0.31639000  0.34095000  1.0
  N  N80  1  0.11315000  0.53880000  0.65560000  1.0
  N  N81  1  0.88685000  0.46121000  0.34439000  1.0
  N  N82  1  0.36127000  0.24573000  0.95632000  1.0
  N  N83  1  0.63874000  0.75426000  0.04368000  1.0
  N  N84  1  0.39894000  0.17915000  0.13713000  1.0
  N  N85  1  0.60106000  0.82084000  0.86287000  1.0
  O  O86  1  0.43686000  0.81514000  0.67041000  1.0
  O  O87  1  0.56314000  0.18485000  0.32959000  1.0
  O  O88  1  0.14139000  0.88848000  0.69448000  1.0
  O  O89  1  0.85861000  0.11151000  0.30552000  1.0
  O  O90  1  0.28423000  0.03621000  0.54301000  1.0
  O  O91  1  0.71577000  0.96378000  0.45700000  1.0
  O  O92  1  0.29637000  0.81270000  0.53263000  1.0
  O  O93  1  0.70363000  0.18729000  0.46737000  1.0
  O  O94  1  0.46691000  0.11431000  0.62803000  1.0
  O  O95  1  0.53309000  0.88569000  0.37197000  1.0
  O  O96  1  0.82869000  0.00760000  0.65733000  1.0
  O  O97  1  0.17131000  0.99241000  0.34267000  1.0
