# generated using pymatgen
data_Co2H28C40SN4O9
_symmetry_space_group_name_H-M   'P 1'
_cell_length_a   11.81170000
_cell_length_b   11.96370000
_cell_length_c   13.56660000
_cell_angle_alpha   102.66700000
_cell_angle_beta   100.05300000
_cell_angle_gamma   99.17460000
_symmetry_Int_Tables_number   1
_chemical_formula_structural   Co2H28C40SN4O9
_chemical_formula_sum   'Co4 H56 C80 S2 N8 O18'
_cell_volume   1802.31044908
_cell_formula_units_Z   2
loop_
 _symmetry_equiv_pos_site_id
 _symmetry_equiv_pos_as_xyz
  1  'x, y, z'
loop_
 _atom_site_type_symbol
 _atom_site_label
 _atom_site_symmetry_multiplicity
 _atom_site_fract_x
 _atom_site_fract_y
 _atom_site_fract_z
 _atom_site_occupancy
  Co  Co0  1  0.25398000  0.96702000  0.10354000  1.0
  Co  Co1  1  0.74629000  0.03360000  0.89707000  1.0
  Co  Co2  1  0.13023000  0.28497000  0.18467000  1.0
  Co  Co3  1  0.86853000  0.71278000  0.81455000  1.0
  H  H4  1  0.24315000  0.48943000  0.22986000  1.0
  H  H5  1  0.75467000  0.51006000  0.76843000  1.0
  H  H6  1  0.14114000  0.52621000  0.28103000  1.0
  H  H7  1  0.85839000  0.47425000  0.71842000  1.0
  H  H8  1  0.47205000  0.90734000  0.04280000  1.0
  H  H9  1  0.52875000  0.09323000  0.95742000  1.0
  H  H10  1  0.55115000  0.73008000  0.99787000  1.0
  H  H11  1  0.44918000  0.27024000  0.00182000  1.0
  H  H12  1  0.25029000  0.54004000  0.07756000  1.0
  H  H13  1  0.75005000  0.46065000  0.92243000  1.0
  H  H14  1  0.18409000  0.72816000  0.12042000  1.0
  H  H15  1  0.81678000  0.27274000  0.88010000  1.0
  H  H16  1  0.38846000  0.43148000  0.02048000  1.0
  H  H17  1  0.61176000  0.56901000  0.97928000  1.0
  H  H18  1  0.59550000  0.54122000  0.30744000  1.0
  H  H19  1  0.40348000  0.45879000  0.69085000  1.0
  H  H20  1  0.79920000  0.49980000  0.32677000  1.0
  H  H21  1  0.20010000  0.50089000  0.67232000  1.0
  H  H22  1  0.82623000  0.29661000  0.26850000  1.0
  H  H23  1  0.17377000  0.70417000  0.73142000  1.0
  H  H24  1  0.71949000  0.02524000  0.37703000  1.0
  H  H25  1  0.28105000  0.97608000  0.62415000  1.0
  H  H26  1  0.89885000  0.96755000  0.46022000  1.0
  H  H27  1  0.10106000  0.03286000  0.54109000  1.0
  H  H28  1  0.06693000  0.95915000  0.37114000  1.0
  H  H29  1  0.93308000  0.04047000  0.63034000  1.0
  H  H30  1  0.99678000  0.35941000  0.35249000  1.0
  H  H31  1  0.00219000  0.63895000  0.64708000  1.0
  H  H32  1  0.00261000  0.35390000  0.53434000  1.0
  H  H33  1  0.99705000  0.64569000  0.46542000  1.0
  H  H34  1  0.31603000  0.20891000  0.52785000  1.0
  H  H35  1  0.68365000  0.79069000  0.47206000  1.0
  H  H36  1  0.29154000  0.21326000  0.34325000  1.0
  H  H37  1  0.70708000  0.78460000  0.65605000  1.0
  H  H38  1  0.24850000  0.23737000  0.68472000  1.0
  H  H39  1  0.75172000  0.76332000  0.31547000  1.0
  H  H40  1  0.03785000  0.35882000  0.69393000  1.0
  H  H41  1  0.96211000  0.64149000  0.30600000  1.0
  H  H42  1  0.98842000  0.41391000  0.85691000  1.0
  H  H43  1  0.01222000  0.58710000  0.14336000  1.0
  H  H44  1  0.99636000  0.39015000  0.03598000  1.0
  H  H45  1  0.00482000  0.61126000  0.96465000  1.0
  H  H46  1  0.24628000  0.18490000  0.01187000  1.0
  H  H47  1  0.75502000  0.81679000  0.98840000  1.0
  H  H48  1  0.24688000  0.19530000  0.83176000  1.0
  H  H49  1  0.75395000  0.80605000  0.16844000  1.0
  H  H50  1  0.13045000  0.76888000  0.28481000  1.0
  H  H51  1  0.86949000  0.23134000  0.71544000  1.0
  H  H52  1  0.29675000  0.93482000  0.35285000  1.0
  H  H53  1  0.70320000  0.06526000  0.64730000  1.0
  H  H54  1  0.53835000  0.94276000  0.58920000  1.0
  H  H55  1  0.46175000  0.05719000  0.41079000  1.0
  H  H56  1  0.43662000  0.74949000  0.57158000  1.0
  H  H57  1  0.56351000  0.25045000  0.42837000  1.0
  H  H58  1  0.26466000  0.58575000  0.48937000  1.0
  H  H59  1  0.73526000  0.41431000  0.51074000  1.0
  C  C60  1  0.42637000  0.82448000  0.05088000  1.0
  C  C61  1  0.57431000  0.17612000  0.94929000  1.0
  C  C62  1  0.47012000  0.72373000  0.02595000  1.0
  C  C63  1  0.53030000  0.27674000  0.97390000  1.0
  C  C64  1  0.40868000  0.61677000  0.03523000  1.0
  C  C65  1  0.59161000  0.38374000  0.96457000  1.0
  C  C66  1  0.30264000  0.61932000  0.06879000  1.0
  C  C67  1  0.69774000  0.38129000  0.93113000  1.0
  C  C68  1  0.26516000  0.72383000  0.09331000  1.0
  C  C69  1  0.73554000  0.27693000  0.90693000  1.0
  C  C70  1  0.44861000  0.50716000  0.01324000  1.0
  C  C71  1  0.55160000  0.49330000  0.98649000  1.0
  C  C72  1  0.42525000  0.13975000  0.18988000  1.0
  C  C73  1  0.57490000  0.86000000  0.80927000  1.0
  C  C74  1  0.64115000  0.22191000  0.22912000  1.0
  C  C75  1  0.35903000  0.77834000  0.77092000  1.0
  C  C76  1  0.52652000  0.24352000  0.22251000  1.0
  C  C77  1  0.47346000  0.75636000  0.77712000  1.0
  C  C78  1  0.51181000  0.36036000  0.24904000  1.0
  C  C79  1  0.48771000  0.63945000  0.74980000  1.0
  C  C80  1  0.39156000  0.38864000  0.23599000  1.0
  C  C81  1  0.60767000  0.61077000  0.76324000  1.0
  C  C82  1  0.61021000  0.45221000  0.28700000  1.0
  C  C83  1  0.38909000  0.54789000  0.71161000  1.0
  C  C84  1  0.72277000  0.42864000  0.29708000  1.0
  C  C85  1  0.27672000  0.57184000  0.70201000  1.0
  C  C86  1  0.73852000  0.31453000  0.26633000  1.0
  C  C87  1  0.26137000  0.68603000  0.73331000  1.0
  C  C88  1  0.79455000  0.06771000  0.25302000  1.0
  C  C89  1  0.20652000  0.93348000  0.74842000  1.0
  C  C90  1  0.79754000  0.03062000  0.34428000  1.0
  C  C91  1  0.20319000  0.97064000  0.65716000  1.0
  C  C92  1  0.89766000  0.99744000  0.38995000  1.0
  C  C93  1  0.10270000  0.00325000  0.61153000  1.0
  C  C94  1  0.99228000  0.99448000  0.34144000  1.0
  C  C95  1  0.00812000  0.00573000  0.66011000  1.0
  C  C96  1  0.99252000  0.03595000  0.25280000  1.0
  C  C97  1  0.00836000  0.96426000  0.74880000  1.0
  C  C98  1  0.89534000  0.07837000  0.21092000  1.0
  C  C99  1  0.10587000  0.92231000  0.79059000  1.0
  C  C100  1  0.09155000  0.02782000  0.19862000  1.0
  C  C101  1  0.90908000  0.97147000  0.80279000  1.0
  C  C102  1  0.89585000  0.13141000  0.11997000  1.0
  C  C103  1  0.10383000  0.86586000  0.87945000  1.0
  C  C104  1  0.06620000  0.32669000  0.39458000  1.0
  C  C105  1  0.93279000  0.67153000  0.60484000  1.0
  C  C106  1  0.07096000  0.32451000  0.49680000  1.0
  C  C107  1  0.92845000  0.67462000  0.50288000  1.0
  C  C108  1  0.16237000  0.28215000  0.54961000  1.0
  C  C109  1  0.83727000  0.71741000  0.45020000  1.0
  C  C110  1  0.24315000  0.24270000  0.49197000  1.0
  C  C111  1  0.75629000  0.75644000  0.50776000  1.0
  C  C112  1  0.23103000  0.24594000  0.38918000  1.0
  C  C113  1  0.76781000  0.75208000  0.61023000  1.0
  C  C114  1  0.17607000  0.27669000  0.65652000  1.0
  C  C115  1  0.82399000  0.72369000  0.34350000  1.0
  C  C116  1  0.10825000  0.31664000  0.72175000  1.0
  C  C117  1  0.89192000  0.68400000  0.27830000  1.0
  C  C118  1  0.11796000  0.30736000  0.82740000  1.0
  C  C119  1  0.88266000  0.69377000  0.17280000  1.0
  C  C120  1  0.04731000  0.36234000  0.88824000  1.0
  C  C121  1  0.95345000  0.63882000  0.11209000  1.0
  C  C122  1  0.05163000  0.35048000  0.98810000  1.0
  C  C123  1  0.94938000  0.65096000  0.01236000  1.0
  C  C124  1  0.19100000  0.23533000  0.97459000  1.0
  C  C125  1  0.81017000  0.76637000  0.02575000  1.0
  C  C126  1  0.19118000  0.24246000  0.87400000  1.0
  C  C127  1  0.80976000  0.75898000  0.12627000  1.0
  C  C128  1  0.19986000  0.76610000  0.34831000  1.0
  C  C129  1  0.80006000  0.23404000  0.65190000  1.0
  C  C130  1  0.29395000  0.86059000  0.38741000  1.0
  C  C131  1  0.70602000  0.13951000  0.61276000  1.0
  C  C132  1  0.38338000  0.85755000  0.46991000  1.0
  C  C133  1  0.61663000  0.14246000  0.53017000  1.0
  C  C134  1  0.48525000  0.95248000  0.51811000  1.0
  C  C135  1  0.51480000  0.04751000  0.48192000  1.0
  C  C136  1  0.37074000  0.75640000  0.50727000  1.0
  C  C137  1  0.62930000  0.24359000  0.49277000  1.0
  C  C138  1  0.27393000  0.66528000  0.46193000  1.0
  C  C139  1  0.72604000  0.33477000  0.53818000  1.0
  S  S140  1  0.65633000  0.07668000  0.18194000  1.0
  S  S141  1  0.34455000  0.92364000  0.81915000  1.0
  N  N142  1  0.14378000  0.28779000  0.33988000  1.0
  N  N143  1  0.85474000  0.70963000  0.65933000  1.0
  N  N144  1  0.32563000  0.82599000  0.08526000  1.0
  N  N145  1  0.67522000  0.17478000  0.91515000  1.0
  N  N146  1  0.12271000  0.28883000  0.03195000  1.0
  N  N147  1  0.87852000  0.71285000  0.96853000  1.0
  N  N148  1  0.18816000  0.66871000  0.38372000  1.0
  N  N149  1  0.81175000  0.33144000  0.61648000  1.0
  O  O150  1  0.37970000  0.09700000  0.09250000  1.0
  O  O151  1  0.61970000  0.90426000  0.90660000  1.0
  O  O152  1  0.39201000  0.09058000  0.25628000  1.0
  O  O153  1  0.60871000  0.90730000  0.74206000  1.0
  O  O154  1  0.38063000  0.49410000  0.25287000  1.0
  O  O155  1  0.61835000  0.50515000  0.74381000  1.0
  O  O156  1  0.30591000  0.29941000  0.20673000  1.0
  O  O157  1  0.69358000  0.69961000  0.79741000  1.0
  O  O158  1  0.15299000  0.47352000  0.21753000  1.0
  O  O159  1  0.84510000  0.52713000  0.78117000  1.0
  O  O160  1  0.94206000  0.23945000  0.13788000  1.0
  O  O161  1  0.05730000  0.75742000  0.85618000  1.0
  O  O162  1  0.84767000  0.06172000  0.03285000  1.0
  O  O163  1  0.14913000  0.93174000  0.96870000  1.0
  O  O164  1  0.12361000  0.10345000  0.15058000  1.0
  O  O165  1  0.87637000  0.89561000  0.85045000  1.0
  O  O166  1  0.14233000  0.94079000  0.19841000  1.0
  O  O167  1  0.85829000  0.05852000  0.80295000  1.0
