# generated using pymatgen
data_CuH12C14(NO)4
_symmetry_space_group_name_H-M   'P 1'
_cell_length_a   4.77811000
_cell_length_b   7.68287000
_cell_length_c   10.27600000
_cell_angle_alpha   74.29760000
_cell_angle_beta   77.45260000
_cell_angle_gamma   84.44110000
_symmetry_Int_Tables_number   1
_chemical_formula_structural   CuH12C14(NO)4
_chemical_formula_sum   'Cu1 H12 C14 N4 O4'
_cell_volume   354.18552034
_cell_formula_units_Z   1
loop_
 _symmetry_equiv_pos_site_id
 _symmetry_equiv_pos_as_xyz
  1  'x, y, z'
loop_
 _atom_site_type_symbol
 _atom_site_label
 _atom_site_symmetry_multiplicity
 _atom_site_fract_x
 _atom_site_fract_y
 _atom_site_fract_z
 _atom_site_occupancy
  Cu  Cu0  1  0.00000000  0.00000000  0.00000000  1.0
  H  H1  1  0.54879000  0.74591000  0.03920000  1.0
  H  H2  1  0.45121000  0.25409000  0.96080000  1.0
  H  H3  1  0.89003000  0.62463000  0.85921000  1.0
  H  H4  1  0.10997000  0.37538000  0.14079000  1.0
  H  H5  1  0.71002000  0.77692000  0.61309000  1.0
  H  H6  1  0.28998000  0.22309000  0.38690000  1.0
  H  H7  1  0.22414000  0.98275000  0.68905000  1.0
  H  H8  1  0.77586000  0.01725000  0.31094000  1.0
  H  H9  1  0.32021000  0.59897000  0.62463000  1.0
  H  H10  1  0.67980000  0.40102000  0.37537000  1.0
  H  H11  1  0.71779000  0.22495000  0.61725000  1.0
  H  H12  1  0.28221000  0.77504000  0.38275000  1.0
  C  C13  1  0.70885000  0.71613000  0.83678000  1.0
  C  C14  1  0.29114000  0.28387000  0.16322000  1.0
  C  C15  1  0.61423000  0.79540000  0.71431000  1.0
  C  C16  1  0.38577000  0.20460000  0.28569000  1.0
  C  C17  1  0.36941000  0.90116000  0.75118000  1.0
  C  C18  1  0.63059000  0.09884000  0.24882000  1.0
  C  C19  1  0.05409000  0.29987000  0.77687000  1.0
  C  C20  1  0.94591000  0.70013000  0.22313000  1.0
  C  C21  1  0.02231000  0.40277000  0.63399000  1.0
  C  C22  1  0.97769000  0.59722000  0.36601000  1.0
  C  C23  1  0.18043000  0.55788000  0.56857000  1.0
  C  C24  1  0.81958000  0.44211000  0.43144000  1.0
  C  C25  1  0.84119000  0.34497000  0.56467000  1.0
  C  C26  1  0.15881000  0.65503000  0.43533000  1.0
  N  N27  1  0.31818000  0.88798000  0.88762000  1.0
  N  N28  1  0.68182000  0.11202000  0.11238000  1.0
  N  N29  1  0.52632000  0.77422000  0.93765000  1.0
  N  N30  1  0.47369000  0.22578000  0.06234000  1.0
  O  O31  1  0.90084000  0.15777000  0.82986000  1.0
  O  O32  1  0.09916000  0.84222000  0.17015000  1.0
  O  O33  1  0.22260000  0.35248000  0.83530000  1.0
  O  O34  1  0.77741000  0.64751000  0.16471000  1.0
