# generated using pymatgen
data_CuH8C12(NO2)2
_symmetry_space_group_name_H-M   'P 1'
_cell_length_a   5.26943000
_cell_length_b   7.80961948
_cell_length_c   8.02242374
_cell_angle_alpha   62.41817380
_cell_angle_beta   70.94780217
_cell_angle_gamma   71.16892905
_symmetry_Int_Tables_number   1
_chemical_formula_structural   CuH8C12(NO2)2
_chemical_formula_sum   'Cu1 H8 C12 N2 O4'
_cell_volume   270.72455375
_cell_formula_units_Z   1
loop_
 _symmetry_equiv_pos_site_id
 _symmetry_equiv_pos_as_xyz
  1  'x, y, z'
loop_
 _atom_site_type_symbol
 _atom_site_label
 _atom_site_symmetry_multiplicity
 _atom_site_fract_x
 _atom_site_fract_y
 _atom_site_fract_z
 _atom_site_occupancy
  Cu  Cu0  1  0.49999000  0.50000000  0.50000000  1.0
  H  H1  1  0.81744000  0.93711000  0.64292000  1.0
  H  H2  1  0.18258000  0.06288000  0.35706000  1.0
  H  H3  1  0.45164000  0.92901000  0.93907000  1.0
  H  H4  1  0.54839000  0.07099000  0.06092000  1.0
  H  H5  1  0.09842000  0.72777000  0.05197000  1.0
  H  H6  1  0.90159000  0.27224000  0.94803000  1.0
  H  H7  1  0.12477000  0.53790000  0.85921000  1.0
  H  H8  1  0.87522000  0.46211000  0.14080000  1.0
  C  C9  1  0.86398000  0.73299000  0.41939000  1.0
  C  C10  1  0.13602000  0.26700000  0.58061000  1.0
  C  C11  1  0.66173000  0.73873000  0.60116000  1.0
  C  C12  1  0.33827000  0.26126000  0.39884000  1.0
  C  C13  1  0.66345000  0.84774000  0.69737000  1.0
  C  C14  1  0.33656000  0.15226000  0.30262000  1.0
  C  C15  1  0.45881000  0.84413000  0.86108000  1.0
  C  C16  1  0.54119000  0.15588000  0.13892000  1.0
  C  C17  1  0.25937000  0.73332000  0.92393000  1.0
  C  C18  1  0.74064000  0.26668000  0.07607000  1.0
  C  C19  1  0.27193000  0.62769000  0.82054000  1.0
  C  C20  1  0.72807000  0.37232000  0.17946000  1.0
  N  N21  1  0.46851000  0.63136000  0.66348000  1.0
  N  N22  1  0.53148000  0.36864000  0.33652000  1.0
  O  O23  1  0.80818000  0.63930000  0.34135000  1.0
  O  O24  1  0.19181000  0.36069000  0.65865000  1.0
  O  O25  1  0.06490000  0.81329000  0.35351000  1.0
  O  O26  1  0.93510000  0.18669000  0.64649000  1.0
