# generated using pymatgen
data_AgH8C12N3O5
_symmetry_space_group_name_H-M   'P 1'
_cell_length_a   4.88646000
_cell_length_b   10.35460000
_cell_length_c   11.68210000
_cell_angle_alpha   94.55280000
_cell_angle_beta   99.71190000
_cell_angle_gamma   93.18940000
_symmetry_Int_Tables_number   1
_chemical_formula_structural   AgH8C12N3O5
_chemical_formula_sum   'Ag2 H16 C24 N6 O10'
_cell_volume   579.33870620
_cell_formula_units_Z   2
loop_
 _symmetry_equiv_pos_site_id
 _symmetry_equiv_pos_as_xyz
  1  'x, y, z'
loop_
 _atom_site_type_symbol
 _atom_site_label
 _atom_site_symmetry_multiplicity
 _atom_site_fract_x
 _atom_site_fract_y
 _atom_site_fract_z
 _atom_site_occupancy
  Ag  Ag0  1  0.10397000  0.66993000  0.93493000  1.0
  Ag  Ag1  1  0.89602000  0.33008000  0.06508000  1.0
  H  H2  1  0.47480000  0.57905000  0.80185000  1.0
  H  H3  1  0.52520000  0.42094000  0.19815000  1.0
  H  H4  1  0.93959000  0.47157000  0.59828000  1.0
  H  H5  1  0.06039000  0.52842000  0.40171000  1.0
  H  H6  1  0.83208000  0.44484000  0.73056000  1.0
  H  H7  1  0.16792000  0.55515000  0.26944000  1.0
  H  H8  1  0.56371000  0.85333000  0.47154000  1.0
  H  H9  1  0.43627000  0.14666000  0.52845000  1.0
  H  H10  1  0.84181000  0.87959000  0.92854000  1.0
  H  H11  1  0.15819000  0.12042000  0.07146000  1.0
  H  H12  1  0.60618000  0.08670000  0.90543000  1.0
  H  H13  1  0.39384000  0.91331000  0.09456000  1.0
  H  H14  1  0.68257000  0.22171000  0.74753000  1.0
  H  H15  1  0.31746000  0.77829000  0.25246000  1.0
  H  H16  1  0.00421000  0.15452000  0.61080000  1.0
  H  H17  1  0.99581000  0.84549000  0.38920000  1.0
  C  C18  1  0.38737000  0.82872000  0.62394000  1.0
  C  C19  1  0.61263000  0.17127000  0.37606000  1.0
  C  C20  1  0.35412000  0.75027000  0.72043000  1.0
  C  C21  1  0.64588000  0.24973000  0.27957000  1.0
  C  C22  1  0.49997000  0.63790000  0.73060000  1.0
  C  C23  1  0.50003000  0.36210000  0.26940000  1.0
  C  C24  1  0.66754000  0.59906000  0.65089000  1.0
  C  C25  1  0.33245000  0.40094000  0.34911000  1.0
  C  C26  1  0.69532000  0.67831000  0.55063000  1.0
  C  C27  1  0.30466000  0.32168000  0.44937000  1.0
  C  C28  1  0.54595000  0.79341000  0.54268000  1.0
  C  C29  1  0.45404000  0.20658000  0.45732000  1.0
  C  C30  1  0.09201000  0.97850000  0.69295000  1.0
  C  C31  1  0.90801000  0.02151000  0.30705000  1.0
  C  C32  1  0.05431000  0.89959000  0.78308000  1.0
  C  C33  1  0.94570000  0.10042000  0.21693000  1.0
  C  C34  1  0.87536000  0.94066000  0.85949000  1.0
  C  C35  1  0.12464000  0.05935000  0.14052000  1.0
  C  C36  1  0.74437000  0.05521000  0.84619000  1.0
  C  C37  1  0.25565000  0.94479000  0.15381000  1.0
  C  C38  1  0.78858000  0.13236000  0.75637000  1.0
  C  C39  1  0.21143000  0.86765000  0.24362000  1.0
  C  C40  1  0.96430000  0.09467000  0.67968000  1.0
  C  C41  1  0.03572000  0.90533000  0.32032000  1.0
  N  N42  1  0.81583000  0.49503000  0.65844000  1.0
  N  N43  1  0.18416000  0.50496000  0.34156000  1.0
  N  N44  1  0.18518000  0.78553000  0.79510000  1.0
  N  N45  1  0.81482000  0.21447000  0.20490000  1.0
  N  N46  1  0.74237000  0.65349000  0.10924000  1.0
  N  N47  1  0.25762000  0.34651000  0.89076000  1.0
  O  O48  1  0.25498000  0.94004000  0.61332000  1.0
  O  O49  1  0.74503000  0.05996000  0.38668000  1.0
  O  O50  1  0.85176000  0.64498000  0.48055000  1.0
  O  O51  1  0.14821000  0.35500000  0.51944000  1.0
  O  O52  1  0.97052000  0.59768000  0.09511000  1.0
  O  O53  1  0.02948000  0.40233000  0.90490000  1.0
  O  O54  1  0.64314000  0.63752000  0.19853000  1.0
  O  O55  1  0.35684000  0.36247000  0.80147000  1.0
  O  O56  1  0.63390000  0.72082000  0.03012000  1.0
  O  O57  1  0.36609000  0.27918000  0.96988000  1.0
