# generated using pymatgen
data_CuH30(C4O)4
_symmetry_space_group_name_H-M   'P 1'
_cell_length_a   5.24648000
_cell_length_b   12.31290000
_cell_length_c   13.83770000
_cell_angle_alpha   73.05640000
_cell_angle_beta   89.44020000
_cell_angle_gamma   82.74470000
_symmetry_Int_Tables_number   1
_chemical_formula_structural   CuH30(C4O)4
_chemical_formula_sum   'Cu2 H60 C32 O8'
_cell_volume   847.91335834
_cell_formula_units_Z   2
loop_
 _symmetry_equiv_pos_site_id
 _symmetry_equiv_pos_as_xyz
  1  'x, y, z'
loop_
 _atom_site_type_symbol
 _atom_site_label
 _atom_site_symmetry_multiplicity
 _atom_site_fract_x
 _atom_site_fract_y
 _atom_site_fract_z
 _atom_site_occupancy
  Cu  Cu0  1  0.68899000  0.55571000  0.47758000  1.0
  Cu  Cu1  1  0.31102000  0.44427000  0.52243000  1.0
  H  H2  1  0.29472000  0.59434000  0.78378000  1.0
  H  H3  1  0.70527000  0.40567000  0.21619000  1.0
  H  H4  1  0.49126000  0.46419000  0.83355000  1.0
  H  H5  1  0.50870000  0.53582000  0.16645000  1.0
  H  H6  1  0.67953000  0.69952000  0.74720000  1.0
  H  H7  1  0.32050000  0.30046000  0.25280000  1.0
  H  H8  1  0.88492000  0.56948000  0.78730000  1.0
  H  H9  1  0.11505000  0.43052000  0.21270000  1.0
  H  H10  1  0.49602000  0.66025000  0.92194000  1.0
  H  H11  1  0.50397000  0.33975000  0.07805000  1.0
  H  H12  1  0.70581000  0.53134000  0.96134000  1.0
  H  H13  1  0.29418000  0.46865000  0.03866000  1.0
  H  H14  1  0.08408000  0.64191000  0.92398000  1.0
  H  H15  1  0.91590000  0.35809000  0.07602000  1.0
  H  H16  1  0.87466000  0.77125000  0.88713000  1.0
  H  H17  1  0.12531000  0.22875000  0.11288000  1.0
  H  H18  1  0.69262000  0.72782000  0.06020000  1.0
  H  H19  1  0.30736000  0.27216000  0.93981000  1.0
  H  H20  1  0.88320000  0.59350000  0.09555000  1.0
  H  H21  1  0.11680000  0.40650000  0.90446000  1.0
  H  H22  1  0.28147000  0.68964000  0.06904000  1.0
  H  H23  1  0.71850000  0.31038000  0.93096000  1.0
  H  H24  1  0.09309000  0.82432000  0.03941000  1.0
  H  H25  1  0.90686000  0.17567000  0.96059000  1.0
  H  H26  1  0.25273000  0.74686000  0.22558000  1.0
  H  H27  1  0.74721000  0.25317000  0.77441000  1.0
  H  H28  1  0.91246000  0.77877000  0.21182000  1.0
  H  H29  1  0.08746000  0.22123000  0.78818000  1.0
  H  H30  1  0.05749000  0.63548000  0.24134000  1.0
  H  H31  1  0.94252000  0.36452000  0.75866000  1.0
  H  H32  1  0.16187000  0.20559000  0.59425000  1.0
  H  H33  1  0.83813000  0.79440000  0.40575000  1.0
  H  H34  1  0.89596000  0.12446000  0.61731000  1.0
  H  H35  1  0.10408000  0.87552000  0.38271000  1.0
  H  H36  1  0.04495000  0.26212000  0.40533000  1.0
  H  H37  1  0.95504000  0.73786000  0.59468000  1.0
  H  H38  1  0.17309000  0.11860000  0.46117000  1.0
  H  H39  1  0.82692000  0.88138000  0.53884000  1.0
  H  H40  1  0.73340000  0.05889000  0.47688000  1.0
  H  H41  1  0.26664000  0.94107000  0.52314000  1.0
  H  H42  1  0.59531000  0.20125000  0.42099000  1.0
  H  H43  1  0.40470000  0.79872000  0.57904000  1.0
  H  H44  1  0.98909000  0.07169000  0.31518000  1.0
  H  H45  1  0.01090000  0.92832000  0.68481000  1.0
  H  H46  1  0.80998000  0.20605000  0.26030000  1.0
  H  H47  1  0.18997000  0.79397000  0.73971000  1.0
  H  H48  1  0.58998000  0.97773000  0.34172000  1.0
  H  H49  1  0.41004000  0.02226000  0.65826000  1.0
  H  H50  1  0.40065000  0.11109000  0.29345000  1.0
  H  H51  1  0.59934000  0.88890000  0.70656000  1.0
  H  H52  1  0.60305000  0.13731000  0.12534000  1.0
  H  H53  1  0.39692000  0.86273000  0.87466000  1.0
  H  H54  1  0.80449000  0.00683000  0.17280000  1.0
  H  H55  1  0.19553000  0.99323000  0.82718000  1.0
  H  H56  1  0.42288000  0.97984000  0.07703000  1.0
  H  H57  1  0.57718000  0.02022000  0.92292000  1.0
  H  H58  1  0.42065000  0.89963000  0.20632000  1.0
  H  H59  1  0.57946000  0.10038000  0.79364000  1.0
  H  H60  1  0.21276000  0.02957000  0.16051000  1.0
  H  H61  1  0.78728000  0.97043000  0.83947000  1.0
  C  C62  1  0.49360000  0.52973000  0.67456000  1.0
  C  C63  1  0.50638000  0.47026000  0.32545000  1.0
  C  C64  1  0.48625000  0.54888000  0.77771000  1.0
  C  C65  1  0.51377000  0.45114000  0.22229000  1.0
  C  C66  1  0.69714000  0.61284000  0.80059000  1.0
  C  C67  1  0.30286000  0.38716000  0.19943000  1.0
  C  C68  1  0.68721000  0.61903000  0.90904000  1.0
  C  C69  1  0.31279000  0.38096000  0.09097000  1.0
  C  C70  1  0.89267000  0.68266000  0.93728000  1.0
  C  C71  1  0.10730000  0.31734000  0.06273000  1.0
  C  C72  1  0.87951000  0.68257000  0.04750000  1.0
  C  C73  1  0.12049000  0.31742000  0.95251000  1.0
  C  C74  1  0.09599000  0.73394000  0.08421000  1.0
  C  C75  1  0.90397000  0.26607000  0.91581000  1.0
  C  C76  1  0.08011000  0.72338000  0.19676000  1.0
  C  C77  1  0.91986000  0.27662000  0.80325000  1.0
  C  C78  1  0.79553000  0.30598000  0.55770000  1.0
  C  C79  1  0.20445000  0.69401000  0.44230000  1.0
  C  C80  1  0.97361000  0.19755000  0.56508000  1.0
  C  C81  1  0.02639000  0.80244000  0.43492000  1.0
  C  C82  1  0.00220000  0.18128000  0.45881000  1.0
  C  C83  1  0.99780000  0.81871000  0.54121000  1.0
  C  C84  1  0.76870000  0.14029000  0.42188000  1.0
  C  C85  1  0.23133000  0.85967000  0.57813000  1.0
  C  C86  1  0.80164000  0.12268000  0.31734000  1.0
  C  C87  1  0.19835000  0.87733000  0.68266000  1.0
  C  C88  1  0.58969000  0.06343000  0.28714000  1.0
  C  C89  1  0.41033000  0.93658000  0.71285000  1.0
  C  C90  1  0.61295000  0.05154000  0.18032000  1.0
  C  C91  1  0.38706000  0.94849000  0.81966000  1.0
  C  C92  1  0.40677000  0.98684000  0.15428000  1.0
  C  C93  1  0.59330000  0.01319000  0.84568000  1.0
  O  O94  1  0.32678000  0.47099000  0.65580000  1.0
  O  O95  1  0.67329000  0.52902000  0.34422000  1.0
  O  O96  1  0.66355000  0.57378000  0.61446000  1.0
  O  O97  1  0.33651000  0.42622000  0.38552000  1.0
  O  O98  1  0.55611000  0.30009000  0.56969000  1.0
  O  O99  1  0.44381000  0.69989000  0.43032000  1.0
  O  O100  1  0.89688000  0.39955000  0.53319000  1.0
  O  O101  1  0.10315000  0.60042000  0.46682000  1.0
