# generated using pymatgen
data_Zn7H26C18(N4O)8
_symmetry_space_group_name_H-M   'P 1'
_cell_length_a   16.55830000
_cell_length_b   17.42660000
_cell_length_c   17.42660000
_cell_angle_alpha   81.50040000
_cell_angle_beta   84.32970000
_cell_angle_gamma   84.32970000
_symmetry_Int_Tables_number   1
_chemical_formula_structural   Zn7H26C18(N4O)8
_chemical_formula_sum   'Zn28 H104 C72 N128 O32'
_cell_volume   4930.82140037
_cell_formula_units_Z   4
loop_
 _symmetry_equiv_pos_site_id
 _symmetry_equiv_pos_as_xyz
  1  'x, y, z'
loop_
 _atom_site_type_symbol
 _atom_site_label
 _atom_site_symmetry_multiplicity
 _atom_site_fract_x
 _atom_site_fract_y
 _atom_site_fract_z
 _atom_site_occupancy
  Zn  Zn0  1  0.95622000  0.51793000  0.24657000  1.0
  Zn  Zn1  1  0.13776000  0.06758000  0.28802000  1.0
  Zn  Zn2  1  0.22684000  0.24735000  0.25677000  1.0
  Zn  Zn3  1  0.32043000  0.42716000  0.22710000  1.0
  Zn  Zn4  1  0.95901000  0.78780000  0.41592000  1.0
  Zn  Zn5  1  0.99244000  0.75962000  0.01479000  1.0
  Zn  Zn6  1  0.98018000  0.95519000  0.27482000  1.0
  Zn  Zn7  1  0.54378000  0.75343000  0.48207000  1.0
  Zn  Zn8  1  0.36224000  0.71198000  0.93242000  1.0
  Zn  Zn9  1  0.27316000  0.74323000  0.75265000  1.0
  Zn  Zn10  1  0.17957000  0.77290000  0.57284000  1.0
  Zn  Zn11  1  0.54099000  0.58408000  0.21220000  1.0
  Zn  Zn12  1  0.50756000  0.98521000  0.24038000  1.0
  Zn  Zn13  1  0.51982000  0.72518000  0.04481000  1.0
  Zn  Zn14  1  0.04377000  0.48207000  0.75343000  1.0
  Zn  Zn15  1  0.86224000  0.93242000  0.71198000  1.0
  Zn  Zn16  1  0.77316000  0.75265000  0.74323000  1.0
  Zn  Zn17  1  0.67957000  0.57284000  0.77290000  1.0
  Zn  Zn18  1  0.04098000  0.21220000  0.58408000  1.0
  Zn  Zn19  1  0.00756000  0.24038000  0.98521000  1.0
  Zn  Zn20  1  0.01982000  0.04481000  0.72518000  1.0
  Zn  Zn21  1  0.45622000  0.24657000  0.51793000  1.0
  Zn  Zn22  1  0.63776000  0.28802000  0.06758000  1.0
  Zn  Zn23  1  0.72684000  0.25677000  0.24735000  1.0
  Zn  Zn24  1  0.82043000  0.22710000  0.42716000  1.0
  Zn  Zn25  1  0.45901000  0.41592000  0.78780000  1.0
  Zn  Zn26  1  0.49244000  0.01479000  0.75963000  1.0
  Zn  Zn27  1  0.48018000  0.27482000  0.95519000  1.0
  H  H28  1  0.11312000  0.93106000  0.33969000  1.0
  H  H29  1  0.85803000  0.89531000  0.35085000  1.0
  H  H30  1  0.18197000  0.34636000  0.10318000  1.0
  H  H31  1  0.12636000  0.33952000  0.02236000  1.0
  H  H32  1  0.03001000  0.09402000  0.12695000  1.0
  H  H33  1  0.21141000  0.58095000  0.18493000  1.0
  H  H34  1  0.10533000  0.60245000  0.18500000  1.0
  H  H35  1  0.03909000  0.34220000  0.26312000  1.0
  H  H36  1  0.27146000  0.16270000  0.11653000  1.0
  H  H37  1  0.33140000  0.16614000  0.03104000  1.0
  H  H38  1  0.45497000  0.39286000  0.07340000  1.0
  H  H39  1  0.91816000  0.35485000  0.46184000  1.0
  H  H40  1  0.93639000  0.44751000  0.41838000  1.0
  H  H41  1  0.82136000  0.42180000  0.18237000  1.0
  H  H42  1  0.07421000  0.01459000  0.46112000  1.0
  H  H43  1  0.06213000  0.05921000  0.54388000  1.0
  H  H44  1  0.12519000  0.30869000  0.42005000  1.0
  H  H45  1  0.25783000  0.90435000  0.29995000  1.0
  H  H46  1  0.35795000  0.88824000  0.26366000  1.0
  H  H47  1  0.41768000  0.15345000  0.25740000  1.0
  H  H48  1  0.05307000  0.79566000  0.25589000  1.0
  H  H49  1  0.02588000  0.73241000  0.19431000  1.0
  H  H50  1  0.94448000  0.02332000  0.09268000  1.0
  H  H51  1  0.73554000  0.66339000  0.44100000  1.0
  H  H52  1  0.78717000  0.74123000  0.45181000  1.0
  H  H53  1  0.03982000  0.64907000  0.32528000  1.0
  H  H54  1  0.38688000  0.66031000  0.06894000  1.0
  H  H55  1  0.64197000  0.64915000  0.10469000  1.0
  H  H56  1  0.31803000  0.89682000  0.65364000  1.0
  H  H57  1  0.37364000  0.97764000  0.66048000  1.0
  H  H58  1  0.46999000  0.87304000  0.90598000  1.0
  H  H59  1  0.28859000  0.81507000  0.41905000  1.0
  H  H60  1  0.39467000  0.81500000  0.39755000  1.0
  H  H61  1  0.46091000  0.73688000  0.65781000  1.0
  H  H62  1  0.22854000  0.88347000  0.83730000  1.0
  H  H63  1  0.16860000  0.96896000  0.83386000  1.0
  H  H64  1  0.04503000  0.92660000  0.60714000  1.0
  H  H65  1  0.58184000  0.53816000  0.64515000  1.0
  H  H66  1  0.56362000  0.58162000  0.55249000  1.0
  H  H67  1  0.67864000  0.81763000  0.57820000  1.0
  H  H68  1  0.42578000  0.53887000  0.98541000  1.0
  H  H69  1  0.43786000  0.45612000  0.94080000  1.0
  H  H70  1  0.37481000  0.57995000  0.69131000  1.0
  H  H71  1  0.24217000  0.70005000  0.09565000  1.0
  H  H72  1  0.14205000  0.73634000  0.11176000  1.0
  H  H73  1  0.08232000  0.74260000  0.84655000  1.0
  H  H74  1  0.44692000  0.74411000  0.20434000  1.0
  H  H75  1  0.47412000  0.80569000  0.26759000  1.0
  H  H76  1  0.55552000  0.90732000  0.97668000  1.0
  H  H77  1  0.76446000  0.55899000  0.33661000  1.0
  H  H78  1  0.71283000  0.54819000  0.25877000  1.0
  H  H79  1  0.46018000  0.67472000  0.35093000  1.0
  H  H80  1  0.88688000  0.06894000  0.66031000  1.0
  H  H81  1  0.14197000  0.10469000  0.64915000  1.0
  H  H82  1  0.81803000  0.65364000  0.89682000  1.0
  H  H83  1  0.87364000  0.66048000  0.97764000  1.0
  H  H84  1  0.96999000  0.90598000  0.87305000  1.0
  H  H85  1  0.78859000  0.41905000  0.81507000  1.0
  H  H86  1  0.89467000  0.39755000  0.81500000  1.0
  H  H87  1  0.96091000  0.65781000  0.73688000  1.0
  H  H88  1  0.72854000  0.83730000  0.88347000  1.0
  H  H89  1  0.66860000  0.83386000  0.96896000  1.0
  H  H90  1  0.54503000  0.60714000  0.92660000  1.0
  H  H91  1  0.08184000  0.64515000  0.53816000  1.0
  H  H92  1  0.06361000  0.55249000  0.58162000  1.0
  H  H93  1  0.17864000  0.57820000  0.81763000  1.0
  H  H94  1  0.92578000  0.98541000  0.53888000  1.0
  H  H95  1  0.93786000  0.94080000  0.45612000  1.0
  H  H96  1  0.87481000  0.69131000  0.57995000  1.0
  H  H97  1  0.74217000  0.09565000  0.70005000  1.0
  H  H98  1  0.64205000  0.11176000  0.73634000  1.0
  H  H99  1  0.58232000  0.84655000  0.74260000  1.0
  H  H100  1  0.94692000  0.20434000  0.74411000  1.0
  H  H101  1  0.97412000  0.26759000  0.80569000  1.0
  H  H102  1  0.05552000  0.97668000  0.90732000  1.0
  H  H103  1  0.26446000  0.33661000  0.55899000  1.0
  H  H104  1  0.21283000  0.25877000  0.54819000  1.0
  H  H105  1  0.96018000  0.35093000  0.67472000  1.0
  H  H106  1  0.61312000  0.33969000  0.93106000  1.0
  H  H107  1  0.35803000  0.35085000  0.89531000  1.0
  H  H108  1  0.68197000  0.10318000  0.34636000  1.0
  H  H109  1  0.62636000  0.02236000  0.33952000  1.0
  H  H110  1  0.53000000  0.12696000  0.09402000  1.0
  H  H111  1  0.71141000  0.18493000  0.58095000  1.0
  H  H112  1  0.60533000  0.18500000  0.60245000  1.0
  H  H113  1  0.53909000  0.26312000  0.34219000  1.0
  H  H114  1  0.77146000  0.11653000  0.16270000  1.0
  H  H115  1  0.83140000  0.03104000  0.16614000  1.0
  H  H116  1  0.95497000  0.07340000  0.39286000  1.0
  H  H117  1  0.41816000  0.46183000  0.35485000  1.0
  H  H118  1  0.43639000  0.41838000  0.44751000  1.0
  H  H119  1  0.32136000  0.18237000  0.42180000  1.0
  H  H120  1  0.57422000  0.46113000  0.01459000  1.0
  H  H121  1  0.56214000  0.54388000  0.05920000  1.0
  H  H122  1  0.62519000  0.42005000  0.30869000  1.0
  H  H123  1  0.75783000  0.29995000  0.90435000  1.0
  H  H124  1  0.85795000  0.26366000  0.88824000  1.0
  H  H125  1  0.91768000  0.25740000  0.15345000  1.0
  H  H126  1  0.55308000  0.25589000  0.79566000  1.0
  H  H127  1  0.52588000  0.19431000  0.73241000  1.0
  H  H128  1  0.44448000  0.09268000  0.02332000  1.0
  H  H129  1  0.23554000  0.44100000  0.66339000  1.0
  H  H130  1  0.28717000  0.45181000  0.74123000  1.0
  H  H131  1  0.53982000  0.32528000  0.64907000  1.0
  C  C132  1  0.95393000  0.62722000  0.11998000  1.0
  C  C133  1  0.37441000  0.58297000  0.19111000  1.0
  C  C134  1  0.12668000  0.24653000  0.10874000  1.0
  C  C135  1  0.06665000  0.14071000  0.13271000  1.0
  C  C136  1  0.14183000  0.49137000  0.22132000  1.0
  C  C137  1  0.08467000  0.38389000  0.24909000  1.0
  C  C138  1  0.34921000  0.24593000  0.10004000  1.0
  C  C139  1  0.41316000  0.34817000  0.09205000  1.0
  C  C140  1  0.88394000  0.38371000  0.35246000  1.0
  C  C141  1  0.83466000  0.39869000  0.24151000  1.0
  C  C142  1  0.08566000  0.13057000  0.44469000  1.0
  C  C143  1  0.11556000  0.24890000  0.41554000  1.0
  C  C144  1  0.31950000  0.00233000  0.27068000  1.0
  C  C145  1  0.37322000  0.11067000  0.26400000  1.0
  C  C146  1  0.00657000  0.84716000  0.15403000  1.0
  C  C147  1  0.96122000  0.96109000  0.10223000  1.0
  C  C148  1  0.85635000  0.65551000  0.40374000  1.0
  C  C149  1  0.97708000  0.64080000  0.34690000  1.0
  C  C150  1  0.54607000  0.88002000  0.37279000  1.0
  C  C151  1  0.12559000  0.80888000  0.41703000  1.0
  C  C152  1  0.37332000  0.89126000  0.75347000  1.0
  C  C153  1  0.43335000  0.86729000  0.85929000  1.0
  C  C154  1  0.35817000  0.77868000  0.50863000  1.0
  C  C155  1  0.41533000  0.75091000  0.61611000  1.0
  C  C156  1  0.15079000  0.89996000  0.75407000  1.0
  C  C157  1  0.08684000  0.90794000  0.65183000  1.0
  C  C158  1  0.61606000  0.64754000  0.61629000  1.0
  C  C159  1  0.66534000  0.75848000  0.60131000  1.0
  C  C160  1  0.41434000  0.55531000  0.86943000  1.0
  C  C161  1  0.38444000  0.58446000  0.75110000  1.0
  C  C162  1  0.18050000  0.72932000  0.99767000  1.0
  C  C163  1  0.12678000  0.73600000  0.88933000  1.0
  C  C164  1  0.49343000  0.84597000  0.15284000  1.0
  C  C165  1  0.53878000  0.89777000  0.03891000  1.0
  C  C166  1  0.64365000  0.59626000  0.34449000  1.0
  C  C167  1  0.52292000  0.65310000  0.35919000  1.0
  C  C168  1  0.04607000  0.37279000  0.88001000  1.0
  C  C169  1  0.62559000  0.41703000  0.80889000  1.0
  C  C170  1  0.87332000  0.75347000  0.89126000  1.0
  C  C171  1  0.93335000  0.85929000  0.86729000  1.0
  C  C172  1  0.85817000  0.50863000  0.77868000  1.0
  C  C173  1  0.91533000  0.61611000  0.75091000  1.0
  C  C174  1  0.65079000  0.75407000  0.89996000  1.0
  C  C175  1  0.58684000  0.65183000  0.90794000  1.0
  C  C176  1  0.11606000  0.61629000  0.64754000  1.0
  C  C177  1  0.16534000  0.60131000  0.75848000  1.0
  C  C178  1  0.91434000  0.86943000  0.55531000  1.0
  C  C179  1  0.88444000  0.75110000  0.58446000  1.0
  C  C180  1  0.68050000  0.99767000  0.72932000  1.0
  C  C181  1  0.62678000  0.88933000  0.73600000  1.0
  C  C182  1  0.99343000  0.15284000  0.84597000  1.0
  C  C183  1  0.03878000  0.03890000  0.89777000  1.0
  C  C184  1  0.14365000  0.34449000  0.59626000  1.0
  C  C185  1  0.02292000  0.35920000  0.65310000  1.0
  C  C186  1  0.45393000  0.11998000  0.62722000  1.0
  C  C187  1  0.87441000  0.19112000  0.58297000  1.0
  C  C188  1  0.62668000  0.10874000  0.24653000  1.0
  C  C189  1  0.56665000  0.13271000  0.14071000  1.0
  C  C190  1  0.64183000  0.22132000  0.49137000  1.0
  C  C191  1  0.58467000  0.24909000  0.38389000  1.0
  C  C192  1  0.84921000  0.10005000  0.24593000  1.0
  C  C193  1  0.91316000  0.09206000  0.34817000  1.0
  C  C194  1  0.38394000  0.35246000  0.38372000  1.0
  C  C195  1  0.33466000  0.24151000  0.39869000  1.0
  C  C196  1  0.58566000  0.44469000  0.13056000  1.0
  C  C197  1  0.61556000  0.41554000  0.24890000  1.0
  C  C198  1  0.81950000  0.27068000  0.00233000  1.0
  C  C199  1  0.87322000  0.26400000  0.11067000  1.0
  C  C200  1  0.50657000  0.15403000  0.84716000  1.0
  C  C201  1  0.46122000  0.10223000  0.96109000  1.0
  C  C202  1  0.35634000  0.40374000  0.65551000  1.0
  C  C203  1  0.47708000  0.34690000  0.64081000  1.0
  N  N204  1  0.07236000  0.20580000  0.07997000  1.0
  N  N205  1  0.15278000  0.20788000  0.17593000  1.0
  N  N206  1  0.11253000  0.13995000  0.19087000  1.0
  N  N207  1  0.15233000  0.31471000  0.07254000  1.0
  N  N208  1  0.06728000  0.46242000  0.23686000  1.0
  N  N209  1  0.20108000  0.43266000  0.22387000  1.0
  N  N210  1  0.16369000  0.36354000  0.24235000  1.0
  N  N211  1  0.15390000  0.56786000  0.20788000  1.0
  N  N212  1  0.41081000  0.28364000  0.05725000  1.0
  N  N213  1  0.31659000  0.28410000  0.15860000  1.0
  N  N214  1  0.35836000  0.35018000  0.15233000  1.0
  N  N215  1  0.32577000  0.17610000  0.08733000  1.0
  N  N216  1  0.88414000  0.43120000  0.28312000  1.0
  N  N217  1  0.83700000  0.32538000  0.35295000  1.0
  N  N218  1  0.80583000  0.33502000  0.28108000  1.0
  N  N219  1  0.92976000  0.39159000  0.41156000  1.0
  N  N220  1  0.08307000  0.19841000  0.47520000  1.0
  N  N221  1  0.11643000  0.13937000  0.37044000  1.0
  N  N222  1  0.13633000  0.21564000  0.35221000  1.0
  N  N223  1  0.05681000  0.06405000  0.48521000  1.0
  N  N224  1  0.39307000  0.03329000  0.26156000  1.0
  N  N225  1  0.25874000  0.05863000  0.27831000  1.0
  N  N226  1  0.29387000  0.12839000  0.27437000  1.0
  N  N227  1  0.30806000  0.92662000  0.26939000  1.0
  N  N228  1  0.98958000  0.92153000  0.17035000  1.0
  N  N229  1  0.98763000  0.84260000  0.08149000  1.0
  N  N230  1  0.95859000  0.91623000  0.04839000  1.0
  N  N231  1  0.04146000  0.78661000  0.20162000  1.0
  N  N232  1  0.92936000  0.68854000  0.39073000  1.0
  N  N233  1  0.85891000  0.59103000  0.37017000  1.0
  N  N234  1  0.93714000  0.58253000  0.33365000  1.0
  N  N235  1  0.79084000  0.68327000  0.44881000  1.0
  N  N236  1  0.42764000  0.92003000  0.79420000  1.0
  N  N237  1  0.34723000  0.82407000  0.79212000  1.0
  N  N238  1  0.38747000  0.80913000  0.86005000  1.0
  N  N239  1  0.34768000  0.92746000  0.68529000  1.0
  N  N240  1  0.43272000  0.76314000  0.53758000  1.0
  N  N241  1  0.29892000  0.77613000  0.56734000  1.0
  N  N242  1  0.33631000  0.75765000  0.63646000  1.0
  N  N243  1  0.34610000  0.79212000  0.43214000  1.0
  N  N244  1  0.08919000  0.94275000  0.71636000  1.0
  N  N245  1  0.18341000  0.84140000  0.71590000  1.0
  N  N246  1  0.14164000  0.84767000  0.64982000  1.0
  N  N247  1  0.17423000  0.91267000  0.82390000  1.0
  N  N248  1  0.61586000  0.71687000  0.56880000  1.0
  N  N249  1  0.66301000  0.64705000  0.67462000  1.0
  N  N250  1  0.69417000  0.71892000  0.66498000  1.0
  N  N251  1  0.57024000  0.58843000  0.60841000  1.0
  N  N252  1  0.41694000  0.52480000  0.80159000  1.0
  N  N253  1  0.38357000  0.62956000  0.86063000  1.0
  N  N254  1  0.36367000  0.64779000  0.78436000  1.0
  N  N255  1  0.44319000  0.51478000  0.93595000  1.0
  N  N256  1  0.10693000  0.73844000  0.96671000  1.0
  N  N257  1  0.24126000  0.72169000  0.94137000  1.0
  N  N258  1  0.20613000  0.72563000  0.87161000  1.0
  N  N259  1  0.19194000  0.73061000  0.07338000  1.0
  N  N260  1  0.51042000  0.82965000  0.07847000  1.0
  N  N261  1  0.51237000  0.91851000  0.15740000  1.0
  N  N262  1  0.54141000  0.95161000  0.08377000  1.0
  N  N263  1  0.45854000  0.79838000  0.21339000  1.0
  N  N264  1  0.57064000  0.60927000  0.31146000  1.0
  N  N265  1  0.64109000  0.62984000  0.40897000  1.0
  N  N266  1  0.56286000  0.66635000  0.41747000  1.0
  N  N267  1  0.70916000  0.55119000  0.31673000  1.0
  N  N268  1  0.92764000  0.79420000  0.92003000  1.0
  N  N269  1  0.84722000  0.79212000  0.82407000  1.0
  N  N270  1  0.88747000  0.86005000  0.80913000  1.0
  N  N271  1  0.84768000  0.68529000  0.92746000  1.0
  N  N272  1  0.93272000  0.53758000  0.76314000  1.0
  N  N273  1  0.79892000  0.56734000  0.77613000  1.0
  N  N274  1  0.83631000  0.63646000  0.75765000  1.0
  N  N275  1  0.84610000  0.43214000  0.79212000  1.0
  N  N276  1  0.58919000  0.71637000  0.94275000  1.0
  N  N277  1  0.68341000  0.71590000  0.84140000  1.0
  N  N278  1  0.64164000  0.64983000  0.84767000  1.0
  N  N279  1  0.67423000  0.82390000  0.91268000  1.0
  N  N280  1  0.11586000  0.56880000  0.71688000  1.0
  N  N281  1  0.16301000  0.67462000  0.64705000  1.0
  N  N282  1  0.19417000  0.66498000  0.71892000  1.0
  N  N283  1  0.07023000  0.60841000  0.58843000  1.0
  N  N284  1  0.91693000  0.80159000  0.52480000  1.0
  N  N285  1  0.88357000  0.86063000  0.62956000  1.0
  N  N286  1  0.86367000  0.78436000  0.64779000  1.0
  N  N287  1  0.94319000  0.93595000  0.51479000  1.0
  N  N288  1  0.60693000  0.96671000  0.73844000  1.0
  N  N289  1  0.74126000  0.94137000  0.72169000  1.0
  N  N290  1  0.70613000  0.87161000  0.72563000  1.0
  N  N291  1  0.69194000  0.07338000  0.73061000  1.0
  N  N292  1  0.01042000  0.07847000  0.82965000  1.0
  N  N293  1  0.01237000  0.15740000  0.91851000  1.0
  N  N294  1  0.04141000  0.08376000  0.95161000  1.0
  N  N295  1  0.95854000  0.21339000  0.79838000  1.0
  N  N296  1  0.07064000  0.31146000  0.60926000  1.0
  N  N297  1  0.14109000  0.40897000  0.62983000  1.0
  N  N298  1  0.06286000  0.41747000  0.66635000  1.0
  N  N299  1  0.20916000  0.31674000  0.55118000  1.0
  N  N300  1  0.57236000  0.07997000  0.20580000  1.0
  N  N301  1  0.65277000  0.17593000  0.20788000  1.0
  N  N302  1  0.61253000  0.19087000  0.13995000  1.0
  N  N303  1  0.65233000  0.07254000  0.31471000  1.0
  N  N304  1  0.56728000  0.23686000  0.46242000  1.0
  N  N305  1  0.70108000  0.22387000  0.43266000  1.0
  N  N306  1  0.66369000  0.24235000  0.36354000  1.0
  N  N307  1  0.65390000  0.20788000  0.56786000  1.0
  N  N308  1  0.91081000  0.05725000  0.28364000  1.0
  N  N309  1  0.81659000  0.15860000  0.28410000  1.0
  N  N310  1  0.85836000  0.15233000  0.35017000  1.0
  N  N311  1  0.82577000  0.08733000  0.17610000  1.0
  N  N312  1  0.38414000  0.28312000  0.43120000  1.0
  N  N313  1  0.33700000  0.35295000  0.32538000  1.0
  N  N314  1  0.30583000  0.28108000  0.33502000  1.0
  N  N315  1  0.42977000  0.41156000  0.39159000  1.0
  N  N316  1  0.58307000  0.47520000  0.19841000  1.0
  N  N317  1  0.61643000  0.37044000  0.13937000  1.0
  N  N318  1  0.63633000  0.35221000  0.21564000  1.0
  N  N319  1  0.55681000  0.48522000  0.06405000  1.0
  N  N320  1  0.89307000  0.26156000  0.03329000  1.0
  N  N321  1  0.75874000  0.27831000  0.05863000  1.0
  N  N322  1  0.79387000  0.27437000  0.12839000  1.0
  N  N323  1  0.80806000  0.26939000  0.92662000  1.0
  N  N324  1  0.48958000  0.17035000  0.92153000  1.0
  N  N325  1  0.48763000  0.08149000  0.84260000  1.0
  N  N326  1  0.45859000  0.04839000  0.91623000  1.0
  N  N327  1  0.54146000  0.20162000  0.78661000  1.0
  N  N328  1  0.42936000  0.39073000  0.68854000  1.0
  N  N329  1  0.35891000  0.37016000  0.59103000  1.0
  N  N330  1  0.43714000  0.33365000  0.58253000  1.0
  N  N331  1  0.29084000  0.44881000  0.68327000  1.0
  O  O332  1  0.07759000  0.97765000  0.32094000  1.0
  O  O333  1  0.91580000  0.88907000  0.35819000  1.0
  O  O334  1  0.01172000  0.64754000  0.15499000  1.0
  O  O335  1  0.91381000  0.56760000  0.14873000  1.0
  O  O336  1  0.93384000  0.66683000  0.05406000  1.0
  O  O337  1  0.38147000  0.51424000  0.23403000  1.0
  O  O338  1  0.42978000  0.63035000  0.19662000  1.0
  O  O339  1  0.31861000  0.60325000  0.14500000  1.0
  O  O340  1  0.42241000  0.67906000  0.02234000  1.0
  O  O341  1  0.58420000  0.64181000  0.11093000  1.0
  O  O342  1  0.48828000  0.84502000  0.35246000  1.0
  O  O343  1  0.58619000  0.85127000  0.43240000  1.0
  O  O344  1  0.56616000  0.94594000  0.33317000  1.0
  O  O345  1  0.11853000  0.76597000  0.48576000  1.0
  O  O346  1  0.07022000  0.80338000  0.36965000  1.0
  O  O347  1  0.18139000  0.85500000  0.39674000  1.0
  O  O348  1  0.92241000  0.02235000  0.67907000  1.0
  O  O349  1  0.08420000  0.11093000  0.64181000  1.0
  O  O350  1  0.98828000  0.35247000  0.84501000  1.0
  O  O351  1  0.08619000  0.43240000  0.85127000  1.0
  O  O352  1  0.06616000  0.33317000  0.94594000  1.0
  O  O353  1  0.61853000  0.48576000  0.76597000  1.0
  O  O354  1  0.57022000  0.36965000  0.80338000  1.0
  O  O355  1  0.68139000  0.39674000  0.85500000  1.0
  O  O356  1  0.57759000  0.32094000  0.97765000  1.0
  O  O357  1  0.41580000  0.35819000  0.88907000  1.0
  O  O358  1  0.51172000  0.15498000  0.64754000  1.0
  O  O359  1  0.41381000  0.14872000  0.56760000  1.0
  O  O360  1  0.43384000  0.05406000  0.66683000  1.0
  O  O361  1  0.88147000  0.23403000  0.51424000  1.0
  O  O362  1  0.92978000  0.19662000  0.63035000  1.0
  O  O363  1  0.81861000  0.14501000  0.60326000  1.0
