# generated using pymatgen
data_AlH21C27(NO)6
_symmetry_space_group_name_H-M   'P 1'
_cell_length_a   3.98085000
_cell_length_b   27.83300000
_cell_length_c   27.85131969
_cell_angle_alpha   60.04523828
_cell_angle_beta   89.77967651
_cell_angle_gamma   89.65110000
_symmetry_Int_Tables_number   1
_chemical_formula_structural   AlH21C27(NO)6
_chemical_formula_sum   'Al3 H63 C81 N18 O18'
_cell_volume   2673.63302266
_cell_formula_units_Z   3
loop_
 _symmetry_equiv_pos_site_id
 _symmetry_equiv_pos_as_xyz
  1  'x, y, z'
loop_
 _atom_site_type_symbol
 _atom_site_label
 _atom_site_symmetry_multiplicity
 _atom_site_fract_x
 _atom_site_fract_y
 _atom_site_fract_z
 _atom_site_occupancy
  Al  Al0  1  0.99985000  0.00012000  0.49996000  1.0
  Al  Al1  1  0.04281000  0.33366000  0.83316000  1.0
  Al  Al2  1  0.95167000  0.66705000  0.16635000  1.0
  H  H3  1  0.49454000  0.00021000  0.92253000  1.0
  H  H4  1  0.48494000  0.91111000  0.83344000  1.0
  H  H5  1  0.50149000  0.08930000  0.74453000  1.0
  H  H6  1  0.21526000  0.07444000  0.90751000  1.0
  H  H7  1  0.83014000  0.14520000  0.76035000  1.0
  H  H8  1  0.77218000  0.92637000  0.98124000  1.0
  H  H9  1  0.16365000  0.85470000  0.90555000  1.0
  H  H10  1  0.18656000  0.92685000  0.76039000  1.0
  H  H11  1  0.79912000  0.07359000  0.68704000  1.0
  H  H12  1  0.49302000  0.42266000  0.07750000  1.0
  H  H13  1  0.49438000  0.24449000  0.16619000  1.0
  H  H14  1  0.48917000  0.33342000  0.25555000  1.0
  H  H15  1  0.78040000  0.48077000  0.09287000  1.0
  H  H16  1  0.16572000  0.40608000  0.24005000  1.0
  H  H17  1  0.20574000  0.40764000  0.01882000  1.0
  H  H18  1  0.82301000  0.26026000  0.09397000  1.0
  H  H19  1  0.80196000  0.18699000  0.23930000  1.0
  H  H20  1  0.18194000  0.26054000  0.31274000  1.0
  H  H21  1  0.50508000  0.57714000  0.50000000  1.0
  H  H22  1  0.50571000  0.75526000  0.41056000  1.0
  H  H23  1  0.51505000  0.66672000  0.58865000  1.0
  H  H24  1  0.22294000  0.51901000  0.57364000  1.0
  H  H25  1  0.83337000  0.59421000  0.64560000  1.0
  H  H26  1  0.78783000  0.59206000  0.42550000  1.0
  H  H27  1  0.17094000  0.73948000  0.35514000  1.0
  H  H28  1  0.20505000  0.81316000  0.42599000  1.0
  H  H29  1  0.81911000  0.73959000  0.57284000  1.0
  H  H30  1  0.00049000  0.26908000  0.76154000  1.0
  H  H31  1  0.03679000  0.23384000  0.72812000  1.0
  H  H32  1  0.09566000  0.19947000  0.90798000  1.0
  H  H33  1  0.04694000  0.13121000  0.94136000  1.0
  H  H34  1  0.89714000  0.80142000  0.10633000  1.0
  H  H35  1  0.94326000  0.86974000  0.07148000  1.0
  H  H36  1  0.99875000  0.73060000  0.03051000  1.0
  H  H37  1  0.96278000  0.76570000  0.96196000  1.0
  H  H38  1  0.10175000  0.92142000  0.63611000  1.0
  H  H39  1  0.98695000  0.89469000  0.70428000  1.0
  H  H40  1  0.89162000  0.07874000  0.55758000  1.0
  H  H41  1  0.00264000  0.10554000  0.59904000  1.0
  H  H42  1  0.00070000  0.53133000  0.23900000  1.0
  H  H43  1  0.96520000  0.46277000  0.27268000  1.0
  H  H44  1  0.90673000  0.60594000  0.09274000  1.0
  H  H45  1  0.95508000  0.57086000  0.05941000  1.0
  H  H46  1  0.08472000  0.40803000  0.89350000  1.0
  H  H47  1  0.03416000  0.44139000  0.92849000  1.0
  H  H48  1  0.99447000  0.26176000  0.96874000  1.0
  H  H49  1  0.02922000  0.22802000  0.03730000  1.0
  H  H50  1  0.89692000  0.05766000  0.36373000  1.0
  H  H51  1  0.00902000  0.09902000  0.29545000  1.0
  H  H52  1  0.09707000  0.13635000  0.44248000  1.0
  H  H53  1  0.98054000  0.20452000  0.40097000  1.0
  H  H54  1  0.99352000  0.46935000  0.77002000  1.0
  H  H55  1  0.02985000  0.53791000  0.73490000  1.0
  H  H56  1  0.09345000  0.39422000  0.69871000  1.0
  H  H57  1  0.04753000  0.42906000  0.63039000  1.0
  H  H58  1  0.90377000  0.59197000  0.30032000  1.0
  H  H59  1  0.95427000  0.55830000  0.36852000  1.0
  H  H60  1  0.99536000  0.73842000  0.23133000  1.0
  H  H61  1  0.96006000  0.77177000  0.26666000  1.0
  H  H62  1  0.10980000  0.94263000  0.42103000  1.0
  H  H63  1  0.99942000  0.90125000  0.39412000  1.0
  H  H64  1  0.90314000  0.86393000  0.57829000  1.0
  H  H65  1  0.01935000  0.79572000  0.60490000  1.0
  C  C66  1  0.50413000  0.92490000  0.49977000  1.0
  C  C67  1  0.49725000  0.00009000  0.57521000  1.0
  C  C68  1  0.49785000  0.07538000  0.42475000  1.0
  C  C69  1  0.54527000  0.25829000  0.83372000  1.0
  C  C70  1  0.53983000  0.33418000  0.90798000  1.0
  C  C71  1  0.54212000  0.40857000  0.75806000  1.0
  C  C72  1  0.45035000  0.74219000  0.09152000  1.0
  C  C73  1  0.45455000  0.59194000  0.16628000  1.0
  C  C74  1  0.45134000  0.66641000  0.24173000  1.0
  C  C75  1  0.48031000  0.94956000  0.88413000  1.0
  C  C76  1  0.49412000  0.00021000  0.88340000  1.0
  C  C77  1  0.50776000  0.05084000  0.83357000  1.0
  C  C78  1  0.50491000  0.05015000  0.78362000  1.0
  C  C79  1  0.49259000  0.00021000  0.78285000  1.0
  C  C80  1  0.48154000  0.95025000  0.83347000  1.0
  C  C81  1  0.36855000  0.15871000  0.87682000  1.0
  C  C82  1  0.36452000  0.10860000  0.87635000  1.0
  C  C83  1  0.52077000  0.10378000  0.83385000  1.0
  C  C84  1  0.69016000  0.14942000  0.79180000  1.0
  C  C85  1  0.70858000  0.19965000  0.79197000  1.0
  C  C86  1  0.54284000  0.20436000  0.83440000  1.0
  C  C87  1  0.62515000  0.89201000  0.98435000  1.0
  C  C88  1  0.62361000  0.84186000  0.03482000  1.0
  C  C89  1  0.45229000  0.79596000  0.03820000  1.0
  C  C90  1  0.28730000  0.80042000  0.99130000  1.0
  C  C91  1  0.30311000  0.85070000  0.94100000  1.0
  C  C92  1  0.46940000  0.89661000  0.93726000  1.0
  C  C93  1  0.32958000  0.95827000  0.72541000  1.0
  C  C94  1  0.32213000  0.95788000  0.67528000  1.0
  C  C95  1  0.49512000  0.00017000  0.62759000  1.0
  C  C96  1  0.66652000  0.04252000  0.63299000  1.0
  C  C97  1  0.65629000  0.04222000  0.68345000  1.0
  C  C98  1  0.49250000  0.00025000  0.72979000  1.0
  C  C99  1  0.50237000  0.33361000  0.11570000  1.0
  C  C100  1  0.49223000  0.38350000  0.11658000  1.0
  C  C101  1  0.48202000  0.38419000  0.16652000  1.0
  C  C102  1  0.48313000  0.33349000  0.21639000  1.0
  C  C103  1  0.49115000  0.28285000  0.21696000  1.0
  C  C104  1  0.49995000  0.28361000  0.16627000  1.0
  C  C105  1  0.63183000  0.53468000  0.12377000  1.0
  C  C106  1  0.63262000  0.48417000  0.12409000  1.0
  C  C107  1  0.47418000  0.43733000  0.16648000  1.0
  C  C108  1  0.30699000  0.44133000  0.20866000  1.0
  C  C109  1  0.29154000  0.49171000  0.20860000  1.0
  C  C110  1  0.45819000  0.53841000  0.16614000  1.0
  C  C111  1  0.35509000  0.37643000  0.01553000  1.0
  C  C112  1  0.35843000  0.37694000  0.96494000  1.0
  C  C113  1  0.53436000  0.33460000  0.96132000  1.0
  C  C114  1  0.70065000  0.29204000  0.00815000  1.0
  C  C115  1  0.68236000  0.29177000  0.05858000  1.0
  C  C116  1  0.51287000  0.33389000  0.06249000  1.0
  C  C117  1  0.65783000  0.18344000  0.27430000  1.0
  C  C118  1  0.66899000  0.13303000  0.32451000  1.0
  C  C119  1  0.49535000  0.12772000  0.37225000  1.0
  C  C120  1  0.31954000  0.17541000  0.36685000  1.0
  C  C121  1  0.32666000  0.22551000  0.31632000  1.0
  C  C122  1  0.49155000  0.22979000  0.26996000  1.0
  C  C123  1  0.49573000  0.66616000  0.44922000  1.0
  C  C124  1  0.50703000  0.61634000  0.49991000  1.0
  C  C125  1  0.51950000  0.61578000  0.55046000  1.0
  C  C126  1  0.51974000  0.66656000  0.54959000  1.0
  C  C127  1  0.51146000  0.71713000  0.49959000  1.0
  C  C128  1  0.50047000  0.71623000  0.44974000  1.0
  C  C129  1  0.36875000  0.46543000  0.65836000  1.0
  C  C130  1  0.36934000  0.51581000  0.60814000  1.0
  C  C131  1  0.52710000  0.56272000  0.60353000  1.0
  C  C132  1  0.69250000  0.55892000  0.64957000  1.0
  C  C133  1  0.70620000  0.50870000  0.69994000  1.0
  C  C134  1  0.54004000  0.46193000  0.70435000  1.0
  C  C135  1  0.63762000  0.62333000  0.39141000  1.0
  C  C136  1  0.63194000  0.62298000  0.34127000  1.0
  C  C137  1  0.45598000  0.66551000  0.29574000  1.0
  C  C138  1  0.29014000  0.70792000  0.30059000  1.0
  C  C139  1  0.31056000  0.70802000  0.35080000  1.0
  C  C140  1  0.48155000  0.66586000  0.39633000  1.0
  C  C141  1  0.34764000  0.81671000  0.45742000  1.0
  C  C142  1  0.33654000  0.86718000  0.45717000  1.0
  C  C143  1  0.50791000  0.87253000  0.49957000  1.0
  C  C144  1  0.68232000  0.82480000  0.54182000  1.0
  C  C145  1  0.67534000  0.77463000  0.54143000  1.0
  C  C146  1  0.51198000  0.77029000  0.49944000  1.0
  N  N147  1  0.87660000  0.24481000  0.74957000  1.0
  N  N148  1  0.21221000  0.16248000  0.91973000  1.0
  N  N149  1  0.77943000  0.83828000  0.08127000  1.0
  N  N150  1  0.12249000  0.75498000  0.99419000  1.0
  N  N151  1  0.16294000  0.91452000  0.67445000  1.0
  N  N152  1  0.82766000  0.08578000  0.58891000  1.0
  N  N153  1  0.12509000  0.49491000  0.25107000  1.0
  N  N154  1  0.79003000  0.58092000  0.08099000  1.0
  N  N155  1  0.20044000  0.41981000  0.91859000  1.0
  N  N156  1  0.86948000  0.24964000  0.00504000  1.0
  N  N157  1  0.83310000  0.08892000  0.32540000  1.0
  N  N158  1  0.15778000  0.17468000  0.41099000  1.0
  N  N159  1  0.87000000  0.50577000  0.74550000  1.0
  N  N160  1  0.21138000  0.41911000  0.66196000  1.0
  N  N161  1  0.78815000  0.58010000  0.33730000  1.0
  N  N162  1  0.12001000  0.75036000  0.25557000  1.0
  N  N163  1  0.17439000  0.91134000  0.41392000  1.0
  N  N164  1  0.84252000  0.82559000  0.58514000  1.0
  O  O165  1  0.26576000  0.06581000  0.46109000  1.0
  O  O166  1  0.27065000  0.96105000  0.47321000  1.0
  O  O167  1  0.26687000  0.97334000  0.56563000  1.0
  O  O168  1  0.73191000  0.03924000  0.43426000  1.0
  O  O169  1  0.72946000  0.02675000  0.53904000  1.0
  O  O170  1  0.73456000  0.93445000  0.52657000  1.0
  O  O171  1  0.30582000  0.39946000  0.79290000  1.0
  O  O172  1  0.30965000  0.29330000  0.80777000  1.0
  O  O173  1  0.30638000  0.30829000  0.89881000  1.0
  O  O174  1  0.77897000  0.37362000  0.76752000  1.0
  O  O175  1  0.77625000  0.35950000  0.87323000  1.0
  O  O176  1  0.78064000  0.26787000  0.85897000  1.0
  O  O177  1  0.21557000  0.64127000  0.23215000  1.0
  O  O178  1  0.21385000  0.73276000  0.12637000  1.0
  O  O179  1  0.21821000  0.62686000  0.14075000  1.0
  O  O180  1  0.68546000  0.69248000  0.20667000  1.0
  O  O181  1  0.68935000  0.60120000  0.19191000  1.0
  O  O182  1  0.68691000  0.70724000  0.10065000  1.0
