# generated using pymatgen
data_NiH34C26(N3O2)2
_symmetry_space_group_name_H-M   'P 1'
_cell_length_a   10.05240000
_cell_length_b   12.16180000
_cell_length_c   26.72030000
_cell_angle_alpha   82.27740000
_cell_angle_beta   79.74240000
_cell_angle_gamma   66.97200000
_symmetry_Int_Tables_number   1
_chemical_formula_structural   NiH34C26(N3O2)2
_chemical_formula_sum   'Ni4 H136 C104 N24 O16'
_cell_volume   2950.77227002
_cell_formula_units_Z   4
loop_
 _symmetry_equiv_pos_site_id
 _symmetry_equiv_pos_as_xyz
  1  'x, y, z'
loop_
 _atom_site_type_symbol
 _atom_site_label
 _atom_site_symmetry_multiplicity
 _atom_site_fract_x
 _atom_site_fract_y
 _atom_site_fract_z
 _atom_site_occupancy
  Ni  Ni0  1  0.03592000  0.62840000  0.12816000  1.0
  Ni  Ni1  1  0.28726000  0.87461000  0.37463000  1.0
  Ni  Ni2  1  0.97011000  0.36515000  0.87326000  1.0
  Ni  Ni3  1  0.70967000  0.13013000  0.62592000  1.0
  H  H4  1  0.55435000  0.13574000  0.93500000  1.0
  H  H5  1  0.13471000  0.36242000  0.56099000  1.0
  H  H6  1  0.44726000  0.84962000  0.05562000  1.0
  H  H7  1  0.86393000  0.64152000  0.43943000  1.0
  H  H8  1  0.45268000  0.33825000  0.96645000  1.0
  H  H9  1  0.26575000  0.16063000  0.53036000  1.0
  H  H10  1  0.55133000  0.64550000  0.02612000  1.0
  H  H11  1  0.73405000  0.84370000  0.46973000  1.0
  H  H12  1  0.27139000  0.20964000  0.10755000  1.0
  H  H13  1  0.08782000  0.27627000  0.39005000  1.0
  H  H14  1  0.76139000  0.76471000  0.88865000  1.0
  H  H15  1  0.90677000  0.72723000  0.61099000  1.0
  H  H16  1  0.38328000  0.00295000  0.08020000  1.0
  H  H17  1  0.96158000  0.48145000  0.41768000  1.0
  H  H18  1  0.65369000  0.97154000  0.91540000  1.0
  H  H19  1  0.03034000  0.52143000  0.58391000  1.0
  H  H20  1  0.47570000  0.05750000  0.15213000  1.0
  H  H21  1  0.17955000  0.45241000  0.34990000  1.0
  H  H22  1  0.51044000  0.94942000  0.84974000  1.0
  H  H23  1  0.80981000  0.55570000  0.65305000  1.0
  H  H24  1  0.35809000  0.23796000  0.20318000  1.0
  H  H25  1  0.29418000  0.27173000  0.29890000  1.0
  H  H26  1  0.62536000  0.76817000  0.79933000  1.0
  H  H27  1  0.69239000  0.73654000  0.70361000  1.0
  H  H28  1  0.76477000  0.15641000  0.25925000  1.0
  H  H29  1  0.66286000  0.37247000  0.24452000  1.0
  H  H30  1  0.22088000  0.85755000  0.74064000  1.0
  H  H31  1  0.32261000  0.63571000  0.75559000  1.0
  H  H32  1  0.87924000  0.97700000  0.20758000  1.0
  H  H33  1  0.54495000  0.55355000  0.29464000  1.0
  H  H34  1  0.10938000  0.03876000  0.79067000  1.0
  H  H35  1  0.44378000  0.45415000  0.70616000  1.0
  H  H36  1  0.62536000  0.55830000  0.20042000  1.0
  H  H37  1  0.87431000  0.94404000  0.30293000  1.0
  H  H38  1  0.38022000  0.44265000  0.80404000  1.0
  H  H39  1  0.12211000  0.06259000  0.69729000  1.0
  H  H40  1  0.64956000  0.67280000  0.15519000  1.0
  H  H41  1  0.97447000  0.82961000  0.34615000  1.0
  H  H42  1  0.34759000  0.32690000  0.84628000  1.0
  H  H43  1  0.02057000  0.17673000  0.65438000  1.0
  H  H44  1  0.79197000  0.70056000  0.21121000  1.0
  H  H45  1  0.18561000  0.81074000  0.28502000  1.0
  H  H46  1  0.21692000  0.30802000  0.78374000  1.0
  H  H47  1  0.81051000  0.19311000  0.71560000  1.0
  H  H48  1  0.78964000  0.56821000  0.24972000  1.0
  H  H49  1  0.08536000  0.94622000  0.25036000  1.0
  H  H50  1  0.21875000  0.44556000  0.75031000  1.0
  H  H51  1  0.91196000  0.05748000  0.74986000  1.0
  H  H52  1  0.73703000  0.57129000  0.07148000  1.0
  H  H53  1  0.87210000  0.94087000  0.43103000  1.0
  H  H54  1  0.26061000  0.43791000  0.93182000  1.0
  H  H55  1  0.12400000  0.06676000  0.56926000  1.0
  H  H56  1  0.92182000  0.47023000  0.06931000  1.0
  H  H57  1  0.96572000  0.03736000  0.43229000  1.0
  H  H58  1  0.07358000  0.53061000  0.93257000  1.0
  H  H59  1  0.03078000  0.97009000  0.56777000  1.0
  H  H60  1  0.03101000  0.38853000  0.13995000  1.0
  H  H61  1  0.06467000  0.11679000  0.36055000  1.0
  H  H62  1  0.96886000  0.61033000  0.86090000  1.0
  H  H63  1  0.93479000  0.88783000  0.63918000  1.0
  H  H64  1  0.91455000  0.37588000  0.19905000  1.0
  H  H65  1  0.98572000  0.13139000  0.30280000  1.0
  H  H66  1  0.08804000  0.62840000  0.80364000  1.0
  H  H67  1  0.01335000  0.87325000  0.69697000  1.0
  H  H68  1  0.84033000  0.71777000  0.01095000  1.0
  H  H69  1  0.06761000  0.78627000  0.49473000  1.0
  H  H70  1  0.15723000  0.27823000  0.99394000  1.0
  H  H71  1  0.92797000  0.22157000  0.50620000  1.0
  H  H72  1  0.01184000  0.59626000  0.01523000  1.0
  H  H73  1  0.13150000  0.90599000  0.48790000  1.0
  H  H74  1  0.98474000  0.39559000  0.98716000  1.0
  H  H75  1  0.86597000  0.10082000  0.51270000  1.0
  H  H76  1  0.05522000  0.78636000  0.99582000  1.0
  H  H77  1  0.32883000  0.70994000  0.50746000  1.0
  H  H78  1  0.96033000  0.19732000  0.00555000  1.0
  H  H79  1  0.66697000  0.29590000  0.49332000  1.0
  H  H80  1  0.92826000  0.84725000  0.05058000  1.0
  H  H81  1  0.31024000  0.65354000  0.45189000  1.0
  H  H82  1  0.08691000  0.14330000  0.95004000  1.0
  H  H83  1  0.68417000  0.35242000  0.54911000  1.0
  H  H84  1  0.26290000  0.79567000  0.04046000  1.0
  H  H85  1  0.60296000  0.69432000  0.45903000  1.0
  H  H86  1  0.74837000  0.18105000  0.95652000  1.0
  H  H87  1  0.39405000  0.30819000  0.54137000  1.0
  H  H88  1  0.10867000  0.87263000  0.08482000  1.0
  H  H89  1  0.55545000  0.62568000  0.41371000  1.0
  H  H90  1  0.90449000  0.11346000  0.91122000  1.0
  H  H91  1  0.43935000  0.37762000  0.58697000  1.0
  H  H92  1  0.49784000  0.61245000  0.11999000  1.0
  H  H93  1  0.72784000  0.88868000  0.38347000  1.0
  H  H94  1  0.51040000  0.37471000  0.88164000  1.0
  H  H95  1  0.27200000  0.11141000  0.61638000  1.0
  H  H96  1  0.39941000  0.58486000  0.07729000  1.0
  H  H97  1  0.55910000  0.91713000  0.42392000  1.0
  H  H98  1  0.61336000  0.40385000  0.92208000  1.0
  H  H99  1  0.44061000  0.08476000  0.57603000  1.0
  H  H100  1  0.08949000  0.81815000  0.16914000  1.0
  H  H101  1  0.56252000  0.68768000  0.32980000  1.0
  H  H102  1  0.91898000  0.17822000  0.82736000  1.0
  H  H103  1  0.43276000  0.31473000  0.67083000  1.0
  H  H104  1  0.25843000  0.74581000  0.19678000  1.0
  H  H105  1  0.69287000  0.75704000  0.30391000  1.0
  H  H106  1  0.74742000  0.24604000  0.80149000  1.0
  H  H107  1  0.30399000  0.24370000  0.69636000  1.0
  H  H108  1  0.33390000  0.46118000  0.14573000  1.0
  H  H109  1  0.45281000  0.04348000  0.35365000  1.0
  H  H110  1  0.66232000  0.53271000  0.85198000  1.0
  H  H111  1  0.54745000  0.95851000  0.64627000  1.0
  H  H112  1  0.39092000  0.52513000  0.19098000  1.0
  H  H113  1  0.61584000  0.97635000  0.31042000  1.0
  H  H114  1  0.60678000  0.46385000  0.80855000  1.0
  H  H115  1  0.38385000  0.02448000  0.68944000  1.0
  H  H116  1  0.02060000  0.67882000  0.23714000  1.0
  H  H117  1  0.42538000  0.82816000  0.26316000  1.0
  H  H118  1  0.98365000  0.32195000  0.76144000  1.0
  H  H119  1  0.57183000  0.17407000  0.73724000  1.0
  H  H120  1  0.19458000  0.57500000  0.25193000  1.0
  H  H121  1  0.51032000  0.93480000  0.24752000  1.0
  H  H122  1  0.81137000  0.42679000  0.74594000  1.0
  H  H123  1  0.48830000  0.06645000  0.75256000  1.0
  H  H124  1  0.15911000  0.41905000  0.20706000  1.0
  H  H125  1  0.28436000  0.08741000  0.29377000  1.0
  H  H126  1  0.84368000  0.58027000  0.79329000  1.0
  H  H127  1  0.71515000  0.91527000  0.70596000  1.0
  H  H128  1  0.02076000  0.46820000  0.26035000  1.0
  H  H129  1  0.24863000  0.03843000  0.23943000  1.0
  H  H130  1  0.97843000  0.53403000  0.73898000  1.0
  H  H131  1  0.75020000  0.96418000  0.76050000  1.0
  H  H132  1  0.19738000  0.62739000  0.05059000  1.0
  H  H133  1  0.38513000  0.86472000  0.45384000  1.0
  H  H134  1  0.80789000  0.35170000  0.95220000  1.0
  H  H135  1  0.61336000  0.13948000  0.54652000  1.0
  H  H136  1  0.79928000  0.72071000  0.10071000  1.0
  H  H137  1  0.10184000  0.78490000  0.40450000  1.0
  H  H138  1  0.21151000  0.27880000  0.90373000  1.0
  H  H139  1  0.89337000  0.22189000  0.59656000  1.0
  C  C140  1  0.47769000  0.05151000  0.00506000  1.0
  C  C141  1  0.03633000  0.44043000  0.49181000  1.0
  C  C142  1  0.54121000  0.92866000  0.98784000  1.0
  C  C143  1  0.95919000  0.56308000  0.50916000  1.0
  C  C144  1  0.49572000  0.14857000  0.97351000  1.0
  C  C145  1  0.12383000  0.34698000  0.52298000  1.0
  C  C146  1  0.51405000  0.83402000  0.01848000  1.0
  C  C147  1  0.87366000  0.65683000  0.47761000  1.0
  C  C148  1  0.43730000  0.26336000  0.99040000  1.0
  C  C149  1  0.19735000  0.23242000  0.50644000  1.0
  C  C150  1  0.57295000  0.71855000  0.00264000  1.0
  C  C151  1  0.80095000  0.77163000  0.49393000  1.0
  C  C152  1  0.35441000  0.28681000  0.03838000  1.0
  C  C153  1  0.18467000  0.20421000  0.45887000  1.0
  C  C154  1  0.66446000  0.69112000  0.95625000  1.0
  C  C155  1  0.81291000  0.79976000  0.54162000  1.0
  C  C156  1  0.33561000  0.19107000  0.07004000  1.0
  C  C157  1  0.09840000  0.29629000  0.42739000  1.0
  C  C158  1  0.69133000  0.78448000  0.92512000  1.0
  C  C159  1  0.89701000  0.70730000  0.57352000  1.0
  C  C160  1  0.39711000  0.07556000  0.05396000  1.0
  C  C161  1  0.02641000  0.41194000  0.44345000  1.0
  C  C162  1  0.63063000  0.90096000  0.94056000  1.0
  C  C163  1  0.96776000  0.59132000  0.55774000  1.0
  C  C164  1  0.28101000  0.41295000  0.05442000  1.0
  C  C165  1  0.25738000  0.07566000  0.44557000  1.0
  C  C166  1  0.73597000  0.56203000  0.94408000  1.0
  C  C167  1  0.74173000  0.92863000  0.55458000  1.0
  C  C168  1  0.68366000  0.00601000  0.17738000  1.0
  C  C169  1  0.35368000  0.51484000  0.32479000  1.0
  C  C170  1  0.30395000  0.00639000  0.82269000  1.0
  C  C171  1  0.63573000  0.49264000  0.67700000  1.0
  C  C172  1  0.53720000  0.08052000  0.17588000  1.0
  C  C173  1  0.28499000  0.43374000  0.32627000  1.0
  C  C174  1  0.44882000  0.92824000  0.82540000  1.0
  C  C175  1  0.70347000  0.57423000  0.67606000  1.0
  C  C176  1  0.47226000  0.18007000  0.20477000  1.0
  C  C177  1  0.34904000  0.33400000  0.29758000  1.0
  C  C178  1  0.51221000  0.82790000  0.79702000  1.0
  C  C179  1  0.63759000  0.67441000  0.70448000  1.0
  C  C180  1  0.70153000  0.13584000  0.23520000  1.0
  C  C181  1  0.55702000  0.38962000  0.26795000  1.0
  C  C182  1  0.28440000  0.87675000  0.76502000  1.0
  C  C183  1  0.42927000  0.61884000  0.73280000  1.0
  C  C184  1  0.76539000  0.03598000  0.20674000  1.0
  C  C185  1  0.49151000  0.49050000  0.29588000  1.0
  C  C186  1  0.22202000  0.97816000  0.79280000  1.0
  C  C187  1  0.49688000  0.51735000  0.70517000  1.0
  C  C188  1  0.55293000  0.20823000  0.23544000  1.0
  C  C189  1  0.48528000  0.31124000  0.26732000  1.0
  C  C190  1  0.43173000  0.80138000  0.76567000  1.0
  C  C191  1  0.50002000  0.69768000  0.73396000  1.0
  C  C192  1  0.75226000  0.89041000  0.15094000  1.0
  C  C193  1  0.27448000  0.62949000  0.35148000  1.0
  C  C194  1  0.24305000  0.12181000  0.84929000  1.0
  C  C195  1  0.71689000  0.37767000  0.65040000  1.0
  C  C196  1  0.70698000  0.58910000  0.17674000  1.0
  C  C197  1  0.96629000  0.91517000  0.32495000  1.0
  C  C198  1  0.29478000  0.41282000  0.82532000  1.0
  C  C199  1  0.03003000  0.09070000  0.67539000  1.0
  C  C200  1  0.80662000  0.60687000  0.21039000  1.0
  C  C201  1  0.10947000  0.90352000  0.28871000  1.0
  C  C202  1  0.19925000  0.40097000  0.78827000  1.0
  C  C203  1  0.88744000  0.10069000  0.71163000  1.0
  C  C204  1  0.83541000  0.54281000  0.09022000  1.0
  C  C205  1  0.96604000  0.96360000  0.41259000  1.0
  C  C206  1  0.16420000  0.45844000  0.91283000  1.0
  C  C207  1  0.03056000  0.04341000  0.58772000  1.0
  C  C208  1  0.93475000  0.43658000  0.16638000  1.0
  C  C209  1  0.03783000  0.06912000  0.33438000  1.0
  C  C210  1  0.06657000  0.56451000  0.83473000  1.0
  C  C211  1  0.96081000  0.93563000  0.66552000  1.0
  C  C212  1  0.93307000  0.67784000  0.03274000  1.0
  C  C213  1  0.14139000  0.82535000  0.47079000  1.0
  C  C214  1  0.06947000  0.31607000  0.96987000  1.0
  C  C215  1  0.85482000  0.18165000  0.52996000  1.0
  C  C216  1  0.00715000  0.76399000  0.03433000  1.0
  C  C217  1  0.29928000  0.73527000  0.46845000  1.0
  C  C218  1  0.00282000  0.22394000  0.96678000  1.0
  C  C219  1  0.69651000  0.27057000  0.53232000  1.0
  C  C220  1  0.19364000  0.78474000  0.07616000  1.0
  C  C221  1  0.54970000  0.71167000  0.42452000  1.0
  C  C222  1  0.81802000  0.19911000  0.92220000  1.0
  C  C223  1  0.44673000  0.29128000  0.57598000  1.0
  C  C224  1  0.38981000  0.61787000  0.11450000  1.0
  C  C225  1  0.61967000  0.88396000  0.38712000  1.0
  C  C226  1  0.61920000  0.37106000  0.88517000  1.0
  C  C227  1  0.37950000  0.11733000  0.61287000  1.0
  C  C228  1  0.19638000  0.74451000  0.16670000  1.0
  C  C229  1  0.59814000  0.76027000  0.33310000  1.0
  C  C230  1  0.81067000  0.24974000  0.83083000  1.0
  C  C231  1  0.39852000  0.24153000  0.66728000  1.0
  C  C232  1  0.33116000  0.54431000  0.15798000  1.0
  C  C233  1  0.53873000  0.95868000  0.34233000  1.0
  C  C234  1  0.66991000  0.44720000  0.84055000  1.0
  C  C235  1  0.46072000  0.04290000  0.65763000  1.0
  C  C236  1  0.11501000  0.59855000  0.22501000  1.0
  C  C237  1  0.43108000  0.90881000  0.27544000  1.0
  C  C238  1  0.88842000  0.40133000  0.77395000  1.0
  C  C239  1  0.56695000  0.09332000  0.72473000  1.0
  C  C240  1  0.06606000  0.49650000  0.22241000  1.0
  C  C241  1  0.28044000  0.00986000  0.27807000  1.0
  C  C242  1  0.93742000  0.50393000  0.77738000  1.0
  C  C243  1  0.71817000  0.99292000  0.72189000  1.0
  N  N244  1  0.88534000  0.64431000  0.08634000  1.0
  N  N245  1  0.10465000  0.86006000  0.41832000  1.0
  N  N246  1  0.12256000  0.35268000  0.91764000  1.0
  N  N247  1  0.89145000  0.14676000  0.58243000  1.0
  N  N248  1  0.12031000  0.70483000  0.06828000  1.0
  N  N249  1  0.39428000  0.79026000  0.43570000  1.0
  N  N250  1  0.88727000  0.27804000  0.93379000  1.0
  N  N251  1  0.60272000  0.21410000  0.56486000  1.0
  N  N252  1  0.95730000  0.53642000  0.18654000  1.0
  N  N253  1  0.17254000  0.97161000  0.31252000  1.0
  N  N254  1  0.04829000  0.46643000  0.81204000  1.0
  N  N255  1  0.82538000  0.03230000  0.68757000  1.0
  N  N256  1  0.17771000  0.62708000  0.17301000  1.0
  N  N257  1  0.47692000  0.87847000  0.32648000  1.0
  N  N258  1  0.82358000  0.36890000  0.82473000  1.0
  N  N259  1  0.52091000  0.12391000  0.67374000  1.0
  N  N260  1  0.80537000  0.49618000  0.14197000  1.0
  N  N261  1  0.94473000  0.00751000  0.35990000  1.0
  N  N262  1  0.19365000  0.50399000  0.86041000  1.0
  N  N263  1  0.05282000  0.99848000  0.64023000  1.0
  N  N264  1  0.28243000  0.74345000  0.11721000  1.0
  N  N265  1  0.63377000  0.75874000  0.38334000  1.0
  N  N266  1  0.72879000  0.24656000  0.88094000  1.0
  N  N267  1  0.36353000  0.24292000  0.61694000  1.0
  O  O268  1  0.88478000  0.82804000  0.15691000  1.0
  O  O269  1  0.34134000  0.70262000  0.34510000  1.0
  O  O270  1  0.11242000  0.19259000  0.84234000  1.0
  O  O271  1  0.65171000  0.30332000  0.65656000  1.0
  O  O272  1  0.20359000  0.42710000  0.09821000  1.0
  O  O273  1  0.23889000  0.05107000  0.40246000  1.0
  O  O274  1  0.82078000  0.53872000  0.90138000  1.0
  O  O275  1  0.76011000  0.95334000  0.59767000  1.0
  O  O276  1  0.29888000  0.49655000  0.02321000  1.0
  O  O277  1  0.32874000  0.00080000  0.47813000  1.0
  O  O278  1  0.70993000  0.48564000  0.97716000  1.0
  O  O279  1  0.67164000  0.00359000  0.52177000  1.0
  O  O280  1  0.67454000  0.86144000  0.12666000  1.0
  O  O281  1  0.14959000  0.64659000  0.37616000  1.0
  O  O282  1  0.32486000  0.14164000  0.87467000  1.0
  O  O283  1  0.84176000  0.36152000  0.62590000  1.0
