# generated using pymatgen
data_MnH8C12(NO2)2
_symmetry_space_group_name_H-M   'P 1'
_cell_length_a   9.05383000
_cell_length_b   9.92953000
_cell_length_c   41.72990000
_cell_angle_alpha   89.99970000
_cell_angle_beta   89.99950000
_cell_angle_gamma   79.93500000
_symmetry_Int_Tables_number   1
_chemical_formula_structural   MnH8C12(NO2)2
_chemical_formula_sum   'Mn12 H96 C144 N24 O48'
_cell_volume   3693.79396913
_cell_formula_units_Z   12
loop_
 _symmetry_equiv_pos_site_id
 _symmetry_equiv_pos_as_xyz
  1  'x, y, z'
loop_
 _atom_site_type_symbol
 _atom_site_label
 _atom_site_symmetry_multiplicity
 _atom_site_fract_x
 _atom_site_fract_y
 _atom_site_fract_z
 _atom_site_occupancy
  Mn  Mn0  1  0.99239000  0.74236000  0.16598000  1.0
  Mn  Mn1  1  0.50762000  0.75764000  0.66599000  1.0
  Mn  Mn2  1  0.00762000  0.25764000  0.83401000  1.0
  Mn  Mn3  1  0.49238000  0.24237000  0.33401000  1.0
  Mn  Mn4  1  0.99620000  0.24317000  0.16733000  1.0
  Mn  Mn5  1  0.50380000  0.25683000  0.66733000  1.0
  Mn  Mn6  1  0.00381000  0.75683000  0.83267000  1.0
  Mn  Mn7  1  0.49619000  0.74317000  0.33267000  1.0
  Mn  Mn8  1  0.50317000  0.24515000  0.99948000  1.0
  Mn  Mn9  1  0.99683000  0.25484000  0.49949000  1.0
  Mn  Mn10  1  0.49682000  0.75484000  0.00052000  1.0
  Mn  Mn11  1  0.00316000  0.74517000  0.50052000  1.0
  H  H12  1  0.43618000  0.77068000  0.25891000  1.0
  H  H13  1  0.06382000  0.72932000  0.75891000  1.0
  H  H14  1  0.56383000  0.22931000  0.74109000  1.0
  H  H15  1  0.93617000  0.27068000  0.24109000  1.0
  H  H16  1  0.55415000  0.69793000  0.20587000  1.0
  H  H17  1  0.94585000  0.80207000  0.70587000  1.0
  H  H18  1  0.44585000  0.30206000  0.79413000  1.0
  H  H19  1  0.05415000  0.19793000  0.29413000  1.0
  H  H20  1  0.93926000  0.49102000  0.25820000  1.0
  H  H21  1  0.56073000  0.00896000  0.75820000  1.0
  H  H22  1  0.06076000  0.50900000  0.74180000  1.0
  H  H23  1  0.43924000  0.99102000  0.24180000  1.0
  H  H24  1  0.80861000  0.57925000  0.30870000  1.0
  H  H25  1  0.69137000  0.92073000  0.80870000  1.0
  H  H26  1  0.19140000  0.42076000  0.69130000  1.0
  H  H27  1  0.30860000  0.07926000  0.19130000  1.0
  H  H28  1  0.32424000  0.51448000  0.02959000  1.0
  H  H29  1  0.17576000  0.98550000  0.52960000  1.0
  H  H30  1  0.67576000  0.48551000  0.97041000  1.0
  H  H31  1  0.82424000  0.01451000  0.47040000  1.0
  H  H32  1  0.20610000  0.60407000  0.08148000  1.0
  H  H33  1  0.29390000  0.89592000  0.58149000  1.0
  H  H34  1  0.79391000  0.39592000  0.91852000  1.0
  H  H35  1  0.70610000  0.10409000  0.41851000  1.0
  H  H36  1  0.32538000  0.19803000  0.12018000  1.0
  H  H37  1  0.17463000  0.30197000  0.62019000  1.0
  H  H38  1  0.67464000  0.80197000  0.87982000  1.0
  H  H39  1  0.82535000  0.69803000  0.37982000  1.0
  H  H40  1  0.43852000  0.12283000  0.06661000  1.0
  H  H41  1  0.06149000  0.37716000  0.56661000  1.0
  H  H42  1  0.56149000  0.87716000  0.93339000  1.0
  H  H43  1  0.93849000  0.62285000  0.43339000  1.0
  H  H44  1  0.67298000  0.97450000  0.30392000  1.0
  H  H45  1  0.82701000  0.52552000  0.80392000  1.0
  H  H46  1  0.32699000  0.02551000  0.69608000  1.0
  H  H47  1  0.17301000  0.47448000  0.19608000  1.0
  H  H48  1  0.79000000  0.88303000  0.25216000  1.0
  H  H49  1  0.71000000  0.61699000  0.75216000  1.0
  H  H50  1  0.20999000  0.11697000  0.74784000  1.0
  H  H51  1  0.29001000  0.38301000  0.24784000  1.0
  H  H52  1  0.66504000  0.28659000  0.21236000  1.0
  H  H53  1  0.83494000  0.21343000  0.71236000  1.0
  H  H54  1  0.33496000  0.71341000  0.78764000  1.0
  H  H55  1  0.16505000  0.78658000  0.28764000  1.0
  H  H56  1  0.55201000  0.36344000  0.26582000  1.0
  H  H57  1  0.94797000  0.13658000  0.76582000  1.0
  H  H58  1  0.44798000  0.63657000  0.73418000  1.0
  H  H59  1  0.05203000  0.86342000  0.23418000  1.0
  H  H60  1  0.55959000  0.72547000  0.07499000  1.0
  H  H61  1  0.94038000  0.77452000  0.57499000  1.0
  H  H62  1  0.44041000  0.27453000  0.92501000  1.0
  H  H63  1  0.05960000  0.22547000  0.42500000  1.0
  H  H64  1  0.43949000  0.79453000  0.12798000  1.0
  H  H65  1  0.06050000  0.70547000  0.62798000  1.0
  H  H66  1  0.56051000  0.20548000  0.87201000  1.0
  H  H67  1  0.93949000  0.29452000  0.37201000  1.0
  H  H68  1  0.05259000  0.99765000  0.07556000  1.0
  H  H69  1  0.44740000  0.50234000  0.57556000  1.0
  H  H70  1  0.94741000  0.00234000  0.92444000  1.0
  H  H71  1  0.55260000  0.49766000  0.42444000  1.0
  H  H72  1  0.18636000  0.91344000  0.02504000  1.0
  H  H73  1  0.31361000  0.58655000  0.52504000  1.0
  H  H74  1  0.81363000  0.08654000  0.97496000  1.0
  H  H75  1  0.68639000  0.41346000  0.47496000  1.0
  H  H76  1  0.81290000  0.01001000  0.13607000  1.0
  H  H77  1  0.68710000  0.49000000  0.63607000  1.0
  H  H78  1  0.18712000  0.98998000  0.86393000  1.0
  H  H79  1  0.31289000  0.51001000  0.36393000  1.0
  H  H80  1  0.70090000  0.10491000  0.08416000  1.0
  H  H81  1  0.79909000  0.39510000  0.58416000  1.0
  H  H82  1  0.29910000  0.89509000  0.91584000  1.0
  H  H83  1  0.20090000  0.60491000  0.41584000  1.0
  H  H84  1  0.83405000  0.70521000  0.04276000  1.0
  H  H85  1  0.66592000  0.79479000  0.54275000  1.0
  H  H86  1  0.16594000  0.29479000  0.95724000  1.0
  H  H87  1  0.33408000  0.20521000  0.45724000  1.0
  H  H88  1  0.94210000  0.62495000  0.09639000  1.0
  H  H89  1  0.55788000  0.87505000  0.59639000  1.0
  H  H90  1  0.05791000  0.37504000  0.90361000  1.0
  H  H91  1  0.44211000  0.12496000  0.40361000  1.0
  H  H92  1  0.05344000  0.21889000  0.09407000  1.0
  H  H93  1  0.44657000  0.28110000  0.59407000  1.0
  H  H94  1  0.94658000  0.78111000  0.90593000  1.0
  H  H95  1  0.55343000  0.71889000  0.40593000  1.0
  H  H96  1  0.93585000  0.29646000  0.04122000  1.0
  H  H97  1  0.56415000  0.20354000  0.54122000  1.0
  H  H98  1  0.06417000  0.70353000  0.95879000  1.0
  H  H99  1  0.43584000  0.79648000  0.45878000  1.0
  H  H100  1  0.55388000  0.50567000  0.09412000  1.0
  H  H101  1  0.94612000  0.99431000  0.59412000  1.0
  H  H102  1  0.44614000  0.49432000  0.90588000  1.0
  H  H103  1  0.05387000  0.00568000  0.40588000  1.0
  H  H104  1  0.68369000  0.41248000  0.14436000  1.0
  H  H105  1  0.81632000  0.08751000  0.64436000  1.0
  H  H106  1  0.31633000  0.58751000  0.85564000  1.0
  H  H107  1  0.18368000  0.91249000  0.35564000  1.0
  C  C108  1  0.54775000  0.70890000  0.25749000  1.0
  C  C109  1  0.95225000  0.79110000  0.75749000  1.0
  C  C110  1  0.45226000  0.29110000  0.74251000  1.0
  C  C111  1  0.04774000  0.20890000  0.24251000  1.0
  C  C112  1  0.61348000  0.66774000  0.22817000  1.0
  C  C113  1  0.88652000  0.83226000  0.72817000  1.0
  C  C114  1  0.38653000  0.33226000  0.77183000  1.0
  C  C115  1  0.11347000  0.16774000  0.27183000  1.0
  C  C116  1  0.75577000  0.58576000  0.22776000  1.0
  C  C117  1  0.74422000  0.91423000  0.72776000  1.0
  C  C118  1  0.24424000  0.41423000  0.77224000  1.0
  C  C119  1  0.25577000  0.08577000  0.27224000  1.0
  C  C120  1  0.82758000  0.55305000  0.25721000  1.0
  C  C121  1  0.67241000  0.94694000  0.75721000  1.0
  C  C122  1  0.17243000  0.44696000  0.74279000  1.0
  C  C123  1  0.32757000  0.05306000  0.24279000  1.0
  C  C124  1  0.75544000  0.60180000  0.28540000  1.0
  C  C125  1  0.74454000  0.89819000  0.78540000  1.0
  C  C126  1  0.24457000  0.39821000  0.71460000  1.0
  C  C127  1  0.25543000  0.10180000  0.21460000  1.0
  C  C128  1  0.82448000  0.52980000  0.19652000  1.0
  C  C129  1  0.67552000  0.97019000  0.69652000  1.0
  C  C130  1  0.17553000  0.47019000  0.80349000  1.0
  C  C131  1  0.32448000  0.02981000  0.30349000  1.0
  C  C132  1  0.32154000  0.44700000  0.05017000  1.0
  C  C133  1  0.17847000  0.05299000  0.55017000  1.0
  C  C134  1  0.67847000  0.55299000  0.94983000  1.0
  C  C135  1  0.82153000  0.94703000  0.44983000  1.0
  C  C136  1  0.25684000  0.49676000  0.07902000  1.0
  C  C137  1  0.24316000  0.00323000  0.57902000  1.0
  C  C138  1  0.74317000  0.50323000  0.92098000  1.0
  C  C139  1  0.75684000  0.99678000  0.42098000  1.0
  C  C140  1  0.25696000  0.40730000  0.10485000  1.0
  C  C141  1  0.24305000  0.09269000  0.60485000  1.0
  C  C142  1  0.74305000  0.59268000  0.89515000  1.0
  C  C143  1  0.75695000  0.90732000  0.39515000  1.0
  C  C144  1  0.32564000  0.27070000  0.10067000  1.0
  C  C145  1  0.17437000  0.22930000  0.60068000  1.0
  C  C146  1  0.67437000  0.72929000  0.89933000  1.0
  C  C147  1  0.82563000  0.77071000  0.39933000  1.0
  C  C148  1  0.38692000  0.22888000  0.07099000  1.0
  C  C149  1  0.11309000  0.27111000  0.57099000  1.0
  C  C150  1  0.61309000  0.77110000  0.92901000  1.0
  C  C151  1  0.88690000  0.72890000  0.42901000  1.0
  C  C152  1  0.17965000  0.45557000  0.13583000  1.0
  C  C153  1  0.32035000  0.04442000  0.63583000  1.0
  C  C154  1  0.82035000  0.54441000  0.86417000  1.0
  C  C155  1  0.67964000  0.95559000  0.36417000  1.0
  C  C156  1  0.67401000  0.04110000  0.28314000  1.0
  C  C157  1  0.82598000  0.45892000  0.78314000  1.0
  C  C158  1  0.32598000  0.95891000  0.71686000  1.0
  C  C159  1  0.17402000  0.54108000  0.21686000  1.0
  C  C160  1  0.73830000  0.99023000  0.25434000  1.0
  C  C161  1  0.76169000  0.50980000  0.75433000  1.0
  C  C162  1  0.26168000  0.00978000  0.74566000  1.0
  C  C163  1  0.23831000  0.49021000  0.24567000  1.0
  C  C164  1  0.73595000  0.07826000  0.22817000  1.0
  C  C165  1  0.76404000  0.42176000  0.72817000  1.0
  C  C166  1  0.26404000  0.92175000  0.77183000  1.0
  C  C167  1  0.23595000  0.57824000  0.27183000  1.0
  C  C168  1  0.66635000  0.21477000  0.23208000  1.0
  C  C169  1  0.83363000  0.28526000  0.73208000  1.0
  C  C170  1  0.33364000  0.78524000  0.76792000  1.0
  C  C171  1  0.16636000  0.71475000  0.26792000  1.0
  C  C172  1  0.60519000  0.25764000  0.26171000  1.0
  C  C173  1  0.89479000  0.24238000  0.76171000  1.0
  C  C174  1  0.39480000  0.74237000  0.73829000  1.0
  C  C175  1  0.10520000  0.75763000  0.23829000  1.0
  C  C176  1  0.81048000  0.02872000  0.19699000  1.0
  C  C177  1  0.68952000  0.47130000  0.69699000  1.0
  C  C178  1  0.18952000  0.97129000  0.80301000  1.0
  C  C179  1  0.31048000  0.52870000  0.30301000  1.0
  C  C180  1  0.44720000  0.78568000  0.07637000  1.0
  C  C181  1  0.05279000  0.71431000  0.57637000  1.0
  C  C182  1  0.55281000  0.21432000  0.92363000  1.0
  C  C183  1  0.94721000  0.28568000  0.42362000  1.0
  C  C184  1  0.38002000  0.82458000  0.10569000  1.0
  C  C185  1  0.11997000  0.67541000  0.60569000  1.0
  C  C186  1  0.61998000  0.17542000  0.89431000  1.0
  C  C187  1  0.88003000  0.32457000  0.39431000  1.0
  C  C188  1  0.23637000  0.90415000  0.10610000  1.0
  C  C189  1  0.26363000  0.59584000  0.60609000  1.0
  C  C190  1  0.76364000  0.09585000  0.89390000  1.0
  C  C191  1  0.73638000  0.40415000  0.39390000  1.0
  C  C192  1  0.16507000  0.93715000  0.07661000  1.0
  C  C193  1  0.33492000  0.56285000  0.57661000  1.0
  C  C194  1  0.83493000  0.06285000  0.92339000  1.0
  C  C195  1  0.66508000  0.43715000  0.42339000  1.0
  C  C196  1  0.23879000  0.89083000  0.04841000  1.0
  C  C197  1  0.26119000  0.60916000  0.54841000  1.0
  C  C198  1  0.76121000  0.10916000  0.95159000  1.0
  C  C199  1  0.73881000  0.39084000  0.45159000  1.0
  C  C200  1  0.16586000  0.95752000  0.13739000  1.0
  C  C201  1  0.33414000  0.54249000  0.63739000  1.0
  C  C202  1  0.83415000  0.04250000  0.86261000  1.0
  C  C203  1  0.66586000  0.45751000  0.36261000  1.0
  C  C204  1  0.81430000  0.94495000  0.11495000  1.0
  C  C205  1  0.68570000  0.55506000  0.61495000  1.0
  C  C206  1  0.18571000  0.05505000  0.88505000  1.0
  C  C207  1  0.31429000  0.44495000  0.38505000  1.0
  C  C208  1  0.75291000  0.99770000  0.08605000  1.0
  C  C209  1  0.74709000  0.50230000  0.58605000  1.0
  C  C210  1  0.24710000  0.00230000  0.91395000  1.0
  C  C211  1  0.25291000  0.49770000  0.41395000  1.0
  C  C212  1  0.75847000  0.91181000  0.05936000  1.0
  C  C213  1  0.74153000  0.58818000  0.55935000  1.0
  C  C214  1  0.24153000  0.08818000  0.94064000  1.0
  C  C215  1  0.25848000  0.41182000  0.44064000  1.0
  C  C216  1  0.82929000  0.77551000  0.06287000  1.0
  C  C217  1  0.67069000  0.72449000  0.56287000  1.0
  C  C218  1  0.17071000  0.22449000  0.93712000  1.0
  C  C219  1  0.32931000  0.27551000  0.43713000  1.0
  C  C220  1  0.88778000  0.73066000  0.09263000  1.0
  C  C221  1  0.61221000  0.76935000  0.59262000  1.0
  C  C222  1  0.11223000  0.26934000  0.90737000  1.0
  C  C223  1  0.38778000  0.23066000  0.40737000  1.0
  C  C224  1  0.68595000  0.96503000  0.02819000  1.0
  C  C225  1  0.81404000  0.53497000  0.52818000  1.0
  C  C226  1  0.31404000  0.03496000  0.97182000  1.0
  C  C227  1  0.18595000  0.46503000  0.47182000  1.0
  C  C228  1  0.94275000  0.28243000  0.09279000  1.0
  C  C229  1  0.55726000  0.21757000  0.59280000  1.0
  C  C230  1  0.05727000  0.71757000  0.90721000  1.0
  C  C231  1  0.44274000  0.78244000  0.40721000  1.0
  C  C232  1  0.87752000  0.32636000  0.06364000  1.0
  C  C233  1  0.62248000  0.17363000  0.56364000  1.0
  C  C234  1  0.12249000  0.67362000  0.93636000  1.0
  C  C235  1  0.37751000  0.82638000  0.43636000  1.0
  C  C236  1  0.73613000  0.41002000  0.06349000  1.0
  C  C237  1  0.76388000  0.08997000  0.56349000  1.0
  C  C238  1  0.26388000  0.58996000  0.93651000  1.0
  C  C239  1  0.23613000  0.91004000  0.43651000  1.0
  C  C240  1  0.66487000  0.44242000  0.09297000  1.0
  C  C241  1  0.83514000  0.05756000  0.59297000  1.0
  C  C242  1  0.33515000  0.55756000  0.90703000  1.0
  C  C243  1  0.16486000  0.94244000  0.40703000  1.0
  C  C244  1  0.73649000  0.39075000  0.12101000  1.0
  C  C245  1  0.76352000  0.10924000  0.62101000  1.0
  C  C246  1  0.26353000  0.60924000  0.87899000  1.0
  C  C247  1  0.23648000  0.89076000  0.37899000  1.0
  C  C248  1  0.66724000  0.46344000  0.03213000  1.0
  C  C249  1  0.83276000  0.03655000  0.53213000  1.0
  C  C250  1  0.33276000  0.53654000  0.96787000  1.0
  C  C251  1  0.16724000  0.96346000  0.46787000  1.0
  N  N252  1  0.61645000  0.67712000  0.28584000  1.0
  N  N253  1  0.88353000  0.82288000  0.78584000  1.0
  N  N254  1  0.38356000  0.32289000  0.71416000  1.0
  N  N255  1  0.11645000  0.17712000  0.21416000  1.0
  N  N256  1  0.38528000  0.31496000  0.04596000  1.0
  N  N257  1  0.11473000  0.18502000  0.54597000  1.0
  N  N258  1  0.61472000  0.68502000  0.95404000  1.0
  N  N259  1  0.88527000  0.81499000  0.45403000  1.0
  N  N260  1  0.60827000  0.17282000  0.28701000  1.0
  N  N261  1  0.89172000  0.32721000  0.78701000  1.0
  N  N262  1  0.39172000  0.82720000  0.71298000  1.0
  N  N263  1  0.10828000  0.67280000  0.21299000  1.0
  N  N264  1  0.37891000  0.81766000  0.04798000  1.0
  N  N265  1  0.12107000  0.68234000  0.54798000  1.0
  N  N266  1  0.62109000  0.18233000  0.95202000  1.0
  N  N267  1  0.87893000  0.31766000  0.45201000  1.0
  N  N268  1  0.88078000  0.81317000  0.11845000  1.0
  N  N269  1  0.61922000  0.68683000  0.61845000  1.0
  N  N270  1  0.11923000  0.18683000  0.88155000  1.0
  N  N271  1  0.38078000  0.31317000  0.38155000  1.0
  N  N272  1  0.87423000  0.31328000  0.12120000  1.0
  N  N273  1  0.62578000  0.18671000  0.62120000  1.0
  N  N274  1  0.12579000  0.68671000  0.87880000  1.0
  N  N275  1  0.37422000  0.81329000  0.37880000  1.0
  O  O276  1  0.83099000  0.61132000  0.17342000  1.0
  O  O277  1  0.66902000  0.88868000  0.67342000  1.0
  O  O278  1  0.16901000  0.38868000  0.82658000  1.0
  O  O279  1  0.33099000  0.11132000  0.32658000  1.0
  O  O280  1  0.86630000  0.40076000  0.19593000  1.0
  O  O281  1  0.63371000  0.09925000  0.69593000  1.0
  O  O282  1  0.13372000  0.59926000  0.80407000  1.0
  O  O283  1  0.36628000  0.90075000  0.30407000  1.0
  O  O284  1  0.13695000  0.58346000  0.13900000  1.0
  O  O285  1  0.36306000  0.91654000  0.63900000  1.0
  O  O286  1  0.86304000  0.41654000  0.86100000  1.0
  O  O287  1  0.63695000  0.08347000  0.36100000  1.0
  O  O288  1  0.16338000  0.36399000  0.15632000  1.0
  O  O289  1  0.33663000  0.13601000  0.65632000  1.0
  O  O290  1  0.83664000  0.63601000  0.84368000  1.0
  O  O291  1  0.66336000  0.86400000  0.34368000  1.0
  O  O292  1  0.84668000  0.90037000  0.19336000  1.0
  O  O293  1  0.65333000  0.59963000  0.69335000  1.0
  O  O294  1  0.15332000  0.09963000  0.80664000  1.0
  O  O295  1  0.34667000  0.40037000  0.30664000  1.0
  O  O296  1  0.83043000  0.11981000  0.17667000  1.0
  O  O297  1  0.66957000  0.38020000  0.67667000  1.0
  O  O298  1  0.16957000  0.88020000  0.82333000  1.0
  O  O299  1  0.33044000  0.61980000  0.32333000  1.0
  O  O300  1  0.15457000  0.87380000  0.15975000  1.0
  O  O301  1  0.34544000  0.62619000  0.65974000  1.0
  O  O302  1  0.84544000  0.12619000  0.84025000  1.0
  O  O303  1  0.65457000  0.37381000  0.34025000  1.0
  O  O304  1  0.12784000  0.08682000  0.13877000  1.0
  O  O305  1  0.37217000  0.41317000  0.63876000  1.0
  O  O306  1  0.87217000  0.91317000  0.86123000  1.0
  O  O307  1  0.62783000  0.58683000  0.36123000  1.0
  O  O308  1  0.66266000  0.87863000  0.00711000  1.0
  O  O309  1  0.83733000  0.62137000  0.50711000  1.0
  O  O310  1  0.33733000  0.12136000  0.99289000  1.0
  O  O311  1  0.16267000  0.37863000  0.49289000  1.0
  O  O312  1  0.65412000  0.09439000  0.02556000  1.0
  O  O313  1  0.84590000  0.40561000  0.52556000  1.0
  O  O314  1  0.34587000  0.90559000  0.97444000  1.0
  O  O315  1  0.15411000  0.59440000  0.47444000  1.0
  O  O316  1  0.66293000  0.37671000  0.00994000  1.0
  O  O317  1  0.83709000  0.12328000  0.50994000  1.0
  O  O318  1  0.33707000  0.62329000  0.99006000  1.0
  O  O319  1  0.16291000  0.87671000  0.49006000  1.0
  O  O320  1  0.62354000  0.59164000  0.03018000  1.0
  O  O321  1  0.87644000  0.90835000  0.53018000  1.0
  O  O322  1  0.37645000  0.40835000  0.96983000  1.0
  O  O323  1  0.12357000  0.09165000  0.46983000  1.0
