# generated using pymatgen
data_HgH14C14N4Cl2O
_symmetry_space_group_name_H-M   'P 1'
_cell_length_a   7.72676000
_cell_length_b   9.98316316
_cell_length_c   12.42320000
_cell_angle_alpha   73.17635519
_cell_angle_beta   87.97430000
_cell_angle_gamma   69.41915018
_symmetry_Int_Tables_number   1
_chemical_formula_structural   HgH14C14N4Cl2O
_chemical_formula_sum   'Hg2 H28 C28 N8 Cl4 O2'
_cell_volume   856.37602423
_cell_formula_units_Z   2
loop_
 _symmetry_equiv_pos_site_id
 _symmetry_equiv_pos_as_xyz
  1  'x, y, z'
loop_
 _atom_site_type_symbol
 _atom_site_label
 _atom_site_symmetry_multiplicity
 _atom_site_fract_x
 _atom_site_fract_y
 _atom_site_fract_z
 _atom_site_occupancy
  Hg  Hg0  1  0.76070000  0.84894000  0.99668000  1.0
  Hg  Hg1  1  0.23932000  0.15104000  0.00332000  1.0
  H  H2  1  0.71343000  0.35364000  0.00632000  1.0
  H  H3  1  0.28658000  0.64634000  0.99368000  1.0
  H  H4  1  0.57377000  0.58514000  0.06506000  1.0
  H  H5  1  0.42622000  0.41485000  0.93493000  1.0
  H  H6  1  0.64914000  0.58445000  0.25795000  1.0
  H  H7  1  0.35085000  0.41557000  0.74202000  1.0
  H  H8  1  0.85957000  0.35399000  0.39138000  1.0
  H  H9  1  0.14042000  0.64605000  0.60860000  1.0
  H  H10  1  0.22312000  0.27160000  0.53089000  1.0
  H  H11  1  0.77691000  0.72840000  0.46911000  1.0
  H  H12  1  0.42553000  0.19341000  0.62263000  1.0
  H  H13  1  0.57450000  0.80658000  0.37738000  1.0
  H  H14  1  0.20879000  0.19735000  0.67760000  1.0
  H  H15  1  0.79123000  0.80266000  0.32240000  1.0
  H  H16  1  0.46888000  0.73688000  0.59138000  1.0
  H  H17  1  0.53112000  0.26313000  0.40862000  1.0
  H  H18  1  0.71230000  0.52237000  0.73213000  1.0
  H  H19  1  0.28769000  0.47763000  0.26787000  1.0
  H  H20  1  0.83768000  0.57250000  0.89185000  1.0
  H  H21  1  0.16231000  0.42750000  0.10814000  1.0
  H  H22  1  0.49943000  0.02078000  0.78867000  1.0
  H  H23  1  0.50057000  0.97921000  0.21134000  1.0
  H  H24  1  0.87066000  0.09711000  0.06072000  1.0
  H  H25  1  0.12936000  0.90288000  0.93928000  1.0
  H  H26  1  0.00722000  0.99830000  0.18651000  1.0
  H  H27  1  0.99279000  0.00169000  0.81350000  1.0
  H  H28  1  0.09273000  0.21531000  0.44430000  1.0
  H  H29  1  0.90725000  0.78470000  0.55572000  1.0
  C  C30  1  0.86907000  0.22130000  0.16485000  1.0
  C  C31  1  0.13094000  0.77869000  0.83515000  1.0
  C  C32  1  0.74569000  0.35490000  0.09069000  1.0
  C  C33  1  0.25431000  0.64509000  0.90931000  1.0
  C  C34  1  0.66955000  0.48353000  0.12342000  1.0
  C  C35  1  0.33044000  0.51647000  0.87656000  1.0
  C  C36  1  0.71185000  0.48354000  0.23220000  1.0
  C  C37  1  0.28813000  0.51647000  0.76779000  1.0
  C  C38  1  0.83367000  0.35349000  0.30570000  1.0
  C  C39  1  0.16631000  0.64653000  0.69429000  1.0
  C  C40  1  0.91766000  0.22115000  0.27436000  1.0
  C  C41  1  0.08233000  0.77886000  0.72564000  1.0
  C  C42  1  0.05507000  0.08428000  0.35109000  1.0
  C  C43  1  0.94491000  0.91573000  0.64891000  1.0
  C  C44  1  0.29430000  0.18028000  0.60642000  1.0
  C  C45  1  0.70571000  0.81973000  0.39358000  1.0
  C  C46  1  0.33191000  0.02744000  0.59414000  1.0
  C  C47  1  0.66808000  0.97257000  0.40587000  1.0
  C  C48  1  0.46666000  0.89731000  0.67612000  1.0
  C  C49  1  0.53333000  0.10270000  0.32388000  1.0
  C  C50  1  0.52779000  0.75300000  0.66289000  1.0
  C  C51  1  0.47220000  0.24701000  0.33711000  1.0
  C  C52  1  0.66113000  0.63540000  0.73994000  1.0
  C  C53  1  0.33887000  0.36460000  0.26006000  1.0
  C  C54  1  0.73086000  0.66167000  0.83072000  1.0
  C  C55  1  0.26913000  0.33833000  0.16928000  1.0
  C  C56  1  0.54056000  0.91367000  0.77073000  1.0
  C  C57  1  0.45943000  0.08633000  0.22928000  1.0
  N  N58  1  0.94640000  0.09839000  0.12582000  1.0
  N  N59  1  0.05361000  0.90160000  0.87419000  1.0
  N  N60  1  0.13151000  0.10867000  0.43970000  1.0
  N  N61  1  0.86848000  0.89134000  0.56031000  1.0
  N  N62  1  0.25753000  0.99629000  0.51659000  1.0
  N  N63  1  0.74245000  0.00372000  0.48342000  1.0
  N  N64  1  0.66830000  0.79853000  0.84547000  1.0
  N  N65  1  0.33169000  0.20147000  0.15453000  1.0
  Cl  Cl66  1  0.97584000  0.72663000  0.15991000  1.0
  Cl  Cl67  1  0.02417000  0.27336000  0.84009000  1.0
  Cl  Cl68  1  0.60321000  0.13824000  0.92652000  1.0
  Cl  Cl69  1  0.39680000  0.86174000  0.07348000  1.0
  O  O70  1  0.10461000  0.95797000  0.33775000  1.0
  O  O71  1  0.89535000  0.04205000  0.66226000  1.0
