# generated using pymatgen
data_CdH4(CO3)2
_symmetry_space_group_name_H-M   'P 1'
_cell_length_a   6.05466000
_cell_length_b   6.41102000
_cell_length_c   8.86969000
_cell_angle_alpha   74.80750000
_cell_angle_beta   73.21420000
_cell_angle_gamma   79.40630000
_symmetry_Int_Tables_number   1
_chemical_formula_structural   CdH4(CO3)2
_chemical_formula_sum   'Cd2 H8 C4 O12'
_cell_volume   315.91368017
_cell_formula_units_Z   2
loop_
 _symmetry_equiv_pos_site_id
 _symmetry_equiv_pos_as_xyz
  1  'x, y, z'
loop_
 _atom_site_type_symbol
 _atom_site_label
 _atom_site_symmetry_multiplicity
 _atom_site_fract_x
 _atom_site_fract_y
 _atom_site_fract_z
 _atom_site_occupancy
  Cd  Cd0  1  0.04004000  0.31376000  0.70844000  1.0
  Cd  Cd1  1  0.95996000  0.68623000  0.29157000  1.0
  H  H2  1  0.09698000  0.86368000  0.68159000  1.0
  H  H3  1  0.90300000  0.13633000  0.31841000  1.0
  H  H4  1  0.33706000  0.95739000  0.64165000  1.0
  H  H5  1  0.66293000  0.04262000  0.35834000  1.0
  H  H6  1  0.76625000  0.01060000  0.93322000  1.0
  H  H7  1  0.23376000  0.98938000  0.06679000  1.0
  H  H8  1  0.60741000  0.17386000  0.82113000  1.0
  H  H9  1  0.39257000  0.82613000  0.17888000  1.0
  C  C10  1  0.96244000  0.61431000  0.95025000  1.0
  C  C11  1  0.03757000  0.38569000  0.04974000  1.0
  C  C12  1  0.43335000  0.57479000  0.43842000  1.0
  C  C13  1  0.56667000  0.42519000  0.56158000  1.0
  O  O14  1  0.98603000  0.63402000  0.79968000  1.0
  O  O15  1  0.01396000  0.36600000  0.20031000  1.0
  O  O16  1  0.88477000  0.76594000  0.02426000  1.0
  O  O17  1  0.11523000  0.23409000  0.97573000  1.0
  O  O18  1  0.22743000  0.53685000  0.45678000  1.0
  O  O19  1  0.77257000  0.46312000  0.54322000  1.0
  O  O20  1  0.53878000  0.72005000  0.33027000  1.0
  O  O21  1  0.46122000  0.27992000  0.66974000  1.0
  O  O22  1  0.18468000  0.99084000  0.61884000  1.0
  O  O23  1  0.81532000  0.00919000  0.38114000  1.0
  O  O24  1  0.71908000  0.16608000  0.88584000  1.0
  O  O25  1  0.28091000  0.83395000  0.11418000  1.0
