# generated using pymatgen
data_DyH5C6(NO4)2
_symmetry_space_group_name_H-M   'P 1'
_cell_length_a   6.81741000
_cell_length_b   11.50011249
_cell_length_c   14.22300000
_cell_angle_alpha   109.61982820
_cell_angle_beta   90.00450000
_cell_angle_gamma   107.21382915
_symmetry_Int_Tables_number   1
_chemical_formula_structural   DyH5C6(NO4)2
_chemical_formula_sum   'Dy4 H20 C24 N8 O32'
_cell_volume   997.16010724
_cell_formula_units_Z   4
loop_
 _symmetry_equiv_pos_site_id
 _symmetry_equiv_pos_as_xyz
  1  'x, y, z'
loop_
 _atom_site_type_symbol
 _atom_site_label
 _atom_site_symmetry_multiplicity
 _atom_site_fract_x
 _atom_site_fract_y
 _atom_site_fract_z
 _atom_site_occupancy
  Dy  Dy0  1  0.30455000  0.76910000  0.80518000  1.0
  Dy  Dy1  1  0.53576000  0.23116000  0.69489000  1.0
  Dy  Dy2  1  0.69543000  0.23090000  0.19482000  1.0
  Dy  Dy3  1  0.46425000  0.76884000  0.30511000  1.0
  H  H4  1  0.23957000  0.65339000  0.50693000  1.0
  H  H5  1  0.58614000  0.34721000  0.99319000  1.0
  H  H6  1  0.76043000  0.34661000  0.49307000  1.0
  H  H7  1  0.41384000  0.65280000  0.00681000  1.0
  H  H8  1  0.02811000  0.80120000  0.65594000  1.0
  H  H9  1  0.22735000  0.19897000  0.84407000  1.0
  H  H10  1  0.97189000  0.19881000  0.34406000  1.0
  H  H11  1  0.77264000  0.80103000  0.15592000  1.0
  H  H12  1  0.24417000  0.90507000  0.66386000  1.0
  H  H13  1  0.33967000  0.09513000  0.83617000  1.0
  H  H14  1  0.75583000  0.09492000  0.33613000  1.0
  H  H15  1  0.66033000  0.90488000  0.16382000  1.0
  H  H16  1  0.69603000  0.83468000  0.69358000  1.0
  H  H17  1  0.86203000  0.16533000  0.80627000  1.0
  H  H18  1  0.30397000  0.16532000  0.30642000  1.0
  H  H19  1  0.13797000  0.83466000  0.19372000  1.0
  H  H20  1  0.73859000  0.91377000  0.81141000  1.0
  H  H21  1  0.82510000  0.08624000  0.68845000  1.0
  H  H22  1  0.26140000  0.08622000  0.18860000  1.0
  H  H23  1  0.17488000  0.91374000  0.31155000  1.0
  C  C24  1  0.25793000  0.57929000  0.53461000  1.0
  C  C25  1  0.67865000  0.42128000  0.96552000  1.0
  C  C26  1  0.74206000  0.42071000  0.46539000  1.0
  C  C27  1  0.32135000  0.57873000  0.03448000  1.0
  C  C28  1  0.31198000  0.48935000  0.63807000  1.0
  C  C29  1  0.82261000  0.51113000  0.86206000  1.0
  C  C30  1  0.68802000  0.51065000  0.36194000  1.0
  C  C31  1  0.17741000  0.48887000  0.13794000  1.0
  C  C32  1  0.26558000  0.39454000  0.53412000  1.0
  C  C33  1  0.87095000  0.60600000  0.96601000  1.0
  C  C34  1  0.73442000  0.60545000  0.46588000  1.0
  C  C35  1  0.12907000  0.39400000  0.03398000  1.0
  C  C36  1  0.26612000  0.25672000  0.49424000  1.0
  C  C37  1  0.00933000  0.74377000  0.00591000  1.0
  C  C38  1  0.73389000  0.74328000  0.50576000  1.0
  C  C39  1  0.99068000  0.25623000  0.99408000  1.0
  C  C40  1  0.34928000  0.48082000  0.73886000  1.0
  C  C41  1  0.86829000  0.51957000  0.76123000  1.0
  C  C42  1  0.65073000  0.51919000  0.26115000  1.0
  C  C43  1  0.13173000  0.48044000  0.23877000  1.0
  C  C44  1  0.55462000  0.95828000  0.01643000  1.0
  C  C45  1  0.59626000  0.04166000  0.48349000  1.0
  C  C46  1  0.44535000  0.04172000  0.98356000  1.0
  C  C47  1  0.40375000  0.95832000  0.51650000  1.0
  N  N48  1  0.30647000  0.60280000  0.63443000  1.0
  N  N49  1  0.70372000  0.39772000  0.86571000  1.0
  N  N50  1  0.69353000  0.39720000  0.36557000  1.0
  N  N51  1  0.29629000  0.60228000  0.13429000  1.0
  N  N52  1  0.23554000  0.45512000  0.47276000  1.0
  N  N53  1  0.78035000  0.54544000  0.02738000  1.0
  N  N54  1  0.76446000  0.54488000  0.52724000  1.0
  N  N55  1  0.21967000  0.45457000  0.97262000  1.0
  O  O56  1  0.35020000  0.37447000  0.74555000  1.0
  O  O57  1  0.97602000  0.62578000  0.75454000  1.0
  O  O58  1  0.64983000  0.62554000  0.25446000  1.0
  O  O59  1  0.02398000  0.37423000  0.24546000  1.0
  O  O60  1  0.37529000  0.58621000  0.81295000  1.0
  O  O61  1  0.78842000  0.41427000  0.68715000  1.0
  O  O62  1  0.62471000  0.41379000  0.18705000  1.0
  O  O63  1  0.21157000  0.58573000  0.31285000  1.0
  O  O64  1  0.36139000  0.21939000  0.54902000  1.0
  O  O65  1  0.14213000  0.78091000  0.95117000  1.0
  O  O66  1  0.63865000  0.78062000  0.45098000  1.0
  O  O67  1  0.85786000  0.21910000  0.04882000  1.0
  O  O68  1  0.17953000  0.18642000  0.40626000  1.0
  O  O69  1  0.99292000  0.81413000  0.09387000  1.0
  O  O70  1  0.82046000  0.81358000  0.59375000  1.0
  O  O71  1  0.00710000  0.18587000  0.90613000  1.0
  O  O72  1  0.55919000  0.85341000  0.95175000  1.0
  O  O73  1  0.70566000  0.14658000  0.54813000  1.0
  O  O74  1  0.44078000  0.14660000  0.04826000  1.0
  O  O75  1  0.29436000  0.85342000  0.45186000  1.0
  O  O76  1  0.63095000  0.00484000  0.10829000  1.0
  O  O77  1  0.62593000  0.99499000  0.39163000  1.0
  O  O78  1  0.36902000  0.99516000  0.89171000  1.0
  O  O79  1  0.37410000  0.00500000  0.60836000  1.0
  O  O80  1  0.16879000  0.83857000  0.69314000  1.0
  O  O81  1  0.33098000  0.16176000  0.80698000  1.0
  O  O82  1  0.83119000  0.16142000  0.30686000  1.0
  O  O83  1  0.66901000  0.83824000  0.19301000  1.0
  O  O84  1  0.63111000  0.85287000  0.75773000  1.0
  O  O85  1  0.77939000  0.14769000  0.74213000  1.0
  O  O86  1  0.36889000  0.14713000  0.24227000  1.0
  O  O87  1  0.22060000  0.85230000  0.25787000  1.0
