# generated using pymatgen
data_PrH7C8SO9
_symmetry_space_group_name_H-M   'P 1'
_cell_length_a   6.41880000
_cell_length_b   8.80475000
_cell_length_c   10.74760000
_cell_angle_alpha   91.00540000
_cell_angle_beta   99.62750000
_cell_angle_gamma   107.68600000
_symmetry_Int_Tables_number   1
_chemical_formula_structural   PrH7C8SO9
_chemical_formula_sum   'Pr2 H14 C16 S2 O18'
_cell_volume   569.03858044
_cell_formula_units_Z   2
loop_
 _symmetry_equiv_pos_site_id
 _symmetry_equiv_pos_as_xyz
  1  'x, y, z'
loop_
 _atom_site_type_symbol
 _atom_site_label
 _atom_site_symmetry_multiplicity
 _atom_site_fract_x
 _atom_site_fract_y
 _atom_site_fract_z
 _atom_site_occupancy
  Pr  Pr0  1  0.14668000  0.23794000  0.61087000  1.0
  Pr  Pr1  1  0.85332000  0.76206000  0.38913000  1.0
  H  H2  1  0.61856000  0.41018000  0.14153000  1.0
  H  H3  1  0.38144000  0.58982000  0.85847000  1.0
  H  H4  1  0.65556000  0.35767000  0.91975000  1.0
  H  H5  1  0.34444000  0.64233000  0.08025000  1.0
  H  H6  1  0.17068000  0.15088000  0.05648000  1.0
  H  H7  1  0.82932000  0.84912000  0.94352000  1.0
  H  H8  1  0.53881000  0.08428000  0.67963000  1.0
  H  H9  1  0.46119000  0.91572000  0.32037000  1.0
  H  H10  1  0.31979000  0.94848000  0.61311000  1.0
  H  H11  1  0.68021000  0.05152000  0.38689000  1.0
  H  H12  1  0.65667000  0.35005000  0.71553000  1.0
  H  H13  1  0.34333000  0.64995000  0.28447000  1.0
  H  H14  1  0.59038000  0.49954000  0.65818000  1.0
  H  H15  1  0.40962000  0.50046000  0.34181000  1.0
  C  C16  1  0.01629000  0.22655000  0.19880000  1.0
  C  C17  1  0.98371000  0.77345000  0.80120000  1.0
  C  C18  1  0.86416000  0.30440000  0.22455000  1.0
  C  C19  1  0.13584000  0.69560000  0.77545000  1.0
  C  C20  1  0.73568000  0.34958000  0.12183000  1.0
  C  C21  1  0.26432000  0.65042000  0.87817000  1.0
  C  C22  1  0.75729000  0.32054000  0.99751000  1.0
  C  C23  1  0.24271000  0.67946000  0.00249000  1.0
  C  C24  1  0.91622000  0.24974000  0.97389000  1.0
  C  C25  1  0.08378000  0.75026000  0.02611000  1.0
  C  C26  1  0.04401000  0.20241000  0.07511000  1.0
  C  C27  1  0.95599000  0.79759000  0.92489000  1.0
  C  C28  1  0.83935000  0.34860000  0.35629000  1.0
  C  C29  1  0.16065000  0.65139000  0.64372000  1.0
  C  C30  1  0.97104000  0.23300000  0.84574000  1.0
  C  C31  1  0.02897000  0.76700000  0.15426000  1.0
  S  S32  1  0.20971000  0.17637000  0.31795000  1.0
  S  S33  1  0.79029000  0.82363000  0.68205000  1.0
  O  O34  1  0.08934000  0.04694000  0.39165000  1.0
  O  O35  1  0.91066000  0.95306000  0.60835000  1.0
  O  O36  1  0.30902000  0.32109000  0.40794000  1.0
  O  O37  1  0.69098000  0.67891000  0.59206000  1.0
  O  O38  1  0.36469000  0.13189000  0.25327000  1.0
  O  O39  1  0.63531000  0.86811000  0.74673000  1.0
  O  O40  1  0.83837000  0.24801000  0.44071000  1.0
  O  O41  1  0.16162000  0.75199000  0.55929000  1.0
  O  O42  1  0.82049000  0.48483000  0.37560000  1.0
  O  O43  1  0.17951000  0.51517000  0.62440000  1.0
  O  O44  1  0.15186000  0.20429000  0.83896000  1.0
  O  O45  1  0.84814000  0.79571000  0.16104000  1.0
  O  O46  1  0.84376000  0.25069000  0.74442000  1.0
  O  O47  1  0.15624000  0.74931000  0.25558000  1.0
  O  O48  1  0.38629000  0.06528000  0.63498000  1.0
  O  O49  1  0.61371000  0.93472000  0.36502000  1.0
  O  O50  1  0.53458000  0.39933000  0.69970000  1.0
  O  O51  1  0.46543000  0.60067000  0.30029000  1.0
