# generated using pymatgen
data_VH4C8O5
_symmetry_space_group_name_H-M   'P 1'
_cell_length_a   6.83853000
_cell_length_b   21.10960000
_cell_length_c   21.13650000
_cell_angle_alpha   60.34400000
_cell_angle_beta   89.99700000
_cell_angle_gamma   89.98670000
_symmetry_Int_Tables_number   1
_chemical_formula_structural   VH4C8O5
_chemical_formula_sum   'V6 H24 C48 O30'
_cell_volume   2651.56004908
_cell_formula_units_Z   6
loop_
 _symmetry_equiv_pos_site_id
 _symmetry_equiv_pos_as_xyz
  1  'x, y, z'
loop_
 _atom_site_type_symbol
 _atom_site_label
 _atom_site_symmetry_multiplicity
 _atom_site_fract_x
 _atom_site_fract_y
 _atom_site_fract_z
 _atom_site_occupancy
  V  V0  1  0.53661000  0.00417000  0.00346000  1.0
  V  V1  1  0.03667000  0.99585000  0.99650000  1.0
  V  V2  1  0.45834000  0.00775000  0.50005000  1.0
  V  V3  1  0.95832000  0.99225000  0.49994000  1.0
  V  V4  1  0.03679000  0.50026000  0.00758000  1.0
  V  V5  1  0.53675000  0.49974000  0.99247000  1.0
  H  H6  1  0.56005000  0.79468000  0.67396000  1.0
  H  H7  1  0.93204000  0.79159000  0.67666000  1.0
  H  H8  1  0.06480000  0.32393000  0.20791000  1.0
  H  H9  1  0.56511000  0.67599000  0.79211000  1.0
  H  H10  1  0.43168000  0.20848000  0.32333000  1.0
  H  H11  1  0.05971000  0.20524000  0.32608000  1.0
  H  H12  1  0.93695000  0.67352000  0.79546000  1.0
  H  H13  1  0.43664000  0.32656000  0.20453000  1.0
  H  H14  1  0.93224000  0.96632000  0.32353000  1.0
  H  H15  1  0.56027000  0.96782000  0.32586000  1.0
  H  H16  1  0.43462000  0.67606000  0.03087000  1.0
  H  H17  1  0.93476000  0.32400000  0.96917000  1.0
  H  H18  1  0.06005000  0.03216000  0.67410000  1.0
  H  H19  1  0.43200000  0.03362000  0.67650000  1.0
  H  H20  1  0.56295000  0.32586000  0.96541000  1.0
  H  H21  1  0.06281000  0.67408000  0.03458000  1.0
  H  H22  1  0.93731000  0.96216000  0.20662000  1.0
  H  H23  1  0.56551000  0.96312000  0.20925000  1.0
  H  H24  1  0.43481000  0.79298000  0.03546000  1.0
  H  H25  1  0.93484000  0.20710000  0.96455000  1.0
  H  H26  1  0.06527000  0.03686000  0.79073000  1.0
  H  H27  1  0.43708000  0.03777000  0.79343000  1.0
  H  H28  1  0.56305000  0.20895000  0.96132000  1.0
  H  H29  1  0.06302000  0.79101000  0.03863000  1.0
  C  C30  1  0.24567000  0.80018000  0.66920000  1.0
  C  C31  1  0.75104000  0.33139000  0.19913000  1.0
  C  C32  1  0.25135000  0.66860000  0.80088000  1.0
  C  C33  1  0.74532000  0.19983000  0.33082000  1.0
  C  C34  1  0.42486000  0.76740000  0.70091000  1.0
  C  C35  1  0.06947000  0.76561000  0.70253000  1.0
  C  C36  1  0.92727000  0.29809000  0.23380000  1.0
  C  C37  1  0.42760000  0.70186000  0.76622000  1.0
  C  C38  1  0.56914000  0.23444000  0.29748000  1.0
  C  C39  1  0.92452000  0.23257000  0.29911000  1.0
  C  C40  1  0.07218000  0.70037000  0.76811000  1.0
  C  C41  1  0.57186000  0.29968000  0.23188000  1.0
  C  C42  1  0.24130000  0.97579000  0.39689000  1.0
  C  C43  1  0.75248000  0.60273000  0.02416000  1.0
  C  C44  1  0.25266000  0.39726000  0.97588000  1.0
  C  C45  1  0.74113000  0.02421000  0.60309000  1.0
  C  C46  1  0.24129000  0.87314000  0.60241000  1.0
  C  C47  1  0.75520000  0.39802000  0.12630000  1.0
  C  C48  1  0.25532000  0.60197000  0.87372000  1.0
  C  C49  1  0.74104000  0.12688000  0.39760000  1.0
  C  C50  1  0.06970000  0.96513000  0.29811000  1.0
  C  C51  1  0.42518000  0.96603000  0.29948000  1.0
  C  C52  1  0.57102000  0.70153000  0.03315000  1.0
  C  C53  1  0.07113000  0.29851000  0.96687000  1.0
  C  C54  1  0.92496000  0.03395000  0.70050000  1.0
  C  C55  1  0.56943000  0.03481000  0.70192000  1.0
  C  C56  1  0.42668000  0.29958000  0.96467000  1.0
  C  C57  1  0.92654000  0.70040000  0.03531000  1.0
  C  C58  1  0.24581000  0.96787000  0.33082000  1.0
  C  C59  1  0.74887000  0.66882000  0.03204000  1.0
  C  C60  1  0.24901000  0.33119000  0.96797000  1.0
  C  C61  1  0.74559000  0.03210000  0.66918000  1.0
  C  C62  1  0.25574000  0.96738000  0.12892000  1.0
  C  C63  1  0.75288000  0.87106000  0.03246000  1.0
  C  C64  1  0.25289000  0.12896000  0.96752000  1.0
  C  C65  1  0.75576000  0.03263000  0.87105000  1.0
  C  C66  1  0.25176000  0.96259000  0.20137000  1.0
  C  C67  1  0.74907000  0.79855000  0.03715000  1.0
  C  C68  1  0.24911000  0.20148000  0.96284000  1.0
  C  C69  1  0.75153000  0.03737000  0.79862000  1.0
  C  C70  1  0.07241000  0.96262000  0.23368000  1.0
  C  C71  1  0.42801000  0.96330000  0.23517000  1.0
  C  C72  1  0.57108000  0.76604000  0.03583000  1.0
  C  C73  1  0.07113000  0.23401000  0.96417000  1.0
  C  C74  1  0.92782000  0.03667000  0.76481000  1.0
  C  C75  1  0.57220000  0.03731000  0.76635000  1.0
  C  C76  1  0.42669000  0.23513000  0.96225000  1.0
  C  C77  1  0.92666000  0.76486000  0.03772000  1.0
  O  O78  1  0.40499000  0.90527000  0.57768000  1.0
  O  O79  1  0.07348000  0.89899000  0.57564000  1.0
  O  O80  1  0.92283000  0.42477000  0.10003000  1.0
  O  O81  1  0.42292000  0.57518000  0.90003000  1.0
  O  O82  1  0.57326000  0.10101000  0.42435000  1.0
  O  O83  1  0.90481000  0.09476000  0.42234000  1.0
  O  O84  1  0.09159000  0.57704000  0.90595000  1.0
  O  O85  1  0.59150000  0.42300000  0.09402000  1.0
  O  O86  1  0.42353000  0.97218000  0.10026000  1.0
  O  O87  1  0.09192000  0.96893000  0.09880000  1.0
  O  O88  1  0.92093000  0.89931000  0.02850000  1.0
  O  O89  1  0.42101000  0.10080000  0.97122000  1.0
  O  O90  1  0.59190000  0.03082000  0.90131000  1.0
  O  O91  1  0.92356000  0.02816000  0.89955000  1.0
  O  O92  1  0.08929000  0.09838000  0.96995000  1.0
  O  O93  1  0.58924000  0.90157000  0.03027000  1.0
  O  O94  1  0.40498000  0.98366000  0.42149000  1.0
  O  O95  1  0.07335000  0.97547000  0.42342000  1.0
  O  O96  1  0.92036000  0.57626000  0.02392000  1.0
  O  O97  1  0.42052000  0.42371000  0.97612000  1.0
  O  O98  1  0.57325000  0.02456000  0.57654000  1.0
  O  O99  1  0.90489000  0.01633000  0.57852000  1.0
  O  O100  1  0.08912000  0.42229000  0.98343000  1.0
  O  O101  1  0.58896000  0.57771000  0.01662000  1.0
  O  O102  1  0.75959000  0.02070000  0.02059000  1.0
  O  O103  1  0.25968000  0.97933000  0.97934000  1.0
  O  O104  1  0.73297000  0.96462000  0.49967000  1.0
  O  O105  1  0.26113000  0.50033000  0.03569000  1.0
  O  O106  1  0.76110000  0.49968000  0.96435000  1.0
  O  O107  1  0.23295000  0.03536000  0.50032000  1.0
