# generated using pymatgen
data_Na2H18C14S2Br2N2Cl2O7
_symmetry_space_group_name_H-M   'P 1'
_cell_length_a   6.33242000
_cell_length_b   6.33181000
_cell_length_c   30.71859339
_cell_angle_alpha   93.62926782
_cell_angle_beta   92.90024630
_cell_angle_gamma   116.65900000
_symmetry_Int_Tables_number   1
_chemical_formula_structural   Na2H18C14S2Br2N2Cl2O7
_chemical_formula_sum   'Na4 H36 C28 S4 Br4 N4 Cl4 O14'
_cell_volume   1094.22082411
_cell_formula_units_Z   2
loop_
 _symmetry_equiv_pos_site_id
 _symmetry_equiv_pos_as_xyz
  1  'x, y, z'
loop_
 _atom_site_type_symbol
 _atom_site_label
 _atom_site_symmetry_multiplicity
 _atom_site_fract_x
 _atom_site_fract_y
 _atom_site_fract_z
 _atom_site_occupancy
  Na  Na0  1  0.65707000  0.20493000  0.73659000  1.0
  Na  Na1  1  0.96849000  0.92037000  0.76332000  1.0
  Na  Na2  1  0.34292000  0.79505000  0.26341000  1.0
  Na  Na3  1  0.03152000  0.07962000  0.23668000  1.0
  H  H4  1  0.57869000  0.94583000  0.52763000  1.0
  H  H5  1  0.91863000  0.05116000  0.97228000  1.0
  H  H6  1  0.42130000  0.05416000  0.47237000  1.0
  H  H7  1  0.08138000  0.94887000  0.02772000  1.0
  H  H8  1  0.92227000  0.49620000  0.53966000  1.0
  H  H9  1  0.45711000  0.38290000  0.96024000  1.0
  H  H10  1  0.07772000  0.50380000  0.46034000  1.0
  H  H11  1  0.54287000  0.61711000  0.03976000  1.0
  H  H12  1  0.82799000  0.46005000  0.61717000  1.0
  H  H13  1  0.34358000  0.21122000  0.88270000  1.0
  H  H14  1  0.17200000  0.53993000  0.38282000  1.0
  H  H15  1  0.65640000  0.78878000  0.11730000  1.0
  H  H16  1  0.40998000  0.04641000  0.58364000  1.0
  H  H17  1  0.96336000  0.82659000  0.91621000  1.0
  H  H18  1  0.59001000  0.95358000  0.41636000  1.0
  H  H19  1  0.03667000  0.17345000  0.08379000  1.0
  H  H20  1  0.53564000  0.06636000  0.63773000  1.0
  H  H21  1  0.92917000  0.89847000  0.86216000  1.0
  H  H22  1  0.46436000  0.93364000  0.36227000  1.0
  H  H23  1  0.07084000  0.10157000  0.13784000  1.0
  H  H24  1  0.26921000  0.81476000  0.61780000  1.0
  H  H25  1  0.69762000  0.65176000  0.88201000  1.0
  H  H26  1  0.73078000  0.18523000  0.38220000  1.0
  H  H27  1  0.30241000  0.34829000  0.11800000  1.0
  H  H28  1  0.59625000  0.54763000  0.80357000  1.0
  H  H29  1  0.24423000  0.79249000  0.69635000  1.0
  H  H30  1  0.40376000  0.45237000  0.19643000  1.0
  H  H31  1  0.75577000  0.20749000  0.30365000  1.0
  H  H32  1  0.82099000  0.50788000  0.81267000  1.0
  H  H33  1  0.19535000  0.00815000  0.68725000  1.0
  H  H34  1  0.17901000  0.49211000  0.18733000  1.0
  H  H35  1  0.80464000  0.99183000  0.31275000  1.0
  H  H36  1  0.17111000  0.41014000  0.72458000  1.0
  H  H37  1  0.18549000  0.44652000  0.77534000  1.0
  H  H38  1  0.82888000  0.58983000  0.27541000  1.0
  H  H39  1  0.81452000  0.55347000  0.22466000  1.0
  C  C40  1  0.65059000  0.68053000  0.61591000  1.0
  C  C41  1  0.56507000  0.03478000  0.88398000  1.0
  C  C42  1  0.34942000  0.31945000  0.38409000  1.0
  C  C43  1  0.43494000  0.96525000  0.11602000  1.0
  C  C44  1  0.57797000  0.82108000  0.59113000  1.0
  C  C45  1  0.73055000  0.98711000  0.90875000  1.0
  C  C46  1  0.42203000  0.17892000  0.40887000  1.0
  C  C47  1  0.26944000  0.01290000  0.09125000  1.0
  C  C48  1  0.63350000  0.83957000  0.54753000  1.0
  C  C49  1  0.79238000  0.08592000  0.95238000  1.0
  C  C50  1  0.36649000  0.16043000  0.45248000  1.0
  C  C51  1  0.20764000  0.91412000  0.04762000  1.0
  C  C52  1  0.75236000  0.72118000  0.52907000  1.0
  C  C53  1  0.69255000  0.22336000  0.97084000  1.0
  C  C54  1  0.24762000  0.27881000  0.47092000  1.0
  C  C55  1  0.30746000  0.77665000  0.02916000  1.0
  C  C56  1  0.82686000  0.58633000  0.55388000  1.0
  C  C57  1  0.53295000  0.27314000  0.94603000  1.0
  C  C58  1  0.17313000  0.41367000  0.44612000  1.0
  C  C59  1  0.46705000  0.72687000  0.05397000  1.0
  C  C60  1  0.77421000  0.56690000  0.59733000  1.0
  C  C61  1  0.47022000  0.17720000  0.90255000  1.0
  C  C62  1  0.22579000  0.43309000  0.40267000  1.0
  C  C63  1  0.52977000  0.82280000  0.09745000  1.0
  C  C64  1  0.44154000  0.94451000  0.60846000  1.0
  C  C65  1  0.83664000  0.83342000  0.89141000  1.0
  C  C66  1  0.55846000  0.05548000  0.39154000  1.0
  C  C67  1  0.16339000  0.16661000  0.10859000  1.0
  S  S68  1  0.58079000  0.63011000  0.67142000  1.0
  S  S69  1  0.45897000  0.90931000  0.82849000  1.0
  S  S70  1  0.41921000  0.36988000  0.32858000  1.0
  S  S71  1  0.54105000  0.09071000  0.17152000  1.0
  Br  Br72  1  0.11377000  0.26041000  0.63739000  1.0
  Br  Br73  1  0.12323000  0.47657000  0.86256000  1.0
  Br  Br74  1  0.88623000  0.73958000  0.36261000  1.0
  Br  Br75  1  0.87678000  0.52344000  0.13744000  1.0
  N  N76  1  0.30331000  0.54773000  0.67438000  1.0
  N  N77  1  0.37330000  0.62882000  0.82556000  1.0
  N  N78  1  0.69670000  0.45225000  0.32562000  1.0
  N  N79  1  0.62671000  0.37119000  0.17444000  1.0
  Cl  Cl80  1  0.80207000  0.73697000  0.47428000  1.0
  Cl  Cl81  1  0.76265000  0.32749000  0.02568000  1.0
  Cl  Cl82  1  0.19791000  0.26303000  0.52572000  1.0
  Cl  Cl83  1  0.23735000  0.67253000  0.97432000  1.0
  O  O84  1  0.69279000  0.85793000  0.69878000  1.0
  O  O85  1  0.65923000  0.99359000  0.80109000  1.0
  O  O86  1  0.30721000  0.14205000  0.30122000  1.0
  O  O87  1  0.34077000  0.00642000  0.19891000  1.0
  O  O88  1  0.66280000  0.45698000  0.68283000  1.0
  O  O89  1  0.27460000  0.98011000  0.81707000  1.0
  O  O90  1  0.33720000  0.54301000  0.31717000  1.0
  O  O91  1  0.72540000  0.01989000  0.18292000  1.0
  O  O92  1  0.72576000  0.53115000  0.78906000  1.0
  O  O93  1  0.24226000  0.93657000  0.71086000  1.0
  O  O94  1  0.27424000  0.46885000  0.21094000  1.0
  O  O95  1  0.75773000  0.06341000  0.28914000  1.0
  O  O96  1  0.08530000  0.33535000  0.74996000  1.0
  O  O97  1  0.91470000  0.66463000  0.25004000  1.0
