# generated using pymatgen
data_NaH21C24(N3O4)2
_symmetry_space_group_name_H-M   'P 1'
_cell_length_a   7.24649000
_cell_length_b   11.80010000
_cell_length_c   15.07560000
_cell_angle_alpha   95.42690000
_cell_angle_beta   102.96500000
_cell_angle_gamma   102.64800000
_symmetry_Int_Tables_number   1
_chemical_formula_structural   NaH21C24(N3O4)2
_chemical_formula_sum   'Na2 H42 C48 N12 O16'
_cell_volume   1211.67832353
_cell_formula_units_Z   2
loop_
 _symmetry_equiv_pos_site_id
 _symmetry_equiv_pos_as_xyz
  1  'x, y, z'
loop_
 _atom_site_type_symbol
 _atom_site_label
 _atom_site_symmetry_multiplicity
 _atom_site_fract_x
 _atom_site_fract_y
 _atom_site_fract_z
 _atom_site_occupancy
  Na  Na0  1  0.24282000  0.46610000  0.02951000  1.0
  Na  Na1  1  0.75718000  0.53389000  0.97049000  1.0
  H  H2  1  0.16619000  0.69372000  0.99151000  1.0
  H  H3  1  0.83382000  0.30629000  0.00850000  1.0
  H  H4  1  0.13322000  0.68814000  0.08929000  1.0
  H  H5  1  0.86678000  0.31186000  0.91072000  1.0
  H  H6  1  0.19590000  0.22377000  0.98486000  1.0
  H  H7  1  0.80410000  0.77623000  0.01515000  1.0
  H  H8  1  0.97142000  0.55226000  0.22733000  1.0
  H  H9  1  0.02858000  0.44774000  0.77267000  1.0
  H  H10  1  0.42496000  0.25608000  0.02741000  1.0
  H  H11  1  0.57503000  0.74393000  0.97260000  1.0
  H  H12  1  0.43375000  0.59626000  0.42067000  1.0
  H  H13  1  0.56625000  0.40374000  0.57933000  1.0
  H  H14  1  0.69826000  0.64765000  0.56684000  1.0
  H  H15  1  0.30175000  0.35236000  0.43315000  1.0
  H  H16  1  0.03935000  0.65642000  0.56410000  1.0
  H  H17  1  0.96066000  0.34359000  0.43589000  1.0
  H  H18  1  0.12962000  0.61388000  0.41580000  1.0
  H  H19  1  0.87039000  0.38612000  0.58420000  1.0
  H  H20  1  0.54028000  0.93963000  0.05916000  1.0
  H  H21  1  0.45971000  0.06036000  0.94083000  1.0
  H  H22  1  0.11725000  0.41823000  0.26918000  1.0
  H  H23  1  0.88275000  0.58176000  0.73081000  1.0
  H  H24  1  0.08570000  0.17209000  0.37148000  1.0
  H  H25  1  0.91430000  0.82789000  0.62851000  1.0
  H  H26  1  0.06111000  0.98531000  0.43755000  1.0
  H  H27  1  0.93887000  0.01468000  0.56244000  1.0
  H  H28  1  0.83261000  0.80143000  0.35015000  1.0
  H  H29  1  0.16736000  0.19856000  0.64984000  1.0
  H  H30  1  0.62720000  0.79693000  0.19198000  1.0
  H  H31  1  0.37279000  0.20306000  0.80800000  1.0
  H  H32  1  0.17340000  0.11849000  0.08486000  1.0
  H  H33  1  0.82661000  0.88152000  0.91516000  1.0
  H  H34  1  0.27176000  0.68282000  0.28452000  1.0
  H  H35  1  0.72823000  0.31718000  0.71548000  1.0
  H  H36  1  0.49045000  0.96254000  0.39779000  1.0
  H  H37  1  0.50955000  0.03747000  0.60222000  1.0
  H  H38  1  0.66434000  0.16938000  0.46934000  1.0
  H  H39  1  0.33566000  0.83063000  0.53067000  1.0
  H  H40  1  0.62954000  0.33411000  0.38083000  1.0
  H  H41  1  0.37048000  0.66590000  0.61918000  1.0
  H  H42  1  0.42032000  0.29622000  0.21950000  1.0
  H  H43  1  0.57970000  0.70379000  0.78052000  1.0
  C  C44  1  0.66394000  0.53514000  0.18375000  1.0
  C  C45  1  0.33606000  0.46486000  0.81625000  1.0
  C  C46  1  0.52166000  0.54690000  0.24081000  1.0
  C  C47  1  0.47834000  0.45310000  0.75919000  1.0
  C  C48  1  0.63312000  0.57790000  0.33642000  1.0
  C  C49  1  0.36689000  0.42210000  0.66358000  1.0
  C  C50  1  0.58463000  0.60090000  0.41968000  1.0
  C  C51  1  0.41537000  0.39910000  0.58032000  1.0
  C  C52  1  0.73339000  0.62918000  0.50127000  1.0
  C  C53  1  0.26661000  0.37083000  0.49872000  1.0
  C  C54  1  0.92699000  0.63421000  0.49939000  1.0
  C  C55  1  0.07301000  0.36580000  0.50061000  1.0
  C  C56  1  0.97873000  0.61069000  0.41654000  1.0
  C  C57  1  0.02127000  0.38931000  0.58346000  1.0
  C  C58  1  0.83047000  0.58269000  0.33576000  1.0
  C  C59  1  0.16953000  0.41731000  0.66424000  1.0
  C  C60  1  0.69529000  0.11888000  0.09930000  1.0
  C  C61  1  0.30471000  0.88112000  0.90070000  1.0
  C  C62  1  0.84549000  0.17885000  0.18573000  1.0
  C  C63  1  0.15452000  0.82114000  0.81427000  1.0
  C  C64  1  0.86929000  0.08990000  0.24512000  1.0
  C  C65  1  0.13072000  0.91008000  0.75487000  1.0
  C  C66  1  0.98516000  0.09132000  0.33281000  1.0
  C  C67  1  0.01485000  0.90867000  0.66718000  1.0
  C  C68  1  0.97020000  0.98608000  0.36952000  1.0
  C  C69  1  0.02979000  0.01391000  0.63047000  1.0
  C  C70  1  0.84237000  0.88182000  0.31964000  1.0
  C  C71  1  0.15762000  0.11817000  0.68035000  1.0
  C  C72  1  0.72666000  0.87841000  0.23077000  1.0
  C  C73  1  0.27333000  0.12158000  0.76922000  1.0
  C  C74  1  0.74232000  0.98308000  0.19505000  1.0
  C  C75  1  0.25768000  0.01690000  0.80494000  1.0
  C  C76  1  0.14094000  0.94800000  0.12071000  1.0
  C  C77  1  0.85906000  0.05201000  0.87930000  1.0
  C  C78  1  0.23793000  0.90896000  0.20769000  1.0
  C  C79  1  0.76207000  0.09105000  0.79232000  1.0
  C  C80  1  0.35735000  0.01422000  0.26992000  1.0
  C  C81  1  0.64265000  0.98578000  0.73008000  1.0
  C  C82  1  0.47469000  0.03524000  0.35986000  1.0
  C  C83  1  0.52531000  0.96476000  0.64014000  1.0
  C  C84  1  0.57167000  0.15136000  0.39926000  1.0
  C  C85  1  0.42835000  0.84865000  0.60075000  1.0
  C  C86  1  0.55256000  0.24411000  0.34931000  1.0
  C  C87  1  0.44745000  0.75590000  0.65071000  1.0
  C  C88  1  0.43616000  0.22454000  0.25869000  1.0
  C  C89  1  0.56385000  0.77547000  0.74132000  1.0
  C  C90  1  0.33945000  0.10938000  0.22063000  1.0
  C  C91  1  0.66055000  0.89063000  0.77938000  1.0
  N  N92  1  0.84327000  0.55770000  0.24504000  1.0
  N  N93  1  0.15672000  0.44230000  0.75496000  1.0
  N  N94  1  0.33693000  0.52787000  0.19982000  1.0
  N  N95  1  0.66307000  0.47213000  0.80018000  1.0
  N  N96  1  0.64222000  0.00363000  0.10917000  1.0
  N  N97  1  0.35778000  0.99637000  0.89082000  1.0
  N  N98  1  0.92593000  0.29013000  0.19273000  1.0
  N  N99  1  0.07408000  0.70987000  0.80727000  1.0
  N  N100  1  0.21216000  0.06722000  0.13323000  1.0
  N  N101  1  0.78784000  0.93279000  0.86678000  1.0
  N  N102  1  0.20844000  0.79722000  0.21160000  1.0
  N  N103  1  0.79156000  0.20278000  0.78841000  1.0
  O  O104  1  0.11088000  0.63882000  0.02934000  1.0
  O  O105  1  0.88912000  0.36118000  0.97066000  1.0
  O  O106  1  0.30433000  0.27802000  0.03182000  1.0
  O  O107  1  0.69566000  0.72198000  0.96819000  1.0
  O  O108  1  0.62870000  0.51185000  0.09877000  1.0
  O  O109  1  0.37130000  0.48815000  0.90123000  1.0
  O  O110  1  0.22147000  0.54522000  0.25699000  1.0
  O  O111  1  0.77852000  0.45478000  0.74301000  1.0
  O  O112  1  0.62774000  0.16376000  0.03065000  1.0
  O  O113  1  0.37225000  0.83624000  0.96935000  1.0
  O  O114  1  0.05693000  0.33374000  0.27549000  1.0
  O  O115  1  0.94308000  0.66625000  0.72450000  1.0
  O  O116  1  0.02111000  0.88718000  0.05142000  1.0
  O  O117  1  0.97889000  0.11283000  0.94859000  1.0
  O  O118  1  0.30156000  0.77243000  0.29397000  1.0
  O  O119  1  0.69844000  0.22757000  0.70603000  1.0
