# generated using pymatgen
data_CsPH3C2N3O4
_symmetry_space_group_name_H-M   'P 1'
_cell_length_a   6.79359000
_cell_length_b   7.46944000
_cell_length_c   14.97240000
_cell_angle_alpha   90.00010000
_cell_angle_beta   90.00020000
_cell_angle_gamma   86.32140000
_symmetry_Int_Tables_number   1
_chemical_formula_structural   CsPH3C2N3O4
_chemical_formula_sum   'Cs4 P4 H12 C8 N12 O16'
_cell_volume   758.19877138
_cell_formula_units_Z   4
loop_
 _symmetry_equiv_pos_site_id
 _symmetry_equiv_pos_as_xyz
  1  'x, y, z'
loop_
 _atom_site_type_symbol
 _atom_site_label
 _atom_site_symmetry_multiplicity
 _atom_site_fract_x
 _atom_site_fract_y
 _atom_site_fract_z
 _atom_site_occupancy
  Cs  Cs0  1  0.45890000  0.79741000  0.62798000  1.0
  Cs  Cs1  1  0.54110000  0.70258000  0.12798000  1.0
  Cs  Cs2  1  0.54110000  0.20258000  0.37202000  1.0
  Cs  Cs3  1  0.45890000  0.29742000  0.87202000  1.0
  P  P4  1  0.24905000  0.71344000  0.36221000  1.0
  P  P5  1  0.75095000  0.78656000  0.86221000  1.0
  P  P6  1  0.75095000  0.28656000  0.63779000  1.0
  P  P7  1  0.24905000  0.21344000  0.13779000  1.0
  H  H8  1  0.12640000  0.93175000  0.46355000  1.0
  H  H9  1  0.87360000  0.56825000  0.96355000  1.0
  H  H10  1  0.87360000  0.06825000  0.53645000  1.0
  H  H11  1  0.12640000  0.43175000  0.03645000  1.0
  H  H12  1  0.65571000  0.64593000  0.39569000  1.0
  H  H13  1  0.34429000  0.85406000  0.89569000  1.0
  H  H14  1  0.34429000  0.35407000  0.60431000  1.0
  H  H15  1  0.65571000  0.14593000  0.10431000  1.0
  H  H16  1  0.16785000  0.48486000  0.26361000  1.0
  H  H17  1  0.83214000  0.01514000  0.76361000  1.0
  H  H18  1  0.83214000  0.51514000  0.73639000  1.0
  H  H19  1  0.16786000  0.98486000  0.23639000  1.0
  C  C20  1  0.88460000  0.79240000  0.43793000  1.0
  C  C21  1  0.11540000  0.70760000  0.93792000  1.0
  C  C22  1  0.11540000  0.20760000  0.56208000  1.0
  C  C23  1  0.88460000  0.29240000  0.06207000  1.0
  C  C24  1  0.90265000  0.55794000  0.32151000  1.0
  C  C25  1  0.09735000  0.94206000  0.82151000  1.0
  C  C26  1  0.09735000  0.44206000  0.67849000  1.0
  C  C27  1  0.90265000  0.05794000  0.17849000  1.0
  N  N28  1  0.07981000  0.81731000  0.43132000  1.0
  N  N29  1  0.92019000  0.68269000  0.93132000  1.0
  N  N30  1  0.92019000  0.18270000  0.56868000  1.0
  N  N31  1  0.07981000  0.31731000  0.06868000  1.0
  N  N32  1  0.80723000  0.65980000  0.38826000  1.0
  N  N33  1  0.19277000  0.84020000  0.88826000  1.0
  N  N34  1  0.19276000  0.34020000  0.61174000  1.0
  N  N35  1  0.80723000  0.15980000  0.11174000  1.0
  N  N36  1  0.09968000  0.57340000  0.31062000  1.0
  N  N37  1  0.90031000  0.92660000  0.81062000  1.0
  N  N38  1  0.90031000  0.42660000  0.68938000  1.0
  N  N39  1  0.09969000  0.07340000  0.18938000  1.0
  O  O40  1  0.77288000  0.88868000  0.48830000  1.0
  O  O41  1  0.22712000  0.61132000  0.98830000  1.0
  O  O42  1  0.22712000  0.11132000  0.51170000  1.0
  O  O43  1  0.77288000  0.38868000  0.01170000  1.0
  O  O44  1  0.80728000  0.45526000  0.27520000  1.0
  O  O45  1  0.19272000  0.04474000  0.77520000  1.0
  O  O46  1  0.19272000  0.54474000  0.72480000  1.0
  O  O47  1  0.80728000  0.95526000  0.22480000  1.0
  O  O48  1  0.40634000  0.60925000  0.41490000  1.0
  O  O49  1  0.59366000  0.89075000  0.91490000  1.0
  O  O50  1  0.59366000  0.39075000  0.58510000  1.0
  O  O51  1  0.40635000  0.10925000  0.08510000  1.0
  O  O52  1  0.32067000  0.85096000  0.29783000  1.0
  O  O53  1  0.67932000  0.64904000  0.79783000  1.0
  O  O54  1  0.67932000  0.14904000  0.70217000  1.0
  O  O55  1  0.32068000  0.35097000  0.20217000  1.0
