# generated using pymatgen
data_ZnH9C14NO4
_symmetry_space_group_name_H-M   'P 1'
_cell_length_a   7.49681000
_cell_length_b   10.27530000
_cell_length_c   17.42700000
_cell_angle_alpha   86.38800000
_cell_angle_beta   83.49610000
_cell_angle_gamma   70.27500000
_symmetry_Int_Tables_number   1
_chemical_formula_structural   ZnH9C14NO4
_chemical_formula_sum   'Zn4 H36 C56 N4 O16'
_cell_volume   1255.09336214
_cell_formula_units_Z   4
loop_
 _symmetry_equiv_pos_site_id
 _symmetry_equiv_pos_as_xyz
  1  'x, y, z'
loop_
 _atom_site_type_symbol
 _atom_site_label
 _atom_site_symmetry_multiplicity
 _atom_site_fract_x
 _atom_site_fract_y
 _atom_site_fract_z
 _atom_site_occupancy
  Zn  Zn0  1  0.98724000  0.96588000  0.27549000  1.0
  Zn  Zn1  1  0.01277000  0.03412000  0.72450000  1.0
  Zn  Zn2  1  0.52879000  0.06144000  0.21063000  1.0
  Zn  Zn3  1  0.47119000  0.93857000  0.78936000  1.0
  H  H4  1  0.12651000  0.84817000  0.51968000  1.0
  H  H5  1  0.87349000  0.15183000  0.48032000  1.0
  H  H6  1  0.31955000  0.78339000  0.63059000  1.0
  H  H7  1  0.68047000  0.21660000  0.36941000  1.0
  H  H8  1  0.66067000  0.76757000  0.61431000  1.0
  H  H9  1  0.33934000  0.23244000  0.38568000  1.0
  H  H10  1  0.80720000  0.81614000  0.48436000  1.0
  H  H11  1  0.19279000  0.18388000  0.51564000  1.0
  H  H12  1  0.49927000  0.45420000  0.24838000  1.0
  H  H13  1  0.50072000  0.54581000  0.75163000  1.0
  H  H14  1  0.52888000  0.61805000  0.33999000  1.0
  H  H15  1  0.47112000  0.38195000  0.66002000  1.0
  H  H16  1  0.84870000  0.58784000  0.38396000  1.0
  H  H17  1  0.15130000  0.41215000  0.61604000  1.0
  H  H18  1  0.13575000  0.40221000  0.32757000  1.0
  H  H19  1  0.86424000  0.59779000  0.67244000  1.0
  H  H20  1  0.49562000  0.79113000  0.19917000  1.0
  H  H21  1  0.50437000  0.20888000  0.80083000  1.0
  H  H22  1  0.64552000  0.59082000  0.11370000  1.0
  H  H23  1  0.35449000  0.40917000  0.88631000  1.0
  H  H24  1  0.81606000  0.86628000  0.94663000  1.0
  H  H25  1  0.18395000  0.13370000  0.05337000  1.0
  H  H26  1  0.66761000  0.05583000  0.04234000  1.0
  H  H27  1  0.33241000  0.94416000  0.95766000  1.0
  H  H28  1  0.89961000  0.62694000  0.91712000  1.0
  H  H29  1  0.10040000  0.37305000  0.08288000  1.0
  H  H30  1  0.20302000  0.56604000  0.95674000  1.0
  H  H31  1  0.79699000  0.43394000  0.04327000  1.0
  H  H32  1  0.05984000  0.50620000  0.16825000  1.0
  H  H33  1  0.94016000  0.49380000  0.83175000  1.0
  H  H34  1  0.01987000  0.68064000  0.26598000  1.0
  H  H35  1  0.98013000  0.31936000  0.73402000  1.0
  H  H36  1  0.13560000  0.95667000  0.10265000  1.0
  H  H37  1  0.86439000  0.04333000  0.89735000  1.0
  H  H38  1  0.19090000  0.78898000  0.99531000  1.0
  H  H39  1  0.80910000  0.21102000  0.00469000  1.0
  C  C40  1  0.55186000  0.85520000  0.42898000  1.0
  C  C41  1  0.44815000  0.14481000  0.57101000  1.0
  C  C42  1  0.35859000  0.86381000  0.43840000  1.0
  C  C43  1  0.64141000  0.13620000  0.56159000  1.0
  C  C44  1  0.27678000  0.83829000  0.51142000  1.0
  C  C45  1  0.72322000  0.16171000  0.48857000  1.0
  C  C46  1  0.38582000  0.80219000  0.57407000  1.0
  C  C47  1  0.61419000  0.19781000  0.42593000  1.0
  C  C48  1  0.57752000  0.79180000  0.56478000  1.0
  C  C49  1  0.42248000  0.20820000  0.43522000  1.0
  C  C50  1  0.65974000  0.81883000  0.49249000  1.0
  C  C51  1  0.34027000  0.18118000  0.50751000  1.0
  C  C52  1  0.63820000  0.89445000  0.35365000  1.0
  C  C53  1  0.36179000  0.10556000  0.64634000  1.0
  C  C54  1  0.23855000  0.88763000  0.37206000  1.0
  C  C55  1  0.76144000  0.11238000  0.62794000  1.0
  C  C56  1  0.97890000  0.31935000  0.25990000  1.0
  C  C57  1  0.02108000  0.68065000  0.74010000  1.0
  C  C58  1  0.79813000  0.33267000  0.23842000  1.0
  C  C59  1  0.20186000  0.66733000  0.76159000  1.0
  C  C60  1  0.63882000  0.44289000  0.26634000  1.0
  C  C61  1  0.36117000  0.55710000  0.73366000  1.0
  C  C62  1  0.65606000  0.53434000  0.31865000  1.0
  C  C63  1  0.34393000  0.46565000  0.68136000  1.0
  C  C64  1  0.83468000  0.51770000  0.34242000  1.0
  C  C65  1  0.16532000  0.48230000  0.65758000  1.0
  C  C66  1  0.99480000  0.41303000  0.31187000  1.0
  C  C67  1  0.00519000  0.58697000  0.68813000  1.0
  C  C68  1  0.15320000  0.20989000  0.22692000  1.0
  C  C69  1  0.84678000  0.79012000  0.77307000  1.0
  C  C70  1  0.75827000  0.23286000  0.18914000  1.0
  C  C71  1  0.24172000  0.76715000  0.81087000  1.0
  C  C72  1  0.56786000  0.80295000  0.14248000  1.0
  C  C73  1  0.43214000  0.19705000  0.85752000  1.0
  C  C74  1  0.65187000  0.69202000  0.09387000  1.0
  C  C75  1  0.34814000  0.30798000  0.90613000  1.0
  C  C76  1  0.75315000  0.71092000  0.02385000  1.0
  C  C77  1  0.24687000  0.28907000  0.97616000  1.0
  C  C78  1  0.74675000  0.84620000  0.00236000  1.0
  C  C79  1  0.25326000  0.15379000  0.99764000  1.0
  C  C80  1  0.66362000  0.95138000  0.05425000  1.0
  C  C81  1  0.33639000  0.04861000  0.94575000  1.0
  C  C82  1  0.89404000  0.59599000  0.97847000  1.0
  C  C83  1  0.10597000  0.40399000  0.02154000  1.0
  C  C84  1  0.10540000  0.55338000  0.00619000  1.0
  C  C85  1  0.89459000  0.44662000  0.99381000  1.0
  C  C86  1  0.12087000  0.63552000  0.07162000  1.0
  C  C87  1  0.87916000  0.36448000  0.92837000  1.0
  C  C88  1  0.08058000  0.60353000  0.14953000  1.0
  C  C89  1  0.91941000  0.39647000  0.85047000  1.0
  C  C90  1  0.05660000  0.70063000  0.20521000  1.0
  C  C91  1  0.94341000  0.29937000  0.79479000  1.0
  C  C92  1  0.12183000  0.85489000  0.11346000  1.0
  C  C93  1  0.87818000  0.14511000  0.88654000  1.0
  C  C94  1  0.15180000  0.76214000  0.05488000  1.0
  C  C95  1  0.84820000  0.23786000  0.94512000  1.0
  N  N96  1  0.06868000  0.82691000  0.18723000  1.0
  N  N97  1  0.93132000  0.17309000  0.81276000  1.0
  N  N98  1  0.58107000  0.92927000  0.12435000  1.0
  N  N99  1  0.41893000  0.07073000  0.87565000  1.0
  O  O100  1  0.81476000  0.87814000  0.34531000  1.0
  O  O101  1  0.18524000  0.12186000  0.65469000  1.0
  O  O102  1  0.52259000  0.94406000  0.30193000  1.0
  O  O103  1  0.47740000  0.05593000  0.69806000  1.0
  O  O104  1  0.25737000  0.78644000  0.33099000  1.0
  O  O105  1  0.74262000  0.21357000  0.66901000  1.0
  O  O106  1  0.11027000  0.00743000  0.36307000  1.0
  O  O107  1  0.88973000  0.99257000  0.63692000  1.0
  O  O108  1  0.31256000  0.23195000  0.22887000  1.0
  O  O109  1  0.68743000  0.76806000  0.77112000  1.0
  O  O110  1  0.14209000  0.10360000  0.19757000  1.0
  O  O111  1  0.85789000  0.89641000  0.80242000  1.0
  O  O112  1  0.75660000  0.11570000  0.22453000  1.0
  O  O113  1  0.24340000  0.88430000  0.77546000  1.0
  O  O114  1  0.70690000  0.26675000  0.12349000  1.0
  O  O115  1  0.29310000  0.73326000  0.87651000  1.0
