# generated using pymatgen
data_ZnH11C15I2N3O
_symmetry_space_group_name_H-M   'P 1'
_cell_length_a   7.20062000
_cell_length_b   13.21900000
_cell_length_c   18.32850000
_cell_angle_alpha   89.99990000
_cell_angle_beta   89.99980000
_cell_angle_gamma   91.32220000
_symmetry_Int_Tables_number   1
_chemical_formula_structural   ZnH11C15I2N3O
_chemical_formula_sum   'Zn4 H44 C60 I8 N12 O4'
_cell_volume   1744.13368501
_cell_formula_units_Z   4
loop_
 _symmetry_equiv_pos_site_id
 _symmetry_equiv_pos_as_xyz
  1  'x, y, z'
loop_
 _atom_site_type_symbol
 _atom_site_label
 _atom_site_symmetry_multiplicity
 _atom_site_fract_x
 _atom_site_fract_y
 _atom_site_fract_z
 _atom_site_occupancy
  Zn  Zn0  1  0.73104000  0.12796000  0.31494000  1.0
  Zn  Zn1  1  0.76897000  0.37204000  0.81494000  1.0
  Zn  Zn2  1  0.26896000  0.87204000  0.68506000  1.0
  Zn  Zn3  1  0.23104000  0.62796000  0.18506000  1.0
  H  H4  1  0.89666000  0.57814000  0.86417000  1.0
  H  H5  1  0.60334000  0.92186000  0.36417000  1.0
  H  H6  1  0.10334000  0.42186000  0.13584000  1.0
  H  H7  1  0.39666000  0.07814000  0.63583000  1.0
  H  H8  1  0.75346000  0.90609000  0.08856000  1.0
  H  H9  1  0.74654000  0.59391000  0.58856000  1.0
  H  H10  1  0.24654000  0.09391000  0.91144000  1.0
  H  H11  1  0.25346000  0.40609000  0.41144000  1.0
  H  H12  1  0.87219000  0.00085000  0.19588000  1.0
  H  H13  1  0.62780000  0.49916000  0.69588000  1.0
  H  H14  1  0.12780000  0.99916000  0.80412000  1.0
  H  H15  1  0.37219000  0.50084000  0.30411000  1.0
  H  H16  1  0.61736000  0.78960000  0.03382000  1.0
  H  H17  1  0.88264000  0.71040000  0.53382000  1.0
  H  H18  1  0.38264000  0.21040000  0.96618000  1.0
  H  H19  1  0.11735000  0.28960000  0.46618000  1.0
  H  H20  1  0.14411000  0.74100000  0.89046000  1.0
  H  H21  1  0.35590000  0.75900000  0.39046000  1.0
  H  H22  1  0.85590000  0.25899000  0.10954000  1.0
  H  H23  1  0.64410000  0.24100000  0.60954000  1.0
  H  H24  1  0.35043000  0.10972000  0.24428000  1.0
  H  H25  1  0.14957000  0.39028000  0.74428000  1.0
  H  H26  1  0.64957000  0.89028000  0.75572000  1.0
  H  H27  1  0.85043000  0.60972000  0.25572000  1.0
  H  H28  1  0.12995000  0.97863000  0.03650000  1.0
  H  H29  1  0.37005000  0.52137000  0.53650000  1.0
  H  H30  1  0.87004000  0.02137000  0.96350000  1.0
  H  H31  1  0.62995000  0.47863000  0.46350000  1.0
  H  H32  1  0.38699000  0.42497000  0.86755000  1.0
  H  H33  1  0.11302000  0.07503000  0.36755000  1.0
  H  H34  1  0.61302000  0.57503000  0.13245000  1.0
  H  H35  1  0.88698000  0.92497000  0.63245000  1.0
  H  H36  1  0.20913000  0.02282000  0.13805000  1.0
  H  H37  1  0.29086000  0.47718000  0.63805000  1.0
  H  H38  1  0.79086000  0.97718000  0.86195000  1.0
  H  H39  1  0.70914000  0.52282000  0.36194000  1.0
  H  H40  1  0.23234000  0.57106000  0.92528000  1.0
  H  H41  1  0.26766000  0.92895000  0.42528000  1.0
  H  H42  1  0.76766000  0.42894000  0.07472000  1.0
  H  H43  1  0.73234000  0.07105000  0.57472000  1.0
  H  H44  1  0.76278000  0.73336000  0.91904000  1.0
  H  H45  1  0.73722000  0.76664000  0.41904000  1.0
  H  H46  1  0.23722000  0.26664000  0.08096000  1.0
  H  H47  1  0.26277000  0.23336000  0.58096000  1.0
  C  C48  1  0.74987000  0.58039000  0.87863000  1.0
  C  C49  1  0.75013000  0.91962000  0.37863000  1.0
  C  C50  1  0.25014000  0.41962000  0.12137000  1.0
  C  C51  1  0.24986000  0.08038000  0.62137000  1.0
  C  C52  1  0.65764000  0.94996000  0.12109000  1.0
  C  C53  1  0.84236000  0.55005000  0.62110000  1.0
  C  C54  1  0.34235000  0.05004000  0.87891000  1.0
  C  C55  1  0.15765000  0.44996000  0.37890000  1.0
  C  C56  1  0.48435000  0.66538000  0.92609000  1.0
  C  C57  1  0.01565000  0.83462000  0.42609000  1.0
  C  C58  1  0.51565000  0.33462000  0.07391000  1.0
  C  C59  1  0.98435000  0.16538000  0.57391000  1.0
  C  C60  1  0.72549000  0.00219000  0.18129000  1.0
  C  C61  1  0.77451000  0.49781000  0.68129000  1.0
  C  C62  1  0.27451000  0.99781000  0.81871000  1.0
  C  C63  1  0.22549000  0.50219000  0.31870000  1.0
  C  C64  1  0.46770000  0.95342000  0.10416000  1.0
  C  C65  1  0.03229000  0.54659000  0.60416000  1.0
  C  C66  1  0.53229000  0.04658000  0.89584000  1.0
  C  C67  1  0.96771000  0.45341000  0.39584000  1.0
  C  C68  1  0.48210000  0.81150000  0.01334000  1.0
  C  C69  1  0.01790000  0.68850000  0.51334000  1.0
  C  C70  1  0.51790000  0.18850000  0.98666000  1.0
  C  C71  1  0.98211000  0.31150000  0.48666000  1.0
  C  C72  1  0.21891000  0.77915000  0.93450000  1.0
  C  C73  1  0.28109000  0.72085000  0.43450000  1.0
  C  C74  1  0.78109000  0.22085000  0.06550000  1.0
  C  C75  1  0.71891000  0.27915000  0.56550000  1.0
  C  C76  1  0.39561000  0.75431000  0.95826000  1.0
  C  C77  1  0.10439000  0.74569000  0.45826000  1.0
  C  C78  1  0.60439000  0.24569000  0.04174000  1.0
  C  C79  1  0.89561000  0.25431000  0.54174000  1.0
  C  C80  1  0.38760000  0.89285000  0.04380000  1.0
  C  C81  1  0.11240000  0.60715000  0.54380000  1.0
  C  C82  1  0.61240000  0.10715000  0.95620000  1.0
  C  C83  1  0.88760000  0.39285000  0.45620000  1.0
  C  C84  1  0.43440000  0.06348000  0.20817000  1.0
  C  C85  1  0.06560000  0.43652000  0.70817000  1.0
  C  C86  1  0.56560000  0.93652000  0.79183000  1.0
  C  C87  1  0.93440000  0.56348000  0.29183000  1.0
  C  C88  1  0.21099000  0.91478000  0.01796000  1.0
  C  C89  1  0.28901000  0.58522000  0.51796000  1.0
  C  C90  1  0.78901000  0.08522000  0.98204000  1.0
  C  C91  1  0.71099000  0.41478000  0.48204000  1.0
  C  C92  1  0.46497000  0.49472000  0.88002000  1.0
  C  C93  1  0.03504000  0.00528000  0.38002000  1.0
  C  C94  1  0.53504000  0.50528000  0.11998000  1.0
  C  C95  1  0.96496000  0.99472000  0.61998000  1.0
  C  C96  1  0.35656000  0.01389000  0.14855000  1.0
  C  C97  1  0.14343000  0.48611000  0.64854000  1.0
  C  C98  1  0.64343000  0.98611000  0.85146000  1.0
  C  C99  1  0.85657000  0.51389000  0.35145000  1.0
  C  C100  1  0.37927000  0.57704000  0.91129000  1.0
  C  C101  1  0.12073000  0.92297000  0.41129000  1.0
  C  C102  1  0.62073000  0.42296000  0.08871000  1.0
  C  C103  1  0.87926000  0.07703000  0.58871000  1.0
  C  C104  1  0.67474000  0.66615000  0.90962000  1.0
  C  C105  1  0.82526000  0.83385000  0.40962000  1.0
  C  C106  1  0.32526000  0.33385000  0.09038000  1.0
  C  C107  1  0.17474000  0.16615000  0.59038000  1.0
  I  I108  1  0.98884000  0.24235000  0.26171000  1.0
  I  I109  1  0.51117000  0.25765000  0.76171000  1.0
  I  I110  1  0.01116000  0.75765000  0.73829000  1.0
  I  I111  1  0.48884000  0.74236000  0.23829000  1.0
  I  I112  1  0.47224000  0.18109000  0.40148000  1.0
  I  I113  1  0.02777000  0.31891000  0.90148000  1.0
  I  I114  1  0.52776000  0.81891000  0.59852000  1.0
  I  I115  1  0.97224000  0.68109000  0.09852000  1.0
  N  N116  1  0.64728000  0.49634000  0.86361000  1.0
  N  N117  1  0.85272000  0.00366000  0.36361000  1.0
  N  N118  1  0.35273000  0.50366000  0.13639000  1.0
  N  N119  1  0.14728000  0.99633000  0.63639000  1.0
  N  N120  1  0.61565000  0.05691000  0.22497000  1.0
  N  N121  1  0.88434000  0.44309000  0.72497000  1.0
  N  N122  1  0.38434000  0.94309000  0.77503000  1.0
  N  N123  1  0.11566000  0.55691000  0.27503000  1.0
  N  N124  1  0.12805000  0.85832000  0.96443000  1.0
  N  N125  1  0.37195000  0.64168000  0.46444000  1.0
  N  N126  1  0.87195000  0.14168000  0.03556000  1.0
  N  N127  1  0.62805000  0.35833000  0.53557000  1.0
  O  O128  1  0.96101000  0.87856000  0.94248000  1.0
  O  O129  1  0.53900000  0.62144000  0.44249000  1.0
  O  O130  1  0.03900000  0.12144000  0.05751000  1.0
  O  O131  1  0.46101000  0.37856000  0.55752000  1.0
