# generated using pymatgen
data_SmH11C16(NO7)2
_symmetry_space_group_name_H-M   'P 1'
_cell_length_a   9.16569000
_cell_length_b   10.12760000
_cell_length_c   12.61267516
_cell_angle_alpha   94.78471861
_cell_angle_beta   109.77295676
_cell_angle_gamma   111.58540000
_symmetry_Int_Tables_number   1
_chemical_formula_structural   SmH11C16(NO7)2
_chemical_formula_sum   'Sm2 H22 C32 N4 O28'
_cell_volume   995.16887940
_cell_formula_units_Z   2
loop_
 _symmetry_equiv_pos_site_id
 _symmetry_equiv_pos_as_xyz
  1  'x, y, z'
loop_
 _atom_site_type_symbol
 _atom_site_label
 _atom_site_symmetry_multiplicity
 _atom_site_fract_x
 _atom_site_fract_y
 _atom_site_fract_z
 _atom_site_occupancy
  Sm  Sm0  1  0.76669000  0.52938000  0.46648000  1.0
  Sm  Sm1  1  0.23329000  0.47062000  0.53351000  1.0
  H  H2  1  0.85741000  0.78393000  0.24012000  1.0
  H  H3  1  0.14259000  0.21605000  0.75988000  1.0
  H  H4  1  0.20801000  0.91464000  0.82352000  1.0
  H  H5  1  0.79199000  0.08538000  0.17647000  1.0
  H  H6  1  0.16312000  0.97957000  0.15115000  1.0
  H  H7  1  0.83690000  0.02043000  0.84885000  1.0
  H  H8  1  0.79844000  0.59074000  0.88361000  1.0
  H  H9  1  0.20157000  0.40927000  0.11639000  1.0
  H  H10  1  0.56767000  0.13819000  0.35867000  1.0
  H  H11  1  0.43232000  0.86181000  0.64133000  1.0
  H  H12  1  0.26731000  0.67613000  0.30758000  1.0
  H  H13  1  0.73269000  0.32387000  0.69243000  1.0
  H  H14  1  0.13025000  0.99504000  0.44810000  1.0
  H  H15  1  0.86975000  0.00496000  0.55191000  1.0
  H  H16  1  0.53647000  0.59337000  0.25993000  1.0
  H  H17  1  0.46353000  0.40663000  0.74007000  1.0
  H  H18  1  0.41255000  0.48073000  0.30362000  1.0
  H  H19  1  0.58745000  0.51927000  0.69638000  1.0
  H  H20  1  0.62329000  0.31079000  0.23133000  1.0
  H  H21  1  0.37671000  0.68920000  0.76867000  1.0
  H  H22  1  0.81045000  0.31703000  0.30635000  1.0
  H  H23  1  0.18954000  0.68296000  0.69365000  1.0
  C  C24  1  0.92069000  0.66142000  0.71626000  1.0
  C  C25  1  0.07931000  0.33858000  0.28374000  1.0
  C  C26  1  0.99310000  0.74430000  0.83921000  1.0
  C  C27  1  0.00690000  0.25571000  0.16078000  1.0
  C  C28  1  0.14244000  0.87441000  0.87968000  1.0
  C  C29  1  0.85756000  0.12560000  0.12031000  1.0
  C  C30  1  0.20216000  0.95449000  0.99250000  1.0
  C  C31  1  0.79785000  0.04553000  0.00750000  1.0
  C  C32  1  0.11652000  0.91133000  0.06513000  1.0
  C  C33  1  0.88349000  0.08868000  0.93487000  1.0
  C  C34  1  0.97173000  0.77803000  0.02532000  1.0
  C  C35  1  0.02827000  0.22198000  0.97468000  1.0
  C  C36  1  0.91133000  0.69431000  0.91307000  1.0
  C  C37  1  0.08866000  0.30571000  0.08692000  1.0
  C  C38  1  0.88363000  0.71884000  0.10280000  1.0
  C  C39  1  0.11639000  0.28114000  0.89720000  1.0
  C  C40  1  0.38993000  0.23816000  0.45426000  1.0
  C  C41  1  0.61006000  0.76184000  0.54574000  1.0
  C  C42  1  0.35264000  0.08220000  0.40852000  1.0
  C  C43  1  0.64736000  0.91780000  0.59149000  1.0
  C  C44  1  0.45935000  0.05043000  0.36393000  1.0
  C  C45  1  0.54064000  0.94957000  0.63607000  1.0
  C  C46  1  0.42226000  0.90430000  0.32536000  1.0
  C  C47  1  0.57774000  0.09570000  0.67465000  1.0
  C  C48  1  0.28819000  0.78889000  0.33426000  1.0
  C  C49  1  0.71180000  0.21111000  0.66574000  1.0
  C  C50  1  0.18408000  0.82289000  0.38021000  1.0
  C  C51  1  0.81592000  0.17711000  0.61980000  1.0
  C  C52  1  0.21313000  0.96856000  0.41398000  1.0
  C  C53  1  0.78687000  0.03144000  0.58603000  1.0
  C  C54  1  0.04150000  0.70703000  0.39708000  1.0
  C  C55  1  0.95849000  0.29297000  0.60292000  1.0
  N  N56  1  0.36017000  0.09007000  0.03602000  1.0
  N  N57  1  0.63984000  0.90994000  0.96397000  1.0
  N  N58  1  0.53463000  0.87072000  0.27903000  1.0
  N  N59  1  0.46534000  0.12928000  0.72096000  1.0
  O  O60  1  0.00763000  0.69946000  0.65461000  1.0
  O  O61  1  0.99236000  0.30054000  0.34538000  1.0
  O  O62  1  0.77156000  0.55571000  0.67242000  1.0
  O  O63  1  0.22844000  0.44429000  0.32758000  1.0
  O  O64  1  0.81765000  0.58816000  0.09839000  1.0
  O  O65  1  0.18241000  0.41184000  0.90162000  1.0
  O  O66  1  0.88960000  0.82550000  0.17775000  1.0
  O  O67  1  0.11040000  0.17448000  0.82224000  1.0
  O  O68  1  0.39792000  0.16929000  0.13156000  1.0
  O  O69  1  0.60210000  0.83072000  0.86844000  1.0
  O  O70  1  0.44772000  0.11862000  0.97816000  1.0
  O  O71  1  0.55229000  0.88139000  0.02184000  1.0
  O  O72  1  0.52678000  0.33764000  0.45822000  1.0
  O  O73  1  0.47322000  0.66236000  0.54179000  1.0
  O  O74  1  0.28338000  0.25986000  0.48756000  1.0
  O  O75  1  0.71663000  0.74014000  0.51245000  1.0
  O  O76  1  0.89848000  0.71564000  0.36874000  1.0
  O  O77  1  0.10152000  0.28436000  0.63127000  1.0
  O  O78  1  0.06561000  0.60557000  0.44362000  1.0
  O  O79  1  0.93438000  0.39442000  0.55638000  1.0
  O  O80  1  0.47812000  0.74525000  0.21845000  1.0
  O  O81  1  0.52186000  0.25475000  0.78154000  1.0
  O  O82  1  0.67922000  0.96800000  0.30345000  1.0
  O  O83  1  0.32075000  0.03200000  0.69654000  1.0
  O  O84  1  0.52287000  0.50863000  0.29434000  1.0
  O  O85  1  0.47712000  0.49137000  0.70566000  1.0
  O  O86  1  0.72142000  0.35092000  0.30649000  1.0
  O  O87  1  0.27858000  0.64908000  0.69351000  1.0
