# generated using pymatgen
data_NaMnH12C18(NO3)3
_symmetry_space_group_name_H-M   'P 1'
_cell_length_a   10.11660000
_cell_length_b   10.11660000
_cell_length_c   13.73980000
_cell_angle_alpha   68.40350000
_cell_angle_beta   68.40350000
_cell_angle_gamma   60.00510000
_symmetry_Int_Tables_number   1
_chemical_formula_structural   NaMnH12C18(NO3)3
_chemical_formula_sum   'Na2 Mn2 H24 C36 N6 O18'
_cell_volume   1102.40100631
_cell_formula_units_Z   2
loop_
 _symmetry_equiv_pos_site_id
 _symmetry_equiv_pos_as_xyz
  1  'x, y, z'
loop_
 _atom_site_type_symbol
 _atom_site_label
 _atom_site_symmetry_multiplicity
 _atom_site_fract_x
 _atom_site_fract_y
 _atom_site_fract_z
 _atom_site_occupancy
  Na  Na0  1  0.91543000  0.91543000  0.25372000  1.0
  Na  Na1  1  0.41543000  0.41543000  0.75372000  1.0
  Mn  Mn2  1  0.00377000  0.00374000  0.98868000  1.0
  Mn  Mn3  1  0.50375000  0.50377000  0.48868000  1.0
  H  H4  1  0.43374000  0.80679000  0.26227000  1.0
  H  H5  1  0.80674000  0.49719000  0.26230000  1.0
  H  H6  1  0.49720000  0.43380000  0.26231000  1.0
  H  H7  1  0.99719000  0.30674000  0.76230000  1.0
  H  H8  1  0.93380000  0.99720000  0.76231000  1.0
  H  H9  1  0.30679000  0.93374000  0.76227000  1.0
  H  H10  1  0.29520000  0.96847000  0.10809000  1.0
  H  H11  1  0.96843000  0.62826000  0.10811000  1.0
  H  H12  1  0.62821000  0.29527000  0.10811000  1.0
  H  H13  1  0.12826000  0.46843000  0.60811000  1.0
  H  H14  1  0.79527000  0.12821000  0.60811000  1.0
  H  H15  1  0.46847000  0.79520000  0.60809000  1.0
  H  H16  1  0.42452000  0.12253000  0.94655000  1.0
  H  H17  1  0.12251000  0.50640000  0.94661000  1.0
  H  H18  1  0.50638000  0.42452000  0.94661000  1.0
  H  H19  1  0.00640000  0.62251000  0.44661000  1.0
  H  H20  1  0.92452000  0.00638000  0.44660000  1.0
  H  H21  1  0.62252000  0.92452000  0.44655000  1.0
  H  H22  1  0.67112000  0.80944000  0.24830000  1.0
  H  H23  1  0.80944000  0.27112000  0.24831000  1.0
  H  H24  1  0.27113000  0.67115000  0.24832000  1.0
  H  H25  1  0.77112000  0.30944000  0.74831000  1.0
  H  H26  1  0.17115000  0.77113000  0.74832000  1.0
  H  H27  1  0.30944000  0.17112000  0.74830000  1.0
  C  C28  1  0.69559000  0.95192000  0.09761000  1.0
  C  C29  1  0.95195000  0.25484000  0.09763000  1.0
  C  C30  1  0.25485000  0.69558000  0.09764000  1.0
  C  C31  1  0.75485000  0.45195000  0.59763000  1.0
  C  C32  1  0.19558000  0.75485000  0.59764000  1.0
  C  C33  1  0.45192000  0.19559000  0.59761000  1.0
  C  C34  1  0.47858000  0.87779000  0.18921000  1.0
  C  C35  1  0.87777000  0.45440000  0.18923000  1.0
  C  C36  1  0.45439000  0.47862000  0.18925000  1.0
  C  C37  1  0.95440000  0.37777000  0.68923000  1.0
  C  C38  1  0.97862000  0.95439000  0.68925000  1.0
  C  C39  1  0.37779000  0.97859000  0.68921000  1.0
  C  C40  1  0.40579000  0.96580000  0.10448000  1.0
  C  C41  1  0.96578000  0.52391000  0.10451000  1.0
  C  C42  1  0.52389000  0.40584000  0.10452000  1.0
  C  C43  1  0.02391000  0.46579000  0.60451000  1.0
  C  C44  1  0.90584000  0.02388000  0.60452000  1.0
  C  C45  1  0.46580000  0.90579000  0.60448000  1.0
  C  C46  1  0.47889000  0.05002000  0.01480000  1.0
  C  C47  1  0.05003000  0.45627000  0.01483000  1.0
  C  C48  1  0.45624000  0.47890000  0.01484000  1.0
  C  C49  1  0.95627000  0.55003000  0.51483000  1.0
  C  C50  1  0.97890000  0.95624000  0.51484000  1.0
  C  C51  1  0.55002000  0.97889000  0.51480000  1.0
  C  C52  1  0.62134000  0.04552000  0.00866000  1.0
  C  C53  1  0.04556000  0.32443000  0.00870000  1.0
  C  C54  1  0.32443000  0.62132000  0.00871000  1.0
  C  C55  1  0.82443000  0.54556000  0.50870000  1.0
  C  C56  1  0.12132000  0.82442000  0.50871000  1.0
  C  C57  1  0.54552000  0.12134000  0.50866000  1.0
  C  C58  1  0.69232000  0.13886000  0.91053000  1.0
  C  C59  1  0.13885000  0.25827000  0.91054000  1.0
  C  C60  1  0.25828000  0.69232000  0.91055000  1.0
  C  C61  1  0.75827000  0.63885000  0.41054000  1.0
  C  C62  1  0.19232000  0.75828000  0.41055000  1.0
  C  C63  1  0.63886000  0.19232000  0.41053000  1.0
  N  N64  1  0.61600000  0.87432000  0.18426000  1.0
  N  N65  1  0.87435000  0.32536000  0.18428000  1.0
  N  N66  1  0.32538000  0.61602000  0.18430000  1.0
  N  N67  1  0.82537000  0.37434000  0.68428000  1.0
  N  N68  1  0.11602000  0.82538000  0.68430000  1.0
  N  N69  1  0.37432000  0.11601000  0.68426000  1.0
  O  O70  1  0.82502000  0.93253000  0.10592000  1.0
  O  O71  1  0.93257000  0.13648000  0.10594000  1.0
  O  O72  1  0.13651000  0.82502000  0.10595000  1.0
  O  O73  1  0.63648000  0.43257000  0.60594000  1.0
  O  O74  1  0.32502000  0.63651000  0.60595000  1.0
  O  O75  1  0.43253000  0.32502000  0.60592000  1.0
  O  O76  1  0.83003000  0.12549000  0.89936000  1.0
  O  O77  1  0.12539000  0.14516000  0.89936000  1.0
  O  O78  1  0.14511000  0.83003000  0.89938000  1.0
  O  O79  1  0.64516000  0.62539000  0.39936000  1.0
  O  O80  1  0.33003000  0.64511000  0.39938000  1.0
  O  O81  1  0.62549000  0.33003000  0.39936000  1.0
  O  O82  1  0.61396000  0.22993000  0.83982000  1.0
  O  O83  1  0.22997000  0.31621000  0.83984000  1.0
  O  O84  1  0.31628000  0.61399000  0.83982000  1.0
  O  O85  1  0.81621000  0.72997000  0.33984000  1.0
  O  O86  1  0.11399000  0.81629000  0.33982000  1.0
  O  O87  1  0.72993000  0.11396000  0.33982000  1.0
