# generated using pymatgen
data_CsH10C7NO2
_symmetry_space_group_name_H-M   'P 1'
_cell_length_a   7.15240000
_cell_length_b   10.74720000
_cell_length_c   12.14410000
_cell_angle_alpha   90.00010000
_cell_angle_beta   90.00010000
_cell_angle_gamma   92.35710000
_symmetry_Int_Tables_number   1
_chemical_formula_structural   CsH10C7NO2
_chemical_formula_sum   'Cs4 H40 C28 N4 O8'
_cell_volume   932.70617056
_cell_formula_units_Z   4
loop_
 _symmetry_equiv_pos_site_id
 _symmetry_equiv_pos_as_xyz
  1  'x, y, z'
loop_
 _atom_site_type_symbol
 _atom_site_label
 _atom_site_symmetry_multiplicity
 _atom_site_fract_x
 _atom_site_fract_y
 _atom_site_fract_z
 _atom_site_occupancy
  Cs  Cs0  1  0.22877000  0.06403000  0.85644000  1.0
  Cs  Cs1  1  0.27123000  0.93598000  0.35645000  1.0
  Cs  Cs2  1  0.77123000  0.93597000  0.14355000  1.0
  Cs  Cs3  1  0.72877000  0.06403000  0.64355000  1.0
  H  H4  1  0.48825000  0.19079000  0.44222000  1.0
  H  H5  1  0.01175000  0.80920000  0.94222000  1.0
  H  H6  1  0.51175000  0.80920000  0.55778000  1.0
  H  H7  1  0.98825000  0.19079000  0.05778000  1.0
  H  H8  1  0.43482000  0.41746000  0.41785000  1.0
  H  H9  1  0.06518000  0.58253000  0.91786000  1.0
  H  H10  1  0.56518000  0.58253000  0.58214000  1.0
  H  H11  1  0.93482000  0.41746000  0.08215000  1.0
  H  H12  1  0.19109000  0.51741000  0.53434000  1.0
  H  H13  1  0.30891000  0.48258000  0.03436000  1.0
  H  H14  1  0.80891000  0.48259000  0.46564000  1.0
  H  H15  1  0.69109000  0.51741000  0.96566000  1.0
  H  H16  1  0.82648000  0.36862000  0.66089000  1.0
  H  H17  1  0.67352000  0.63138000  0.16090000  1.0
  H  H18  1  0.17352000  0.63138000  0.33910000  1.0
  H  H19  1  0.32648000  0.36862000  0.83911000  1.0
  H  H20  1  0.97496000  0.50093000  0.68711000  1.0
  H  H21  1  0.52504000  0.49907000  0.18712000  1.0
  H  H22  1  0.02504000  0.49907000  0.31288000  1.0
  H  H23  1  0.47496000  0.50093000  0.81289000  1.0
  H  H24  1  0.97981000  0.36718000  0.77446000  1.0
  H  H25  1  0.52019000  0.63282000  0.27447000  1.0
  H  H26  1  0.02019000  0.63282000  0.22553000  1.0
  H  H27  1  0.47981000  0.36718000  0.72554000  1.0
  H  H28  1  0.00467000  0.70798000  0.69504000  1.0
  H  H29  1  0.49533000  0.29202000  0.19504000  1.0
  H  H30  1  0.99533000  0.29202000  0.30496000  1.0
  H  H31  1  0.50467000  0.70798000  0.80496000  1.0
  H  H32  1  0.24623000  0.75642000  0.70058000  1.0
  H  H33  1  0.25377000  0.24358000  0.20058000  1.0
  H  H34  1  0.75377000  0.24358000  0.29942000  1.0
  H  H35  1  0.74623000  0.75642000  0.79942000  1.0
  H  H36  1  0.12707000  0.74149000  0.57079000  1.0
  H  H37  1  0.37292000  0.25851000  0.07079000  1.0
  H  H38  1  0.87293000  0.25851000  0.42921000  1.0
  H  H39  1  0.62707000  0.74149000  0.92921000  1.0
  H  H40  1  0.15216000  0.95437000  0.63374000  1.0
  H  H41  1  0.34784000  0.04563000  0.13374000  1.0
  H  H42  1  0.84784000  0.04563000  0.36626000  1.0
  H  H43  1  0.65216000  0.95437000  0.86626000  1.0
  C  C44  1  0.27553000  0.16613000  0.56987000  1.0
  C  C45  1  0.22447000  0.83387000  0.06987000  1.0
  C  C46  1  0.72447000  0.83387000  0.43013000  1.0
  C  C47  1  0.77554000  0.16613000  0.93013000  1.0
  C  C48  1  0.38392000  0.23718000  0.49131000  1.0
  C  C49  1  0.11608000  0.76281000  0.99132000  1.0
  C  C50  1  0.61608000  0.76281000  0.50868000  1.0
  C  C51  1  0.88393000  0.23718000  0.00868000  1.0
  C  C52  1  0.35301000  0.36249000  0.47776000  1.0
  C  C53  1  0.14699000  0.63750000  0.97777000  1.0
  C  C54  1  0.64699000  0.63751000  0.52223000  1.0
  C  C55  1  0.85301000  0.36249000  0.02224000  1.0
  C  C56  1  0.21770000  0.41877000  0.54232000  1.0
  C  C57  1  0.28230000  0.58123000  0.04233000  1.0
  C  C58  1  0.78230000  0.58123000  0.45767000  1.0
  C  C59  1  0.71771000  0.41877000  0.95768000  1.0
  C  C60  1  0.11561000  0.34481000  0.61741000  1.0
  C  C61  1  0.38439000  0.65519000  0.11742000  1.0
  C  C62  1  0.88439000  0.65519000  0.38258000  1.0
  C  C63  1  0.61561000  0.34481000  0.88259000  1.0
  C  C64  1  0.96762000  0.39888000  0.68888000  1.0
  C  C65  1  0.53238000  0.60112000  0.18889000  1.0
  C  C66  1  0.03238000  0.60112000  0.31111000  1.0
  C  C67  1  0.46762000  0.39888000  0.81112000  1.0
  C  C68  1  0.11251000  0.77034000  0.65762000  1.0
  C  C69  1  0.38749000  0.22966000  0.15762000  1.0
  C  C70  1  0.88749000  0.22966000  0.34238000  1.0
  C  C71  1  0.61251000  0.77034000  0.84238000  1.0
  N  N72  1  0.14192000  0.22196000  0.63064000  1.0
  N  N73  1  0.35809000  0.77804000  0.13064000  1.0
  N  N74  1  0.85809000  0.77804000  0.36935000  1.0
  N  N75  1  0.64192000  0.22196000  0.86936000  1.0
  O  O76  1  0.30517000  0.04856000  0.58547000  1.0
  O  O77  1  0.19483000  0.95144000  0.08546000  1.0
  O  O78  1  0.69483000  0.95144000  0.41454000  1.0
  O  O79  1  0.80517000  0.04856000  0.91453000  1.0
  O  O80  1  0.05392000  0.89441000  0.66759000  1.0
  O  O81  1  0.44608000  0.10559000  0.16759000  1.0
  O  O82  1  0.94608000  0.10560000  0.33240000  1.0
  O  O83  1  0.55392000  0.89441000  0.83241000  1.0
