# generated using pymatgen
data_CdH9C16N3ClO4
_symmetry_space_group_name_H-M   'P 1'
_cell_length_a   16.07710000
_cell_length_b   17.65470000
_cell_length_c   17.65520320
_cell_angle_alpha   78.03406034
_cell_angle_beta   62.90444591
_cell_angle_gamma   62.91160000
_symmetry_Int_Tables_number   1
_chemical_formula_structural   CdH9C16N3ClO4
_chemical_formula_sum   'Cd8 H72 C128 N24 Cl8 O32'
_cell_volume   3971.83019743
_cell_formula_units_Z   8
loop_
 _symmetry_equiv_pos_site_id
 _symmetry_equiv_pos_as_xyz
  1  'x, y, z'
loop_
 _atom_site_type_symbol
 _atom_site_label
 _atom_site_symmetry_multiplicity
 _atom_site_fract_x
 _atom_site_fract_y
 _atom_site_fract_z
 _atom_site_occupancy
  Cd  Cd0  1  0.93507000  0.59232000  0.43404000  1.0
  Cd  Cd1  1  0.46151000  0.90767000  0.06591000  1.0
  Cd  Cd2  1  0.02744000  0.93403000  0.40768000  1.0
  Cd  Cd3  1  0.86916000  0.56595000  0.09234000  1.0
  Cd  Cd4  1  0.06493000  0.40769000  0.56596000  1.0
  Cd  Cd5  1  0.53849000  0.09232000  0.93409000  1.0
  Cd  Cd6  1  0.97256000  0.06597000  0.59232000  1.0
  Cd  Cd7  1  0.13084000  0.43405000  0.90766000  1.0
  H  H8  1  0.88205000  0.78396000  0.18247000  1.0
  H  H9  1  0.34846000  0.71592000  0.31750000  1.0
  H  H10  1  0.16609000  0.68250000  0.21599000  1.0
  H  H11  1  0.56445000  0.81751000  0.28404000  1.0
  H  H12  1  0.11795000  0.21604000  0.81753000  1.0
  H  H13  1  0.65154000  0.28408000  0.68250000  1.0
  H  H14  1  0.83390000  0.31750000  0.78402000  1.0
  H  H15  1  0.43555000  0.18249000  0.71596000  1.0
  H  H16  1  0.64619000  0.84936000  0.64579000  1.0
  H  H17  1  0.64130000  0.65061000  0.85433000  1.0
  H  H18  1  0.99574000  0.14563000  0.15054000  1.0
  H  H19  1  0.79201000  0.35427000  0.34939000  1.0
  H  H20  1  0.35381000  0.15064000  0.35421000  1.0
  H  H21  1  0.35870000  0.34939000  0.14567000  1.0
  H  H22  1  0.00426000  0.85437000  0.84946000  1.0
  H  H23  1  0.20799000  0.64573000  0.65061000  1.0
  H  H24  1  0.80984000  0.93668000  0.42818000  1.0
  H  H25  1  0.67479000  0.56332000  0.07179000  1.0
  H  H26  1  0.24660000  0.92824000  0.06331000  1.0
  H  H27  1  0.73804000  0.57178000  0.43667000  1.0
  H  H28  1  0.19016000  0.06332000  0.57182000  1.0
  H  H29  1  0.32521000  0.43668000  0.92821000  1.0
  H  H30  1  0.75340000  0.07176000  0.93669000  1.0
  H  H31  1  0.26196000  0.42822000  0.56333000  1.0
  H  H32  1  0.76390000  0.54681000  0.59606000  1.0
  H  H33  1  0.40680000  0.95320000  0.90388000  1.0
  H  H34  1  0.81078000  0.09610000  0.45314000  1.0
  H  H35  1  0.86000000  0.40396000  0.04686000  1.0
  H  H36  1  0.23610000  0.45319000  0.40394000  1.0
  H  H37  1  0.59320000  0.04680000  0.09612000  1.0
  H  H38  1  0.18922000  0.90390000  0.54686000  1.0
  H  H39  1  0.14000000  0.59604000  0.95314000  1.0
  H  H40  1  0.64108000  0.60406000  0.74089000  1.0
  H  H41  1  0.48600000  0.89585000  0.75913000  1.0
  H  H42  1  0.74536000  0.24092000  0.39587000  1.0
  H  H43  1  0.88218000  0.25912000  0.10407000  1.0
  H  H44  1  0.35892000  0.39594000  0.25911000  1.0
  H  H45  1  0.51400000  0.10415000  0.24087000  1.0
  H  H46  1  0.25464000  0.75908000  0.60413000  1.0
  H  H47  1  0.11781000  0.74088000  0.89593000  1.0
  H  H48  1  0.70417000  0.00522000  0.34428000  1.0
  H  H49  1  0.55382000  0.49471000  0.15565000  1.0
  H  H50  1  0.20958000  0.84427000  0.99474000  1.0
  H  H51  1  0.54847000  0.65575000  0.50527000  1.0
  H  H52  1  0.29582000  0.99478000  0.65572000  1.0
  H  H53  1  0.44618000  0.50529000  0.84435000  1.0
  H  H54  1  0.79042000  0.15573000  0.00526000  1.0
  H  H55  1  0.45154000  0.34425000  0.49473000  1.0
  H  H56  1  0.77027000  0.78112000  0.50452000  1.0
  H  H57  1  0.55580000  0.71895000  0.99556000  1.0
  H  H58  1  0.05147000  0.00439000  0.21883000  1.0
  H  H59  1  0.77479000  0.49553000  0.28116000  1.0
  H  H60  1  0.22973000  0.21888000  0.49548000  1.0
  H  H61  1  0.44421000  0.28105000  0.00444000  1.0
  H  H62  1  0.94853000  0.99561000  0.78117000  1.0
  H  H63  1  0.22521000  0.50447000  0.71884000  1.0
  H  H64  1  0.98489000  0.71525000  0.26715000  1.0
  H  H65  1  0.46723000  0.78469000  0.23282000  1.0
  H  H66  1  0.20011000  0.76725000  0.28473000  1.0
  H  H67  1  0.75201000  0.73280000  0.21528000  1.0
  H  H68  1  0.01511000  0.28475000  0.73285000  1.0
  H  H69  1  0.53277000  0.21531000  0.76718000  1.0
  H  H70  1  0.79989000  0.23275000  0.71527000  1.0
  H  H71  1  0.24799000  0.26720000  0.78472000  1.0
  H  H72  1  0.18210000  0.63680000  0.52397000  1.0
  H  H73  1  0.84298000  0.86313000  0.97602000  1.0
  H  H74  1  0.31901000  0.02401000  0.36317000  1.0
  H  H75  1  0.20617000  0.47601000  0.13676000  1.0
  H  H76  1  0.81790000  0.36320000  0.47603000  1.0
  H  H77  1  0.15702000  0.13687000  0.02398000  1.0
  H  H78  1  0.68099000  0.97599000  0.63683000  1.0
  H  H79  1  0.79383000  0.52399000  0.86324000  1.0
  C  C80  1  0.63365000  0.73216000  0.70651000  1.0
  C  C81  1  0.57228000  0.76780000  0.79358000  1.0
  C  C82  1  0.86603000  0.20645000  0.26778000  1.0
  C  C83  1  0.84035000  0.29352000  0.23216000  1.0
  C  C84  1  0.36635000  0.26784000  0.29349000  1.0
  C  C85  1  0.42773000  0.23220000  0.20642000  1.0
  C  C86  1  0.13397000  0.79355000  0.73222000  1.0
  C  C87  1  0.15965000  0.70648000  0.76784000  1.0
  C  C88  1  0.96627000  0.77719000  0.40294000  1.0
  C  C89  1  0.64643000  0.72280000  0.09706000  1.0
  C  C90  1  0.24354000  0.90298000  0.22281000  1.0
  C  C91  1  0.86925000  0.59707000  0.27718000  1.0
  C  C92  1  0.03373000  0.22281000  0.59706000  1.0
  C  C93  1  0.35357000  0.27720000  0.90294000  1.0
  C  C94  1  0.75646000  0.09702000  0.77719000  1.0
  C  C95  1  0.13075000  0.40293000  0.72282000  1.0
  C  C96  1  0.86525000  0.81676000  0.23696000  1.0
  C  C97  1  0.41899000  0.68315000  0.26301000  1.0
  C  C98  1  0.18211000  0.73698000  0.18320000  1.0
  C  C99  1  0.60218000  0.76305000  0.31684000  1.0
  C  C100  1  0.13475000  0.18324000  0.76304000  1.0
  C  C101  1  0.58101000  0.31685000  0.73699000  1.0
  C  C102  1  0.81789000  0.26302000  0.81680000  1.0
  C  C103  1  0.39782000  0.23695000  0.68316000  1.0
  C  C104  1  0.66868000  0.78236000  0.63723000  1.0
  C  C105  1  0.58821000  0.71762000  0.86287000  1.0
  C  C106  1  0.95122000  0.13714000  0.21757000  1.0
  C  C107  1  0.80601000  0.36282000  0.28238000  1.0
  C  C108  1  0.33132000  0.21764000  0.36277000  1.0
  C  C109  1  0.41178000  0.28238000  0.13714000  1.0
  C  C110  1  0.04878000  0.86286000  0.78243000  1.0
  C  C111  1  0.19399000  0.63718000  0.71762000  1.0
  C  C112  1  0.82605000  0.90357000  0.37398000  1.0
  C  C113  1  0.60368000  0.59639000  0.12600000  1.0
  C  C114  1  0.22976000  0.87401000  0.09639000  1.0
  C  C115  1  0.70005000  0.62603000  0.40361000  1.0
  C  C116  1  0.17395000  0.09643000  0.62602000  1.0
  C  C117  1  0.39632000  0.40361000  0.87400000  1.0
  C  C118  1  0.77024000  0.12599000  0.90361000  1.0
  C  C119  1  0.29995000  0.37397000  0.59639000  1.0
  C  C120  1  0.04911000  0.67545000  0.46937000  1.0
  C  C121  1  0.69396000  0.82453000  0.03065000  1.0
  C  C122  1  0.22464000  0.96939000  0.32455000  1.0
  C  C123  1  0.01853000  0.53066000  0.17541000  1.0
  C  C124  1  0.95090000  0.32455000  0.53063000  1.0
  C  C125  1  0.30603000  0.17547000  0.96935000  1.0
  C  C126  1  0.77536000  0.03061000  0.67545000  1.0
  C  C127  1  0.98147000  0.46934000  0.82459000  1.0
  C  C128  1  0.73514000  0.61374000  0.60930000  1.0
  C  C129  1  0.45816000  0.88626000  0.89072000  1.0
  C  C130  1  0.84903000  0.10928000  0.38620000  1.0
  C  C131  1  0.84455000  0.39072000  0.11377000  1.0
  C  C132  1  0.26486000  0.38626000  0.39070000  1.0
  C  C133  1  0.54184000  0.11374000  0.10928000  1.0
  C  C134  1  0.15097000  0.89072000  0.61380000  1.0
  C  C135  1  0.15545000  0.60928000  0.88623000  1.0
  C  C136  1  0.66591000  0.64653000  0.69055000  1.0
  C  C137  1  0.50296000  0.85344000  0.80950000  1.0
  C  C138  1  0.81263000  0.19052000  0.35342000  1.0
  C  C139  1  0.85660000  0.30948000  0.14654000  1.0
  C  C140  1  0.33409000  0.35347000  0.30945000  1.0
  C  C141  1  0.49705000  0.14656000  0.19050000  1.0
  C  C142  1  0.18737000  0.80948000  0.64658000  1.0
  C  C143  1  0.14340000  0.69052000  0.85346000  1.0
  C  C144  1  0.76644000  0.94193000  0.32743000  1.0
  C  C145  1  0.53590000  0.55800000  0.17253000  1.0
  C  C146  1  0.20855000  0.82741000  0.05802000  1.0
  C  C147  1  0.59386000  0.67259000  0.44199000  1.0
  C  C148  1  0.23356000  0.05807000  0.67257000  1.0
  C  C149  1  0.46410000  0.44200000  0.82747000  1.0
  C  C150  1  0.79145000  0.17259000  0.94198000  1.0
  C  C151  1  0.40614000  0.32741000  0.55801000  1.0
  C  C152  1  0.90426000  0.82099000  0.35362000  1.0
  C  C153  1  0.57891000  0.67897000  0.14637000  1.0
  C  C154  1  0.22535000  0.85367000  0.17898000  1.0
  C  C155  1  0.75789000  0.64637000  0.32102000  1.0
  C  C156  1  0.09574000  0.17901000  0.64638000  1.0
  C  C157  1  0.42109000  0.32103000  0.85363000  1.0
  C  C158  1  0.77464000  0.14633000  0.82103000  1.0
  C  C159  1  0.24211000  0.35363000  0.67898000  1.0
  C  C160  1  0.78590000  0.89795000  0.25970000  1.0
  C  C161  1  0.44361000  0.60195000  0.24027000  1.0
  C  C162  1  0.18401000  0.75968000  0.10199000  1.0
  C  C163  1  0.54557000  0.74031000  0.39802000  1.0
  C  C164  1  0.21411000  0.10205000  0.74029000  1.0
  C  C165  1  0.55639000  0.39805000  0.75973000  1.0
  C  C166  1  0.81599000  0.24032000  0.89801000  1.0
  C  C167  1  0.45444000  0.25969000  0.60198000  1.0
  C  C168  1  0.73861000  0.74434000  0.55833000  1.0
  C  C169  1  0.54125000  0.75568000  0.94171000  1.0
  C  C170  1  0.98308000  0.05826000  0.25559000  1.0
  C  C171  1  0.79696000  0.44171000  0.24438000  1.0
  C  C172  1  0.26139000  0.25566000  0.44167000  1.0
  C  C173  1  0.45875000  0.24432000  0.05829000  1.0
  C  C174  1  0.01692000  0.94174000  0.74441000  1.0
  C  C175  1  0.20304000  0.55829000  0.75562000  1.0
  C  C176  1  0.92324000  0.77861000  0.28451000  1.0
  C  C177  1  0.48637000  0.72132000  0.21547000  1.0
  C  C178  1  0.20191000  0.78457000  0.22135000  1.0
  C  C179  1  0.70772000  0.71548000  0.27866000  1.0
  C  C180  1  0.07676000  0.22139000  0.71549000  1.0
  C  C181  1  0.51363000  0.27868000  0.78453000  1.0
  C  C182  1  0.79809000  0.21543000  0.77865000  1.0
  C  C183  1  0.29228000  0.28452000  0.72134000  1.0
  C  C184  1  0.07105000  0.74538000  0.46228000  1.0
  C  C185  1  0.77876000  0.75461000  0.03776000  1.0
  C  C186  1  0.31655000  0.96227000  0.25462000  1.0
  C  C187  1  0.03340000  0.53776000  0.24534000  1.0
  C  C188  1  0.92895000  0.25462000  0.53772000  1.0
  C  C189  1  0.22124000  0.24539000  0.96224000  1.0
  C  C190  1  0.68345000  0.03773000  0.74538000  1.0
  C  C191  1  0.96660000  0.46224000  0.75466000  1.0
  C  C192  1  0.14280000  0.75643000  0.48433000  1.0
  C  C193  1  0.88360000  0.74359000  0.01573000  1.0
  C  C194  1  0.39939000  0.98430000  0.24355000  1.0
  C  C195  1  0.12723000  0.51569000  0.25639000  1.0
  C  C196  1  0.85720000  0.24356000  0.51567000  1.0
  C  C197  1  0.11640000  0.25641000  0.98427000  1.0
  C  C198  1  0.60061000  0.01570000  0.75645000  1.0
  C  C199  1  0.87277000  0.48431000  0.74361000  1.0
  C  C200  1  0.08288000  0.59157000  0.50985000  1.0
  C  C201  1  0.68438000  0.90839000  0.99012000  1.0
  C  C202  1  0.17451000  0.00988000  0.40843000  1.0
  C  C203  1  0.09278000  0.49014000  0.09154000  1.0
  C  C204  1  0.91712000  0.40843000  0.49015000  1.0
  C  C205  1  0.31562000  0.09161000  0.00988000  1.0
  C  C206  1  0.82549000  0.99012000  0.59157000  1.0
  C  C207  1  0.90722000  0.50986000  0.90846000  1.0
  N  N208  1  0.98353000  0.69655000  0.43168000  1.0
  N  N209  1  0.61179000  0.80344000  0.06831000  1.0
  N  N210  1  0.18014000  0.93172000  0.30345000  1.0
  N  N211  1  0.91526000  0.56833000  0.19653000  1.0
  N  N212  1  0.01647000  0.30345000  0.56832000  1.0
  N  N213  1  0.38821000  0.19656000  0.93169000  1.0
  N  N214  1  0.81986000  0.06828000  0.69655000  1.0
  N  N215  1  0.08474000  0.43167000  0.80347000  1.0
  N  N216  1  0.77364000  0.66081000  0.54452000  1.0
  N  N217  1  0.47894000  0.83922000  0.95550000  1.0
  N  N218  1  0.93455000  0.04447000  0.33914000  1.0
  N  N219  1  0.81821000  0.45551000  0.16084000  1.0
  N  N220  1  0.22636000  0.33919000  0.45548000  1.0
  N  N221  1  0.52106000  0.16078000  0.04450000  1.0
  N  N222  1  0.06545000  0.95553000  0.66086000  1.0
  N  N223  1  0.18179000  0.54449000  0.83916000  1.0
  N  N224  1  0.01684000  0.80923000  0.42155000  1.0
  N  N225  1  0.74765000  0.69077000  0.07851000  1.0
  N  N226  1  0.32618000  0.92156000  0.19077000  1.0
  N  N227  1  0.93844000  0.57850000  0.30919000  1.0
  N  N228  1  0.98316000  0.19077000  0.57845000  1.0
  N  N229  1  0.25235000  0.30923000  0.92149000  1.0
  N  N230  1  0.67382000  0.07844000  0.80923000  1.0
  N  N231  1  0.06156000  0.42150000  0.69081000  1.0
  Cl  Cl232  1  0.70951000  0.94319000  0.20374000  1.0
  Cl  Cl233  1  0.35655000  0.55666000  0.29624000  1.0
  Cl  Cl234  1  0.15294000  0.70368000  0.05671000  1.0
  Cl  Cl235  1  0.41319000  0.79635000  0.44334000  1.0
  Cl  Cl236  1  0.29049000  0.05681000  0.79626000  1.0
  Cl  Cl237  1  0.64345000  0.44334000  0.70376000  1.0
  Cl  Cl238  1  0.84706000  0.29632000  0.94329000  1.0
  Cl  Cl239  1  0.58681000  0.20365000  0.55666000  1.0
  O  O240  1  0.19890000  0.69075000  0.51751000  1.0
  O  O241  1  0.90723000  0.80925000  0.98251000  1.0
  O  O242  1  0.38977000  0.01752000  0.30923000  1.0
  O  O243  1  0.21652000  0.48249000  0.19069000  1.0
  O  O244  1  0.80110000  0.30925000  0.48249000  1.0
  O  O245  1  0.09277000  0.19075000  0.01749000  1.0
  O  O246  1  0.61023000  0.98248000  0.69077000  1.0
  O  O247  1  0.78348000  0.51751000  0.80931000  1.0
  O  O248  1  0.15360000  0.56925000  0.53492000  1.0
  O  O249  1  0.75785000  0.93071000  0.96503000  1.0
  O  O250  1  0.22291000  0.03498000  0.43073000  1.0
  O  O251  1  0.18859000  0.46503000  0.06922000  1.0
  O  O252  1  0.84640000  0.43075000  0.46508000  1.0
  O  O253  1  0.24214000  0.06929000  0.03497000  1.0
  O  O254  1  0.77709000  0.96503000  0.56927000  1.0
  O  O255  1  0.81141000  0.53497000  0.93078000  1.0
  O  O256  1  0.15176000  0.82502000  0.46979000  1.0
  O  O257  1  0.94662000  0.67504000  0.03031000  1.0
  O  O258  1  0.47699000  0.96973000  0.17498000  1.0
  O  O259  1  0.12168000  0.53021000  0.32497000  1.0
  O  O260  1  0.84824000  0.17498000  0.53021000  1.0
  O  O261  1  0.05338000  0.32496000  0.96969000  1.0
  O  O262  1  0.52301000  0.03027000  0.82502000  1.0
  O  O263  1  0.87832000  0.46979000  0.67503000  1.0
  O  O264  1  0.03784000  0.54499000  0.51692000  1.0
  O  O265  1  0.59984000  0.95494000  0.98301000  1.0
  O  O266  1  0.08287000  0.01697000  0.45500000  1.0
  O  O267  1  0.05480000  0.48303000  0.04500000  1.0
  O  O268  1  0.96216000  0.45501000  0.48308000  1.0
  O  O269  1  0.40016000  0.04506000  0.01699000  1.0
  O  O270  1  0.91713000  0.98303000  0.54500000  1.0
  O  O271  1  0.94520000  0.51697000  0.95500000  1.0
