# generated using pymatgen
data_Zn4H39C68N20O8F
_symmetry_space_group_name_H-M   'P 1'
_cell_length_a   16.22740000
_cell_length_b   16.34770000
_cell_length_c   18.45321717
_cell_angle_alpha   68.43791632
_cell_angle_beta   66.93288324
_cell_angle_gamma   77.22700000
_symmetry_Int_Tables_number   1
_chemical_formula_structural   Zn4H39C68N20O8F
_chemical_formula_sum   'Zn4 H39 C68 N20 O8 F1'
_cell_volume   4171.66765734
_cell_formula_units_Z   1
loop_
 _symmetry_equiv_pos_site_id
 _symmetry_equiv_pos_as_xyz
  1  'x, y, z'
loop_
 _atom_site_type_symbol
 _atom_site_label
 _atom_site_symmetry_multiplicity
 _atom_site_fract_x
 _atom_site_fract_y
 _atom_site_fract_z
 _atom_site_occupancy
  Zn  Zn0  1  0.33807000  0.07637000  0.00993000  1.0
  Zn  Zn1  1  0.65741000  0.87538000  0.99858000  1.0
  Zn  Zn2  1  0.55725000  0.98349000  0.87223000  1.0
  Zn  Zn3  1  0.49821000  0.99838000  0.09947000  1.0
  H  H4  1  0.67822000  0.70577000  0.16348000  1.0
  H  H5  1  0.39170000  0.85396000  0.93088000  1.0
  H  H6  1  0.39853000  0.83741000  0.24743000  1.0
  H  H7  1  0.53484000  0.71411000  0.10330000  1.0
  H  H8  1  0.20132000  0.92971000  0.12472000  1.0
  H  H9  1  0.49822000  0.89313000  0.28261000  1.0
  H  H10  1  0.19444000  0.98360000  0.86140000  1.0
  H  H11  1  0.27691000  0.25948000  0.05051000  1.0
  H  H12  1  0.84068000  0.78250000  0.86271000  1.0
  H  H13  1  0.57169000  0.14547000  0.71018000  1.0
  H  H14  1  0.59001000  0.16944000  0.03769000  1.0
  H  H15  1  0.81341000  0.98914000  0.94920000  1.0
  H  H16  1  0.35483000  0.25754000  0.88471000  1.0
  H  H17  1  0.48158000  0.16591000  0.16581000  1.0
  H  H18  1  0.70372000  0.97151000  0.70153000  1.0
  H  H19  1  0.17000000  0.73973000  0.50487000  1.0
  H  H20  1  0.28974000  0.76024000  0.36877000  1.0
  H  H21  1  0.09126000  0.87085000  0.24894000  1.0
  H  H22  1  0.97219000  0.84738000  0.38469000  1.0
  H  H23  1  0.94203000  0.93438000  0.46717000  1.0
  H  H24  1  0.83333000  0.96727000  0.59187000  1.0
  H  H25  1  0.91826000  0.71717000  0.74401000  1.0
  H  H26  1  0.02885000  0.68533000  0.61852000  1.0
  H  H27  1  0.63272000  0.49113000  0.43371000  1.0
  H  H28  1  0.67916000  0.61551000  0.30508000  1.0
  H  H29  1  0.42263000  0.76005000  0.38894000  1.0
  H  H30  1  0.37627000  0.63591000  0.51683000  1.0
  H  H31  1  0.40166000  0.40724000  0.77288000  1.0
  H  H32  1  0.51015000  0.25057000  0.60651000  1.0
  H  H33  1  0.52547000  0.38670000  0.48764000  1.0
  H  H34  1  0.47404000  0.59058000  0.13543000  1.0
  H  H35  1  0.31464000  0.72371000  0.97786000  1.0
  H  H36  1  0.47918000  0.42979000  0.19823000  1.0
  H  H37  1  0.27402000  0.58219000  0.99199000  1.0
  H  H38  1  0.45251000  0.28602000  0.20199000  1.0
  H  H39  1  0.71576000  0.91335000  0.19031000  1.0
  H  H40  1  0.72824000  0.19125000  0.13777000  1.0
  H  H41  1  0.80717000  0.19557000  0.99035000  1.0
  H  H42  1  0.96730000  0.14050000  0.94552000  1.0
  C  C43  1  0.15511000  0.07158000  0.00531000  1.0
  C  C44  1  0.63687000  0.76267000  0.17993000  1.0
  C  C45  1  0.43543000  0.83031000  0.96771000  1.0
  C  C46  1  0.36042000  0.86866000  0.20592000  1.0
  C  C47  1  0.50858000  0.75927000  0.05563000  1.0
  C  C48  1  0.25989000  0.91594000  0.14329000  1.0
  C  C49  1  0.54438000  0.85781000  0.24052000  1.0
  C  C50  1  0.19198000  0.01424000  0.90547000  1.0
  C  C51  1  0.11681000  0.03349000  0.96981000  1.0
  C  C52  1  0.57946000  0.76896000  0.25827000  1.0
  C  C53  1  0.44153000  0.74954000  0.02960000  1.0
  C  C54  1  0.27092000  0.86083000  0.21865000  1.0
  C  C55  1  0.33021000  0.22506000  0.07509000  1.0
  C  C56  1  0.79581000  0.83187000  0.83460000  1.0
  C  C57  1  0.51765000  0.15932000  0.76317000  1.0
  C  C58  1  0.63486000  0.11839000  0.01358000  1.0
  C  C59  1  0.74887000  0.02644000  0.96864000  1.0
  C  C60  1  0.40820000  0.21658000  0.85271000  1.0
  C  C61  1  0.43301000  0.17625000  0.13550000  1.0
  C  C62  1  0.72696000  0.92929000  0.75218000  1.0
  C  C63  1  0.37710000  0.25243000  0.11117000  1.0
  C  C64  1  0.80141000  0.86630000  0.75092000  1.0
  C  C65  1  0.46075000  0.23665000  0.76796000  1.0
  C  C66  1  0.72743000  0.09864000  0.99836000  1.0
  C  C67  1  0.15223000  0.76718000  0.44876000  1.0
  C  C68  1  0.22008000  0.77986000  0.37148000  1.0
  C  C69  1  0.20083000  0.82320000  0.29760000  1.0
  C  C70  1  0.10963000  0.84189000  0.30449000  1.0
  C  C71  1  0.04210000  0.82902000  0.38146000  1.0
  C  C72  1  0.06224000  0.79680000  0.45515000  1.0
  C  C73  1  0.93557000  0.88562000  0.52783000  1.0
  C  C74  1  0.87436000  0.90416000  0.59845000  1.0
  C  C75  1  0.86705000  0.84465000  0.67789000  1.0
  C  C76  1  0.92370000  0.76561000  0.68331000  1.0
  C  C77  1  0.98603000  0.74741000  0.61226000  1.0
  C  C78  1  0.99340000  0.80715000  0.53291000  1.0
  C  C79  1  0.58592000  0.54974000  0.42332000  1.0
  C  C80  1  0.61223000  0.62000000  0.35089000  1.0
  C  C81  1  0.55446000  0.69738000  0.33681000  1.0
  C  C82  1  0.46963000  0.70136000  0.39860000  1.0
  C  C83  1  0.44328000  0.63101000  0.47123000  1.0
  C  C84  1  0.50119000  0.55366000  0.48503000  1.0
  C  C85  1  0.43995000  0.47670000  0.64247000  1.0
  C  C86  1  0.42948000  0.40058000  0.71090000  1.0
  C  C87  1  0.45967000  0.31755000  0.69921000  1.0
  C  C88  1  0.49206000  0.31444000  0.61737000  1.0
  C  C89  1  0.50084000  0.39111000  0.55030000  1.0
  C  C90  1  0.47885000  0.47565000  0.55996000  1.0
  C  C91  1  0.40193000  0.66773000  0.05210000  1.0
  C  C92  1  0.37883000  0.33903000  0.11613000  1.0
  C  C93  1  0.44042000  0.42669000  0.16267000  1.0
  C  C94  1  0.42600000  0.34641000  0.16422000  1.0
  C  C95  1  0.34323000  0.41804000  0.07187000  1.0
  C  C96  1  0.35377000  0.50278000  0.06957000  1.0
  C  C97  1  0.40721000  0.50690000  0.11398000  1.0
  C  C98  1  0.42964000  0.58981000  0.10408000  1.0
  C  C99  1  0.34188000  0.66307000  0.01480000  1.0
  C  C100  1  0.31873000  0.58327000  0.02286000  1.0
  C  C101  1  0.70999000  0.05387000  0.17033000  1.0
  C  C102  1  0.02270000  0.01212000  0.00381000  1.0
  C  C103  1  0.91209000  0.91437000  0.11384000  1.0
  C  C104  1  0.00067000  0.92894000  0.06103000  1.0
  C  C105  1  0.95107000  0.07650000  0.99230000  1.0
  C  C106  1  0.86261000  0.06160000  0.04270000  1.0
  C  C107  1  0.84287000  0.98107000  0.10915000  1.0
  C  C108  1  0.74819000  0.97409000  0.16616000  1.0
  C  C109  1  0.72859000  0.13476000  0.11963000  1.0
  C  C110  1  0.78201000  0.13112000  0.03121000  1.0
  N  N111  1  0.24492000  0.07332000  0.96455000  1.0
  N  N112  1  0.63419000  0.84084000  0.12073000  1.0
  N  N113  1  0.49598000  0.88214000  0.95740000  1.0
  N  N114  1  0.39826000  0.92557000  0.13017000  1.0
  N  N115  1  0.54106000  0.83804000  0.01142000  1.0
  N  N116  1  0.33606000  0.95467000  0.09132000  1.0
  N  N117  1  0.57611000  0.90036000  0.15834000  1.0
  N  N118  1  0.26823000  0.03807000  0.90317000  1.0
  N  N119  1  0.35794000  0.14110000  0.07631000  1.0
  N  N120  1  0.72361000  0.87103000  0.88155000  1.0
  N  N121  1  0.49869000  0.09827000  0.83910000  1.0
  N  N122  1  0.60204000  0.05935000  0.99832000  1.0
  N  N123  1  0.67351000  0.00306000  0.96943000  1.0
  N  N124  1  0.43052000  0.13348000  0.89468000  1.0
  N  N125  1  0.42160000  0.11061000  0.11390000  1.0
  N  N126  1  0.68104000  0.93182000  0.83014000  1.0
  N  N127  1  0.11447000  0.10224000  0.07569000  1.0
  N  N128  1  0.41298000  0.56112000  0.66126000  1.0
  N  N129  1  0.29642000  0.41663000  0.01795000  1.0
  N  N130  1  0.07235000  0.85744000  0.07147000  1.0
  O  O131  1  0.16445000  0.13289000  0.09496000  1.0
  O  O132  1  0.03263000  0.09601000  0.11464000  1.0
  O  O133  1  0.46916000  0.61603000  0.62796000  1.0
  O  O134  1  0.33572000  0.57032000  0.71020000  1.0
  O  O135  1  0.34375000  0.41348000  0.94735000  1.0
  O  O136  1  0.21335000  0.41893000  0.04666000  1.0
  O  O137  1  0.08913000  0.83432000  0.13641000  1.0
  O  O138  1  0.11101000  0.82583000  0.01377000  1.0
  F  F139  1  0.89458000  0.83430000  0.17208000  1.0
