# generated using pymatgen
data_Zn2H31C27N3O13
_symmetry_space_group_name_H-M   'P 1'
_cell_length_a   11.17070000
_cell_length_b   13.91580000
_cell_length_c   22.46390000
_cell_angle_alpha   90.00010000
_cell_angle_beta   89.99990000
_cell_angle_gamma   89.99990000
_symmetry_Int_Tables_number   1
_chemical_formula_structural   Zn2H31C27N3O13
_chemical_formula_sum   'Zn8 H124 C108 N12 O52'
_cell_volume   3491.99589174
_cell_formula_units_Z   4
loop_
 _symmetry_equiv_pos_site_id
 _symmetry_equiv_pos_as_xyz
  1  'x, y, z'
loop_
 _atom_site_type_symbol
 _atom_site_label
 _atom_site_symmetry_multiplicity
 _atom_site_fract_x
 _atom_site_fract_y
 _atom_site_fract_z
 _atom_site_occupancy
  Zn  Zn0  1  0.36878000  0.85813000  0.34622000  1.0
  Zn  Zn1  1  0.13123000  0.14187000  0.84622000  1.0
  Zn  Zn2  1  0.86877000  0.64187000  0.65378000  1.0
  Zn  Zn3  1  0.63122000  0.35813000  0.15378000  1.0
  Zn  Zn4  1  0.13517000  0.97792000  0.44042000  1.0
  Zn  Zn5  1  0.36483000  0.02208000  0.94042000  1.0
  Zn  Zn6  1  0.63517000  0.52208000  0.55958000  1.0
  Zn  Zn7  1  0.86483000  0.47792000  0.05958000  1.0
  H  H8  1  0.85328000  0.47246000  0.43043000  1.0
  H  H9  1  0.64672000  0.52754000  0.93043000  1.0
  H  H10  1  0.35328000  0.02755000  0.56957000  1.0
  H  H11  1  0.14671000  0.97245000  0.06957000  1.0
  H  H12  1  0.09491000  0.62640000  0.31345000  1.0
  H  H13  1  0.40509000  0.37360000  0.81345000  1.0
  H  H14  1  0.59491000  0.87360000  0.68655000  1.0
  H  H15  1  0.90509000  0.12640000  0.18655000  1.0
  H  H16  1  0.03607000  0.72504000  0.49228000  1.0
  H  H17  1  0.46393000  0.27496000  0.99228000  1.0
  H  H18  1  0.53607000  0.77496000  0.50772000  1.0
  H  H19  1  0.96393000  0.22504000  0.00772000  1.0
  H  H20  1  0.09917000  0.46875000  0.28138000  1.0
  H  H21  1  0.40083000  0.53125000  0.78138000  1.0
  H  H22  1  0.59917000  0.03125000  0.71862000  1.0
  H  H23  1  0.90083000  0.96875000  0.21862000  1.0
  H  H24  1  0.98413000  0.53381000  0.24344000  1.0
  H  H25  1  0.51587000  0.46619000  0.74343000  1.0
  H  H26  1  0.48414000  0.96619000  0.75657000  1.0
  H  H27  1  0.01586000  0.03381000  0.25656000  1.0
  H  H28  1  0.86472000  0.37914000  0.23585000  1.0
  H  H29  1  0.63527000  0.62086000  0.73585000  1.0
  H  H30  1  0.36472000  0.12086000  0.76415000  1.0
  H  H31  1  0.13527000  0.87914000  0.26415000  1.0
  H  H32  1  0.99845000  0.38008000  0.19360000  1.0
  H  H33  1  0.50155000  0.61992000  0.69359000  1.0
  H  H34  1  0.49845000  0.11992000  0.80640000  1.0
  H  H35  1  0.00155000  0.88008000  0.30640000  1.0
  H  H36  1  0.05894000  0.14191000  0.32219000  1.0
  H  H37  1  0.44106000  0.85809000  0.82219000  1.0
  H  H38  1  0.55894000  0.35809000  0.67781000  1.0
  H  H39  1  0.94106000  0.64191000  0.17781000  1.0
  H  H40  1  0.42559000  0.14538000  0.26225000  1.0
  H  H41  1  0.07440000  0.85462000  0.76225000  1.0
  H  H42  1  0.92559000  0.35462000  0.73775000  1.0
  H  H43  1  0.57441000  0.64538000  0.23775000  1.0
  H  H44  1  0.19188000  0.37660000  0.21395000  1.0
  H  H45  1  0.30812000  0.62340000  0.71395000  1.0
  H  H46  1  0.69188000  0.12340000  0.78605000  1.0
  H  H47  1  0.80812000  0.87660000  0.28605000  1.0
  H  H48  1  0.94166000  0.82961000  0.40451000  1.0
  H  H49  1  0.55834000  0.17039000  0.90451000  1.0
  H  H50  1  0.44166000  0.67039000  0.59549000  1.0
  H  H51  1  0.05834000  0.32961000  0.09549000  1.0
  H  H52  1  0.78210000  0.74077000  0.40073000  1.0
  H  H53  1  0.71790000  0.25923000  0.90073000  1.0
  H  H54  1  0.28210000  0.75923000  0.59927000  1.0
  H  H55  1  0.21790000  0.24077000  0.09927000  1.0
  H  H56  1  0.63744000  0.79220000  0.41219000  1.0
  H  H57  1  0.86256000  0.20780000  0.91219000  1.0
  H  H58  1  0.13743000  0.70780000  0.58781000  1.0
  H  H59  1  0.36257000  0.29220000  0.08781000  1.0
  H  H60  1  0.72530000  0.75518000  0.47451000  1.0
  H  H61  1  0.77470000  0.24482000  0.97451000  1.0
  H  H62  1  0.22530000  0.74482000  0.52549000  1.0
  H  H63  1  0.27470000  0.25518000  0.02549000  1.0
  H  H64  1  0.68154000  0.95364000  0.49778000  1.0
  H  H65  1  0.81846000  0.04636000  0.99778000  1.0
  H  H66  1  0.18154000  0.54636000  0.50222000  1.0
  H  H67  1  0.31846000  0.45364000  0.00222000  1.0
  H  H68  1  0.62599000  0.96533000  0.42319000  1.0
  H  H69  1  0.87401000  0.03467000  0.92319000  1.0
  H  H70  1  0.12599000  0.53467000  0.57681000  1.0
  H  H71  1  0.37401000  0.46533000  0.07681000  1.0
  H  H72  1  0.75823000  0.02957000  0.44536000  1.0
  H  H73  1  0.74177000  0.97043000  0.94536000  1.0
  H  H74  1  0.25823000  0.47043000  0.55464000  1.0
  H  H75  1  0.24177000  0.52957000  0.05464000  1.0
  H  H76  1  0.14020000  0.07135000  0.57048000  1.0
  H  H77  1  0.35981000  0.92864000  0.07049000  1.0
  H  H78  1  0.64019000  0.42865000  0.42951000  1.0
  H  H79  1  0.85981000  0.57135000  0.92952000  1.0
  H  H80  1  0.93155000  0.87615000  0.58787000  1.0
  H  H81  1  0.56845000  0.12385000  0.08787000  1.0
  H  H82  1  0.43155000  0.62386000  0.41213000  1.0
  H  H83  1  0.06846000  0.37614000  0.91213000  1.0
  H  H84  1  0.84609000  0.94573000  0.63994000  1.0
  H  H85  1  0.65391000  0.05427000  0.13994000  1.0
  H  H86  1  0.34609000  0.55427000  0.36006000  1.0
  H  H87  1  0.15392000  0.44573000  0.86006000  1.0
  H  H88  1  0.96363000  0.86979000  0.66566000  1.0
  H  H89  1  0.53637000  0.13021000  0.16566000  1.0
  H  H90  1  0.46363000  0.63021000  0.33434000  1.0
  H  H91  1  0.03637000  0.36979000  0.83434000  1.0
  H  H92  1  0.09732000  0.12006000  0.65920000  1.0
  H  H93  1  0.40269000  0.87994000  0.15920000  1.0
  H  H94  1  0.59731000  0.37995000  0.34079000  1.0
  H  H95  1  0.90268000  0.62005000  0.84080000  1.0
  H  H96  1  0.07121000  0.02454000  0.71076000  1.0
  H  H97  1  0.42879000  0.97546000  0.21077000  1.0
  H  H98  1  0.57121000  0.47546000  0.28923000  1.0
  H  H99  1  0.92879000  0.52454000  0.78923000  1.0
  H  H100  1  0.94901000  0.09426000  0.68431000  1.0
  H  H101  1  0.55099000  0.90573000  0.18431000  1.0
  H  H102  1  0.44901000  0.40573000  0.31569000  1.0
  H  H103  1  0.05099000  0.59426000  0.81569000  1.0
  H  H104  1  0.30024000  0.15341000  0.43959000  1.0
  H  H105  1  0.19977000  0.84660000  0.93959000  1.0
  H  H106  1  0.80023000  0.34660000  0.56041000  1.0
  H  H107  1  0.69977000  0.65340000  0.06041000  1.0
  H  H108  1  0.38404000  0.28989000  0.42046000  1.0
  H  H109  1  0.11596000  0.71011000  0.92046000  1.0
  H  H110  1  0.88404000  0.21011000  0.57954000  1.0
  H  H111  1  0.61596000  0.78989000  0.07954000  1.0
  H  H112  1  0.32459000  0.38876000  0.46178000  1.0
  H  H113  1  0.17541000  0.61124000  0.96178000  1.0
  H  H114  1  0.82459000  0.11124000  0.53822000  1.0
  H  H115  1  0.67541000  0.88876000  0.03822000  1.0
  H  H116  1  0.29038000  0.37598000  0.38443000  1.0
  H  H117  1  0.20962000  0.62402000  0.88443000  1.0
  H  H118  1  0.79039000  0.12403000  0.61557000  1.0
  H  H119  1  0.70961000  0.87598000  0.11557000  1.0
  H  H120  1  0.05889000  0.35253000  0.39962000  1.0
  H  H121  1  0.44111000  0.64747000  0.89962000  1.0
  H  H122  1  0.55889000  0.14747000  0.60038000  1.0
  H  H123  1  0.94111000  0.85253000  0.10038000  1.0
  H  H124  1  0.09282000  0.38982000  0.47376000  1.0
  H  H125  1  0.40718000  0.61019000  0.97376000  1.0
  H  H126  1  0.59282000  0.11019000  0.52624000  1.0
  H  H127  1  0.90718000  0.88981000  0.02624000  1.0
  H  H128  1  0.01940000  0.27687000  0.46084000  1.0
  H  H129  1  0.48060000  0.72313000  0.96084000  1.0
  H  H130  1  0.51940000  0.22313000  0.53916000  1.0
  H  H131  1  0.98060000  0.77687000  0.03916000  1.0
  C  C132  1  0.88785000  0.58102000  0.52894000  1.0
  C  C133  1  0.61215000  0.41898000  0.02894000  1.0
  C  C134  1  0.38785000  0.91898000  0.47106000  1.0
  C  C135  1  0.11215000  0.08102000  0.97106000  1.0
  C  C136  1  0.94035000  0.59634000  0.46814000  1.0
  C  C137  1  0.55966000  0.40366000  0.96814000  1.0
  C  C138  1  0.44034000  0.90366000  0.53186000  1.0
  C  C139  1  0.05965000  0.09634000  0.03186000  1.0
  C  C140  1  0.91427000  0.53207000  0.42246000  1.0
  C  C141  1  0.58573000  0.46793000  0.92246000  1.0
  C  C142  1  0.41427000  0.96793000  0.57754000  1.0
  C  C143  1  0.08573000  0.03207000  0.07754000  1.0
  C  C144  1  0.96844000  0.54237000  0.36655000  1.0
  C  C145  1  0.53157000  0.45763000  0.86655000  1.0
  C  C146  1  0.46843000  0.95763000  0.63345000  1.0
  C  C147  1  0.03156000  0.04237000  0.13345000  1.0
  C  C148  1  0.05074000  0.61663000  0.35621000  1.0
  C  C149  1  0.44927000  0.38337000  0.85621000  1.0
  C  C150  1  0.55073000  0.88337000  0.64379000  1.0
  C  C151  1  0.94926000  0.11663000  0.14379000  1.0
  C  C152  1  0.07451000  0.68235000  0.40212000  1.0
  C  C153  1  0.42550000  0.31765000  0.90212000  1.0
  C  C154  1  0.57450000  0.81765000  0.59788000  1.0
  C  C155  1  0.92550000  0.18235000  0.09788000  1.0
  C  C156  1  0.01838000  0.67297000  0.45739000  1.0
  C  C157  1  0.48162000  0.32703000  0.95739000  1.0
  C  C158  1  0.51838000  0.82703000  0.54261000  1.0
  C  C159  1  0.98162000  0.17297000  0.04261000  1.0
  C  C160  1  0.15956000  0.76531000  0.39381000  1.0
  C  C161  1  0.34045000  0.23469000  0.89382000  1.0
  C  C162  1  0.65955000  0.73469000  0.60618000  1.0
  C  C163  1  0.84045000  0.26531000  0.10619000  1.0
  C  C164  1  0.00264000  0.47050000  0.27123000  1.0
  C  C165  1  0.49736000  0.52950000  0.77123000  1.0
  C  C166  1  0.50264000  0.02950000  0.72877000  1.0
  C  C167  1  0.99736000  0.97050000  0.22877000  1.0
  C  C168  1  0.96245000  0.38084000  0.23909000  1.0
  C  C169  1  0.53755000  0.61916000  0.73908000  1.0
  C  C170  1  0.46245000  0.11916000  0.76092000  1.0
  C  C171  1  0.03755000  0.88084000  0.26092000  1.0
  C  C172  1  0.10884000  0.26302000  0.26766000  1.0
  C  C173  1  0.39116000  0.73698000  0.76766000  1.0
  C  C174  1  0.60884000  0.23698000  0.73234000  1.0
  C  C175  1  0.89116000  0.76302000  0.23234000  1.0
  C  C176  1  0.13068000  0.17639000  0.29724000  1.0
  C  C177  1  0.36932000  0.82361000  0.79724000  1.0
  C  C178  1  0.63068000  0.32361000  0.70276000  1.0
  C  C179  1  0.86932000  0.67639000  0.20276000  1.0
  C  C180  1  0.24290000  0.13269000  0.29377000  1.0
  C  C181  1  0.25710000  0.86731000  0.79377000  1.0
  C  C182  1  0.74290000  0.36731000  0.70623000  1.0
  C  C183  1  0.75710000  0.63269000  0.20623000  1.0
  C  C184  1  0.33737000  0.17843000  0.26382000  1.0
  C  C185  1  0.16262000  0.82157000  0.76383000  1.0
  C  C186  1  0.83738000  0.32157000  0.73617000  1.0
  C  C187  1  0.66262000  0.67843000  0.23618000  1.0
  C  C188  1  0.31689000  0.26722000  0.23656000  1.0
  C  C189  1  0.18310000  0.73278000  0.73656000  1.0
  C  C190  1  0.81689000  0.23278000  0.76344000  1.0
  C  C191  1  0.68311000  0.76722000  0.26344000  1.0
  C  C192  1  0.20233000  0.30874000  0.23743000  1.0
  C  C193  1  0.29767000  0.69126000  0.73743000  1.0
  C  C194  1  0.70233000  0.19126000  0.76257000  1.0
  C  C195  1  0.79767000  0.80874000  0.26257000  1.0
  C  C196  1  0.41398000  0.32210000  0.20439000  1.0
  C  C197  1  0.08601000  0.67790000  0.70439000  1.0
  C  C198  1  0.91399000  0.17789000  0.79561000  1.0
  C  C199  1  0.58602000  0.82211000  0.29561000  1.0
  C  C200  1  0.25505000  0.03477000  0.32082000  1.0
  C  C201  1  0.24495000  0.96524000  0.82082000  1.0
  C  C202  1  0.75505000  0.46524000  0.67918000  1.0
  C  C203  1  0.74495000  0.53476000  0.17918000  1.0
  C  C204  1  0.89608000  0.89610000  0.41824000  1.0
  C  C205  1  0.60392000  0.10390000  0.91824000  1.0
  C  C206  1  0.39608000  0.60390000  0.58176000  1.0
  C  C207  1  0.10392000  0.39610000  0.08176000  1.0
  C  C208  1  0.72856000  0.78717000  0.42981000  1.0
  C  C209  1  0.77144000  0.21283000  0.92981000  1.0
  C  C210  1  0.22856000  0.71283000  0.57019000  1.0
  C  C211  1  0.27144000  0.28717000  0.07019000  1.0
  C  C212  1  0.70689000  0.96312000  0.45083000  1.0
  C  C213  1  0.79311000  0.03687000  0.95083000  1.0
  C  C214  1  0.20689000  0.53687000  0.54917000  1.0
  C  C215  1  0.29312000  0.46313000  0.04917000  1.0
  C  C216  1  0.08243000  0.00697000  0.57153000  1.0
  C  C217  1  0.41758000  0.99302000  0.07154000  1.0
  C  C218  1  0.58242000  0.49303000  0.42846000  1.0
  C  C219  1  0.91758000  0.50697000  0.92847000  1.0
  C  C220  1  0.93551000  0.91748000  0.62928000  1.0
  C  C221  1  0.56449000  0.08252000  0.12928000  1.0
  C  C222  1  0.43551000  0.58253000  0.37072000  1.0
  C  C223  1  0.06449000  0.41747000  0.87072000  1.0
  C  C224  1  0.03534000  0.06235000  0.67169000  1.0
  C  C225  1  0.46466000  0.93765000  0.17170000  1.0
  C  C226  1  0.53534000  0.43765000  0.32830000  1.0
  C  C227  1  0.96466000  0.56235000  0.82830000  1.0
  C  C228  1  0.20937000  0.18313000  0.44568000  1.0
  C  C229  1  0.29063000  0.81688000  0.94568000  1.0
  C  C230  1  0.70937000  0.31688000  0.55432000  1.0
  C  C231  1  0.79063000  0.68312000  0.05432000  1.0
  C  C232  1  0.30589000  0.33666000  0.42618000  1.0
  C  C233  1  0.19412000  0.66334000  0.92618000  1.0
  C  C234  1  0.80589000  0.16335000  0.57382000  1.0
  C  C235  1  0.69411000  0.83665000  0.07382000  1.0
  C  C236  1  0.08638000  0.32748000  0.44402000  1.0
  C  C237  1  0.41362000  0.67252000  0.94402000  1.0
  C  C238  1  0.58638000  0.17253000  0.55598000  1.0
  C  C239  1  0.91362000  0.82747000  0.05598000  1.0
  N  N240  1  0.78117000  0.88320000  0.43154000  1.0
  N  N241  1  0.71883000  0.11680000  0.93154000  1.0
  N  N242  1  0.28117000  0.61680000  0.56846000  1.0
  N  N243  1  0.21883000  0.38320000  0.06846000  1.0
  N  N244  1  0.01943000  0.99683000  0.62173000  1.0
  N  N245  1  0.48057000  0.00317000  0.12173000  1.0
  N  N246  1  0.51943000  0.50317000  0.37827000  1.0
  N  N247  1  0.98057000  0.49683000  0.87827000  1.0
  N  N248  1  0.20151000  0.27873000  0.44057000  1.0
  N  N249  1  0.29849000  0.72127000  0.94057000  1.0
  N  N250  1  0.70151000  0.22127000  0.55943000  1.0
  N  N251  1  0.79849000  0.77873000  0.05943000  1.0
  O  O252  1  0.81751000  0.51027000  0.53628000  1.0
  O  O253  1  0.68249000  0.48973000  0.03628000  1.0
  O  O254  1  0.31751000  0.98973000  0.46372000  1.0
  O  O255  1  0.18249000  0.01027000  0.96372000  1.0
  O  O256  1  0.92140000  0.64010000  0.56919000  1.0
  O  O257  1  0.57860000  0.35991000  0.06919000  1.0
  O  O258  1  0.42140000  0.85991000  0.43081000  1.0
  O  O259  1  0.07860000  0.14009000  0.93081000  1.0
  O  O260  1  0.23019000  0.76410000  0.34899000  1.0
  O  O261  1  0.26981000  0.23590000  0.84899000  1.0
  O  O262  1  0.73019000  0.73590000  0.65101000  1.0
  O  O263  1  0.76981000  0.26410000  0.15101000  1.0
  O  O264  1  0.15500000  0.83011000  0.43338000  1.0
  O  O265  1  0.34500000  0.16989000  0.93338000  1.0
  O  O266  1  0.65500000  0.66989000  0.56662000  1.0
  O  O267  1  0.84500000  0.33011000  0.06662000  1.0
  O  O268  1  0.93573000  0.47493000  0.32564000  1.0
  O  O269  1  0.56427000  0.52507000  0.82564000  1.0
  O  O270  1  0.43573000  0.02507000  0.67436000  1.0
  O  O271  1  0.06427000  0.97493000  0.17436000  1.0
  O  O272  1  0.99331000  0.29475000  0.27061000  1.0
  O  O273  1  0.50669000  0.70525000  0.77061000  1.0
  O  O274  1  0.49331000  0.20525000  0.72939000  1.0
  O  O275  1  0.00669000  0.79475000  0.22939000  1.0
  O  O276  1  0.51892000  0.28123000  0.20292000  1.0
  O  O277  1  0.98107000  0.71878000  0.70292000  1.0
  O  O278  1  0.01892000  0.21877000  0.79708000  1.0
  O  O279  1  0.48108000  0.78123000  0.29708000  1.0
  O  O280  1  0.39028000  0.40126000  0.18103000  1.0
  O  O281  1  0.10972000  0.59874000  0.68103000  1.0
  O  O282  1  0.89028000  0.09873000  0.81897000  1.0
  O  O283  1  0.60972000  0.90127000  0.31897000  1.0
  O  O284  1  0.34999000  0.98676000  0.30906000  1.0
  O  O285  1  0.15001000  0.01324000  0.80906000  1.0
  O  O286  1  0.84999000  0.51324000  0.69094000  1.0
  O  O287  1  0.65001000  0.48676000  0.19094000  1.0
  O  O288  1  0.16824000  0.00313000  0.35141000  1.0
  O  O289  1  0.33176000  0.99687000  0.85141000  1.0
  O  O290  1  0.66824000  0.49687000  0.64859000  1.0
  O  O291  1  0.83176000  0.50313000  0.14859000  1.0
  O  O292  1  0.95036000  0.97535000  0.42088000  1.0
  O  O293  1  0.54965000  0.02465000  0.92088000  1.0
  O  O294  1  0.45035000  0.52465000  0.57913000  1.0
  O  O295  1  0.04965000  0.47535000  0.07913000  1.0
  O  O296  1  0.07754000  0.94979000  0.52846000  1.0
  O  O297  1  0.42247000  0.05021000  0.02846000  1.0
  O  O298  1  0.57753000  0.55021000  0.47154000  1.0
  O  O299  1  0.92247000  0.44978000  0.97154000  1.0
  O  O300  1  0.12195000  0.12952000  0.45692000  1.0
  O  O301  1  0.37805000  0.87048000  0.95692000  1.0
  O  O302  1  0.62194000  0.37048000  0.54308000  1.0
  O  O303  1  0.87806000  0.62952000  0.04308000  1.0
