# generated using pymatgen
data_Nd2H11C11NO16
_symmetry_space_group_name_H-M   'P 1'
_cell_length_a   9.71973000
_cell_length_b   9.78489000
_cell_length_c   12.42700000
_cell_angle_alpha   70.73750000
_cell_angle_beta   81.96530000
_cell_angle_gamma   63.73050000
_symmetry_Int_Tables_number   1
_chemical_formula_structural   Nd2H11C11NO16
_chemical_formula_sum   'Nd4 H22 C22 N2 O32'
_cell_volume   1000.46617057
_cell_formula_units_Z   2
loop_
 _symmetry_equiv_pos_site_id
 _symmetry_equiv_pos_as_xyz
  1  'x, y, z'
loop_
 _atom_site_type_symbol
 _atom_site_label
 _atom_site_symmetry_multiplicity
 _atom_site_fract_x
 _atom_site_fract_y
 _atom_site_fract_z
 _atom_site_occupancy
  Nd  Nd0  1  0.26515000  0.21889000  0.23431000  1.0
  Nd  Nd1  1  0.73485000  0.78111000  0.76569000  1.0
  Nd  Nd2  1  0.73348000  0.27777000  0.25958000  1.0
  Nd  Nd3  1  0.26653000  0.72223000  0.74042000  1.0
  H  H4  1  0.22119000  0.15669000  0.01786000  1.0
  H  H5  1  0.77882000  0.84331000  0.98214000  1.0
  H  H6  1  0.05585000  0.22744000  0.07303000  1.0
  H  H7  1  0.94416000  0.77254000  0.92696000  1.0
  H  H8  1  0.53484000  0.86395000  0.28662000  1.0
  H  H9  1  0.46515000  0.13606000  0.71338000  1.0
  H  H10  1  0.58351000  0.98054000  0.32300000  1.0
  H  H11  1  0.41648000  0.01947000  0.67700000  1.0
  H  H12  1  0.68420000  0.04798000  0.17051000  1.0
  H  H13  1  0.31579000  0.95202000  0.82949000  1.0
  H  H14  1  0.60430000  0.20618000  0.07863000  1.0
  H  H15  1  0.39570000  0.79382000  0.92137000  1.0
  H  H16  1  0.99451000  0.01719000  0.17994000  1.0
  H  H17  1  0.00548000  0.98282000  0.82007000  1.0
  H  H18  1  0.06077000  0.99585000  0.29586000  1.0
  H  H19  1  0.93923000  0.00415000  0.70414000  1.0
  H  H20  1  0.26301000  0.64762000  0.43512000  1.0
  H  H21  1  0.73699000  0.35236000  0.56488000  1.0
  H  H22  1  0.98020000  0.79036000  0.45483000  1.0
  H  H23  1  0.01980000  0.20965000  0.54517000  1.0
  H  H24  1  0.80554000  0.70605000  0.38628000  1.0
  H  H25  1  0.19446000  0.29395000  0.61372000  1.0
  C  C26  1  0.40753000  0.41076000  0.32812000  1.0
  C  C27  1  0.59247000  0.58924000  0.67187000  1.0
  C  C28  1  0.24081000  0.49684000  0.35202000  1.0
  C  C29  1  0.75919000  0.50316000  0.64798000  1.0
  C  C30  1  0.18448000  0.61726000  0.40397000  1.0
  C  C31  1  0.81552000  0.38274000  0.59603000  1.0
  C  C32  1  0.02593000  0.69569000  0.41489000  1.0
  C  C33  1  0.97407000  0.30431000  0.58510000  1.0
  C  C34  1  0.92944000  0.64971000  0.37678000  1.0
  C  C35  1  0.07055000  0.35030000  0.62321000  1.0
  C  C36  1  0.99626000  0.52241000  0.33094000  1.0
  C  C37  1  0.00374000  0.47761000  0.66905000  1.0
  C  C38  1  0.90862000  0.44807000  0.29826000  1.0
  C  C39  1  0.09138000  0.55194000  0.70173000  1.0
  C  C40  1  0.29948000  0.01496000  0.51246000  1.0
  C  C41  1  0.70050000  0.98506000  0.48753000  1.0
  C  C42  1  0.22414000  0.93680000  0.46425000  1.0
  C  C43  1  0.77586000  0.06321000  0.53576000  1.0
  C  C44  1  0.35272000  0.41815000  0.97771000  1.0
  C  C45  1  0.64728000  0.58183000  0.02230000  1.0
  C  C46  1  0.18523000  0.52907000  0.99985000  1.0
  C  C47  1  0.81477000  0.47091000  0.00016000  1.0
  N  N48  1  0.14832000  0.44999000  0.31828000  1.0
  N  N49  1  0.85168000  0.55002000  0.68171000  1.0
  O  O50  1  0.44046000  0.32494000  0.26042000  1.0
  O  O51  1  0.55954000  0.67507000  0.73958000  1.0
  O  O52  1  0.50872000  0.42498000  0.37057000  1.0
  O  O53  1  0.49129000  0.57501000  0.62943000  1.0
  O  O54  1  0.98920000  0.30965000  0.28330000  1.0
  O  O55  1  0.01080000  0.69036000  0.71669000  1.0
  O  O56  1  0.76470000  0.51522000  0.28978000  1.0
  O  O57  1  0.23530000  0.48479000  0.71021000  1.0
  O  O58  1  0.16765000  0.14905000  0.09027000  1.0
  O  O59  1  0.83236000  0.85094000  0.90972000  1.0
  O  O60  1  0.52732000  0.97233000  0.26371000  1.0
  O  O61  1  0.47268000  0.02767000  0.73629000  1.0
  O  O62  1  0.32354000  0.96048000  0.61969000  1.0
  O  O63  1  0.67645000  0.03956000  0.38031000  1.0
  O  O64  1  0.32725000  0.12726000  0.44459000  1.0
  O  O65  1  0.67275000  0.87274000  0.55542000  1.0
  O  O66  1  0.17874000  0.83958000  0.53481000  1.0
  O  O67  1  0.82128000  0.16043000  0.46520000  1.0
  O  O68  1  0.21249000  0.98060000  0.35581000  1.0
  O  O69  1  0.78750000  0.01940000  0.64420000  1.0
  O  O70  1  0.41976000  0.47352000  0.89252000  1.0
  O  O71  1  0.58023000  0.52647000  0.10749000  1.0
  O  O72  1  0.40883000  0.27858000  0.04950000  1.0
  O  O73  1  0.59117000  0.72140000  0.95050000  1.0
  O  O74  1  0.12546000  0.66350000  0.92325000  1.0
  O  O75  1  0.87454000  0.33648000  0.07674000  1.0
  O  O76  1  0.12109000  0.48085000  0.08973000  1.0
  O  O77  1  0.87891000  0.51914000  0.91026000  1.0
  O  O78  1  0.70073000  0.14239000  0.12496000  1.0
  O  O79  1  0.29927000  0.85760000  0.87505000  1.0
  O  O80  1  0.96437000  0.02335000  0.25684000  1.0
  O  O81  1  0.03563000  0.97665000  0.74316000  1.0
