# generated using pymatgen
data_ZnH26(C7N)6
_symmetry_space_group_name_H-M   'P 1'
_cell_length_a   11.70390000
_cell_length_b   14.99950000
_cell_length_c   16.65520000
_cell_angle_alpha   90.13650000
_cell_angle_beta   105.02500000
_cell_angle_gamma   98.98650000
_symmetry_Int_Tables_number   1
_chemical_formula_structural   ZnH26(C7N)6
_chemical_formula_sum   'Zn3 H78 C126 N18'
_cell_volume   2786.42407008
_cell_formula_units_Z   3
loop_
 _symmetry_equiv_pos_site_id
 _symmetry_equiv_pos_as_xyz
  1  'x, y, z'
loop_
 _atom_site_type_symbol
 _atom_site_label
 _atom_site_symmetry_multiplicity
 _atom_site_fract_x
 _atom_site_fract_y
 _atom_site_fract_z
 _atom_site_occupancy
  Zn  Zn0  1  0.11342000  0.43238000  0.14241000  1.0
  Zn  Zn1  1  0.88657000  0.56762000  0.85758000  1.0
  Zn  Zn2  1  0.50000000  0.00000000  0.50000000  1.0
  H  H3  1  0.00391000  0.48403000  0.42751000  1.0
  H  H4  1  0.99609000  0.51597000  0.57249000  1.0
  H  H5  1  0.13395000  0.64103000  0.40590000  1.0
  H  H6  1  0.86605000  0.35897000  0.59410000  1.0
  H  H7  1  0.40288000  0.74419000  0.19337000  1.0
  H  H8  1  0.59712000  0.25581000  0.80663000  1.0
  H  H9  1  0.41296000  0.67793000  0.04558000  1.0
  H  H10  1  0.58703000  0.32206000  0.95442000  1.0
  H  H11  1  0.14127000  0.41191000  0.83129000  1.0
  H  H12  1  0.85873000  0.58808000  0.16871000  1.0
  H  H13  1  0.98545000  0.26431000  0.84412000  1.0
  H  H14  1  0.01455000  0.73569000  0.15588000  1.0
  H  H15  1  0.85794000  0.10535000  0.10558000  1.0
  H  H16  1  0.14205000  0.89465000  0.89443000  1.0
  H  H17  1  0.88005000  0.15859000  0.26325000  1.0
  H  H18  1  0.11996000  0.84141000  0.73675000  1.0
  H  H19  1  0.21356000  0.81222000  0.22085000  1.0
  H  H20  1  0.78645000  0.18778000  0.77914000  1.0
  H  H21  1  0.30740000  0.94674000  0.31725000  1.0
  H  H22  1  0.69260000  0.05326000  0.68275000  1.0
  H  H23  1  0.45460000  0.78721000  0.50597000  1.0
  H  H24  1  0.54540000  0.21280000  0.49403000  1.0
  H  H25  1  0.36459000  0.64556000  0.41869000  1.0
  H  H26  1  0.63540000  0.35444000  0.58131000  1.0
  H  H27  1  0.23802000  0.67554000  0.90781000  1.0
  H  H28  1  0.76197000  0.32445000  0.09219000  1.0
  H  H29  1  0.35969000  0.73169000  0.81139000  1.0
  H  H30  1  0.64031000  0.26831000  0.18861000  1.0
  H  H31  1  0.49479000  0.63633000  0.77224000  1.0
  H  H32  1  0.50521000  0.36367000  0.22777000  1.0
  H  H33  1  0.51071000  0.48566000  0.83333000  1.0
  H  H34  1  0.48929000  0.51435000  0.16668000  1.0
  H  H35  1  0.38906000  0.43012000  0.93063000  1.0
  H  H36  1  0.61095000  0.56988000  0.06938000  1.0
  H  H37  1  0.05570000  0.12590000  0.93794000  1.0
  H  H38  1  0.94429000  0.87410000  0.06206000  1.0
  H  H39  1  0.94569000  0.98453000  0.85660000  1.0
  H  H40  1  0.05431000  0.01547000  0.14340000  1.0
  H  H41  1  0.61991000  0.03588000  0.88315000  1.0
  H  H42  1  0.38008000  0.96412000  0.11685000  1.0
  H  H43  1  0.71683000  0.17829000  0.96828000  1.0
  H  H44  1  0.28316000  0.82170000  0.03173000  1.0
  H  H45  1  0.76025000  0.26652000  0.30703000  1.0
  H  H46  1  0.23975000  0.73348000  0.69297000  1.0
  H  H47  1  0.70605000  0.19126000  0.42709000  1.0
  H  H48  1  0.29395000  0.80874000  0.57291000  1.0
  H  H49  1  0.86056000  0.18996000  0.56161000  1.0
  H  H50  1  0.13944000  0.81004000  0.43840000  1.0
  H  H51  1  0.06870000  0.26927000  0.57585000  1.0
  H  H52  1  0.93130000  0.73073000  0.42415000  1.0
  H  H53  1  0.12419000  0.34187000  0.45440000  1.0
  H  H54  1  0.87582000  0.65813000  0.54559000  1.0
  H  H55  1  0.12344000  0.14585000  0.51327000  1.0
  H  H56  1  0.87657000  0.85416000  0.48673000  1.0
  H  H57  1  0.17880000  0.20988000  0.37581000  1.0
  H  H58  1  0.82119000  0.79012000  0.62418000  1.0
  H  H59  1  0.50725000  0.15542000  0.21323000  1.0
  H  H60  1  0.49275000  0.84458000  0.78677000  1.0
  H  H61  1  0.68112000  0.05259000  0.23880000  1.0
  H  H62  1  0.31888000  0.94742000  0.76119000  1.0
  H  H63  1  0.28558000  0.13748000  0.17843000  1.0
  H  H64  1  0.71441000  0.86252000  0.82157000  1.0
  H  H65  1  0.20725000  0.26570000  0.09718000  1.0
  H  H66  1  0.79276000  0.73430000  0.90281000  1.0
  H  H67  1  0.31345000  0.43962000  0.30550000  1.0
  H  H68  1  0.68655000  0.56038000  0.69449000  1.0
  H  H69  1  0.40313000  0.32143000  0.39484000  1.0
  H  H70  1  0.59687000  0.67857000  0.60516000  1.0
  H  H71  1  0.69668000  0.81401000  0.30355000  1.0
  H  H72  1  0.30332000  0.18600000  0.69646000  1.0
  H  H73  1  0.84991000  0.77181000  0.23705000  1.0
  H  H74  1  0.15010000  0.22819000  0.76296000  1.0
  H  H75  1  0.04211000  0.87700000  0.25175000  1.0
  H  H76  1  0.95790000  0.12300000  0.74826000  1.0
  H  H77  1  0.07816000  0.02499000  0.32943000  1.0
  H  H78  1  0.92185000  0.97501000  0.67057000  1.0
  H  H79  1  0.92446000  0.06707000  0.39457000  1.0
  H  H80  1  0.07554000  0.93294000  0.60543000  1.0
  C  C81  1  0.03887000  0.43965000  0.30771000  1.0
  C  C82  1  0.96113000  0.56035000  0.69229000  1.0
  C  C83  1  0.04595000  0.50010000  0.37731000  1.0
  C  C84  1  0.95405000  0.49990000  0.62269000  1.0
  C  C85  1  0.11217000  0.58023000  0.36600000  1.0
  C  C86  1  0.88783000  0.41976000  0.63400000  1.0
  C  C87  1  0.14672000  0.56900000  0.28961000  1.0
  C  C88  1  0.85328000  0.43100000  0.71039000  1.0
  C  C89  1  0.22364000  0.63378000  0.25861000  1.0
  C  C90  1  0.77636000  0.36622000  0.74139000  1.0
  C  C91  1  0.25496000  0.62483000  0.18302000  1.0
  C  C92  1  0.74504000  0.37517000  0.81699000  1.0
  C  C93  1  0.34765000  0.68492000  0.15787000  1.0
  C  C94  1  0.65235000  0.31508000  0.84213000  1.0
  C  C95  1  0.35272000  0.65137000  0.08265000  1.0
  C  C96  1  0.64728000  0.34863000  0.91735000  1.0
  C  C97  1  0.26211000  0.57126000  0.06091000  1.0
  C  C98  1  0.73788000  0.42874000  0.93909000  1.0
  C  C99  1  0.23585000  0.51782000  0.98649000  1.0
  C  C100  1  0.76415000  0.48218000  0.01351000  1.0
  C  C101  1  0.15101000  0.43778000  0.96655000  1.0
  C  C102  1  0.84900000  0.56222000  0.03345000  1.0
  C  C103  1  0.11320000  0.38967000  0.88616000  1.0
  C  C104  1  0.88680000  0.61032000  0.11384000  1.0
  C  C105  1  0.03373000  0.31473000  0.89287000  1.0
  C  C106  1  0.96627000  0.68527000  0.10713000  1.0
  C  C107  1  0.02284000  0.31604000  0.97761000  1.0
  C  C108  1  0.97716000  0.68396000  0.02239000  1.0
  C  C109  1  0.95583000  0.24772000  0.01262000  1.0
  C  C110  1  0.04416000  0.75228000  0.98737000  1.0
  C  C111  1  0.94483000  0.24918000  0.09525000  1.0
  C  C112  1  0.05517000  0.75082000  0.90475000  1.0
  C  C113  1  0.89452000  0.17214000  0.13461000  1.0
  C  C114  1  0.10548000  0.82786000  0.86539000  1.0
  C  C115  1  0.90550000  0.19932000  0.21508000  1.0
  C  C116  1  0.09450000  0.80068000  0.78492000  1.0
  C  C117  1  0.96014000  0.29350000  0.22501000  1.0
  C  C118  1  0.03986000  0.70650000  0.77499000  1.0
  C  C119  1  0.98246000  0.34851000  0.29823000  1.0
  C  C120  1  0.01753000  0.65149000  0.70177000  1.0
  C  C121  1  0.27968000  0.71657000  0.31200000  1.0
  C  C122  1  0.72032000  0.28343000  0.68800000  1.0
  C  C123  1  0.26553000  0.80341000  0.28401000  1.0
  C  C124  1  0.73447000  0.19659000  0.71599000  1.0
  C  C125  1  0.31785000  0.87863000  0.33767000  1.0
  C  C126  1  0.68215000  0.12137000  0.66233000  1.0
  C  C127  1  0.39907000  0.78978000  0.44260000  1.0
  C  C128  1  0.60092000  0.21023000  0.55740000  1.0
  C  C129  1  0.34930000  0.71105000  0.39374000  1.0
  C  C130  1  0.65070000  0.28895000  0.60626000  1.0
  C  C131  1  0.30459000  0.54894000  0.92532000  1.0
  C  C132  1  0.69541000  0.45105000  0.07468000  1.0
  C  C133  1  0.29815000  0.63428000  0.89157000  1.0
  C  C134  1  0.70185000  0.36571000  0.10843000  1.0
  C  C135  1  0.36620000  0.66527000  0.83693000  1.0
  C  C136  1  0.63380000  0.33473000  0.16307000  1.0
  C  C137  1  0.44195000  0.61184000  0.81510000  1.0
  C  C138  1  0.55805000  0.38816000  0.18490000  1.0
  C  C139  1  0.44970000  0.52697000  0.84857000  1.0
  C  C140  1  0.55031000  0.47303000  0.15144000  1.0
  C  C141  1  0.38117000  0.49555000  0.90307000  1.0
  C  C142  1  0.61884000  0.50445000  0.09693000  1.0
  C  C143  1  0.89523000  0.16455000  0.96063000  1.0
  C  C144  1  0.10476000  0.83545000  0.03936000  1.0
  C  C145  1  0.95877000  0.10868000  0.92729000  1.0
  C  C146  1  0.04122000  0.89132000  0.07271000  1.0
  C  C147  1  0.89716000  0.02956000  0.88178000  1.0
  C  C148  1  0.10283000  0.97043000  0.11822000  1.0
  C  C149  1  0.71700000  0.05749000  0.89745000  1.0
  C  C150  1  0.28299000  0.94251000  0.10254000  1.0
  C  C151  1  0.77078000  0.13691000  0.94482000  1.0
  C  C152  1  0.22921000  0.86309000  0.05519000  1.0
  C  C153  1  0.94662000  0.30798000  0.37132000  1.0
  C  C154  1  0.05338000  0.69202000  0.62868000  1.0
  C  C155  1  0.82851000  0.26604000  0.36546000  1.0
  C  C156  1  0.17149000  0.73396000  0.63454000  1.0
  C  C157  1  0.79774000  0.22440000  0.43340000  1.0
  C  C158  1  0.20226000  0.77561000  0.56660000  1.0
  C  C159  1  0.88415000  0.22422000  0.50903000  1.0
  C  C160  1  0.11585000  0.77578000  0.49097000  1.0
  C  C161  1  0.00107000  0.26825000  0.51667000  1.0
  C  C162  1  0.99894000  0.73175000  0.48333000  1.0
  C  C163  1  0.03203000  0.30960000  0.44859000  1.0
  C  C164  1  0.96797000  0.69041000  0.55141000  1.0
  C  C165  1  0.28398000  0.07604000  0.52645000  1.0
  C  C166  1  0.71602000  0.92397000  0.47355000  1.0
  C  C167  1  0.19745000  0.13324000  0.48949000  1.0
  C  C168  1  0.80255000  0.86677000  0.51051000  1.0
  C  C169  1  0.22607000  0.16597000  0.41951000  1.0
  C  C170  1  0.77393000  0.83403000  0.58048000  1.0
  C  C171  1  0.33036000  0.12803000  0.41289000  1.0
  C  C172  1  0.66964000  0.87198000  0.58710000  1.0
  C  C173  1  0.38958000  0.14598000  0.34920000  1.0
  C  C174  1  0.61042000  0.85402000  0.65080000  1.0
  C  C175  1  0.48420000  0.10419000  0.33675000  1.0
  C  C176  1  0.51580000  0.89581000  0.66325000  1.0
  C  C177  1  0.53564000  0.11462000  0.26616000  1.0
  C  C178  1  0.46436000  0.88538000  0.73384000  1.0
  C  C179  1  0.62366000  0.06191000  0.27888000  1.0
  C  C180  1  0.37634000  0.93809000  0.72112000  1.0
  C  C181  1  0.62850000  0.02092000  0.35819000  1.0
  C  C182  1  0.37150000  0.97908000  0.64181000  1.0
  C  C183  1  0.35008000  0.21894000  0.29404000  1.0
  C  C184  1  0.64993000  0.78106000  0.70596000  1.0
  C  C185  1  0.29771000  0.20462000  0.20836000  1.0
  C  C186  1  0.70229000  0.79538000  0.79164000  1.0
  C  C187  1  0.25255000  0.27519000  0.16342000  1.0
  C  C188  1  0.74745000  0.72481000  0.83657000  1.0
  C  C189  1  0.31159000  0.37241000  0.27943000  1.0
  C  C190  1  0.68841000  0.62759000  0.72056000  1.0
  C  C191  1  0.36035000  0.30623000  0.32888000  1.0
  C  C192  1  0.63965000  0.69377000  0.67112000  1.0
  C  C193  1  0.71077000  0.96483000  0.39673000  1.0
  C  C194  1  0.28923000  0.03518000  0.60327000  1.0
  C  C195  1  0.80022000  0.94345000  0.35277000  1.0
  C  C196  1  0.19978000  0.05656000  0.64723000  1.0
  C  C197  1  0.78002000  0.86047000  0.30808000  1.0
  C  C198  1  0.21999000  0.13954000  0.69192000  1.0
  C  C199  1  0.86615000  0.83669000  0.27126000  1.0
  C  C200  1  0.13386000  0.16331000  0.72875000  1.0
  C  C201  1  0.97371000  0.89576000  0.27915000  1.0
  C  C202  1  0.02630000  0.10424000  0.72086000  1.0
  C  C203  1  0.99412000  0.97886000  0.32272000  1.0
  C  C204  1  0.00589000  0.02115000  0.67729000  1.0
  C  C205  1  0.90775000  0.00284000  0.35925000  1.0
  C  C206  1  0.09226000  0.99717000  0.64075000  1.0
  N  N207  1  0.09758000  0.48424000  0.25417000  1.0
  N  N208  1  0.90242000  0.51575000  0.74583000  1.0
  N  N209  1  0.20614000  0.55608000  0.12378000  1.0
  N  N210  1  0.79386000  0.44392000  0.87622000  1.0
  N  N211  1  0.09258000  0.39266000  0.02001000  1.0
  N  N212  1  0.90742000  0.60734000  0.97999000  1.0
  N  N213  1  0.98483000  0.32140000  0.15168000  1.0
  N  N214  1  0.01517000  0.67859000  0.84832000  1.0
  N  N215  1  0.38338000  0.87248000  0.41599000  1.0
  N  N216  1  0.61662000  0.12752000  0.58401000  1.0
  N  N217  1  0.77811000  0.00362000  0.86629000  1.0
  N  N218  1  0.22188000  0.99638000  0.13371000  1.0
  N  N219  1  0.36104000  0.07237000  0.47732000  1.0
  N  N220  1  0.63896000  0.92763000  0.52268000  1.0
  N  N221  1  0.54246000  0.04742000  0.39112000  1.0
  N  N222  1  0.45754000  0.95258000  0.60888000  1.0
  N  N223  1  0.25594000  0.35696000  0.19813000  1.0
  N  N224  1  0.74405000  0.64304000  0.80186000  1.0
