# generated using pymatgen
data_CdH21C33(NO2)3
_symmetry_space_group_name_H-M   'P 1'
_cell_length_a   10.01190000
_cell_length_b   10.37910000
_cell_length_c   14.08630000
_cell_angle_alpha   99.57050000
_cell_angle_beta   93.93250000
_cell_angle_gamma   102.46100000
_symmetry_Int_Tables_number   1
_chemical_formula_structural   CdH21C33(NO2)3
_chemical_formula_sum   'Cd2 H42 C66 N6 O12'
_cell_volume   1401.07760141
_cell_formula_units_Z   2
loop_
 _symmetry_equiv_pos_site_id
 _symmetry_equiv_pos_as_xyz
  1  'x, y, z'
loop_
 _atom_site_type_symbol
 _atom_site_label
 _atom_site_symmetry_multiplicity
 _atom_site_fract_x
 _atom_site_fract_y
 _atom_site_fract_z
 _atom_site_occupancy
  Cd  Cd0  1  0.07592000  0.87307000  0.92147000  1.0
  Cd  Cd1  1  0.92408000  0.12693000  0.07853000  1.0
  H  H2  1  0.34319000  0.74507000  0.86614000  1.0
  H  H3  1  0.65681000  0.25492000  0.13387000  1.0
  H  H4  1  0.39283000  0.52440000  0.79439000  1.0
  H  H5  1  0.60717000  0.47559000  0.20561000  1.0
  H  H6  1  0.20444000  0.31472000  0.77499000  1.0
  H  H7  1  0.79556000  0.68528000  0.22501000  1.0
  H  H8  1  0.96410000  0.20776000  0.79822000  1.0
  H  H9  1  0.03590000  0.79223000  0.20178000  1.0
  H  H10  1  0.73426000  0.23256000  0.84438000  1.0
  H  H11  1  0.26573000  0.76743000  0.15563000  1.0
  H  H12  1  0.58060000  0.37976000  0.90312000  1.0
  H  H13  1  0.41940000  0.62024000  0.09688000  1.0
  H  H14  1  0.55111000  0.61343000  0.96516000  1.0
  H  H15  1  0.44888000  0.38657000  0.03484000  1.0
  H  H16  1  0.75336000  0.80655000  0.98267000  1.0
  H  H17  1  0.24664000  0.19345000  0.01733000  1.0
  H  H18  1  0.39423000  0.24252000  0.79968000  1.0
  H  H19  1  0.60577000  0.75749000  0.20032000  1.0
  H  H20  1  0.51067000  0.34289000  0.67022000  1.0
  H  H21  1  0.48933000  0.65711000  0.32978000  1.0
  H  H22  1  0.31214000  0.98499000  0.46397000  1.0
  H  H23  1  0.68787000  0.01501000  0.53603000  1.0
  H  H24  1  0.18575000  0.89468000  0.58987000  1.0
  H  H25  1  0.81425000  0.10532000  0.41012000  1.0
  H  H26  1  0.69563000  0.24069000  0.61183000  1.0
  H  H27  1  0.30438000  0.75931000  0.38817000  1.0
  H  H28  1  0.90291000  0.42666000  0.65295000  1.0
  H  H29  1  0.09709000  0.57334000  0.34705000  1.0
  H  H30  1  0.76159000  0.61522000  0.42848000  1.0
  H  H31  1  0.23841000  0.38478000  0.57153000  1.0
  H  H32  1  0.54840000  0.43170000  0.38957000  1.0
  H  H33  1  0.45160000  0.56830000  0.61043000  1.0
  H  H34  1  0.60736000  0.16943000  0.32327000  1.0
  H  H35  1  0.39264000  0.83057000  0.67673000  1.0
  H  H36  1  0.48954000  0.06082000  0.15817000  1.0
  H  H37  1  0.51046000  0.93918000  0.84182000  1.0
  H  H38  1  0.09805000  0.08467000  0.25963000  1.0
  H  H39  1  0.90195000  0.91534000  0.74037000  1.0
  H  H40  1  0.21254000  0.18309000  0.42427000  1.0
  H  H41  1  0.78747000  0.81691000  0.57573000  1.0
  H  H42  1  0.08817000  0.74821000  0.68622000  1.0
  H  H43  1  0.91183000  0.25179000  0.31378000  1.0
  C  C44  1  0.26374000  0.65204000  0.85529000  1.0
  C  C45  1  0.73625000  0.34796000  0.14471000  1.0
  C  C46  1  0.29099000  0.52797000  0.81584000  1.0
  C  C47  1  0.70900000  0.47201000  0.18416000  1.0
  C  C48  1  0.18741000  0.41281000  0.80503000  1.0
  C  C49  1  0.81258000  0.58719000  0.19497000  1.0
  C  C50  1  0.05659000  0.42190000  0.83288000  1.0
  C  C51  1  0.94341000  0.57810000  0.16712000  1.0
  C  C52  1  0.94519000  0.30651000  0.82430000  1.0
  C  C53  1  0.05480000  0.69349000  0.17571000  1.0
  C  C54  1  0.81893000  0.32010000  0.84941000  1.0
  C  C55  1  0.18107000  0.67990000  0.15059000  1.0
  C  C56  1  0.79504000  0.44972000  0.88479000  1.0
  C  C57  1  0.20495000  0.55027000  0.11521000  1.0
  C  C58  1  0.66555000  0.46781000  0.91054000  1.0
  C  C59  1  0.33445000  0.53219000  0.08947000  1.0
  C  C60  1  0.64932000  0.59555000  0.94454000  1.0
  C  C61  1  0.35068000  0.40444000  0.05546000  1.0
  C  C62  1  0.76234000  0.70560000  0.95271000  1.0
  C  C63  1  0.23766000  0.29440000  0.04729000  1.0
  C  C64  1  0.03751000  0.55213000  0.86946000  1.0
  C  C65  1  0.96248000  0.44787000  0.13054000  1.0
  C  C66  1  0.90339000  0.56677000  0.89489000  1.0
  C  C67  1  0.09660000  0.43322000  0.10511000  1.0
  C  C68  1  0.21116000  0.00957000  0.78380000  1.0
  C  C69  1  0.78884000  0.99043000  0.21620000  1.0
  C  C70  1  0.28191000  0.06312000  0.70443000  1.0
  C  C71  1  0.71809000  0.93688000  0.29556000  1.0
  C  C72  1  0.37566000  0.18839000  0.72502000  1.0
  C  C73  1  0.62434000  0.81161000  0.27498000  1.0
  C  C74  1  0.44153000  0.24370000  0.65274000  1.0
  C  C75  1  0.55847000  0.75630000  0.34726000  1.0
  C  C76  1  0.41915000  0.17156000  0.55677000  1.0
  C  C77  1  0.58085000  0.82845000  0.44323000  1.0
  C  C78  1  0.32957000  0.04328000  0.53715000  1.0
  C  C79  1  0.67043000  0.95673000  0.46286000  1.0
  C  C80  1  0.25969000  0.99135000  0.60904000  1.0
  C  C81  1  0.74032000  0.00865000  0.39095000  1.0
  C  C82  1  0.60607000  0.32565000  0.49965000  1.0
  C  C83  1  0.39393000  0.67435000  0.50035000  1.0
  C  C84  1  0.70873000  0.32350000  0.57234000  1.0
  C  C85  1  0.29128000  0.67650000  0.42766000  1.0
  C  C86  1  0.82505000  0.42783000  0.59551000  1.0
  C  C87  1  0.17495000  0.57218000  0.40449000  1.0
  C  C88  1  0.84404000  0.53482000  0.54487000  1.0
  C  C89  1  0.15596000  0.46519000  0.45513000  1.0
  C  C90  1  0.74570000  0.53256000  0.46824000  1.0
  C  C91  1  0.25430000  0.46744000  0.53176000  1.0
  C  C92  1  0.62743000  0.43017000  0.44627000  1.0
  C  C93  1  0.37258000  0.56983000  0.55373000  1.0
  C  C94  1  0.95947000  0.65452000  0.57459000  1.0
  C  C95  1  0.04052000  0.34549000  0.42541000  1.0
  C  C96  1  0.41744000  0.18060000  0.38480000  1.0
  C  C97  1  0.58256000  0.81940000  0.61520000  1.0
  C  C98  1  0.49606000  0.15095000  0.30880000  1.0
  C  C99  1  0.50395000  0.84905000  0.69120000  1.0
  C  C100  1  0.43073000  0.09153000  0.21682000  1.0
  C  C101  1  0.56927000  0.90847000  0.78318000  1.0
  C  C102  1  0.28687000  0.06478000  0.19838000  1.0
  C  C103  1  0.71313000  0.93523000  0.80162000  1.0
  C  C104  1  0.20960000  0.10220000  0.27338000  1.0
  C  C105  1  0.79041000  0.89781000  0.72662000  1.0
  C  C106  1  0.27411000  0.15911000  0.36589000  1.0
  C  C107  1  0.72590000  0.84089000  0.63411000  1.0
  C  C108  1  0.21833000  0.99339000  0.10126000  1.0
  C  C109  1  0.78167000  0.00661000  0.89874000  1.0
  N  N110  1  0.14085000  0.66333000  0.88084000  1.0
  N  N111  1  0.85914000  0.33667000  0.11916000  1.0
  N  N112  1  0.88487000  0.69161000  0.92751000  1.0
  N  N113  1  0.11513000  0.30838000  0.07249000  1.0
  N  N114  1  0.48179000  0.22633000  0.48125000  1.0
  N  N115  1  0.51822000  0.77367000  0.51875000  1.0
  O  O116  1  0.22312000  0.08202000  0.86650000  1.0
  O  O117  1  0.77688000  0.91798000  0.13350000  1.0
  O  O118  1  0.13790000  0.88672000  0.76595000  1.0
  O  O119  1  0.86210000  0.11328000  0.23405000  1.0
  O  O120  1  0.98192000  0.74817000  0.52979000  1.0
  O  O121  1  0.01808000  0.25183000  0.47021000  1.0
  O  O122  1  0.03288000  0.65420000  0.65813000  1.0
  O  O123  1  0.96712000  0.34580000  0.34187000  1.0
  O  O124  1  0.08881000  0.98898000  0.08093000  1.0
  O  O125  1  0.91119000  0.01102000  0.91907000  1.0
  O  O126  1  0.28463000  0.93582000  0.04099000  1.0
  O  O127  1  0.71536000  0.06418000  0.95900000  1.0
