# generated using pymatgen
data_ZnH27C38N5O4
_symmetry_space_group_name_H-M   'P 1'
_cell_length_a   11.93140000
_cell_length_b   11.98290000
_cell_length_c   27.62810000
_cell_angle_alpha   98.65730000
_cell_angle_beta   89.99980000
_cell_angle_gamma   90.00000000
_symmetry_Int_Tables_number   1
_chemical_formula_structural   ZnH27C38N5O4
_chemical_formula_sum   'Zn4 H108 C152 N20 O16'
_cell_volume   3905.06036260
_cell_formula_units_Z   4
loop_
 _symmetry_equiv_pos_site_id
 _symmetry_equiv_pos_as_xyz
  1  'x, y, z'
loop_
 _atom_site_type_symbol
 _atom_site_label
 _atom_site_symmetry_multiplicity
 _atom_site_fract_x
 _atom_site_fract_y
 _atom_site_fract_z
 _atom_site_occupancy
  Zn  Zn0  1  0.45921000  0.23660000  0.55053000  1.0
  Zn  Zn1  1  0.95921000  0.26340000  0.94947000  1.0
  Zn  Zn2  1  0.54079000  0.76340000  0.44947000  1.0
  Zn  Zn3  1  0.04079000  0.73660000  0.05053000  1.0
  H  H4  1  0.59960000  0.06882000  0.61220000  1.0
  H  H5  1  0.09960000  0.43118000  0.88780000  1.0
  H  H6  1  0.40040000  0.93119000  0.38780000  1.0
  H  H7  1  0.90039000  0.56881000  0.11220000  1.0
  H  H8  1  0.09570000  0.67679000  0.24150000  1.0
  H  H9  1  0.59572000  0.82321000  0.25850000  1.0
  H  H10  1  0.90429000  0.32322000  0.75850000  1.0
  H  H11  1  0.40429000  0.17678000  0.74150000  1.0
  H  H12  1  0.02103000  0.60180000  0.31497000  1.0
  H  H13  1  0.52103000  0.89819000  0.18503000  1.0
  H  H14  1  0.97897000  0.39820000  0.68503000  1.0
  H  H15  1  0.47897000  0.10180000  0.81497000  1.0
  H  H16  1  0.06942000  0.40844000  0.32909000  1.0
  H  H17  1  0.56942000  0.09156000  0.17091000  1.0
  H  H18  1  0.93058000  0.59156000  0.67091000  1.0
  H  H19  1  0.43058000  0.90844000  0.82909000  1.0
  H  H20  1  0.26703000  0.36085000  0.19700000  1.0
  H  H21  1  0.76704000  0.13915000  0.30300000  1.0
  H  H22  1  0.73297000  0.63916000  0.80300000  1.0
  H  H23  1  0.23297000  0.86084000  0.69700000  1.0
  H  H24  1  0.21880000  0.55601000  0.18293000  1.0
  H  H25  1  0.71881000  0.94399000  0.31707000  1.0
  H  H26  1  0.78120000  0.44399000  0.81707000  1.0
  H  H27  1  0.28120000  0.05601000  0.68293000  1.0
  H  H28  1  0.33634000  0.08411000  0.25373000  1.0
  H  H29  1  0.83634000  0.41588000  0.24627000  1.0
  H  H30  1  0.66366000  0.91589000  0.74627000  1.0
  H  H31  1  0.16366000  0.58412000  0.75373000  1.0
  H  H32  1  0.31206000  0.91967000  0.18774000  1.0
  H  H33  1  0.81206000  0.58033000  0.31226000  1.0
  H  H34  1  0.68793000  0.08033000  0.81226000  1.0
  H  H35  1  0.18792000  0.41968000  0.68774000  1.0
  H  H36  1  0.01473000  0.06871000  0.13889000  1.0
  H  H37  1  0.51473000  0.43129000  0.36110000  1.0
  H  H38  1  0.98527000  0.93129000  0.86111000  1.0
  H  H39  1  0.48527000  0.56871000  0.63889000  1.0
  H  H40  1  0.03516000  0.23326000  0.20517000  1.0
  H  H41  1  0.53517000  0.26674000  0.29483000  1.0
  H  H42  1  0.96483000  0.76674000  0.79483000  1.0
  H  H43  1  0.46484000  0.73325000  0.70517000  1.0
  H  H44  1  0.14091000  0.08596000  0.31587000  1.0
  H  H45  1  0.64091000  0.41404000  0.18413000  1.0
  H  H46  1  0.85911000  0.91404000  0.68412000  1.0
  H  H47  1  0.35910000  0.58596000  0.81588000  1.0
  H  H48  1  0.19507000  0.05848000  0.40078000  1.0
  H  H49  1  0.69507000  0.44152000  0.09922000  1.0
  H  H50  1  0.80494000  0.94152000  0.59922000  1.0
  H  H51  1  0.30494000  0.55848000  0.90079000  1.0
  H  H52  1  0.38864000  0.36266000  0.41666000  1.0
  H  H53  1  0.88864000  0.13734000  0.08334000  1.0
  H  H54  1  0.61135000  0.63735000  0.58335000  1.0
  H  H55  1  0.11137000  0.86266000  0.91666000  1.0
  H  H56  1  0.33051000  0.39537000  0.33296000  1.0
  H  H57  1  0.83051000  0.10463000  0.16704000  1.0
  H  H58  1  0.66949000  0.60464000  0.66704000  1.0
  H  H59  1  0.16951000  0.89537000  0.83296000  1.0
  H  H60  1  0.64557000  0.41932000  0.56514000  1.0
  H  H61  1  0.14557000  0.08068000  0.93486000  1.0
  H  H62  1  0.35443000  0.58068000  0.43485000  1.0
  H  H63  1  0.85443000  0.91932000  0.06515000  1.0
  H  H64  1  0.89934000  0.17295000  0.53005000  1.0
  H  H65  1  0.39934000  0.32704000  0.96996000  1.0
  H  H66  1  0.10066000  0.82704000  0.46995000  1.0
  H  H67  1  0.60066000  0.67296000  0.03004000  1.0
  H  H68  1  0.69214000  0.06751000  0.52637000  1.0
  H  H69  1  0.19214000  0.43248000  0.97363000  1.0
  H  H70  1  0.30786000  0.93248000  0.47363000  1.0
  H  H71  1  0.80786000  0.56751000  0.02637000  1.0
  H  H72  1  0.77457000  0.52973000  0.52691000  1.0
  H  H73  1  0.27457000  0.97027000  0.97309000  1.0
  H  H74  1  0.22543000  0.47027000  0.47308000  1.0
  H  H75  1  0.72543000  0.02973000  0.02691000  1.0
  H  H76  1  0.91347000  0.68239000  0.54163000  1.0
  H  H77  1  0.41347000  0.81761000  0.95837000  1.0
  H  H78  1  0.08653000  0.31761000  0.45836000  1.0
  H  H79  1  0.58652000  0.18239000  0.04163000  1.0
  H  H80  1  0.14353000  0.45606000  0.59922000  1.0
  H  H81  1  0.64354000  0.04394000  0.90078000  1.0
  H  H82  1  0.85646000  0.54394000  0.40078000  1.0
  H  H83  1  0.35646000  0.95606000  0.09922000  1.0
  H  H84  1  0.00371000  0.30604000  0.58626000  1.0
  H  H85  1  0.50371000  0.19396000  0.91374000  1.0
  H  H86  1  0.99628000  0.69397000  0.41374000  1.0
  H  H87  1  0.49628000  0.80603000  0.08626000  1.0
  H  H88  1  0.00124000  0.80679000  0.59857000  1.0
  H  H89  1  0.50123000  0.69321000  0.90144000  1.0
  H  H90  1  0.99877000  0.19321000  0.40143000  1.0
  H  H91  1  0.49876000  0.30679000  0.09857000  1.0
  H  H92  1  0.14238000  0.96074000  0.60831000  1.0
  H  H93  1  0.64238000  0.53926000  0.89170000  1.0
  H  H94  1  0.85762000  0.03926000  0.39169000  1.0
  H  H95  1  0.35761000  0.46073000  0.10830000  1.0
  H  H96  1  0.40547000  0.71662000  0.57125000  1.0
  H  H97  1  0.90547000  0.78338000  0.92876000  1.0
  H  H98  1  0.59454000  0.28337000  0.42876000  1.0
  H  H99  1  0.09453000  0.21662000  0.07124000  1.0
  H  H100  1  0.26535000  0.56231000  0.56356000  1.0
  H  H101  1  0.76535000  0.93770000  0.93644000  1.0
  H  H102  1  0.73465000  0.43770000  0.43644000  1.0
  H  H103  1  0.23464000  0.06230000  0.06356000  1.0
  H  H104  1  0.27215000  0.05422000  0.55474000  1.0
  H  H105  1  0.77215000  0.44578000  0.94527000  1.0
  H  H106  1  0.72785000  0.94578000  0.44526000  1.0
  H  H107  1  0.22784000  0.55422000  0.05474000  1.0
  H  H108  1  0.50091000  0.86810000  0.62923000  1.0
  H  H109  1  0.00091000  0.63190000  0.87077000  1.0
  H  H110  1  0.49909000  0.13190000  0.37077000  1.0
  H  H111  1  0.99909000  0.36810000  0.12923000  1.0
  C  C112  1  0.51650000  0.03589000  0.60313000  1.0
  C  C113  1  0.01650000  0.46411000  0.89687000  1.0
  C  C114  1  0.48350000  0.96411000  0.39687000  1.0
  C  C115  1  0.98350000  0.53589000  0.10313000  1.0
  C  C116  1  0.11696000  0.59176000  0.24795000  1.0
  C  C117  1  0.61697000  0.90824000  0.25205000  1.0
  C  C118  1  0.88303000  0.40824000  0.75205000  1.0
  C  C119  1  0.38303000  0.09176000  0.74795000  1.0
  C  C120  1  0.07555000  0.54999000  0.28904000  1.0
  C  C121  1  0.57555000  0.95001000  0.21096000  1.0
  C  C122  1  0.92445000  0.45001000  0.71096000  1.0
  C  C123  1  0.42445000  0.04999000  0.78904000  1.0
  C  C124  1  0.10225000  0.44104000  0.29712000  1.0
  C  C125  1  0.60225000  0.05896000  0.20288000  1.0
  C  C126  1  0.89775000  0.55896000  0.70288000  1.0
  C  C127  1  0.39775000  0.94104000  0.79712000  1.0
  C  C128  1  0.17136000  0.37265000  0.26386000  1.0
  C  C129  1  0.67136000  0.12735000  0.23614000  1.0
  C  C130  1  0.82864000  0.62735000  0.73614000  1.0
  C  C131  1  0.32865000  0.87265000  0.76386000  1.0
  C  C132  1  0.21317000  0.41438000  0.22262000  1.0
  C  C133  1  0.71317000  0.08562000  0.27738000  1.0
  C  C134  1  0.78683000  0.58562000  0.77738000  1.0
  C  C135  1  0.28683000  0.91438000  0.72262000  1.0
  C  C136  1  0.18577000  0.52342000  0.21486000  1.0
  C  C137  1  0.68577000  0.97658000  0.28514000  1.0
  C  C138  1  0.81423000  0.47659000  0.78514000  1.0
  C  C139  1  0.31423000  0.02341000  0.71486000  1.0
  C  C140  1  0.18700000  0.16955000  0.23394000  1.0
  C  C141  1  0.68701000  0.33045000  0.26606000  1.0
  C  C142  1  0.81300000  0.83046000  0.76606000  1.0
  C  C143  1  0.31300000  0.66955000  0.73394000  1.0
  C  C144  1  0.26521000  0.08058000  0.22878000  1.0
  C  C145  1  0.76521000  0.41942000  0.27122000  1.0
  C  C146  1  0.73479000  0.91942000  0.77122000  1.0
  C  C147  1  0.23479000  0.58058000  0.72878000  1.0
  C  C148  1  0.25195000  0.98895000  0.19197000  1.0
  C  C149  1  0.75196000  0.51105000  0.30803000  1.0
  C  C150  1  0.74804000  0.01105000  0.80803000  1.0
  C  C151  1  0.24804000  0.48895000  0.69196000  1.0
  C  C152  1  0.16151000  0.98373000  0.15928000  1.0
  C  C153  1  0.66151000  0.51627000  0.34072000  1.0
  C  C154  1  0.83848000  0.01627000  0.84072000  1.0
  C  C155  1  0.33848000  0.48373000  0.65928000  1.0
  C  C156  1  0.08459000  0.07310000  0.16439000  1.0
  C  C157  1  0.58459000  0.42690000  0.33561000  1.0
  C  C158  1  0.91540000  0.92690000  0.83561000  1.0
  C  C159  1  0.41540000  0.57310000  0.66439000  1.0
  C  C160  1  0.09650000  0.16507000  0.20113000  1.0
  C  C161  1  0.59651000  0.33492000  0.29887000  1.0
  C  C162  1  0.90349000  0.83493000  0.79887000  1.0
  C  C163  1  0.40350000  0.66507000  0.70113000  1.0
  C  C164  1  0.14876000  0.88468000  0.11958000  1.0
  C  C165  1  0.64877000  0.61532000  0.38042000  1.0
  C  C166  1  0.85123000  0.11533000  0.88042000  1.0
  C  C167  1  0.35122000  0.38468000  0.61958000  1.0
  C  C168  1  0.23149000  0.24318000  0.31909000  1.0
  C  C169  1  0.73149000  0.25682000  0.18092000  1.0
  C  C170  1  0.76851000  0.75682000  0.68092000  1.0
  C  C171  1  0.26852000  0.74318000  0.81909000  1.0
  C  C172  1  0.19442000  0.14708000  0.33820000  1.0
  C  C173  1  0.69442000  0.35293000  0.16180000  1.0
  C  C174  1  0.80558000  0.85293000  0.66180000  1.0
  C  C175  1  0.30559000  0.64707000  0.83820000  1.0
  C  C176  1  0.22504000  0.13139000  0.38520000  1.0
  C  C177  1  0.72504000  0.36862000  0.11480000  1.0
  C  C178  1  0.77496000  0.86862000  0.61480000  1.0
  C  C179  1  0.27497000  0.63138000  0.88520000  1.0
  C  C180  1  0.29442000  0.20920000  0.41410000  1.0
  C  C181  1  0.79442000  0.29081000  0.08590000  1.0
  C  C182  1  0.70558000  0.79081000  0.58590000  1.0
  C  C183  1  0.20559000  0.70920000  0.91410000  1.0
  C  C184  1  0.33286000  0.30357000  0.39449000  1.0
  C  C185  1  0.83286000  0.19643000  0.10552000  1.0
  C  C186  1  0.66714000  0.69644000  0.60552000  1.0
  C  C187  1  0.16715000  0.80358000  0.89449000  1.0
  C  C188  1  0.30127000  0.32138000  0.34787000  1.0
  C  C189  1  0.80128000  0.17863000  0.15213000  1.0
  C  C190  1  0.69872000  0.67864000  0.65213000  1.0
  C  C191  1  0.19874000  0.82138000  0.84787000  1.0
  C  C192  1  0.32582000  0.19001000  0.46467000  1.0
  C  C193  1  0.82581000  0.30999000  0.03533000  1.0
  C  C194  1  0.67419000  0.81000000  0.53533000  1.0
  C  C195  1  0.17420000  0.69001000  0.96467000  1.0
  C  C196  1  0.68488000  0.33807000  0.55396000  1.0
  C  C197  1  0.18488000  0.16192000  0.94604000  1.0
  C  C198  1  0.31512000  0.66192000  0.44604000  1.0
  C  C199  1  0.81512000  0.83808000  0.05396000  1.0
  C  C200  1  0.81595000  0.20698000  0.53709000  1.0
  C  C201  1  0.31595000  0.29301000  0.96291000  1.0
  C  C202  1  0.18405000  0.79301000  0.46290000  1.0
  C  C203  1  0.68404000  0.70698000  0.03709000  1.0
  C  C204  1  0.71229000  0.15681000  0.53463000  1.0
  C  C205  1  0.21229000  0.34319000  0.96537000  1.0
  C  C206  1  0.28771000  0.84318000  0.46537000  1.0
  C  C207  1  0.78770000  0.65681000  0.03463000  1.0
  C  C208  1  0.87956000  0.40876000  0.55633000  1.0
  C  C209  1  0.37957000  0.09124000  0.94367000  1.0
  C  C210  1  0.12044000  0.59124000  0.44366000  1.0
  C  C211  1  0.62043000  0.90875000  0.05633000  1.0
  C  C212  1  0.85442000  0.51475000  0.54391000  1.0
  C  C213  1  0.35442000  0.98524000  0.95609000  1.0
  C  C214  1  0.14558000  0.48524000  0.45608000  1.0
  C  C215  1  0.64558000  0.01476000  0.04392000  1.0
  C  C216  1  0.93337000  0.60064000  0.55220000  1.0
  C  C217  1  0.43337000  0.89935000  0.94780000  1.0
  C  C218  1  0.06663000  0.39935000  0.44779000  1.0
  C  C219  1  0.56663000  0.10065000  0.05221000  1.0
  C  C220  1  0.03888000  0.58202000  0.57212000  1.0
  C  C221  1  0.53888000  0.91798000  0.92788000  1.0
  C  C222  1  0.96112000  0.41798000  0.42788000  1.0
  C  C223  1  0.46112000  0.08202000  0.07212000  1.0
  C  C224  1  0.06311000  0.47413000  0.58347000  1.0
  C  C225  1  0.56311000  0.02587000  0.91653000  1.0
  C  C226  1  0.93690000  0.52586000  0.41652000  1.0
  C  C227  1  0.43689000  0.97413000  0.08347000  1.0
  C  C228  1  0.98406000  0.38814000  0.57598000  1.0
  C  C229  1  0.48407000  0.11186000  0.92402000  1.0
  C  C230  1  0.01594000  0.61186000  0.42402000  1.0
  C  C231  1  0.51593000  0.88814000  0.07598000  1.0
  C  C232  1  0.12283000  0.67323000  0.57969000  1.0
  C  C233  1  0.62283000  0.82677000  0.92031000  1.0
  C  C234  1  0.87717000  0.32677000  0.42030000  1.0
  C  C235  1  0.37716000  0.17323000  0.07969000  1.0
  C  C236  1  0.08961000  0.78657000  0.59222000  1.0
  C  C237  1  0.58961000  0.71343000  0.90779000  1.0
  C  C238  1  0.91040000  0.21343000  0.40778000  1.0
  C  C239  1  0.41038000  0.28657000  0.09222000  1.0
  C  C240  1  0.16830000  0.87313000  0.59785000  1.0
  C  C241  1  0.66830000  0.62687000  0.90215000  1.0
  C  C242  1  0.83170000  0.12686000  0.40215000  1.0
  C  C243  1  0.33170000  0.37313000  0.09785000  1.0
  C  C244  1  0.28179000  0.84710000  0.59038000  1.0
  C  C245  1  0.78179000  0.65290000  0.90963000  1.0
  C  C246  1  0.71821000  0.15290000  0.40962000  1.0
  C  C247  1  0.21820000  0.34710000  0.09038000  1.0
  C  C248  1  0.31707000  0.73526000  0.57849000  1.0
  C  C249  1  0.81707000  0.76473000  0.92151000  1.0
  C  C250  1  0.68293000  0.26473000  0.42151000  1.0
  C  C251  1  0.18293000  0.23526000  0.07849000  1.0
  C  C252  1  0.23772000  0.64935000  0.57365000  1.0
  C  C253  1  0.73772000  0.85065000  0.92635000  1.0
  C  C254  1  0.76228000  0.35064000  0.42635000  1.0
  C  C255  1  0.26227000  0.14935000  0.07365000  1.0
  C  C256  1  0.34607000  0.03304000  0.57420000  1.0
  C  C257  1  0.84607000  0.46696000  0.92581000  1.0
  C  C258  1  0.65394000  0.96695000  0.42580000  1.0
  C  C259  1  0.15393000  0.53304000  0.07420000  1.0
  C  C260  1  0.46941000  0.93644000  0.61163000  1.0
  C  C261  1  0.96940000  0.56357000  0.88838000  1.0
  C  C262  1  0.53060000  0.06357000  0.38837000  1.0
  C  C263  1  0.03059000  0.43643000  0.11163000  1.0
  N  N264  1  0.43894000  0.09458000  0.57948000  1.0
  N  N265  1  0.93894000  0.40542000  0.92052000  1.0
  N  N266  1  0.56106000  0.90542000  0.42052000  1.0
  N  N267  1  0.06106000  0.59458000  0.07948000  1.0
  N  N268  1  0.19904000  0.26157000  0.27199000  1.0
  N  N269  1  0.69905000  0.23843000  0.22801000  1.0
  N  N270  1  0.80095000  0.73844000  0.72801000  1.0
  N  N271  1  0.30096000  0.76157000  0.77199000  1.0
  N  N272  1  0.63152000  0.23985000  0.54528000  1.0
  N  N273  1  0.13152000  0.26015000  0.95472000  1.0
  N  N274  1  0.36848000  0.76015000  0.45472000  1.0
  N  N275  1  0.86847000  0.73985000  0.04528000  1.0
  N  N276  1  0.79748000  0.32208000  0.54925000  1.0
  N  N277  1  0.29748000  0.17792000  0.95075000  1.0
  N  N278  1  0.20252000  0.67792000  0.45075000  1.0
  N  N279  1  0.70252000  0.82208000  0.04925000  1.0
  N  N280  1  0.36142000  0.93571000  0.59307000  1.0
  N  N281  1  0.86142000  0.56429000  0.90693000  1.0
  N  N282  1  0.63858000  0.06429000  0.40693000  1.0
  N  N283  1  0.13857000  0.43571000  0.09307000  1.0
  O  O284  1  0.40543000  0.25492000  0.48515000  1.0
  O  O285  1  0.90543000  0.24508000  0.01485000  1.0
  O  O286  1  0.59458000  0.74508000  0.51485000  1.0
  O  O287  1  0.09459000  0.75492000  0.98515000  1.0
  O  O288  1  0.27615000  0.11554000  0.48377000  1.0
  O  O289  1  0.77614000  0.38445000  0.01623000  1.0
  O  O290  1  0.72384000  0.88447000  0.51623000  1.0
  O  O291  1  0.22386000  0.61554000  0.98377000  1.0
  O  O292  1  0.22453000  0.81184000  0.11160000  1.0
  O  O293  1  0.72454000  0.68815000  0.38841000  1.0
  O  O294  1  0.77546000  0.18816000  0.88840000  1.0
  O  O295  1  0.27545000  0.31185000  0.61160000  1.0
  O  O296  1  0.05521000  0.88157000  0.09490000  1.0
  O  O297  1  0.55521000  0.61844000  0.40510000  1.0
  O  O298  1  0.94478000  0.11844000  0.90510000  1.0
  O  O299  1  0.44478000  0.38156000  0.59490000  1.0
