# generated using pymatgen
data_Al2H17C26O10F
_symmetry_space_group_name_H-M   'P 1'
_cell_length_a   7.24083000
_cell_length_b   11.09220000
_cell_length_c   15.00720000
_cell_angle_alpha   81.72580000
_cell_angle_beta   77.65970000
_cell_angle_gamma   71.58880000
_symmetry_Int_Tables_number   1
_chemical_formula_structural   Al2H17C26O10F
_chemical_formula_sum   'Al2 H17 C26 O10 F1'
_cell_volume   1113.40779951
_cell_formula_units_Z   1
loop_
 _symmetry_equiv_pos_site_id
 _symmetry_equiv_pos_as_xyz
  1  'x, y, z'
loop_
 _atom_site_type_symbol
 _atom_site_label
 _atom_site_symmetry_multiplicity
 _atom_site_fract_x
 _atom_site_fract_y
 _atom_site_fract_z
 _atom_site_occupancy
  Al  Al0  1  0.50508000  0.48551000  0.49958000  1.0
  Al  Al1  1  0.00523000  0.48466000  0.50111000  1.0
  H  H2  1  0.21391000  0.63108000  0.43120000  1.0
  H  H3  1  0.75510000  0.38428000  0.60463000  1.0
  H  H4  1  0.14506000  0.09689000  0.51940000  1.0
  H  H5  1  0.74357000  0.11462000  0.47515000  1.0
  H  H6  1  0.27388000  0.85854000  0.52017000  1.0
  H  H7  1  0.80984000  0.56885000  0.75871000  1.0
  H  H8  1  0.42442000  0.45550000  0.78237000  1.0
  H  H9  1  0.13808000  0.54884000  0.23736000  1.0
  H  H10  1  0.62717000  0.43976000  0.22094000  1.0
  H  H11  1  0.60614000  0.65781000  0.98565000  1.0
  H  H12  1  0.56612000  0.57017000  0.90569000  1.0
  H  H13  1  0.32361000  0.36778000  0.01823000  1.0
  H  H14  1  0.49926000  0.42959000  0.94387000  1.0
  H  H15  1  0.25353000  0.65637000  0.00410000  1.0
  H  H16  1  0.37863000  0.55907000  0.08994000  1.0
  H  H17  1  0.80664000  0.37002000  0.98927000  1.0
  H  H18  1  0.57622000  0.42326000  0.05985000  1.0
  C  C19  1  0.82717000  0.48544000  0.34040000  1.0
  C  C20  1  0.64761000  0.70966000  0.50052000  1.0
  C  C21  1  0.17839000  0.49975000  0.66046000  1.0
  C  C22  1  0.36363000  0.26230000  0.49792000  1.0
  C  C23  1  0.57897000  0.85192000  0.49911000  1.0
  C  C24  1  0.43600000  0.12011000  0.49763000  1.0
  C  C25  1  0.70789000  0.92737000  0.48623000  1.0
  C  C26  1  0.30315000  0.04805000  0.51009000  1.0
  C  C27  1  0.63959000  0.05914000  0.48545000  1.0
  C  C28  1  0.37481000  0.91614000  0.51068000  1.0
  C  C29  1  0.66682000  0.56899000  0.95071000  1.0
  C  C30  1  0.34608000  0.45522000  0.97793000  1.0
  C  C31  1  0.27711000  0.56337000  0.04452000  1.0
  C  C32  1  0.70313000  0.45311000  0.02426000  1.0
  C  C33  1  0.92124000  0.55236000  0.80140000  1.0
  C  C34  1  0.86758000  0.55977000  0.89557000  1.0
  C  C35  1  0.26916000  0.48748000  0.81467000  1.0
  C  C36  1  0.21376000  0.49428000  0.90898000  1.0
  C  C37  1  0.04157000  0.53580000  0.19520000  1.0
  C  C38  1  0.08700000  0.54946000  0.10019000  1.0
  C  C39  1  0.75293000  0.47289000  0.18614000  1.0
  C  C40  1  0.80106000  0.48583000  0.09106000  1.0
  C  C41  1  0.12231000  0.51687000  0.76046000  1.0
  C  C42  1  0.01429000  0.53398000  0.94864000  1.0
  C  C43  1  0.87249000  0.49964000  0.23846000  1.0
  C  C44  1  0.96211000  0.52895000  0.04863000  1.0
  O  O45  1  0.65445000  0.47860000  0.37785000  1.0
  O  O46  1  0.82994000  0.65533000  0.50328000  1.0
  O  O47  1  0.04121000  0.49151000  0.62226000  1.0
  O  O48  1  0.49444000  0.31682000  0.49792000  1.0
  O  O49  1  0.35757000  0.49207000  0.62301000  1.0
  O  O50  1  0.17913000  0.31458000  0.49897000  1.0
  O  O51  1  0.96677000  0.48271000  0.38099000  1.0
  O  O52  1  0.51502000  0.65692000  0.49864000  1.0
  O  O53  1  0.24578000  0.54373000  0.45826000  1.0
  O  O54  1  0.76289000  0.42726000  0.54350000  1.0
  F  F55  1  0.90784000  0.87446000  0.47258000  1.0
