# generated using pymatgen
data_Co2H34C34SN2O9
_symmetry_space_group_name_H-M   'P 1'
_cell_length_a   9.52528000
_cell_length_b   12.09390000
_cell_length_c   19.08560000
_cell_angle_alpha   100.59500000
_cell_angle_beta   100.12900000
_cell_angle_gamma   105.10700000
_symmetry_Int_Tables_number   1
_chemical_formula_structural   Co2H34C34SN2O9
_chemical_formula_sum   'Co4 H68 C68 S2 N4 O18'
_cell_volume   2027.60599441
_cell_formula_units_Z   2
loop_
 _symmetry_equiv_pos_site_id
 _symmetry_equiv_pos_as_xyz
  1  'x, y, z'
loop_
 _atom_site_type_symbol
 _atom_site_label
 _atom_site_symmetry_multiplicity
 _atom_site_fract_x
 _atom_site_fract_y
 _atom_site_fract_z
 _atom_site_occupancy
  Co  Co0  1  0.98875000  0.41946000  0.64586000  1.0
  Co  Co1  1  0.01125000  0.58054000  0.35414000  1.0
  Co  Co2  1  0.00000000  0.50000000  0.50000000  1.0
  Co  Co3  1  0.50000000  0.00000000  0.00000000  1.0
  H  H4  1  0.14337000  0.25796000  0.23729000  1.0
  H  H5  1  0.12499000  0.33186000  0.32328000  1.0
  H  H6  1  0.29506000  0.37677000  0.29634000  1.0
  H  H7  1  0.17356000  0.03630000  0.35004000  1.0
  H  H8  1  0.04363000  0.11868000  0.34994000  1.0
  H  H9  1  0.08005000  0.05570000  0.26637000  1.0
  H  H10  1  0.31926000  0.12993000  0.23435000  1.0
  H  H11  1  0.46550000  0.25359000  0.29091000  1.0
  H  H12  1  0.42518000  0.11691000  0.31692000  1.0
  H  H13  1  0.43896000  0.83315000  0.06028000  1.0
  H  H14  1  0.29495000  0.79548000  0.99312000  1.0
  H  H15  1  0.50172000  0.42176000  0.62209000  1.0
  H  H16  1  0.56083000  0.29201000  0.40773000  1.0
  H  H17  1  0.11992000  0.27846000  0.43936000  1.0
  H  H18  1  0.70501000  0.22132000  0.20237000  1.0
  H  H19  1  0.58197000  0.90167000  0.27512000  1.0
  H  H20  1  0.85370000  0.22777000  0.42901000  1.0
  H  H21  1  0.78766000  0.85067000  0.36287000  1.0
  H  H22  1  0.83544000  0.87321000  0.45972000  1.0
  H  H23  1  0.93894000  0.97461000  0.41688000  1.0
  H  H24  1  0.47988000  0.96142000  0.41844000  1.0
  H  H25  1  0.56108000  0.86851000  0.46336000  1.0
  H  H26  1  0.52020000  0.84009000  0.36677000  1.0
  H  H27  1  0.88859000  0.13464000  0.50889000  1.0
  H  H28  1  0.76689000  0.02891000  0.54138000  1.0
  H  H29  1  0.70183000  0.13705000  0.50577000  1.0
  H  H30  1  0.17288000  0.30476000  0.73705000  1.0
  H  H31  1  0.13988000  0.19475000  0.83419000  1.0
  H  H32  1  0.68005000  0.20260000  0.79672000  1.0
  H  H33  1  0.73324000  0.30843000  0.69851000  1.0
  H  H34  1  0.13645000  0.25094000  0.00687000  1.0
  H  H35  1  0.36562000  0.19252000  0.05014000  1.0
  H  H36  1  0.19622000  0.86954000  0.89861000  1.0
  H  H37  1  0.95792000  0.91084000  0.85184000  1.0
  H  H38  1  0.85663000  0.74204000  0.76271000  1.0
  H  H39  1  0.87502000  0.66814000  0.67672000  1.0
  H  H40  1  0.70495000  0.62323000  0.70366000  1.0
  H  H41  1  0.82644000  0.96371000  0.64996000  1.0
  H  H42  1  0.95637000  0.88133000  0.65006000  1.0
  H  H43  1  0.91995000  0.94431000  0.73363000  1.0
  H  H44  1  0.68074000  0.87007000  0.76566000  1.0
  H  H45  1  0.53450000  0.74641000  0.70909000  1.0
  H  H46  1  0.57482000  0.88309000  0.68308000  1.0
  H  H47  1  0.56103000  0.16685000  0.93972000  1.0
  H  H48  1  0.70505000  0.20452000  0.00687000  1.0
  H  H49  1  0.49828000  0.57824000  0.37791000  1.0
  H  H50  1  0.43917000  0.70799000  0.59227000  1.0
  H  H51  1  0.88008000  0.72154000  0.56064000  1.0
  H  H52  1  0.29499000  0.77868000  0.79763000  1.0
  H  H53  1  0.41802000  0.09833000  0.72488000  1.0
  H  H54  1  0.14629000  0.77223000  0.57099000  1.0
  H  H55  1  0.21235000  0.14933000  0.63713000  1.0
  H  H56  1  0.16456000  0.12680000  0.54028000  1.0
  H  H57  1  0.06106000  0.02539000  0.58313000  1.0
  H  H58  1  0.52012000  0.03858000  0.58156000  1.0
  H  H59  1  0.43892000  0.13149000  0.53664000  1.0
  H  H60  1  0.47981000  0.15990000  0.63323000  1.0
  H  H61  1  0.11140000  0.86536000  0.49111000  1.0
  H  H62  1  0.23310000  0.97109000  0.45862000  1.0
  H  H63  1  0.29817000  0.86295000  0.49423000  1.0
  H  H64  1  0.82711000  0.69523000  0.26295000  1.0
  H  H65  1  0.86012000  0.80525000  0.16581000  1.0
  H  H66  1  0.31995000  0.79740000  0.20328000  1.0
  H  H67  1  0.26675000  0.69157000  0.30149000  1.0
  H  H68  1  0.86356000  0.74907000  0.99313000  1.0
  H  H69  1  0.63439000  0.80748000  0.94986000  1.0
  H  H70  1  0.80378000  0.13046000  0.10139000  1.0
  H  H71  1  0.04208000  0.08917000  0.14816000  1.0
  C  C72  1  0.20211000  0.29960000  0.29499000  1.0
  C  C73  1  0.13200000  0.09963000  0.32443000  1.0
  C  C74  1  0.37483000  0.17646000  0.29171000  1.0
  C  C75  1  0.30075000  0.35209000  0.53479000  1.0
  C  C76  1  0.45508000  0.38128000  0.56385000  1.0
  C  C77  1  0.54697000  0.36062000  0.51686000  1.0
  C  C78  1  0.48446000  0.30636000  0.44215000  1.0
  C  C79  1  0.33042000  0.27204000  0.41279000  1.0
  C  C80  1  0.24003000  0.29853000  0.46012000  1.0
  C  C81  1  0.20254000  0.37597000  0.58455000  1.0
  C  C82  1  0.71333000  0.39716000  0.54230000  1.0
  C  C83  1  0.26099000  0.21180000  0.33149000  1.0
  C  C84  1  0.79217000  0.23488000  0.31706000  1.0
  C  C85  1  0.71005000  0.17493000  0.24609000  1.0
  C  C86  1  0.63411000  0.05449000  0.23201000  1.0
  C  C87  1  0.63973000  0.99607000  0.28886000  1.0
  C  C88  1  0.71519000  0.05659000  0.36127000  1.0
  C  C89  1  0.79186000  0.17644000  0.37412000  1.0
  C  C90  1  0.88407000  0.35973000  0.33396000  1.0
  C  C91  1  0.54832000  0.98813000  0.15607000  1.0
  C  C92  1  0.71825000  0.99215000  0.42294000  1.0
  C  C93  1  0.82669000  0.91829000  0.41493000  1.0
  C  C94  1  0.56051000  0.91099000  0.41725000  1.0
  C  C95  1  0.77240000  0.07890000  0.49881000  1.0
  C  C96  1  0.06563000  0.27916000  0.75191000  1.0
  C  C97  1  0.04609000  0.21855000  0.80642000  1.0
  C  C98  1  0.90645000  0.19072000  0.82432000  1.0
  C  C99  1  0.79075000  0.22310000  0.78491000  1.0
  C  C100  1  0.81960000  0.28208000  0.73081000  1.0
  C  C101  1  0.02958000  0.08523000  0.92525000  1.0
  C  C102  1  0.14497000  0.16497000  0.98216000  1.0
  C  C103  1  0.27228000  0.13329000  0.00637000  1.0
  C  C104  1  0.17733000  0.95203000  0.92239000  1.0
  C  C105  1  0.04570000  0.97582000  0.89565000  1.0
  C  C106  1  0.79789000  0.70040000  0.70501000  1.0
  C  C107  1  0.86800000  0.90038000  0.67557000  1.0
  C  C108  1  0.62517000  0.82354000  0.70829000  1.0
  C  C109  1  0.69925000  0.64791000  0.46521000  1.0
  C  C110  1  0.54492000  0.61872000  0.43615000  1.0
  C  C111  1  0.45303000  0.63938000  0.48314000  1.0
  C  C112  1  0.51554000  0.69364000  0.55785000  1.0
  C  C113  1  0.66958000  0.72796000  0.58721000  1.0
  C  C114  1  0.75997000  0.70147000  0.53988000  1.0
  C  C115  1  0.79746000  0.62403000  0.41545000  1.0
  C  C116  1  0.28667000  0.60284000  0.45770000  1.0
  C  C117  1  0.73901000  0.78820000  0.66851000  1.0
  C  C118  1  0.20782000  0.76512000  0.68294000  1.0
  C  C119  1  0.28994000  0.82507000  0.75391000  1.0
  C  C120  1  0.36588000  0.94550000  0.76799000  1.0
  C  C121  1  0.36027000  0.00392000  0.71115000  1.0
  C  C122  1  0.28481000  0.94341000  0.63873000  1.0
  C  C123  1  0.20814000  0.82356000  0.62588000  1.0
  C  C124  1  0.11593000  0.64026000  0.66604000  1.0
  C  C125  1  0.45168000  0.01186000  0.84393000  1.0
  C  C126  1  0.28175000  0.00785000  0.57706000  1.0
  C  C127  1  0.17331000  0.08171000  0.58507000  1.0
  C  C128  1  0.43949000  0.08900000  0.58276000  1.0
  C  C129  1  0.22760000  0.92110000  0.50119000  1.0
  C  C130  1  0.93437000  0.72084000  0.24809000  1.0
  C  C131  1  0.95391000  0.78145000  0.19358000  1.0
  C  C132  1  0.09355000  0.80927000  0.17568000  1.0
  C  C133  1  0.20925000  0.77689000  0.21508000  1.0
  C  C134  1  0.18040000  0.71792000  0.26919000  1.0
  C  C135  1  0.97043000  0.91477000  0.07476000  1.0
  C  C136  1  0.85504000  0.83503000  0.01784000  1.0
  C  C137  1  0.72773000  0.86672000  0.99363000  1.0
  C  C138  1  0.82268000  0.04797000  0.07761000  1.0
  C  C139  1  0.95430000  0.02419000  0.10435000  1.0
  S  S140  1  0.86199000  0.11733000  0.89279000  1.0
  S  S141  1  0.13802000  0.88268000  0.10721000  1.0
  N  N142  1  0.95517000  0.31143000  0.71436000  1.0
  N  N143  1  0.28974000  0.02919000  0.97642000  1.0
  N  N144  1  0.04483000  0.68857000  0.28564000  1.0
  N  N145  1  0.71027000  0.97081000  0.02358000  1.0
  O  O146  1  0.06376000  0.37013000  0.55516000  1.0
  O  O147  1  0.24676000  0.39890000  0.65281000  1.0
  O  O148  1  0.77167000  0.39976000  0.60886000  1.0
  O  O149  1  0.78474000  0.42147000  0.49414000  1.0
  O  O150  1  0.88463000  0.42092000  0.28617000  1.0
  O  O151  1  0.97088000  0.40552000  0.39827000  1.0
  O  O152  1  0.52593000  0.04979000  0.10958000  1.0
  O  O153  1  0.50393000  0.87564000  0.14119000  1.0
  O  O154  1  0.40376000  0.82134000  0.00358000  1.0
  O  O155  1  0.93624000  0.62986000  0.44484000  1.0
  O  O156  1  0.75324000  0.60110000  0.34719000  1.0
  O  O157  1  0.22833000  0.60024000  0.39114000  1.0
  O  O158  1  0.21526000  0.57853000  0.50586000  1.0
  O  O159  1  0.11536000  0.57908000  0.71383000  1.0
  O  O160  1  0.02913000  0.59448000  0.60173000  1.0
  O  O161  1  0.47407000  0.95021000  0.89042000  1.0
  O  O162  1  0.49608000  0.12435000  0.85881000  1.0
  O  O163  1  0.59625000  0.17866000  0.99642000  1.0
