# generated using pymatgen
data_Cu2Mo3H8C6(N3O5)2
_symmetry_space_group_name_H-M   'P 1'
_cell_length_a   8.27203000
_cell_length_b   10.41640000
_cell_length_c   10.53020000
_cell_angle_alpha   114.28300000
_cell_angle_beta   103.00700000
_cell_angle_gamma   92.26880000
_symmetry_Int_Tables_number   1
_chemical_formula_structural   Cu2Mo3H8C6(N3O5)2
_chemical_formula_sum   'Cu4 Mo6 H16 C12 N12 O20'
_cell_volume   796.86627931
_cell_formula_units_Z   2
loop_
 _symmetry_equiv_pos_site_id
 _symmetry_equiv_pos_as_xyz
  1  'x, y, z'
loop_
 _atom_site_type_symbol
 _atom_site_label
 _atom_site_symmetry_multiplicity
 _atom_site_fract_x
 _atom_site_fract_y
 _atom_site_fract_z
 _atom_site_occupancy
  Cu  Cu0  1  0.66530000  0.89902000  0.40689000  1.0
  Cu  Cu1  1  0.33469000  0.10098000  0.59311000  1.0
  Cu  Cu2  1  0.09261000  0.88905000  0.96684000  1.0
  Cu  Cu3  1  0.90739000  0.11096000  0.03316000  1.0
  Mo  Mo4  1  0.43456000  0.66568000  0.05533000  1.0
  Mo  Mo5  1  0.56545000  0.33432000  0.94467000  1.0
  Mo  Mo6  1  0.81541000  0.56861000  0.25275000  1.0
  Mo  Mo7  1  0.18459000  0.43139000  0.74725000  1.0
  Mo  Mo8  1  0.90817000  0.57406000  0.90405000  1.0
  Mo  Mo9  1  0.09182000  0.42593000  0.09595000  1.0
  H  H10  1  0.81305000  0.88558000  0.14934000  1.0
  H  H11  1  0.18695000  0.11443000  0.85066000  1.0
  H  H12  1  0.14008000  0.89578000  0.27555000  1.0
  H  H13  1  0.85992000  0.10421000  0.72445000  1.0
  H  H14  1  0.53561000  0.36072000  0.40299000  1.0
  H  H15  1  0.46439000  0.63928000  0.59701000  1.0
  H  H16  1  0.47101000  0.35555000  0.55196000  1.0
  H  H17  1  0.52899000  0.64445000  0.44804000  1.0
  H  H18  1  0.38158000  0.17270000  0.15164000  1.0
  H  H19  1  0.61842000  0.82730000  0.84837000  1.0
  H  H20  1  0.85476000  0.33378000  0.34019000  1.0
  H  H21  1  0.14524000  0.66622000  0.65982000  1.0
  H  H22  1  0.67527000  0.18846000  0.57063000  1.0
  H  H23  1  0.32473000  0.81153000  0.42937000  1.0
  H  H24  1  0.77684000  0.35126000  0.58818000  1.0
  H  H25  1  0.22316000  0.64873000  0.41182000  1.0
  C  C26  1  0.80837000  0.99427000  0.22230000  1.0
  C  C27  1  0.19163000  0.00572000  0.77770000  1.0
  C  C28  1  0.21990000  0.98348000  0.27982000  1.0
  C  C29  1  0.78010000  0.01651000  0.72018000  1.0
  C  C30  1  0.52046000  0.29470000  0.45955000  1.0
  C  C31  1  0.47954000  0.70530000  0.54045000  1.0
  C  C32  1  0.34151000  0.12197000  0.21400000  1.0
  C  C33  1  0.65849000  0.87803000  0.78600000  1.0
  C  C34  1  0.83103000  0.22209000  0.31681000  1.0
  C  C35  1  0.16897000  0.77791000  0.68319000  1.0
  C  C36  1  0.68889000  0.25384000  0.51341000  1.0
  C  C37  1  0.31111000  0.74616000  0.48659000  1.0
  N  N38  1  0.76115000  0.17408000  0.39537000  1.0
  N  N39  1  0.23885000  0.82592000  0.60464000  1.0
  N  N40  1  0.74702000  0.02852000  0.33661000  1.0
  N  N41  1  0.25298000  0.97148000  0.66339000  1.0
  N  N42  1  0.31978000  0.08334000  0.40186000  1.0
  N  N43  1  0.68023000  0.91665000  0.59814000  1.0
  N  N44  1  0.22908000  0.00389000  0.16215000  1.0
  N  N45  1  0.77092000  0.99611000  0.83785000  1.0
  N  N46  1  0.86051000  0.11101000  0.20617000  1.0
  N  N47  1  0.13949000  0.88899000  0.79383000  1.0
  N  N48  1  0.39633000  0.17131000  0.35802000  1.0
  N  N49  1  0.60367000  0.82869000  0.64198000  1.0
  O  O50  1  0.61800000  0.55229000  0.10316000  1.0
  O  O51  1  0.38200000  0.44771000  0.89684000  1.0
  O  O52  1  0.02176000  0.49672000  0.27794000  1.0
  O  O53  1  0.97824000  0.50327000  0.72205000  1.0
  O  O54  1  0.85539000  0.75225000  0.35425000  1.0
  O  O55  1  0.14461000  0.24775000  0.64575000  1.0
  O  O56  1  0.72061000  0.50748000  0.35188000  1.0
  O  O57  1  0.27939000  0.49252000  0.64812000  1.0
  O  O58  1  0.96040000  0.59988000  0.09802000  1.0
  O  O59  1  0.03960000  0.40012000  0.90198000  1.0
  O  O60  1  0.46579000  0.78373000  0.23860000  1.0
  O  O61  1  0.53421000  0.21626000  0.76140000  1.0
  O  O62  1  0.21654000  0.65292000  0.95942000  1.0
  O  O63  1  0.78346000  0.34708000  0.04058000  1.0
  O  O64  1  0.70298000  0.49152000  0.83814000  1.0
  O  O65  1  0.29702000  0.50848000  0.16186000  1.0
  O  O66  1  0.90158000  0.75284000  0.93161000  1.0
  O  O67  1  0.09842000  0.24716000  0.06839000  1.0
  O  O68  1  0.54126000  0.75586000  0.98713000  1.0
  O  O69  1  0.45874000  0.24414000  0.01287000  1.0
