# generated using pymatgen
data_Zn2H27(C22O5)2
_symmetry_space_group_name_H-M   'P 1'
_cell_length_a   12.49120000
_cell_length_b   15.59280000
_cell_length_c   15.92250000
_cell_angle_alpha   89.29500000
_cell_angle_beta   83.78130000
_cell_angle_gamma   88.05880000
_symmetry_Int_Tables_number   1
_chemical_formula_structural   Zn2H27(C22O5)2
_chemical_formula_sum   'Zn4 H54 C88 O20'
_cell_volume   3081.13505975
_cell_formula_units_Z   2
loop_
 _symmetry_equiv_pos_site_id
 _symmetry_equiv_pos_as_xyz
  1  'x, y, z'
loop_
 _atom_site_type_symbol
 _atom_site_label
 _atom_site_symmetry_multiplicity
 _atom_site_fract_x
 _atom_site_fract_y
 _atom_site_fract_z
 _atom_site_occupancy
  Zn  Zn0  1  0.64254000  0.02812000  0.90582000  1.0
  Zn  Zn1  1  0.41927000  0.04298000  0.92954000  1.0
  Zn  Zn2  1  0.12271000  0.53707000  0.40741000  1.0
  Zn  Zn3  1  0.90765000  0.53849000  0.44654000  1.0
  H  H4  1  0.33094000  0.52807000  0.33774000  1.0
  H  H5  1  0.71976000  0.58631000  0.41446000  1.0
  H  H6  1  0.89134000  0.76452000  0.59797000  1.0
  H  H7  1  0.90346000  0.89050000  0.68845000  1.0
  H  H8  1  0.23504000  0.81864000  0.71519000  1.0
  H  H9  1  0.22340000  0.69610000  0.61848000  1.0
  H  H10  1  0.96034000  0.01889000  0.69121000  1.0
  H  H11  1  0.88772000  0.87347000  0.83309000  1.0
  H  H12  1  0.87931000  0.85519000  0.98511000  1.0
  H  H13  1  0.21236000  0.18698000  0.63172000  1.0
  H  H14  1  0.18056000  0.31738000  0.54444000  1.0
  H  H15  1  0.84967000  0.33012000  0.65006000  1.0
  H  H16  1  0.88102000  0.20177000  0.74050000  1.0
  H  H17  1  0.85023000  0.33573000  0.27288000  1.0
  H  H18  1  0.84580000  0.20496000  0.18398000  1.0
  H  H19  1  0.19280000  0.19261000  0.14929000  1.0
  H  H20  1  0.19558000  0.32288000  0.23866000  1.0
  H  H21  1  0.97320000  0.03024000  0.21367000  1.0
  H  H22  1  0.09411000  0.24734000  0.00963000  1.0
  H  H23  1  0.12484000  0.25095000  0.85315000  1.0
  H  H24  1  0.07828000  0.81173000  0.06371000  1.0
  H  H25  1  0.09345000  0.68631000  0.16029000  1.0
  H  H26  1  0.84200000  0.79730000  0.33499000  1.0
  H  H27  1  0.83271000  0.92641000  0.24245000  1.0
  H  H28  1  0.31851000  0.57802000  0.42326000  1.0
  H  H29  1  0.69730000  0.50981000  0.47834000  1.0
  H  H30  1  0.35545000  0.33682000  0.61508000  1.0
  H  H31  1  0.34932000  0.24491000  0.74540000  1.0
  H  H32  1  0.37285000  0.83359000  0.57731000  1.0
  H  H33  1  0.39255000  0.91932000  0.70652000  1.0
  H  H34  1  0.37129000  0.36739000  0.23341000  1.0
  H  H35  1  0.36215000  0.27717000  0.10614000  1.0
  H  H36  1  0.34642000  0.79284000  0.27412000  1.0
  H  H37  1  0.35444000  0.87995000  0.14071000  1.0
  H  H38  1  0.68215000  0.17039000  0.68356000  1.0
  H  H39  1  0.68850000  0.25952000  0.55114000  1.0
  H  H40  1  0.53150000  0.24346000  0.41847000  1.0
  H  H41  1  0.51370000  0.45563000  0.63523000  1.0
  H  H42  1  0.74442000  0.12346000  0.97333000  1.0
  H  H43  1  0.83513000  0.05138000  0.95264000  1.0
  H  H44  1  0.50908000  0.61336000  0.63739000  1.0
  H  H45  1  0.70784000  0.80530000  0.71996000  1.0
  H  H46  1  0.68604000  0.71454000  0.59487000  1.0
  H  H47  1  0.66032000  0.14836000  0.15026000  1.0
  H  H48  1  0.66778000  0.23541000  0.28008000  1.0
  H  H49  1  0.52632000  0.46542000  0.20617000  1.0
  H  H50  1  0.69953000  0.85173000  0.11080000  1.0
  H  H51  1  0.69269000  0.76385000  0.24341000  1.0
  H  H52  1  0.51905000  0.83449000  0.42431000  1.0
  H  H53  1  0.52109000  0.62300000  0.20858000  1.0
  H  H54  1  0.16295000  0.09312000  0.72374000  1.0
  H  H55  1  0.17053000  0.95599000  0.76418000  1.0
  H  H56  1  0.22481000  0.00223000  0.98911000  1.0
  H  H57  1  0.21382000  0.06112000  0.91056000  1.0
  C  C58  1  0.51206000  0.14699000  0.79883000  1.0
  C  C59  1  0.50717000  0.15319000  0.04397000  1.0
  C  C60  1  0.05670000  0.72290000  0.60131000  1.0
  C  C61  1  0.96656000  0.77716000  0.62373000  1.0
  C  C62  1  0.97405000  0.84769000  0.67513000  1.0
  C  C63  1  0.07147000  0.86504000  0.70767000  1.0
  C  C64  1  0.15954000  0.80739000  0.68902000  1.0
  C  C65  1  0.15313000  0.73827000  0.63530000  1.0
  C  C66  1  0.08721000  0.94532000  0.75301000  1.0
  C  C67  1  0.01856000  0.02295000  0.73719000  1.0
  C  C68  1  0.07744000  0.10824000  0.74513000  1.0
  C  C69  1  0.07042000  0.12149000  0.83987000  1.0
  C  C70  1  0.03280000  0.04827000  0.88208000  1.0
  C  C71  1  0.00119000  0.98108000  0.82601000  1.0
  C  C72  1  0.92988000  0.91756000  0.86941000  1.0
  C  C73  1  0.92552000  0.90737000  0.95485000  1.0
  C  C74  1  0.04919000  0.18508000  0.69200000  1.0
  C  C75  1  0.13255000  0.21856000  0.63620000  1.0
  C  C76  1  0.11561000  0.29123000  0.58736000  1.0
  C  C77  1  0.01362000  0.33212000  0.59219000  1.0
  C  C78  1  0.92913000  0.29837000  0.64673000  1.0
  C  C79  1  0.94687000  0.22602000  0.69681000  1.0
  C  C80  1  0.99875000  0.41061000  0.53844000  1.0
  C  C81  1  0.02663000  0.41550000  0.31423000  1.0
  C  C82  1  0.02322000  0.33760000  0.26044000  1.0
  C  C83  1  0.92466000  0.30374000  0.24558000  1.0
  C  C84  1  0.92268000  0.23061000  0.19647000  1.0
  C  C85  1  0.01886000  0.18992000  0.16110000  1.0
  C  C86  1  0.11754000  0.22402000  0.17605000  1.0
  C  C87  1  0.11940000  0.29686000  0.22557000  1.0
  C  C88  1  0.01343000  0.11285000  0.10813000  1.0
  C  C89  1  0.98306000  0.03521000  0.14485000  1.0
  C  C90  1  0.96647000  0.96036000  0.09825000  1.0
  C  C91  1  0.97144000  0.96726000  0.00983000  1.0
  C  C92  1  0.01455000  0.04391000  0.97088000  1.0
  C  C93  1  0.03687000  0.11758000  0.01816000  1.0
  C  C94  1  0.07747000  0.19126000  0.97365000  1.0
  C  C95  1  0.09515000  0.19325000  0.88600000  1.0
  C  C96  1  0.95536000  0.87877000  0.14652000  1.0
  C  C97  1  0.02569000  0.80851000  0.12299000  1.0
  C  C98  1  0.03443000  0.73813000  0.17695000  1.0
  C  C99  1  0.96913000  0.73395000  0.25416000  1.0
  C  C100  1  0.89403000  0.80116000  0.27555000  1.0
  C  C101  1  0.88874000  0.87322000  0.22336000  1.0
  C  C102  1  0.98107000  0.66096000  0.31537000  1.0
  C  C103  1  0.42692000  0.30006000  0.63013000  1.0
  C  C104  1  0.42327000  0.24924000  0.70271000  1.0
  C  C105  1  0.44580000  0.82697000  0.60918000  1.0
  C  C106  1  0.45654000  0.87481000  0.68077000  1.0
  C  C107  1  0.43526000  0.31978000  0.21475000  1.0
  C  C108  1  0.42967000  0.26943000  0.14387000  1.0
  C  C109  1  0.42374000  0.80585000  0.23827000  1.0
  C  C110  1  0.42789000  0.85408000  0.16392000  1.0
  C  C111  1  0.51563000  0.20278000  0.72188000  1.0
  C  C112  1  0.61122000  0.20693000  0.66746000  1.0
  C  C113  1  0.61427000  0.25622000  0.59386000  1.0
  C  C114  1  0.52224000  0.30336000  0.57483000  1.0
  C  C115  1  0.52469000  0.35519000  0.49625000  1.0
  C  C116  1  0.52949000  0.31350000  0.41892000  1.0
  C  C117  1  0.51880000  0.44594000  0.49873000  1.0
  C  C118  1  0.51413000  0.49211000  0.57643000  1.0
  C  C119  1  0.51162000  0.57967000  0.57764000  1.0
  C  C120  1  0.51793000  0.71960000  0.50040000  1.0
  C  C121  1  0.51446000  0.62904000  0.50111000  1.0
  C  C122  1  0.51595000  0.58487000  0.42254000  1.0
  C  C123  1  0.52799000  0.76852000  0.57812000  1.0
  C  C124  1  0.55101000  0.86748000  0.72077000  1.0
  C  C125  1  0.63409000  0.81021000  0.68912000  1.0
  C  C126  1  0.62191000  0.75989000  0.61926000  1.0
  C  C127  1  0.52481000  0.35806000  0.34252000  1.0
  C  C128  1  0.52152000  0.44889000  0.34252000  1.0
  C  C129  1  0.51898000  0.49306000  0.42110000  1.0
  C  C130  1  0.52098000  0.30813000  0.26465000  1.0
  C  C131  1  0.51145000  0.20808000  0.11996000  1.0
  C  C132  1  0.59744000  0.19665000  0.16908000  1.0
  C  C133  1  0.60135000  0.24516000  0.24135000  1.0
  C  C134  1  0.52204000  0.49873000  0.26623000  1.0
  C  C135  1  0.53079000  0.92601000  0.04042000  1.0
  C  C136  1  0.52725000  0.87085000  0.11800000  1.0
  C  C137  1  0.62265000  0.83810000  0.14677000  1.0
  C  C138  1  0.61857000  0.78951000  0.22088000  1.0
  C  C139  1  0.51924000  0.77368000  0.26746000  1.0
  C  C140  1  0.51608000  0.72292000  0.34698000  1.0
  C  C141  1  0.51635000  0.76460000  0.42395000  1.0
  C  C142  1  0.51699000  0.63234000  0.34500000  1.0
  C  C143  1  0.51962000  0.58641000  0.26742000  1.0
  C  C144  1  0.04962000  0.65284000  0.53881000  1.0
  C  C145  1  0.56099000  0.92254000  0.79570000  1.0
  O  O146  1  0.78209000  0.08822000  0.92746000  1.0
  O  O147  1  0.62290000  0.94040000  0.00096000  1.0
  O  O148  1  0.41543000  0.13966000  0.01979000  1.0
  O  O149  1  0.25895000  0.01546000  0.93279000  1.0
  O  O150  1  0.47359000  0.95150000  0.83524000  1.0
  O  O151  1  0.28837000  0.53251000  0.39267000  1.0
  O  O152  1  0.74391000  0.55800000  0.46428000  1.0
  O  O153  1  0.11970000  0.44510000  0.32020000  1.0
  O  O154  1  0.93802000  0.44611000  0.35077000  1.0
  O  O155  1  0.08391000  0.44210000  0.50061000  1.0
  O  O156  1  0.95597000  0.62850000  0.52757000  1.0
  O  O157  1  0.13788000  0.62381000  0.49941000  1.0
  O  O158  1  0.41906000  0.12950000  0.83520000  1.0
  O  O159  1  0.59662000  0.12184000  0.00929000  1.0
  O  O160  1  0.90312000  0.44046000  0.53320000  1.0
  O  O161  1  0.65589000  0.93812000  0.81381000  1.0
  O  O162  1  0.60196000  0.12009000  0.82169000  1.0
  O  O163  1  0.44043000  0.95589000  0.02064000  1.0
  O  O164  1  0.89496000  0.63524000  0.35717000  1.0
  O  O165  1  0.07604000  0.63146000  0.32227000  1.0
