# generated using pymatgen
data_Zn4H26C34SO19
_symmetry_space_group_name_H-M   'P 1'
_cell_length_a   10.76420000
_cell_length_b   10.84380000
_cell_length_c   17.87754673
_cell_angle_alpha   72.95749185
_cell_angle_beta   85.80455681
_cell_angle_gamma   98.88020000
_symmetry_Int_Tables_number   1
_chemical_formula_structural   Zn4H26C34SO19
_chemical_formula_sum   'Zn4 H26 C34 S1 O19'
_cell_volume   1955.65855302
_cell_formula_units_Z   1
loop_
 _symmetry_equiv_pos_site_id
 _symmetry_equiv_pos_as_xyz
  1  'x, y, z'
loop_
 _atom_site_type_symbol
 _atom_site_label
 _atom_site_symmetry_multiplicity
 _atom_site_fract_x
 _atom_site_fract_y
 _atom_site_fract_z
 _atom_site_occupancy
  Zn  Zn0  1  0.44465000  0.15738000  0.43763000  1.0
  Zn  Zn1  1  0.38437000  0.86728000  0.55809000  1.0
  Zn  Zn2  1  0.61313000  0.07350000  0.57855000  1.0
  Zn  Zn3  1  0.62569000  0.96366000  0.42642000  1.0
  H  H4  1  0.63877000  0.27167000  0.91795000  1.0
  H  H5  1  0.57791000  0.48041000  0.84933000  1.0
  H  H6  1  0.47446000  0.62479000  0.65649000  1.0
  H  H7  1  0.47427000  0.86425000  0.06695000  1.0
  H  H8  1  0.45456000  0.73392000  0.15723000  1.0
  H  H9  1  0.25843000  0.80670000  0.20290000  1.0
  H  H10  1  0.39318000  0.93639000  0.17951000  1.0
  H  H11  1  0.27889000  0.93720000  0.11248000  1.0
  H  H12  1  0.72230000  0.52998000  0.16852000  1.0
  H  H13  1  0.70023000  0.38466000  0.25080000  1.0
  H  H14  1  0.55880000  0.47879000  0.32733000  1.0
  H  H15  1  0.36957000  0.89405000  0.95917000  1.0
  H  H16  1  0.71025000  0.58358000  0.29567000  1.0
  H  H17  1  0.57851000  0.62567000  0.24582000  1.0
  H  H18  1  0.26543000  0.39502000  0.26508000  1.0
  H  H19  1  0.31059000  0.56540000  0.21364000  1.0
  H  H20  1  0.11376000  0.55692000  0.14532000  1.0
  H  H21  1  0.07084000  0.38450000  0.19559000  1.0
  H  H22  1  0.07372000  0.49900000  0.24966000  1.0
  H  H23  1  0.51025000  0.44558000  0.61672000  1.0
  H  H24  1  0.50851000  0.54525000  0.43580000  1.0
  H  H25  1  0.03648000  0.15045000  0.50638000  1.0
  H  H26  1  0.00429000  0.88840000  0.46730000  1.0
  H  H27  1  0.42645000  0.99180000  0.81416000  1.0
  H  H28  1  0.65827000  0.10346000  0.04044000  1.0
  H  H29  1  0.64929000  0.03380000  0.18746000  1.0
  C  C30  1  0.50441000  0.68647000  0.49943000  1.0
  C  C31  1  0.38052000  0.51489000  0.08011000  1.0
  C  C32  1  0.36945000  0.64412000  0.04400000  1.0
  C  C33  1  0.51910000  0.32102000  0.53880000  1.0
  C  C34  1  0.40230000  0.70136000  0.96036000  1.0
  C  C35  1  0.43498000  0.62128000  0.91350000  1.0
  C  C36  1  0.39484000  0.83387000  0.92335000  1.0
  C  C37  1  0.42144000  0.88710000  0.84258000  1.0
  C  C38  1  0.42748000  0.67002000  0.83074000  1.0
  C  C39  1  0.50834000  0.44568000  0.55577000  1.0
  C  C40  1  0.50427000  0.55252000  0.49545000  1.0
  C  C41  1  0.61851000  0.12355000  0.15528000  1.0
  C  C42  1  0.98893000  0.06511000  0.49237000  1.0
  C  C43  1  0.05340000  0.97751000  0.47655000  1.0
  C  C44  1  0.19191000  0.99035000  0.47907000  1.0
  C  C45  1  0.84880000  0.04514000  0.49753000  1.0
  C  C46  1  0.45449000  0.87421000  0.70809000  1.0
  C  C47  1  0.57348000  0.15596000  0.28594000  1.0
  C  C48  1  0.58099000  0.20466000  0.19892000  1.0
  C  C49  1  0.43202000  0.80474000  0.79531000  1.0
  C  C50  1  0.62014000  0.16041000  0.07477000  1.0
  C  C51  1  0.40325000  0.79798000  0.11538000  1.0
  C  C52  1  0.54475000  0.32374000  0.15868000  1.0
  C  C53  1  0.32879000  0.87385000  0.15500000  1.0
  C  C54  1  0.65602000  0.46735000  0.22058000  1.0
  C  C55  1  0.62340000  0.54332000  0.27562000  1.0
  C  C56  1  0.25824000  0.47224000  0.21061000  1.0
  C  C57  1  0.12092000  0.47859000  0.19903000  1.0
  C  C58  1  0.52069000  0.34961000  0.07840000  1.0
  C  C59  1  0.57307000  0.27392000  0.03487000  1.0
  C  C60  1  0.46108000  0.45625000  0.03737000  1.0
  C  C61  1  0.47945000  0.50296000  0.95382000  1.0
  C  C62  1  0.55189000  0.43794000  0.91262000  1.0
  C  C63  1  0.58896000  0.32326000  0.95105000  1.0
  S  S64  1  0.37726000  0.55987000  0.77527000  1.0
  O  O65  1  0.51950000  0.01524000  0.50083000  1.0
  O  O66  1  0.36330000  0.86984000  0.66703000  1.0
  O  O67  1  0.62959000  0.05960000  0.31545000  1.0
  O  O68  1  0.56680000  0.93961000  0.68314000  1.0
  O  O69  1  0.50737000  0.20846000  0.32626000  1.0
  O  O70  1  0.35872000  0.42626000  0.82496000  1.0
  O  O71  1  0.27461000  0.60524000  0.73430000  1.0
  O  O72  1  0.49805000  0.58458000  0.71059000  1.0
  O  O73  1  0.31422000  0.71741000  0.08412000  1.0
  O  O74  1  0.54028000  0.42096000  0.19250000  1.0
  O  O75  1  0.32231000  0.43230000  0.15015000  1.0
  O  O76  1  0.25839000  0.10559000  0.45555000  1.0
  O  O77  1  0.79533000  0.97183000  0.46026000  1.0
  O  O78  1  0.45369000  0.70365000  0.56247000  1.0
  O  O79  1  0.56376000  0.23619000  0.59022000  1.0
  O  O80  1  0.55400000  0.77786000  0.43698000  1.0
  O  O81  1  0.48431000  0.31124000  0.47371000  1.0
  O  O82  1  0.23157000  0.88216000  0.50606000  1.0
  O  O83  1  0.79462000  0.10382000  0.53942000  1.0
