# generated using pymatgen
data_AlH5C11SNClO5
_symmetry_space_group_name_H-M   'P 1'
_cell_length_a   6.67337000
_cell_length_b   12.70294556
_cell_length_c   16.91740000
_cell_angle_alpha   91.39260867
_cell_angle_beta   97.21180000
_cell_angle_gamma   104.15433084
_symmetry_Int_Tables_number   1
_chemical_formula_structural   AlH5C11SNClO5
_chemical_formula_sum   'Al2 H10 C22 S2 N2 Cl2 O10'
_cell_volume   1377.31595751
_cell_formula_units_Z   2
loop_
 _symmetry_equiv_pos_site_id
 _symmetry_equiv_pos_as_xyz
  1  'x, y, z'
loop_
 _atom_site_type_symbol
 _atom_site_label
 _atom_site_symmetry_multiplicity
 _atom_site_fract_x
 _atom_site_fract_y
 _atom_site_fract_z
 _atom_site_occupancy
  Al  Al0  1  0.00000000  0.50000000  0.50000000  1.0
  Al  Al1  1  0.50000000  0.50000000  0.50000000  1.0
  H  H2  1  0.17194000  0.37196000  0.44877000  1.0
  H  H3  1  0.82806000  0.62803000  0.55123000  1.0
  H  H4  1  0.64737000  0.50277000  0.73566000  1.0
  H  H5  1  0.71043000  0.50169000  0.88590000  1.0
  H  H6  1  0.06708000  0.49368000  0.89554000  1.0
  H  H7  1  0.00350000  0.49257000  0.74464000  1.0
  H  H8  1  0.93291000  0.50632000  0.10446000  1.0
  H  H9  1  0.28956000  0.49830000  0.11410000  1.0
  H  H10  1  0.35262000  0.49723000  0.26434000  1.0
  H  H11  1  0.99650000  0.50743000  0.25536000  1.0
  C  C12  1  0.65405000  0.30541000  0.50548000  1.0
  C  C13  1  0.71204000  0.49986000  0.35646000  1.0
  C  C14  1  0.34595000  0.69459000  0.49452000  1.0
  C  C15  1  0.28796000  0.50014000  0.64355000  1.0
  C  C16  1  0.32234000  0.49792000  0.73226000  1.0
  C  C17  1  0.52218000  0.50050000  0.77172000  1.0
  C  C18  1  0.55724000  0.50009000  0.85417000  1.0
  C  C19  1  0.39152000  0.49800000  0.89862000  1.0
  C  C20  1  0.19177000  0.49524000  0.85930000  1.0
  C  C21  1  0.15704000  0.49479000  0.77648000  1.0
  C  C22  1  0.80822000  0.50476000  0.14070000  1.0
  C  C23  1  0.60847000  0.50200000  0.10138000  1.0
  C  C24  1  0.44275000  0.49991000  0.14583000  1.0
  C  C25  1  0.47781000  0.49950000  0.22828000  1.0
  C  C26  1  0.67766000  0.50209000  0.26774000  1.0
  C  C27  1  0.84295000  0.50521000  0.22352000  1.0
  C  C28  1  0.30705000  0.88732000  0.52985000  1.0
  C  C29  1  0.69296000  0.11268000  0.47015000  1.0
  C  C30  1  0.40135000  0.81403000  0.49622000  1.0
  C  C31  1  0.59866000  0.18597000  0.50378000  1.0
  C  C32  1  0.58660000  0.00369000  0.47961000  1.0
  C  C33  1  0.41342000  0.99632000  0.52039000  1.0
  S  S34  1  0.62074000  0.87823000  0.45371000  1.0
  S  S35  1  0.37926000  0.12177000  0.54629000  1.0
  N  N36  1  0.40927000  0.49845000  0.98272000  1.0
  N  N37  1  0.59072000  0.50155000  0.01728000  1.0
  Cl  Cl38  1  0.09619000  0.85620000  0.58067000  1.0
  Cl  Cl39  1  0.90380000  0.14380000  0.41933000  1.0
  O  O40  1  0.83756000  0.35248000  0.49304000  1.0
  O  O41  1  0.54981000  0.48148000  0.39181000  1.0
  O  O42  1  0.48866000  0.64802000  0.48109000  1.0
  O  O43  1  0.10053000  0.48537000  0.61000000  1.0
  O  O44  1  0.16245000  0.64752000  0.50695000  1.0
  O  O45  1  0.45019000  0.51852000  0.60819000  1.0
  O  O46  1  0.51135000  0.35198000  0.51891000  1.0
  O  O47  1  0.89947000  0.51463000  0.39000000  1.0
  O  O48  1  0.21532000  0.44859000  0.46570000  1.0
  O  O49  1  0.78467000  0.55141000  0.53430000  1.0
