# generated using pymatgen
data_Zn4H40C65N5O13F5
_symmetry_space_group_name_H-M   'P 1'
_cell_length_a   17.78280000
_cell_length_b   17.79490000
_cell_length_c   17.81800000
_cell_angle_alpha   86.55970000
_cell_angle_beta   68.00210000
_cell_angle_gamma   63.42970000
_symmetry_Int_Tables_number   1
_chemical_formula_structural   Zn4H40C65N5O13F5
_chemical_formula_sum   'Zn4 H40 C65 N5 O13 F5'
_cell_volume   4636.27846935
_cell_formula_units_Z   1
loop_
 _symmetry_equiv_pos_site_id
 _symmetry_equiv_pos_as_xyz
  1  'x, y, z'
loop_
 _atom_site_type_symbol
 _atom_site_label
 _atom_site_symmetry_multiplicity
 _atom_site_fract_x
 _atom_site_fract_y
 _atom_site_fract_z
 _atom_site_occupancy
  Zn  Zn0  1  0.43365000  0.56572000  0.43282000  1.0
  Zn  Zn1  1  0.43069000  0.46205000  0.58569000  1.0
  Zn  Zn2  1  0.54991000  0.56307000  0.52599000  1.0
  Zn  Zn3  1  0.61517000  0.39128000  0.42355000  1.0
  H  H4  1  0.60359000  0.26760000  0.96004000  1.0
  H  H5  1  0.13472000  0.25733000  0.46461000  1.0
  H  H6  1  0.11622000  0.69919000  0.63093000  1.0
  H  H7  1  0.84795000  0.69891000  0.63117000  1.0
  H  H8  1  0.04436000  0.23590000  0.39737000  1.0
  H  H9  1  0.79242000  0.52324000  0.52321000  1.0
  H  H10  1  0.81672000  0.60120000  0.57087000  1.0
  H  H11  1  0.37462000  0.71564000  0.76947000  1.0
  H  H12  1  0.95637000  0.73542000  0.65220000  1.0
  H  H13  1  0.34293000  0.72229000  0.04800000  1.0
  H  H14  1  0.55251000  0.37074000  0.87034000  1.0
  H  H15  1  0.33969000  0.75975000  0.91422000  1.0
  H  H16  1  0.40812000  0.61776000  0.13101000  1.0
  H  H17  1  0.67813000  0.83165000  0.61037000  1.0
  H  H18  1  0.61091000  0.92133000  0.74061000  1.0
  H  H19  1  0.66289000  0.98427000  0.68658000  1.0
  H  H20  1  0.73274000  0.87767000  0.69460000  1.0
  H  H21  1  0.59055000  0.72361000  0.43159000  1.0
  H  H22  1  0.68086000  0.80957000  0.43969000  1.0
  H  H23  1  0.61229000  0.87890000  0.38904000  1.0
  H  H24  1  0.69090000  0.77209000  0.34431000  1.0
  H  H25  1  0.20947000  0.27640000  0.53260000  1.0
  H  H26  1  0.25153000  0.11123000  0.52132000  1.0
  H  H27  1  0.23785000  0.35336000  0.61980000  1.0
  H  H28  1  0.14570000  0.33049000  0.67772000  1.0
  H  H29  1  0.12327000  0.43291000  0.64843000  1.0
  H  H30  1  0.64144000  0.17765000  0.12794000  1.0
  H  H31  1  0.57107000  0.12349000  0.07148000  1.0
  H  H32  1  0.50691000  0.22691000  0.05190000  1.0
  H  H33  1  0.48455000  0.20472000  0.15454000  1.0
  H  H34  1  0.51544000  0.56398000  0.22928000  1.0
  H  H35  1  0.55327000  0.65194000  0.13229000  1.0
  H  H36  1  0.57129000  0.58405000  0.05184000  1.0
  H  H37  1  0.43737000  0.21591000  0.53496000  1.0
  H  H38  1  0.64989000  0.54925000  0.10093000  1.0
  H  H39  1  0.69813000  0.15388000  0.53749000  1.0
  H  H40  1  0.22742000  0.98800000  0.50429000  1.0
  H  H41  1  0.28681000  0.83080000  0.48659000  1.0
  H  H42  1  0.49643000  0.45438000  0.80491000  1.0
  H  H43  1  0.72290000  0.00688000  0.56274000  1.0
  C  C44  1  0.54563000  0.28309000  0.52938000  1.0
  C  C45  1  0.42285000  0.59754000  0.06857000  1.0
  C  C46  1  0.38661000  0.65573000  0.02225000  1.0
  C  C47  1  0.45149000  0.71157000  0.46179000  1.0
  C  C48  1  0.40509000  0.63156000  0.94015000  1.0
  C  C49  1  0.45402000  0.54336000  0.90928000  1.0
  C  C50  1  0.37590000  0.69283000  0.88936000  1.0
  C  C51  1  0.39401000  0.66892000  0.80991000  1.0
  C  C52  1  0.46432000  0.52058000  0.83011000  1.0
  C  C53  1  0.42080000  0.80253000  0.47658000  1.0
  C  C54  1  0.56283000  0.19373000  0.54007000  1.0
  C  C55  1  0.57481000  0.32778000  0.18750000  1.0
  C  C56  1  0.29632000  0.94516000  0.49986000  1.0
  C  C57  1  0.32942000  0.85875000  0.48890000  1.0
  C  C58  1  0.48111000  0.83616000  0.47497000  1.0
  C  C59  1  0.27097000  0.55442000  0.54246000  1.0
  C  C60  1  0.44120000  0.92472000  0.50490000  1.0
  C  C61  1  0.35142000  0.97932000  0.50822000  1.0
  C  C62  1  0.48642000  0.96144000  0.53134000  1.0
  C  C63  1  0.45782000  0.05087000  0.53596000  1.0
  C  C64  1  0.37264000  0.10015000  0.52897000  1.0
  C  C65  1  0.31891000  0.06817000  0.52043000  1.0
  C  C66  1  0.53184000  0.47267000  0.15641000  1.0
  C  C67  1  0.55398000  0.91416000  0.56312000  1.0
  C  C68  1  0.60650000  0.94328000  0.58047000  1.0
  C  C69  1  0.59380000  0.02697000  0.56282000  1.0
  C  C70  1  0.51415000  0.08381000  0.54829000  1.0
  C  C71  1  0.74017000  0.43740000  0.45914000  1.0
  C  C72  1  0.65941000  0.05328000  0.55838000  1.0
  C  C73  1  0.64600000  0.13453000  0.54457000  1.0
  C  C74  1  0.49852000  0.16889000  0.54201000  1.0
  C  C75  1  0.83331000  0.40778000  0.45675000  1.0
  C  C76  1  0.17280000  0.57628000  0.56365000  1.0
  C  C77  1  0.52406000  0.44886000  0.08486000  1.0
  C  C78  1  0.99086000  0.29993000  0.42437000  1.0
  C  C79  1  0.90739000  0.32651000  0.42016000  1.0
  C  C80  1  0.84994000  0.46134000  0.49541000  1.0
  C  C81  1  0.93441000  0.43824000  0.49975000  1.0
  C  C82  1  0.00636000  0.35406000  0.46551000  1.0
  C  C83  1  0.45351000  0.55599000  0.69583000  1.0
  C  C84  1  0.95288000  0.49518000  0.53628000  1.0
  C  C85  1  0.04003000  0.46703000  0.53932000  1.0
  C  C86  1  0.10013000  0.37620000  0.52471000  1.0
  C  C87  1  0.08627000  0.32471000  0.48076000  1.0
  C  C88  1  0.55837000  0.36093000  0.06009000  1.0
  C  C89  1  0.88482000  0.58030000  0.56978000  1.0
  C  C90  1  0.90212000  0.63542000  0.60254000  1.0
  C  C91  1  0.99207000  0.61354000  0.59573000  1.0
  C  C92  1  0.06316000  0.53010000  0.55778000  1.0
  C  C93  1  0.01224000  0.67314000  0.62214000  1.0
  C  C94  1  0.10081000  0.65392000  0.60926000  1.0
  C  C95  1  0.55672000  0.43427000  0.28790000  1.0
  C  C96  1  0.15295000  0.51875000  0.53672000  1.0
  C  C97  1  0.55400000  0.41168000  0.21053000  1.0
  C  C98  1  0.43647000  0.58174000  0.78088000  1.0
  C  C99  1  0.48123000  0.50974000  0.03716000  1.0
  C  C100  1  0.58155000  0.29955000  0.11345000  1.0
  C  C101  1  0.66901000  0.92024000  0.68729000  1.0
  C  C102  1  0.64231000  0.81341000  0.40227000  1.0
  C  C103  1  0.16878000  0.36532000  0.62839000  1.0
  C  C104  1  0.53893000  0.19127000  0.09318000  1.0
  C  C105  1  0.57712000  0.58565000  0.11066000  1.0
  C  C106  1  0.49160000  0.48187000  0.95905000  1.0
  C  C107  1  0.53987000  0.39332000  0.93143000  1.0
  C  C108  1  0.56900000  0.33525000  0.98105000  1.0
  N  N109  1  0.67236000  0.89120000  0.61013000  1.0
  N  N110  1  0.57259000  0.78655000  0.44048000  1.0
  N  N111  1  0.16843000  0.33899000  0.55297000  1.0
  N  N112  1  0.60979000  0.21331000  0.09180000  1.0
  N  N113  1  0.52096000  0.55319000  0.17137000  1.0
  O  O114  1  0.50681000  0.49312000  0.49146000  1.0
  O  O115  1  0.44782000  0.48925000  0.68219000  1.0
  O  O116  1  0.60617000  0.37660000  0.31914000  1.0
  O  O117  1  0.47264000  0.60341000  0.64277000  1.0
  O  O118  1  0.50835000  0.51316000  0.31899000  1.0
  O  O119  1  0.31422000  0.56516000  0.47114000  1.0
  O  O120  1  0.72709000  0.39409000  0.41522000  1.0
  O  O121  1  0.46388000  0.34128000  0.56690000  1.0
  O  O122  1  0.53162000  0.65875000  0.46012000  1.0
  O  O123  1  0.61410000  0.29394000  0.48417000  1.0
  O  O124  1  0.39788000  0.68665000  0.45194000  1.0
  O  O125  1  0.30106000  0.52728000  0.59839000  1.0
  O  O126  1  0.67829000  0.50639000  0.50687000  1.0
  F  F127  1  0.33740000  0.18689000  0.53557000  1.0
  F  F128  1  0.56559000  0.83502000  0.58306000  1.0
  F  F129  1  0.22531000  0.44875000  0.48602000  1.0
  F  F130  1  0.89669000  0.27087000  0.38129000  1.0
  F  F131  1  0.59014000  0.26907000  0.24026000  1.0
