# generated using pymatgen
data_BaH4(C2O3)2
_symmetry_space_group_name_H-M   'P 1'
_cell_length_a   8.27138000
_cell_length_b   8.34094000
_cell_length_c   9.15302000
_cell_angle_alpha   90.00000000
_cell_angle_beta   90.00020000
_cell_angle_gamma   90.00000000
_symmetry_Int_Tables_number   1
_chemical_formula_structural   BaH4(C2O3)2
_chemical_formula_sum   'Ba4 H16 C16 O24'
_cell_volume   631.47677439
_cell_formula_units_Z   4
loop_
 _symmetry_equiv_pos_site_id
 _symmetry_equiv_pos_as_xyz
  1  'x, y, z'
loop_
 _atom_site_type_symbol
 _atom_site_label
 _atom_site_symmetry_multiplicity
 _atom_site_fract_x
 _atom_site_fract_y
 _atom_site_fract_z
 _atom_site_occupancy
  Ba  Ba0  1  0.84286000  0.52948000  0.98144000  1.0
  Ba  Ba1  1  0.65713000  0.02948000  0.01856000  1.0
  Ba  Ba2  1  0.34287000  0.47052000  0.51856000  1.0
  Ba  Ba3  1  0.15713000  0.97052000  0.48144000  1.0
  H  H4  1  0.25403000  0.10012000  0.08549000  1.0
  H  H5  1  0.24597000  0.60012000  0.91451000  1.0
  H  H6  1  0.75403000  0.89988000  0.41451000  1.0
  H  H7  1  0.74597000  0.39988000  0.58549000  1.0
  H  H8  1  0.36770000  0.10874000  0.72339000  1.0
  H  H9  1  0.13230000  0.60874000  0.27661000  1.0
  H  H10  1  0.86770000  0.89126000  0.77661000  1.0
  H  H11  1  0.63230000  0.39126000  0.22339000  1.0
  H  H12  1  0.21497000  0.35446000  0.02143000  1.0
  H  H13  1  0.28503000  0.85445000  0.97857000  1.0
  H  H14  1  0.71497000  0.64555000  0.47857000  1.0
  H  H15  1  0.78503000  0.14555000  0.52143000  1.0
  H  H16  1  0.13283000  0.36103000  0.77172000  1.0
  H  H17  1  0.36717000  0.86103000  0.22828000  1.0
  H  H18  1  0.63284000  0.63897000  0.72828000  1.0
  H  H19  1  0.86717000  0.13897000  0.27172000  1.0
  C  C20  1  0.42984000  0.38173000  0.89051000  1.0
  C  C21  1  0.07016000  0.88172000  0.10949000  1.0
  C  C22  1  0.92985000  0.61828000  0.60948000  1.0
  C  C23  1  0.57016000  0.11828000  0.39052000  1.0
  C  C24  1  0.28595000  0.28011000  0.94528000  1.0
  C  C25  1  0.21405000  0.78011000  0.05472000  1.0
  C  C26  1  0.78595000  0.71989000  0.55472000  1.0
  C  C27  1  0.71405000  0.21989000  0.44528000  1.0
  C  C28  1  0.18316000  0.24512000  0.80820000  1.0
  C  C29  1  0.31683000  0.74512000  0.19180000  1.0
  C  C30  1  0.68316000  0.75488000  0.69180000  1.0
  C  C31  1  0.81684000  0.25488000  0.30820000  1.0
  C  C32  1  0.03172000  0.14297000  0.83440000  1.0
  C  C33  1  0.46828000  0.64296000  0.16561000  1.0
  C  C34  1  0.53172000  0.85704000  0.66561000  1.0
  C  C35  1  0.96828000  0.35704000  0.33439000  1.0
  O  O36  1  0.57194000  0.33151000  0.90785000  1.0
  O  O37  1  0.92807000  0.83151000  0.09215000  1.0
  O  O38  1  0.07193000  0.66849000  0.59214000  1.0
  O  O39  1  0.42807000  0.16849000  0.40786000  1.0
  O  O40  1  0.39163000  0.51176000  0.82427000  1.0
  O  O41  1  0.10837000  0.01176000  0.17573000  1.0
  O  O42  1  0.89163000  0.48824000  0.67573000  1.0
  O  O43  1  0.60837000  0.98824000  0.32427000  1.0
  O  O44  1  0.34143000  0.14002000  0.01756000  1.0
  O  O45  1  0.15857000  0.64002000  0.98244000  1.0
  O  O46  1  0.84142000  0.85999000  0.48244000  1.0
  O  O47  1  0.65858000  0.35999000  0.51756000  1.0
  O  O48  1  0.28100000  0.18786000  0.69109000  1.0
  O  O49  1  0.21900000  0.68785000  0.30891000  1.0
  O  O50  1  0.78100000  0.81214000  0.80891000  1.0
  O  O51  1  0.71899000  0.31214000  0.19109000  1.0
  O  O52  1  0.93026000  0.19809000  0.92532000  1.0
  O  O53  1  0.56974000  0.69809000  0.07468000  1.0
  O  O54  1  0.43026000  0.80191000  0.57468000  1.0
  O  O55  1  0.06974000  0.30191000  0.42532000  1.0
  O  O56  1  0.01577000  0.01561000  0.75891000  1.0
  O  O57  1  0.48423000  0.51561000  0.24109000  1.0
  O  O58  1  0.51577000  0.98439000  0.74110000  1.0
  O  O59  1  0.98423000  0.48439000  0.25890000  1.0
