# generated using pymatgen
data_ZnH19C19(NO2)2
_symmetry_space_group_name_H-M   'P 1'
_cell_length_a   11.03080000
_cell_length_b   13.86180000
_cell_length_c   15.39100000
_cell_angle_alpha   90.03210000
_cell_angle_beta   92.16480000
_cell_angle_gamma   107.30070000
_symmetry_Int_Tables_number   1
_chemical_formula_structural   ZnH19C19(NO2)2
_chemical_formula_sum   'Zn2 H38 C38 N4 O8'
_cell_volume   2245.13861162
_cell_formula_units_Z   2
loop_
 _symmetry_equiv_pos_site_id
 _symmetry_equiv_pos_as_xyz
  1  'x, y, z'
loop_
 _atom_site_type_symbol
 _atom_site_label
 _atom_site_symmetry_multiplicity
 _atom_site_fract_x
 _atom_site_fract_y
 _atom_site_fract_z
 _atom_site_occupancy
  Zn  Zn0  1  0.48155000  0.39195000  0.50512000  1.0
  Zn  Zn1  1  0.50016000  0.59664000  0.50560000  1.0
  H  H2  1  0.12940000  0.57475000  0.51007000  1.0
  H  H3  1  0.56705000  0.36894000  0.22977000  1.0
  H  H4  1  0.57635000  0.66272000  0.94500000  1.0
  H  H5  1  0.57874000  0.37176000  0.06830000  1.0
  H  H6  1  0.66654000  0.77536000  0.58711000  1.0
  H  H7  1  0.48891000  0.24643000  0.37027000  1.0
  H  H8  1  0.34035000  0.72327000  0.43065000  1.0
  H  H9  1  0.53135000  0.24919000  0.63800000  1.0
  H  H10  1  0.94601000  0.13574000  0.36554000  1.0
  H  H11  1  0.81703000  0.18785000  0.36895000  1.0
  H  H12  1  0.89575000  0.18765000  0.27028000  1.0
  H  H13  1  0.85579000  0.42274000  0.49594000  1.0
  H  H14  1  0.96541000  0.36067000  0.33932000  1.0
  H  H15  1  0.09486000  0.31043000  0.33729000  1.0
  H  H16  1  0.06738000  0.26122000  0.49175000  1.0
  H  H17  1  0.92888000  0.30173000  0.49416000  1.0
  H  H18  1  0.99357000  0.88692000  0.44456000  1.0
  H  H19  1  0.13420000  0.85464000  0.42530000  1.0
  H  H20  1  0.03648000  0.87317000  0.33618000  1.0
  H  H21  1  0.00055000  0.68670000  0.35929000  1.0
  H  H22  1  0.86106000  0.71929000  0.38016000  1.0
  H  H23  1  0.91929000  0.73118000  0.53940000  1.0
  H  H24  1  0.36863000  0.91005000  0.41976000  1.0
  H  H25  1  0.05676000  0.69489000  0.51847000  1.0
  H  H26  1  0.78004000  0.92974000  0.62814000  1.0
  H  H27  1  0.91031000  0.08455000  0.60064000  1.0
  H  H28  1  0.78526000  0.12713000  0.55594000  1.0
  H  H29  1  0.84992000  0.04788000  0.49268000  1.0
  H  H30  1  0.51536000  0.11999000  0.28923000  1.0
  H  H31  1  0.63109000  0.02289000  0.24445000  1.0
  H  H32  1  0.53818000  0.92416000  0.30991000  1.0
  H  H33  1  0.68135000  0.00981000  0.35360000  1.0
  H  H34  1  0.56541000  0.07676000  0.63684000  1.0
  H  H35  1  0.44322000  0.33735000  0.94639000  1.0
  H  H36  1  0.44150000  0.63207000  0.06160000  1.0
  H  H37  1  0.44043000  0.33457000  0.78457000  1.0
  H  H38  1  0.43539000  0.63029000  0.22343000  1.0
  H  H39  1  0.57032000  0.65831000  0.78295000  1.0
  C  C40  1  0.50157000  0.49452000  0.67612000  1.0
  C  C41  1  0.52988000  0.20677000  0.57815000  1.0
  C  C42  1  0.43733000  0.88260000  0.45715000  1.0
  C  C43  1  0.54985000  0.11276000  0.57623000  1.0
  C  C44  1  0.54139000  0.95301000  0.49977000  1.0
  C  C45  1  0.54544000  0.06054000  0.49732000  1.0
  C  C46  1  0.73893000  0.55449000  0.50325000  1.0
  C  C47  1  0.24493000  0.44169000  0.49709000  1.0
  C  C48  1  0.88008000  0.57729000  0.49949000  1.0
  C  C49  1  0.10393000  0.42142000  0.48854000  1.0
  C  C50  1  0.92688000  0.49693000  0.49690000  1.0
  C  C51  1  0.49101000  0.49553000  0.33345000  1.0
  C  C52  1  0.05821000  0.50170000  0.49820000  1.0
  C  C53  1  0.47349000  0.40802000  0.91085000  1.0
  C  C54  1  0.47108000  0.57503000  0.09832000  1.0
  C  C55  1  0.47110000  0.40604000  0.82046000  1.0
  C  C56  1  0.46631000  0.57387000  0.18856000  1.0
  C  C57  1  0.50571000  0.49625000  0.77376000  1.0
  C  C58  1  0.49890000  0.49855000  0.23634000  1.0
  C  C59  1  0.54303000  0.58846000  0.81964000  1.0
  C  C60  1  0.53906000  0.42587000  0.19202000  1.0
  C  C61  1  0.54525000  0.59046000  0.91006000  1.0
  C  C62  1  0.51022000  0.50022000  0.95739000  1.0
  C  C63  1  0.54475000  0.42743000  0.10194000  1.0
  C  C64  1  0.02240000  0.31644000  0.46523000  1.0
  C  C65  1  0.00213000  0.30066000  0.36605000  1.0
  C  C66  1  0.91034000  0.19730000  0.34121000  1.0
  C  C67  1  0.95832000  0.68612000  0.49551000  1.0
  C  C68  1  0.95974000  0.73021000  0.40358000  1.0
  C  C69  1  0.03501000  0.84218000  0.40203000  1.0
  C  C70  1  0.82368000  0.06275000  0.55873000  1.0
  C  C71  1  0.59782000  0.00350000  0.31025000  1.0
  C  C72  1  0.50947000  0.50139000  0.05326000  1.0
  C  C73  1  0.62781000  0.91495000  0.54931000  1.0
  C  C74  1  0.52828000  0.11037000  0.41929000  1.0
  C  C75  1  0.60203000  0.80927000  0.55161000  1.0
  C  C76  1  0.50582000  0.20506000  0.42773000  1.0
  C  C77  1  0.41970000  0.77966000  0.46321000  1.0
  N  N78  1  0.50261000  0.74451000  0.51015000  1.0
  N  N79  1  0.50506000  0.25044000  0.50390000  1.0
  N  N80  1  0.73449000  0.97376000  0.59602000  1.0
  N  N81  1  0.52968000  0.07324000  0.33646000  1.0
  O  O82  1  0.46976000  0.40810000  0.63829000  1.0
  O  O83  1  0.47532000  0.57247000  0.37117000  1.0
  O  O84  1  0.52968000  0.57957000  0.63837000  1.0
  O  O85  1  0.50079000  0.41591000  0.37083000  1.0
  O  O86  1  0.67413000  0.46360000  0.51726000  1.0
  O  O87  1  0.31137000  0.53214000  0.51586000  1.0
  O  O88  1  0.69298000  0.62845000  0.49273000  1.0
  O  O89  1  0.28942000  0.36756000  0.48581000  1.0
