# generated using pymatgen
data_ZnH14C16N4O5
_symmetry_space_group_name_H-M   'P 1'
_cell_length_a   8.85066000
_cell_length_b   10.30960000
_cell_length_c   22.07320000
_cell_angle_alpha   90.00020000
_cell_angle_beta   90.00010000
_cell_angle_gamma   77.25800000
_symmetry_Int_Tables_number   1
_chemical_formula_structural   ZnH14C16N4O5
_chemical_formula_sum   'Zn4 H56 C64 N16 O20'
_cell_volume   1964.50689301
_cell_formula_units_Z   4
loop_
 _symmetry_equiv_pos_site_id
 _symmetry_equiv_pos_as_xyz
  1  'x, y, z'
loop_
 _atom_site_type_symbol
 _atom_site_label
 _atom_site_symmetry_multiplicity
 _atom_site_fract_x
 _atom_site_fract_y
 _atom_site_fract_z
 _atom_site_occupancy
  Zn  Zn0  1  0.64768000  0.91121000  0.89842000  1.0
  Zn  Zn1  1  0.85232000  0.08879000  0.39842000  1.0
  Zn  Zn2  1  0.35232000  0.08879000  0.10158000  1.0
  Zn  Zn3  1  0.14768000  0.91121000  0.60158000  1.0
  H  H4  1  0.10064000  0.42307000  0.98223000  1.0
  H  H5  1  0.39936000  0.57693000  0.48223000  1.0
  H  H6  1  0.89936000  0.57693000  0.01777000  1.0
  H  H7  1  0.60064000  0.42307000  0.51777000  1.0
  H  H8  1  0.69819000  0.41825000  0.88728000  1.0
  H  H9  1  0.80181000  0.58175000  0.38728000  1.0
  H  H10  1  0.30181000  0.58175000  0.11272000  1.0
  H  H11  1  0.19819000  0.41825000  0.61272000  1.0
  H  H12  1  0.28610000  0.68720000  0.95185000  1.0
  H  H13  1  0.21390000  0.31280000  0.45185000  1.0
  H  H14  1  0.71390000  0.31280000  0.04815000  1.0
  H  H15  1  0.78611000  0.68720000  0.54815000  1.0
  H  H16  1  0.30494000  0.26610000  0.94374000  1.0
  H  H17  1  0.19505000  0.73390000  0.44374000  1.0
  H  H18  1  0.69505000  0.73390000  0.05626000  1.0
  H  H19  1  0.80494000  0.26610000  0.55626000  1.0
  H  H20  1  0.58894000  0.09544000  0.78161000  1.0
  H  H21  1  0.91107000  0.90456000  0.28161000  1.0
  H  H22  1  0.41106000  0.90456000  0.21839000  1.0
  H  H23  1  0.08894000  0.09544000  0.71839000  1.0
  H  H24  1  0.81571000  0.05050000  0.64212000  1.0
  H  H25  1  0.68430000  0.94950000  0.14212000  1.0
  H  H26  1  0.18429000  0.94950000  0.35788000  1.0
  H  H27  1  0.31571000  0.05050000  0.85789000  1.0
  H  H28  1  0.64735000  0.14984000  0.67593000  1.0
  H  H29  1  0.85266000  0.85016000  0.17593000  1.0
  H  H30  1  0.35265000  0.85016000  0.32407000  1.0
  H  H31  1  0.14735000  0.14984000  0.82407000  1.0
  H  H32  1  0.64418000  0.88862000  0.60936000  1.0
  H  H33  1  0.85582000  0.11138000  0.10936000  1.0
  H  H34  1  0.35582000  0.11137000  0.39064000  1.0
  H  H35  1  0.14418000  0.88863000  0.89064000  1.0
  H  H36  1  0.47943000  0.01673000  0.62863000  1.0
  H  H37  1  0.02058000  0.98326000  0.12863000  1.0
  H  H38  1  0.52058000  0.98326000  0.37137000  1.0
  H  H39  1  0.97942000  0.01674000  0.87137000  1.0
  H  H40  1  0.41204000  0.22179000  0.56010000  1.0
  H  H41  1  0.08796000  0.77821000  0.06010000  1.0
  H  H42  1  0.58796000  0.77820000  0.43990000  1.0
  H  H43  1  0.91204000  0.22179000  0.93990000  1.0
  H  H44  1  0.53587000  0.28063000  0.44855000  1.0
  H  H45  1  0.96414000  0.71936000  0.94855000  1.0
  H  H46  1  0.46414000  0.71936000  0.55145000  1.0
  H  H47  1  0.03587000  0.28064000  0.05145000  1.0
  H  H48  1  0.82091000  0.93251000  0.52229000  1.0
  H  H49  1  0.67909000  0.06749000  0.02229000  1.0
  H  H50  1  0.17909000  0.06749000  0.47771000  1.0
  H  H51  1  0.32091000  0.93251000  0.97771000  1.0
  H  H52  1  0.88133000  0.79000000  0.68151000  1.0
  H  H53  1  0.61868000  0.21000000  0.18151000  1.0
  H  H54  1  0.11867000  0.21000000  0.31849000  1.0
  H  H55  1  0.38132000  0.79000000  0.81849000  1.0
  H  H56  1  0.85641000  0.70548000  0.80179000  1.0
  H  H57  1  0.64359000  0.29452000  0.30179000  1.0
  H  H58  1  0.14359000  0.29452000  0.19821000  1.0
  H  H59  1  0.35641000  0.70548000  0.69821000  1.0
  C  C60  1  0.59627000  0.18905000  0.89956000  1.0
  C  C61  1  0.90372000  0.81095000  0.39956000  1.0
  C  C62  1  0.40372000  0.81095000  0.10044000  1.0
  C  C63  1  0.09627000  0.18905000  0.60044000  1.0
  C  C64  1  0.57736000  0.67780000  0.90890000  1.0
  C  C65  1  0.92263000  0.32221000  0.40889000  1.0
  C  C66  1  0.42264000  0.32221000  0.09110000  1.0
  C  C67  1  0.07737000  0.67779000  0.59110000  1.0
  C  C68  1  0.50913000  0.32810000  0.91300000  1.0
  C  C69  1  0.99087000  0.67190000  0.41300000  1.0
  C  C70  1  0.49087000  0.67190000  0.08700000  1.0
  C  C71  1  0.00913000  0.32810000  0.58700000  1.0
  C  C72  1  0.58000000  0.43504000  0.90417000  1.0
  C  C73  1  0.92000000  0.56496000  0.40417000  1.0
  C  C74  1  0.42000000  0.56496000  0.09583000  1.0
  C  C75  1  0.08000000  0.43504000  0.59583000  1.0
  C  C76  1  0.49910000  0.56448000  0.91759000  1.0
  C  C77  1  0.00089000  0.43552000  0.41759000  1.0
  C  C78  1  0.50090000  0.43552000  0.08241000  1.0
  C  C79  1  0.99910000  0.56448000  0.58241000  1.0
  C  C80  1  0.34792000  0.58694000  0.94007000  1.0
  C  C81  1  0.15207000  0.41306000  0.44007000  1.0
  C  C82  1  0.65207000  0.41306000  0.05993000  1.0
  C  C83  1  0.84792000  0.58694000  0.55993000  1.0
  C  C84  1  0.27822000  0.47949000  0.94948000  1.0
  C  C85  1  0.22178000  0.52051000  0.44948000  1.0
  C  C86  1  0.72178000  0.52051000  0.05052000  1.0
  C  C87  1  0.77822000  0.47949000  0.55052000  1.0
  C  C88  1  0.35795000  0.35039000  0.93572000  1.0
  C  C89  1  0.14205000  0.64961000  0.43572000  1.0
  C  C90  1  0.64205000  0.64961000  0.06428000  1.0
  C  C91  1  0.85795000  0.35039000  0.56428000  1.0
  C  C92  1  0.66346000  0.99959000  0.77144000  1.0
  C  C93  1  0.83654000  0.00041000  0.27144000  1.0
  C  C94  1  0.33654000  0.00041000  0.22856000  1.0
  C  C95  1  0.16346000  0.99959000  0.72856000  1.0
  C  C96  1  0.70255000  0.04815000  0.66205000  1.0
  C  C97  1  0.79745000  0.95185000  0.16205000  1.0
  C  C98  1  0.29745000  0.95185000  0.33795000  1.0
  C  C99  1  0.20255000  0.04815000  0.83795000  1.0
  C  C100  1  0.60185000  0.99626000  0.61518000  1.0
  C  C101  1  0.89816000  0.00374000  0.11518000  1.0
  C  C102  1  0.39815000  0.00373000  0.38482000  1.0
  C  C103  1  0.10184000  0.99627000  0.88482000  1.0
  C  C104  1  0.51523000  0.17449000  0.53509000  1.0
  C  C105  1  0.98478000  0.82551000  0.03509000  1.0
  C  C106  1  0.48478000  0.82551000  0.46491000  1.0
  C  C107  1  0.01523000  0.17449000  0.96491000  1.0
  C  C108  1  0.57595000  0.20004000  0.48017000  1.0
  C  C109  1  0.92405000  0.79996000  0.98017000  1.0
  C  C110  1  0.42406000  0.79996000  0.51982000  1.0
  C  C111  1  0.07595000  0.20004000  0.01983000  1.0
  C  C112  1  0.72698000  0.01906000  0.51566000  1.0
  C  C113  1  0.77302000  0.98094000  0.01566000  1.0
  C  C114  1  0.27302000  0.98094000  0.48434000  1.0
  C  C115  1  0.22698000  0.01907000  0.98434000  1.0
  C  C116  1  0.81736000  0.83762000  0.72042000  1.0
  C  C117  1  0.68265000  0.16239000  0.22042000  1.0
  C  C118  1  0.18264000  0.16238000  0.27958000  1.0
  C  C119  1  0.31735000  0.83762000  0.77958000  1.0
  C  C120  1  0.80566000  0.79846000  0.77939000  1.0
  C  C121  1  0.69434000  0.20154000  0.27939000  1.0
  C  C122  1  0.19434000  0.20154000  0.22061000  1.0
  C  C123  1  0.30566000  0.79846000  0.72061000  1.0
  N  N124  1  0.70988000  0.90067000  0.81065000  1.0
  N  N125  1  0.79012000  0.09933000  0.31065000  1.0
  N  N126  1  0.29012000  0.09933000  0.18935000  1.0
  N  N127  1  0.20988000  0.90067000  0.68935000  1.0
  N  N128  1  0.72626000  0.96529000  0.71623000  1.0
  N  N129  1  0.77374000  0.03472000  0.21623000  1.0
  N  N130  1  0.27374000  0.03471000  0.28377000  1.0
  N  N131  1  0.22626000  0.96529000  0.78377000  1.0
  N  N132  1  0.61220000  0.05945000  0.55669000  1.0
  N  N133  1  0.88780000  0.94054000  0.05669000  1.0
  N  N134  1  0.38780000  0.94054000  0.44331000  1.0
  N  N135  1  0.11219000  0.05946000  0.94331000  1.0
  N  N136  1  0.70736000  0.10221000  0.46874000  1.0
  N  N137  1  0.79264000  0.89779000  0.96874000  1.0
  N  N138  1  0.29265000  0.89779000  0.53126000  1.0
  N  N139  1  0.20736000  0.10221000  0.03126000  1.0
  O  O140  1  0.51755000  0.09672000  0.90548000  1.0
  O  O141  1  0.98245000  0.90328000  0.40548000  1.0
  O  O142  1  0.48244000  0.90328000  0.09452000  1.0
  O  O143  1  0.01755000  0.09672000  0.59452000  1.0
  O  O144  1  0.73577000  0.16746000  0.88388000  1.0
  O  O145  1  0.76423000  0.83253000  0.38388000  1.0
  O  O146  1  0.26423000  0.83253000  0.11612000  1.0
  O  O147  1  0.23577000  0.16746000  0.61612000  1.0
  O  O148  1  0.71943000  0.65665000  0.89719000  1.0
  O  O149  1  0.78056000  0.34335000  0.39719000  1.0
  O  O150  1  0.28056000  0.34335000  0.10281000  1.0
  O  O151  1  0.21944000  0.65665000  0.60281000  1.0
  O  O152  1  0.49086000  0.79790000  0.91341000  1.0
  O  O153  1  0.00914000  0.20211000  0.41341000  1.0
  O  O154  1  0.50914000  0.20210000  0.08659000  1.0
  O  O155  1  0.99086000  0.79789000  0.58659000  1.0
  O  O156  1  0.13156000  0.50617000  0.97258000  1.0
  O  O157  1  0.36844000  0.49384000  0.47258000  1.0
  O  O158  1  0.86844000  0.49384000  0.02742000  1.0
  O  O159  1  0.63156000  0.50617000  0.52742000  1.0
