# generated using pymatgen
data_Cd2H32C41(N2O7)2
_symmetry_space_group_name_H-M   'P 1'
_cell_length_a   9.11668000
_cell_length_b   15.33230000
_cell_length_c   17.50590000
_cell_angle_alpha   90.00010000
_cell_angle_beta   89.99990000
_cell_angle_gamma   90.00000000
_symmetry_Int_Tables_number   1
_chemical_formula_structural   Cd2H32C41(N2O7)2
_chemical_formula_sum   'Cd4 H64 C82 N8 O28'
_cell_volume   2446.96897343
_cell_formula_units_Z   2
loop_
 _symmetry_equiv_pos_site_id
 _symmetry_equiv_pos_as_xyz
  1  'x, y, z'
loop_
 _atom_site_type_symbol
 _atom_site_label
 _atom_site_symmetry_multiplicity
 _atom_site_fract_x
 _atom_site_fract_y
 _atom_site_fract_z
 _atom_site_occupancy
  Cd  Cd0  1  0.80794000  0.17331000  0.74747000  1.0
  Cd  Cd1  1  0.80794000  0.82669000  0.25253000  1.0
  Cd  Cd2  1  0.19205000  0.67331000  0.75253000  1.0
  Cd  Cd3  1  0.19205000  0.32669000  0.24747000  1.0
  H  H4  1  0.53375000  0.90963000  0.77458000  1.0
  H  H5  1  0.53375000  0.09037000  0.22542000  1.0
  H  H6  1  0.46625000  0.40963000  0.72542000  1.0
  H  H7  1  0.46625000  0.59037000  0.27458000  1.0
  H  H8  1  0.51278000  0.74596000  0.97427000  1.0
  H  H9  1  0.51279000  0.25404000  0.02572000  1.0
  H  H10  1  0.48721000  0.24596000  0.52573000  1.0
  H  H11  1  0.48722000  0.75404000  0.47427000  1.0
  H  H12  1  0.83472000  0.95106000  0.96051000  1.0
  H  H13  1  0.83472000  0.04894000  0.03949000  1.0
  H  H14  1  0.16529000  0.45106000  0.53950000  1.0
  H  H15  1  0.16528000  0.54894000  0.46051000  1.0
  H  H16  1  0.13249000  0.09577000  0.76973000  1.0
  H  H17  1  0.13250000  0.90423000  0.23027000  1.0
  H  H18  1  0.86751000  0.59577000  0.73027000  1.0
  H  H19  1  0.86751000  0.40423000  0.26973000  1.0
  H  H20  1  0.35582000  0.05777000  0.69583000  1.0
  H  H21  1  0.35582000  0.94223000  0.30416000  1.0
  H  H22  1  0.64418000  0.55777000  0.80416000  1.0
  H  H23  1  0.64418000  0.44223000  0.19584000  1.0
  H  H24  1  0.92584000  0.19963000  0.57987000  1.0
  H  H25  1  0.92584000  0.80037000  0.42013000  1.0
  H  H26  1  0.07416000  0.69963000  0.92013000  1.0
  H  H27  1  0.07416000  0.30037000  0.07987000  1.0
  H  H28  1  0.14356000  0.16716000  0.49608000  1.0
  H  H29  1  0.14356000  0.83284000  0.50392000  1.0
  H  H30  1  0.85644000  0.66716000  0.00392000  1.0
  H  H31  1  0.85643000  0.33284000  0.99609000  1.0
  H  H32  1  0.43151000  0.96846000  0.59334000  1.0
  H  H33  1  0.43151000  0.03154000  0.40665000  1.0
  H  H34  1  0.56850000  0.46846000  0.90665000  1.0
  H  H35  1  0.56849000  0.53154000  0.09334000  1.0
  H  H36  1  0.55217000  0.05872000  0.61246000  1.0
  H  H37  1  0.55217000  0.94128000  0.38754000  1.0
  H  H38  1  0.44784000  0.55872000  0.88754000  1.0
  H  H39  1  0.44783000  0.44128000  0.11246000  1.0
  H  H40  1  0.60234000  0.13262000  0.45958000  1.0
  H  H41  1  0.60234000  0.86738000  0.54042000  1.0
  H  H42  1  0.39766000  0.63262000  0.04042000  1.0
  H  H43  1  0.39766000  0.36737000  0.95958000  1.0
  H  H44  1  0.73807000  0.10048000  0.52758000  1.0
  H  H45  1  0.73808000  0.89952000  0.47241000  1.0
  H  H46  1  0.26192000  0.60048000  0.97242000  1.0
  H  H47  1  0.26193000  0.39952000  0.02758000  1.0
  H  H48  1  0.78970000  0.22716000  0.45566000  1.0
  H  H49  1  0.78971000  0.77285000  0.54434000  1.0
  H  H50  1  0.21030000  0.72715000  0.04434000  1.0
  H  H51  1  0.21029000  0.27284000  0.95566000  1.0
  H  H52  1  0.96720000  0.32624000  0.39156000  1.0
  H  H53  1  0.96720000  0.67376000  0.60845000  1.0
  H  H54  1  0.03280000  0.82624000  0.10844000  1.0
  H  H55  1  0.03279000  0.17376000  0.89156000  1.0
  H  H56  1  0.13060000  0.12799000  0.25563000  1.0
  H  H57  1  0.13059000  0.87201000  0.74438000  1.0
  H  H58  1  0.86940000  0.62799000  0.24437000  1.0
  H  H59  1  0.86940000  0.37201000  0.75563000  1.0
  H  H60  1  0.95248000  0.01948000  0.31121000  1.0
  H  H61  1  0.95248000  0.98052000  0.68879000  1.0
  H  H62  1  0.04751000  0.51948000  0.18878000  1.0
  H  H63  1  0.04751000  0.48051000  0.81122000  1.0
  H  H64  1  0.78029000  0.86687000  0.07370000  1.0
  H  H65  1  0.78029000  0.13313000  0.92629000  1.0
  H  H66  1  0.21972000  0.36687000  0.42630000  1.0
  H  H67  1  0.21972000  0.63313000  0.57370000  1.0
  C  C68  1  0.74674000  0.01950000  0.82637000  1.0
  C  C69  1  0.74674000  0.98049000  0.17363000  1.0
  C  C70  1  0.25327000  0.51951000  0.67363000  1.0
  C  C71  1  0.25326000  0.48049000  0.32637000  1.0
  C  C72  1  0.68776000  0.93982000  0.86469000  1.0
  C  C73  1  0.68776000  0.06018000  0.13531000  1.0
  C  C74  1  0.31225000  0.43982000  0.63531000  1.0
  C  C75  1  0.31225000  0.56018000  0.36469000  1.0
  C  C76  1  0.57420000  0.89201000  0.83092000  1.0
  C  C77  1  0.57419000  0.10799000  0.16907000  1.0
  C  C78  1  0.42581000  0.39201000  0.66908000  1.0
  C  C79  1  0.42580000  0.60799000  0.33092000  1.0
  C  C80  1  0.51250000  0.82153000  0.87039000  1.0
  C  C81  1  0.51251000  0.17847000  0.12961000  1.0
  C  C82  1  0.48750000  0.32153000  0.62961000  1.0
  C  C83  1  0.48750000  0.67847000  0.37039000  1.0
  C  C84  1  0.56272000  0.79986000  0.94335000  1.0
  C  C85  1  0.56272000  0.20014000  0.05665000  1.0
  C  C86  1  0.43728000  0.29987000  0.55665000  1.0
  C  C87  1  0.43728000  0.70014000  0.44335000  1.0
  C  C88  1  0.67869000  0.84610000  0.97658000  1.0
  C  C89  1  0.67869000  0.15390000  0.02342000  1.0
  C  C90  1  0.32131000  0.34610000  0.52342000  1.0
  C  C91  1  0.32132000  0.65391000  0.47658000  1.0
  C  C92  1  0.74260000  0.91534000  0.93640000  1.0
  C  C93  1  0.74260000  0.08466000  0.06360000  1.0
  C  C94  1  0.25740000  0.41534000  0.56361000  1.0
  C  C95  1  0.25740000  0.58466000  0.43640000  1.0
  C  C96  1  0.39267000  0.76856000  0.83478000  1.0
  C  C97  1  0.39268000  0.23145000  0.16522000  1.0
  C  C98  1  0.60732000  0.26856000  0.66522000  1.0
  C  C99  1  0.60732000  0.73144000  0.33478000  1.0
  C  C100  1  0.13831000  0.10992000  0.70870000  1.0
  C  C101  1  0.13832000  0.89008000  0.29130000  1.0
  C  C102  1  0.86168000  0.60992000  0.79130000  1.0
  C  C103  1  0.86168000  0.39008000  0.20870000  1.0
  C  C104  1  0.26276000  0.08792000  0.66721000  1.0
  C  C105  1  0.26276000  0.91208000  0.33279000  1.0
  C  C106  1  0.73724000  0.58792000  0.83279000  1.0
  C  C107  1  0.73724000  0.41208000  0.16721000  1.0
  C  C108  1  0.02372000  0.16784000  0.60238000  1.0
  C  C109  1  0.02372000  0.83216000  0.39762000  1.0
  C  C110  1  0.97628000  0.66784000  0.89762000  1.0
  C  C111  1  0.97628000  0.33216000  0.10238000  1.0
  C  C112  1  0.14269000  0.14923000  0.55627000  1.0
  C  C113  1  0.14270000  0.85077000  0.44372000  1.0
  C  C114  1  0.85730000  0.64923000  0.94372000  1.0
  C  C115  1  0.85730000  0.35077000  0.05628000  1.0
  C  C116  1  0.26372000  0.10633000  0.58864000  1.0
  C  C117  1  0.26372000  0.89367000  0.41135000  1.0
  C  C118  1  0.73628000  0.60633000  0.91136000  1.0
  C  C119  1  0.73628000  0.39367000  0.08865000  1.0
  C  C120  1  0.48491000  0.02631000  0.56872000  1.0
  C  C121  1  0.48490000  0.97369000  0.43127000  1.0
  C  C122  1  0.51510000  0.52631000  0.93127000  1.0
  C  C123  1  0.51509000  0.47369000  0.06872000  1.0
  C  C124  1  0.57932000  0.00000000  0.50000000  1.0
  C  C125  1  0.42068000  0.50000000  0.00000000  1.0
  C  C126  1  0.67334000  0.07856000  0.47828000  1.0
  C  C127  1  0.67333000  0.92144000  0.52172000  1.0
  C  C128  1  0.32667000  0.57856000  0.02172000  1.0
  C  C129  1  0.32666000  0.42143000  0.97828000  1.0
  C  C130  1  0.85829000  0.11434000  0.38774000  1.0
  C  C131  1  0.85829000  0.88567000  0.61226000  1.0
  C  C132  1  0.14171000  0.61433000  0.11226000  1.0
  C  C133  1  0.14171000  0.38566000  0.88774000  1.0
  C  C134  1  0.86155000  0.20192000  0.41119000  1.0
  C  C135  1  0.86155000  0.79808000  0.58881000  1.0
  C  C136  1  0.13845000  0.70192000  0.08881000  1.0
  C  C137  1  0.13845000  0.29808000  0.91120000  1.0
  C  C138  1  0.96081000  0.25754000  0.37563000  1.0
  C  C139  1  0.96081000  0.74246000  0.62438000  1.0
  C  C140  1  0.03919000  0.75754000  0.12437000  1.0
  C  C141  1  0.03919000  0.24246000  0.87563000  1.0
  C  C142  1  0.05114000  0.14688000  0.29923000  1.0
  C  C143  1  0.05114000  0.85312000  0.70077000  1.0
  C  C144  1  0.94886000  0.64688000  0.20077000  1.0
  C  C145  1  0.94885000  0.35312000  0.79924000  1.0
  C  C146  1  0.95501000  0.08692000  0.33024000  1.0
  C  C147  1  0.95501000  0.91309000  0.66976000  1.0
  C  C148  1  0.04499000  0.58691000  0.16976000  1.0
  C  C149  1  0.04499000  0.41308000  0.83024000  1.0
  N  N150  1  0.01920000  0.14748000  0.67743000  1.0
  N  N151  1  0.01920000  0.85253000  0.32257000  1.0
  N  N152  1  0.98079000  0.64747000  0.82257000  1.0
  N  N153  1  0.98080000  0.35252000  0.17743000  1.0
  N  N154  1  0.05435000  0.23136000  0.32101000  1.0
  N  N155  1  0.05434000  0.76865000  0.67899000  1.0
  N  N156  1  0.94566000  0.73135000  0.17899000  1.0
  N  N157  1  0.94565000  0.26864000  0.82101000  1.0
  O  O158  1  0.84731000  0.06453000  0.85947000  1.0
  O  O159  1  0.84730000  0.93547000  0.14053000  1.0
  O  O160  1  0.15270000  0.56453000  0.64054000  1.0
  O  O161  1  0.15270000  0.43547000  0.35947000  1.0
  O  O162  1  0.69212000  0.04251000  0.76214000  1.0
  O  O163  1  0.69212000  0.95749000  0.23786000  1.0
  O  O164  1  0.30788000  0.54251000  0.73786000  1.0
  O  O165  1  0.30787000  0.45749000  0.26214000  1.0
  O  O166  1  0.36079000  0.78365000  0.76466000  1.0
  O  O167  1  0.36079000  0.21635000  0.23534000  1.0
  O  O168  1  0.63921000  0.28366000  0.73535000  1.0
  O  O169  1  0.63920000  0.71634000  0.26465000  1.0
  O  O170  1  0.32759000  0.70995000  0.87396000  1.0
  O  O171  1  0.32759000  0.29006000  0.12604000  1.0
  O  O172  1  0.67241000  0.20995000  0.62605000  1.0
  O  O173  1  0.67242000  0.79005000  0.37395000  1.0
  O  O174  1  0.72503000  0.81978000  0.04670000  1.0
  O  O175  1  0.72503000  0.18022000  0.95331000  1.0
  O  O176  1  0.27497000  0.31978000  0.45331000  1.0
  O  O177  1  0.27498000  0.68023000  0.54669000  1.0
  O  O178  1  0.37377000  0.08525000  0.54086000  1.0
  O  O179  1  0.37377000  0.91475000  0.45914000  1.0
  O  O180  1  0.62623000  0.58525000  0.95914000  1.0
  O  O181  1  0.62623000  0.41475000  0.04086000  1.0
  O  O182  1  0.76873000  0.05287000  0.41687000  1.0
  O  O183  1  0.76873000  0.94714000  0.58313000  1.0
  O  O184  1  0.23127000  0.55286000  0.08313000  1.0
  O  O185  1  0.23127000  0.44713000  0.91687000  1.0
