# generated using pymatgen
data_Zn2Te2H14C5N2
_symmetry_space_group_name_H-M   'P 1'
_cell_length_a   6.82561000
_cell_length_b   6.90854000
_cell_length_c   13.18690000
_cell_angle_alpha   105.15700000
_cell_angle_beta   89.99830000
_cell_angle_gamma   90.00000000
_symmetry_Int_Tables_number   1
_chemical_formula_structural   Zn2Te2H14C5N2
_chemical_formula_sum   'Zn4 Te4 H28 C10 N4'
_cell_volume   600.19672144
_cell_formula_units_Z   2
loop_
 _symmetry_equiv_pos_site_id
 _symmetry_equiv_pos_as_xyz
  1  'x, y, z'
loop_
 _atom_site_type_symbol
 _atom_site_label
 _atom_site_symmetry_multiplicity
 _atom_site_fract_x
 _atom_site_fract_y
 _atom_site_fract_z
 _atom_site_occupancy
  Zn  Zn0  1  0.75874000  0.63085000  0.57139000  1.0
  Zn  Zn1  1  0.25875000  0.36915000  0.42861000  1.0
  Zn  Zn2  1  0.25867000  0.94058000  0.57145000  1.0
  Zn  Zn3  1  0.75869000  0.05942000  0.42856000  1.0
  Te  Te4  1  0.38046000  0.60072000  0.60742000  1.0
  Te  Te5  1  0.88047000  0.39928000  0.39258000  1.0
  Te  Te6  1  0.88035000  0.00681000  0.60740000  1.0
  Te  Te7  1  0.38037000  0.99320000  0.39261000  1.0
  H  H8  1  0.03715000  0.57367000  0.69414000  1.0
  H  H9  1  0.53716000  0.42632000  0.30586000  1.0
  H  H10  1  0.53687000  0.12043000  0.69421000  1.0
  H  H11  1  0.03690000  0.87957000  0.30579000  1.0
  H  H12  1  0.86834000  0.40232000  0.69340000  1.0
  H  H13  1  0.36835000  0.59767000  0.30660000  1.0
  H  H14  1  0.36851000  0.29128000  0.69310000  1.0
  H  H15  1  0.86854000  0.70872000  0.30690000  1.0
  H  H16  1  0.65622000  0.64625000  0.80491000  1.0
  H  H17  1  0.15624000  0.35374000  0.19510000  1.0
  H  H18  1  0.15565000  0.16018000  0.80481000  1.0
  H  H19  1  0.65568000  0.83984000  0.19520000  1.0
  H  H20  1  0.82839000  0.83451000  0.80102000  1.0
  H  H21  1  0.32841000  0.16548000  0.19898000  1.0
  H  H22  1  0.32698000  0.96741000  0.80119000  1.0
  H  H23  1  0.82701000  0.03260000  0.19881000  1.0
  H  H24  1  0.07351000  0.67526000  0.89625000  1.0
  H  H25  1  0.57353000  0.32471000  0.10374000  1.0
  H  H26  1  0.57309000  0.22176000  0.89596000  1.0
  H  H27  1  0.07311000  0.77824000  0.10402000  1.0
  H  H28  1  0.90386000  0.48305000  0.89916000  1.0
  H  H29  1  0.40388000  0.51694000  0.10084000  1.0
  H  H30  1  0.40314000  0.41673000  0.89917000  1.0
  H  H31  1  0.90315000  0.58327000  0.10083000  1.0
  H  H32  1  0.66704000  0.74470000  0.99993000  1.0
  H  H33  1  0.16704000  0.25531000  0.00008000  1.0
  H  H34  1  0.84085000  0.93329000  0.00016000  1.0
  H  H35  1  0.34084000  0.06671000  0.99984000  1.0
  C  C36  1  0.81438000  0.67607000  0.80211000  1.0
  C  C37  1  0.31440000  0.32393000  0.19789000  1.0
  C  C38  1  0.31369000  0.12694000  0.80210000  1.0
  C  C39  1  0.81372000  0.87307000  0.19790000  1.0
  C  C40  1  0.91571000  0.64245000  0.89928000  1.0
  C  C41  1  0.41572000  0.35754000  0.10072000  1.0
  C  C42  1  0.41524000  0.25742000  0.89916000  1.0
  C  C43  1  0.91525000  0.74258000  0.10083000  1.0
  C  C44  1  0.82615000  0.77393000  0.00004000  1.0
  C  C45  1  0.32615000  0.22608000  0.99996000  1.0
  N  N46  1  0.88832000  0.55350000  0.70088000  1.0
  N  N47  1  0.38834000  0.44649000  0.29912000  1.0
  N  N48  1  0.38810000  0.14768000  0.70082000  1.0
  N  N49  1  0.88813000  0.85234000  0.29918000  1.0
