# generated using pymatgen
data_MnH15C26(NO2)3
_symmetry_space_group_name_H-M   'P 1'
_cell_length_a   6.52511000
_cell_length_b   16.28350000
_cell_length_c   23.64480000
_cell_angle_alpha   89.99970000
_cell_angle_beta   90.00950000
_cell_angle_gamma   89.99430000
_symmetry_Int_Tables_number   1
_chemical_formula_structural   MnH15C26(NO2)3
_chemical_formula_sum   'Mn4 H60 C104 N12 O24'
_cell_volume   2512.29846293
_cell_formula_units_Z   4
loop_
 _symmetry_equiv_pos_site_id
 _symmetry_equiv_pos_as_xyz
  1  'x, y, z'
loop_
 _atom_site_type_symbol
 _atom_site_label
 _atom_site_symmetry_multiplicity
 _atom_site_fract_x
 _atom_site_fract_y
 _atom_site_fract_z
 _atom_site_occupancy
  Mn  Mn0  1  0.11322000  0.11227000  0.17552000  1.0
  Mn  Mn1  1  0.61320000  0.88772000  0.82447000  1.0
  Mn  Mn2  1  0.61324000  0.61227000  0.32447000  1.0
  Mn  Mn3  1  0.11321000  0.38773000  0.67553000  1.0
  H  H4  1  0.07464000  0.27217000  0.10005000  1.0
  H  H5  1  0.57464000  0.72784000  0.89996000  1.0
  H  H6  1  0.57464000  0.77217000  0.39996000  1.0
  H  H7  1  0.07463000  0.22783000  0.60004000  1.0
  H  H8  1  0.13444000  0.46989000  0.14758000  1.0
  H  H9  1  0.63443000  0.53013000  0.85243000  1.0
  H  H10  1  0.63444000  0.96987000  0.35242000  1.0
  H  H11  1  0.13444000  0.03011000  0.64757000  1.0
  H  H12  1  0.14370000  0.59301000  0.21016000  1.0
  H  H13  1  0.64370000  0.40701000  0.78985000  1.0
  H  H14  1  0.64371000  0.09300000  0.28985000  1.0
  H  H15  1  0.14371000  0.90699000  0.71015000  1.0
  H  H16  1  0.08082000  0.31689000  0.29476000  1.0
  H  H17  1  0.58081000  0.68312000  0.70523000  1.0
  H  H18  1  0.58081000  0.81688000  0.20523000  1.0
  H  H19  1  0.08082000  0.18312000  0.79476000  1.0
  H  H20  1  0.17600000  0.55057000  0.40517000  1.0
  H  H21  1  0.67600000  0.44943000  0.59483000  1.0
  H  H22  1  0.67600000  0.05057000  0.09483000  1.0
  H  H23  1  0.17600000  0.94943000  0.90517000  1.0
  H  H24  1  0.16319000  0.50996000  0.50582000  1.0
  H  H25  1  0.66320000  0.49003000  0.49418000  1.0
  H  H26  1  0.66320000  0.00997000  0.99418000  1.0
  H  H27  1  0.16319000  0.99003000  0.00582000  1.0
  H  H28  1  0.00558000  0.26601000  0.45315000  1.0
  H  H29  1  0.50555000  0.73399000  0.54683000  1.0
  H  H30  1  0.50555000  0.76602000  0.04683000  1.0
  H  H31  1  0.00556000  0.23400000  0.95315000  1.0
  H  H32  1  0.15974000  0.20006000  0.29868000  1.0
  H  H33  1  0.65977000  0.79993000  0.70134000  1.0
  H  H34  1  0.65975000  0.70006000  0.20133000  1.0
  H  H35  1  0.15974000  0.29993000  0.79867000  1.0
  H  H36  1  0.17846000  0.16070000  0.40114000  1.0
  H  H37  1  0.67845000  0.83929000  0.59888000  1.0
  H  H38  1  0.67845000  0.66070000  0.09887000  1.0
  H  H39  1  0.17846000  0.33929000  0.90113000  1.0
  H  H40  1  0.15744000  0.01079000  0.42709000  1.0
  H  H41  1  0.65743000  0.98919000  0.57292000  1.0
  H  H42  1  0.65742000  0.51080000  0.07292000  1.0
  H  H43  1  0.15744000  0.48920000  0.92709000  1.0
  H  H44  1  0.12351000  0.86360000  0.39426000  1.0
  H  H45  1  0.62349000  0.13639000  0.60575000  1.0
  H  H46  1  0.62349000  0.36361000  0.10574000  1.0
  H  H47  1  0.12351000  0.63639000  0.89426000  1.0
  H  H48  1  0.09100000  0.76447000  0.31630000  1.0
  H  H49  1  0.59101000  0.23552000  0.68371000  1.0
  H  H50  1  0.59101000  0.26448000  0.18371000  1.0
  H  H51  1  0.09101000  0.73553000  0.81630000  1.0
  H  H52  1  0.06912000  0.73699000  0.21164000  1.0
  H  H53  1  0.56912000  0.26300000  0.78837000  1.0
  H  H54  1  0.56913000  0.23700000  0.28837000  1.0
  H  H55  1  0.06913000  0.76301000  0.71163000  1.0
  H  H56  1  0.06369000  0.79363000  0.11250000  1.0
  H  H57  1  0.56369000  0.20636000  0.88751000  1.0
  H  H58  1  0.56368000  0.29363000  0.38751000  1.0
  H  H59  1  0.06370000  0.70637000  0.61249000  1.0
  H  H60  1  0.08371000  0.94655000  0.09897000  1.0
  H  H61  1  0.58369000  0.05343000  0.90104000  1.0
  H  H62  1  0.58371000  0.44656000  0.40103000  1.0
  H  H63  1  0.08372000  0.55344000  0.59897000  1.0
  C  C64  1  0.10316000  0.31069000  0.18118000  1.0
  C  C65  1  0.60316000  0.68932000  0.81882000  1.0
  C  C66  1  0.60314000  0.81068000  0.31882000  1.0
  C  C67  1  0.10316000  0.18931000  0.68118000  1.0
  C  C68  1  0.10658000  0.38533000  0.21731000  1.0
  C  C69  1  0.60657000  0.61468000  0.78268000  1.0
  C  C70  1  0.60657000  0.88532000  0.28268000  1.0
  C  C71  1  0.10658000  0.11467000  0.71731000  1.0
  C  C72  1  0.12383000  0.46364000  0.19329000  1.0
  C  C73  1  0.62383000  0.53638000  0.80671000  1.0
  C  C74  1  0.62384000  0.96362000  0.30671000  1.0
  C  C75  1  0.12383000  0.03637000  0.69329000  1.0
  C  C76  1  0.12866000  0.53182000  0.22843000  1.0
  C  C77  1  0.62866000  0.46820000  0.77157000  1.0
  C  C78  1  0.62867000  0.03180000  0.27157000  1.0
  C  C79  1  0.12866000  0.96818000  0.72843000  1.0
  C  C80  1  0.11471000  0.52408000  0.28736000  1.0
  C  C81  1  0.61471000  0.47593000  0.71265000  1.0
  C  C82  1  0.61473000  0.02407000  0.21264000  1.0
  C  C83  1  0.11471000  0.97592000  0.78735000  1.0
  C  C84  1  0.11343000  0.60374000  0.31946000  1.0
  C  C85  1  0.61342000  0.39626000  0.68055000  1.0
  C  C86  1  0.61341000  0.10374000  0.18054000  1.0
  C  C87  1  0.11341000  0.89626000  0.81946000  1.0
  C  C88  1  0.09954000  0.44535000  0.31227000  1.0
  C  C89  1  0.59954000  0.55466000  0.68773000  1.0
  C  C90  1  0.59954000  0.94534000  0.18772000  1.0
  C  C91  1  0.09953000  0.05465000  0.81227000  1.0
  C  C92  1  0.09524000  0.37738000  0.27590000  1.0
  C  C93  1  0.59524000  0.62263000  0.72409000  1.0
  C  C94  1  0.59524000  0.87737000  0.22409000  1.0
  C  C95  1  0.09524000  0.12262000  0.77590000  1.0
  C  C96  1  0.09219000  0.42892000  0.37415000  1.0
  C  C97  1  0.59218000  0.57108000  0.62585000  1.0
  C  C98  1  0.59218000  0.92893000  0.12585000  1.0
  C  C99  1  0.09218000  0.07108000  0.87414000  1.0
  C  C100  1  0.13386000  0.48802000  0.41603000  1.0
  C  C101  1  0.63385000  0.51198000  0.58397000  1.0
  C  C102  1  0.63385000  0.98803000  0.08397000  1.0
  C  C103  1  0.13386000  0.01198000  0.91602000  1.0
  C  C104  1  0.12845000  0.46542000  0.47278000  1.0
  C  C105  1  0.62845000  0.53458000  0.52722000  1.0
  C  C106  1  0.62845000  0.96543000  0.02721000  1.0
  C  C107  1  0.12845000  0.03458000  0.97278000  1.0
  C  C108  1  0.08210000  0.38444000  0.48741000  1.0
  C  C109  1  0.58209000  0.61556000  0.51259000  1.0
  C  C110  1  0.58209000  0.88444000  0.01258000  1.0
  C  C111  1  0.08209000  0.11556000  0.98740000  1.0
  C  C112  1  0.04287000  0.32971000  0.44290000  1.0
  C  C113  1  0.54284000  0.67029000  0.55709000  1.0
  C  C114  1  0.54284000  0.82972000  0.05708000  1.0
  C  C115  1  0.04285000  0.17029000  0.94290000  1.0
  C  C116  1  0.07909000  0.35413000  0.54725000  1.0
  C  C117  1  0.57912000  0.64588000  0.45274000  1.0
  C  C118  1  0.57910000  0.85413000  0.95274000  1.0
  C  C119  1  0.07909000  0.14587000  0.04725000  1.0
  C  C120  1  0.15196000  0.13595000  0.31167000  1.0
  C  C121  1  0.65197000  0.86404000  0.68835000  1.0
  C  C122  1  0.65196000  0.63595000  0.18834000  1.0
  C  C123  1  0.15195000  0.36405000  0.81166000  1.0
  C  C124  1  0.16221000  0.11318000  0.36900000  1.0
  C  C125  1  0.66221000  0.88681000  0.63102000  1.0
  C  C126  1  0.66221000  0.61318000  0.13101000  1.0
  C  C127  1  0.16220000  0.38681000  0.86899000  1.0
  C  C128  1  0.15030000  0.03081000  0.38307000  1.0
  C  C129  1  0.65030000  0.96917000  0.61694000  1.0
  C  C130  1  0.65029000  0.53082000  0.11694000  1.0
  C  C131  1  0.15029000  0.46918000  0.88306000  1.0
  C  C132  1  0.12933000  0.97147000  0.33988000  1.0
  C  C133  1  0.62933000  0.02852000  0.66013000  1.0
  C  C134  1  0.62933000  0.47148000  0.16012000  1.0
  C  C135  1  0.12933000  0.52852000  0.83988000  1.0
  C  C136  1  0.12188000  0.00055000  0.28316000  1.0
  C  C137  1  0.62188000  0.99944000  0.71684000  1.0
  C  C138  1  0.62188000  0.50055000  0.21684000  1.0
  C  C139  1  0.12187000  0.49944000  0.78316000  1.0
  C  C140  1  0.11684000  0.88522000  0.35064000  1.0
  C  C141  1  0.61683000  0.11478000  0.64936000  1.0
  C  C142  1  0.61683000  0.38522000  0.14936000  1.0
  C  C143  1  0.11683000  0.61478000  0.85064000  1.0
  C  C144  1  0.09960000  0.83008000  0.30734000  1.0
  C  C145  1  0.59960000  0.16992000  0.69267000  1.0
  C  C146  1  0.59961000  0.33008000  0.19266000  1.0
  C  C147  1  0.09960000  0.66992000  0.80734000  1.0
  C  C148  1  0.09375000  0.85734000  0.24986000  1.0
  C  C149  1  0.59376000  0.14265000  0.75015000  1.0
  C  C150  1  0.59376000  0.35735000  0.25015000  1.0
  C  C151  1  0.09375000  0.64266000  0.74986000  1.0
  C  C152  1  0.10422000  0.94253000  0.23748000  1.0
  C  C153  1  0.60422000  0.05746000  0.76252000  1.0
  C  C154  1  0.60423000  0.44254000  0.26252000  1.0
  C  C155  1  0.10421000  0.55747000  0.73748000  1.0
  C  C156  1  0.07798000  0.80284000  0.20354000  1.0
  C  C157  1  0.57799000  0.19715000  0.79647000  1.0
  C  C158  1  0.57799000  0.30285000  0.29646000  1.0
  C  C159  1  0.07799000  0.69716000  0.70354000  1.0
  C  C160  1  0.07440000  0.83383000  0.14919000  1.0
  C  C161  1  0.57440000  0.16616000  0.85082000  1.0
  C  C162  1  0.57441000  0.33384000  0.35081000  1.0
  C  C163  1  0.07441000  0.66617000  0.64919000  1.0
  C  C164  1  0.08580000  0.91933000  0.14110000  1.0
  C  C165  1  0.58579000  0.08065000  0.85890000  1.0
  C  C166  1  0.58581000  0.41934000  0.35890000  1.0
  C  C167  1  0.08580000  0.58067000  0.64110000  1.0
  N  N168  1  0.04784000  0.35030000  0.38849000  1.0
  N  N169  1  0.54782000  0.64970000  0.61150000  1.0
  N  N170  1  0.54782000  0.85030000  0.11150000  1.0
  N  N171  1  0.04783000  0.14971000  0.88848000  1.0
  N  N172  1  0.13217000  0.08155000  0.26996000  1.0
  N  N173  1  0.63217000  0.91844000  0.73005000  1.0
  N  N174  1  0.63216000  0.58156000  0.23004000  1.0
  N  N175  1  0.13216000  0.41845000  0.76996000  1.0
  N  N176  1  0.09966000  0.97230000  0.18380000  1.0
  N  N177  1  0.59965000  0.02769000  0.81620000  1.0
  N  N178  1  0.59967000  0.47231000  0.31620000  1.0
  N  N179  1  0.09966000  0.52770000  0.68380000  1.0
  O  O180  1  0.11275000  0.24083000  0.20310000  1.0
  O  O181  1  0.61274000  0.75919000  0.79690000  1.0
  O  O182  1  0.61268000  0.74081000  0.29690000  1.0
  O  O183  1  0.11278000  0.25917000  0.70309000  1.0
  O  O184  1  0.09039000  0.32542000  0.12706000  1.0
  O  O185  1  0.59040000  0.67460000  0.87293000  1.0
  O  O186  1  0.59041000  0.82540000  0.37293000  1.0
  O  O187  1  0.09037000  0.17459000  0.62706000  1.0
  O  O188  1  0.28451000  0.63796000  0.32941000  1.0
  O  O189  1  0.78450000  0.36202000  0.67061000  1.0
  O  O190  1  0.78449000  0.13797000  0.17061000  1.0
  O  O191  1  0.28450000  0.86202000  0.82940000  1.0
  O  O192  1  0.94158000  0.63472000  0.33255000  1.0
  O  O193  1  0.44155000  0.36530000  0.66745000  1.0
  O  O194  1  0.44154000  0.13470000  0.16744000  1.0
  O  O195  1  0.94156000  0.86531000  0.83256000  1.0
  O  O196  1  0.10891000  0.40630000  0.58644000  1.0
  O  O197  1  0.60903000  0.59372000  0.41356000  1.0
  O  O198  1  0.60898000  0.90628000  0.91355000  1.0
  O  O199  1  0.10893000  0.09370000  0.08643000  1.0
  O  O200  1  0.04733000  0.27757000  0.55331000  1.0
  O  O201  1  0.54732000  0.72244000  0.44668000  1.0
  O  O202  1  0.54731000  0.77757000  0.94669000  1.0
  O  O203  1  0.04734000  0.22243000  0.05331000  1.0
