# generated using pymatgen
data_ZnH16C20(NO2)2
_symmetry_space_group_name_H-M   'P 1'
_cell_length_a   12.51020000
_cell_length_b   17.58460000
_cell_length_c   20.64500000
_cell_angle_alpha   89.99990000
_cell_angle_beta   96.19920000
_cell_angle_gamma   89.99980000
_symmetry_Int_Tables_number   1
_chemical_formula_structural   ZnH16C20(NO2)2
_chemical_formula_sum   'Zn8 H128 C160 N16 O32'
_cell_volume   4515.07148269
_cell_formula_units_Z   8
loop_
 _symmetry_equiv_pos_site_id
 _symmetry_equiv_pos_as_xyz
  1  'x, y, z'
loop_
 _atom_site_type_symbol
 _atom_site_label
 _atom_site_symmetry_multiplicity
 _atom_site_fract_x
 _atom_site_fract_y
 _atom_site_fract_z
 _atom_site_occupancy
  Zn  Zn0  1  0.04636000  0.04046000  0.68273000  1.0
  Zn  Zn1  1  0.45363000  0.54046000  0.81727000  1.0
  Zn  Zn2  1  0.95363000  0.95954000  0.31727000  1.0
  Zn  Zn3  1  0.54637000  0.45954000  0.18273000  1.0
  Zn  Zn4  1  0.94066000  0.63839000  0.79790000  1.0
  Zn  Zn5  1  0.55934000  0.13839000  0.70210000  1.0
  Zn  Zn6  1  0.05934000  0.36162000  0.20210000  1.0
  Zn  Zn7  1  0.44066000  0.86161000  0.29790000  1.0
  H  H8  1  0.10435000  0.88173000  0.71397000  1.0
  H  H9  1  0.39564000  0.38173000  0.78603000  1.0
  H  H10  1  0.89564000  0.11827000  0.28603000  1.0
  H  H11  1  0.60436000  0.61828000  0.21397000  1.0
  H  H12  1  0.26608000  0.80003000  0.72108000  1.0
  H  H13  1  0.23392000  0.30003000  0.77892000  1.0
  H  H14  1  0.73392000  0.19997000  0.27892000  1.0
  H  H15  1  0.76609000  0.69997000  0.22107000  1.0
  H  H16  1  0.43743000  0.98953000  0.64608000  1.0
  H  H17  1  0.06256000  0.48953000  0.85391000  1.0
  H  H18  1  0.56257000  0.01047000  0.35392000  1.0
  H  H19  1  0.93744000  0.51046000  0.14609000  1.0
  H  H20  1  0.26963000  0.06374000  0.64230000  1.0
  H  H21  1  0.23036000  0.56374000  0.85769000  1.0
  H  H22  1  0.73037000  0.93626000  0.35770000  1.0
  H  H23  1  0.76964000  0.43626000  0.14231000  1.0
  H  H24  1  0.44679000  0.78000000  0.68719000  1.0
  H  H25  1  0.05321000  0.28000000  0.81282000  1.0
  H  H26  1  0.55320000  0.22000000  0.31281000  1.0
  H  H27  1  0.94680000  0.72000000  0.18718000  1.0
  H  H28  1  0.51790000  0.85418000  0.65172000  1.0
  H  H29  1  0.98210000  0.35418000  0.84828000  1.0
  H  H30  1  0.48210000  0.14582000  0.34828000  1.0
  H  H31  1  0.01791000  0.64582000  0.15172000  1.0
  H  H32  1  0.48238000  0.84518000  0.79666000  1.0
  H  H33  1  0.01762000  0.34518000  0.70334000  1.0
  H  H34  1  0.51761000  0.15482000  0.20334000  1.0
  H  H35  1  0.98238000  0.65482000  0.29666000  1.0
  H  H36  1  0.55998000  0.91480000  0.75998000  1.0
  H  H37  1  0.94002000  0.41480000  0.74002000  1.0
  H  H38  1  0.44002000  0.08520000  0.24003000  1.0
  H  H39  1  0.05998000  0.58520000  0.25998000  1.0
  H  H40  1  0.55234000  0.71133000  0.81387000  1.0
  H  H41  1  0.94766000  0.21133000  0.68613000  1.0
  H  H42  1  0.44766000  0.28867000  0.18613000  1.0
  H  H43  1  0.05234000  0.78867000  0.31387000  1.0
  H  H44  1  0.71377000  0.62977000  0.82491000  1.0
  H  H45  1  0.78623000  0.12977000  0.67509000  1.0
  H  H46  1  0.28623000  0.37023000  0.17510000  1.0
  H  H47  1  0.21377000  0.87023000  0.32491000  1.0
  H  H48  1  0.89359000  0.79175000  0.73688000  1.0
  H  H49  1  0.60641000  0.29175000  0.76312000  1.0
  H  H50  1  0.10641000  0.20825000  0.26313000  1.0
  H  H51  1  0.39359000  0.70825000  0.23687000  1.0
  H  H52  1  0.73745000  0.88064000  0.72195000  1.0
  H  H53  1  0.76255000  0.38063000  0.77805000  1.0
  H  H54  1  0.26255000  0.11936000  0.27805000  1.0
  H  H55  1  0.23745000  0.61936000  0.22195000  1.0
  H  H56  1  0.51421000  0.96692000  0.55176000  1.0
  H  H57  1  0.98579000  0.46692000  0.94824000  1.0
  H  H58  1  0.48579000  0.03308000  0.44824000  1.0
  H  H59  1  0.01421000  0.53308000  0.05176000  1.0
  H  H60  1  0.53960000  0.87987000  0.45950000  1.0
  H  H61  1  0.96039000  0.37987000  0.04050000  1.0
  H  H62  1  0.46039000  0.12013000  0.54050000  1.0
  H  H63  1  0.03961000  0.62013000  0.95950000  1.0
  H  H64  1  0.72027000  0.82544000  0.44972000  1.0
  H  H65  1  0.77973000  0.32544000  0.05028000  1.0
  H  H66  1  0.27973000  0.17456000  0.55028000  1.0
  H  H67  1  0.22027000  0.67456000  0.94973000  1.0
  H  H68  1  0.87546000  0.85974000  0.53027000  1.0
  H  H69  1  0.62453000  0.35974000  0.96973000  1.0
  H  H70  1  0.12453000  0.14026000  0.46973000  1.0
  H  H71  1  0.37546000  0.64026000  0.03027000  1.0
  H  H72  1  0.40306000  0.36263000  0.60790000  1.0
  H  H73  1  0.09694000  0.86263000  0.89210000  1.0
  H  H74  1  0.59694000  0.63737000  0.39210000  1.0
  H  H75  1  0.90306000  0.13738000  0.10789000  1.0
  H  H76  1  0.26657000  0.41041000  0.52058000  1.0
  H  H77  1  0.23344000  0.91041000  0.97942000  1.0
  H  H78  1  0.73344000  0.58959000  0.47942000  1.0
  H  H79  1  0.76656000  0.08959000  0.02058000  1.0
  H  H80  1  0.08404000  0.35172000  0.50530000  1.0
  H  H81  1  0.41597000  0.85172000  0.99470000  1.0
  H  H82  1  0.91596000  0.64828000  0.49470000  1.0
  H  H83  1  0.58403000  0.14828000  0.00530000  1.0
  H  H84  1  0.03758000  0.24914000  0.58091000  1.0
  H  H85  1  0.46241000  0.74914000  0.91908000  1.0
  H  H86  1  0.96241000  0.75086000  0.41908000  1.0
  H  H87  1  0.53758000  0.25087000  0.08092000  1.0
  H  H88  1  0.88800000  0.96494000  0.75885000  1.0
  H  H89  1  0.61200000  0.46494000  0.74116000  1.0
  H  H90  1  0.11200000  0.03506000  0.24115000  1.0
  H  H91  1  0.38800000  0.53507000  0.25885000  1.0
  H  H92  1  0.84855000  0.95472000  0.87454000  1.0
  H  H93  1  0.65146000  0.45472000  0.62546000  1.0
  H  H94  1  0.15146000  0.04528000  0.12546000  1.0
  H  H95  1  0.34855000  0.54529000  0.37454000  1.0
  H  H96  1  0.10933000  0.11235000  0.92567000  1.0
  H  H97  1  0.39067000  0.61235000  0.57433000  1.0
  H  H98  1  0.89067000  0.88765000  0.07433000  1.0
  H  H99  1  0.60933000  0.38765000  0.42567000  1.0
  H  H100  1  0.13845000  0.11554000  0.80670000  1.0
  H  H101  1  0.36155000  0.61554000  0.69330000  1.0
  H  H102  1  0.86155000  0.88446000  0.19330000  1.0
  H  H103  1  0.63845000  0.38446000  0.30670000  1.0
  H  H104  1  0.96319000  0.08316000  0.00360000  1.0
  H  H105  1  0.53681000  0.58316000  0.49641000  1.0
  H  H106  1  0.03681000  0.91684000  0.99640000  1.0
  H  H107  1  0.46319000  0.41684000  0.50360000  1.0
  H  H108  1  0.87729000  0.00427000  0.98515000  1.0
  H  H109  1  0.62271000  0.50427000  0.51485000  1.0
  H  H110  1  0.12271000  0.99572000  0.01485000  1.0
  H  H111  1  0.37729000  0.49573000  0.48515000  1.0
  H  H112  1  0.13269000  0.63152000  0.72556000  1.0
  H  H113  1  0.36731000  0.13152000  0.77444000  1.0
  H  H114  1  0.86731000  0.36848000  0.27444000  1.0
  H  H115  1  0.63269000  0.86848000  0.22556000  1.0
  H  H116  1  0.17716000  0.58802000  0.61708000  1.0
  H  H117  1  0.32284000  0.08802000  0.88292000  1.0
  H  H118  1  0.82284000  0.41198000  0.38291000  1.0
  H  H119  1  0.67716000  0.91198000  0.11709000  1.0
  H  H120  1  0.85057000  0.50624000  0.57847000  1.0
  H  H121  1  0.64944000  0.00624000  0.92153000  1.0
  H  H122  1  0.14944000  0.49376000  0.42153000  1.0
  H  H123  1  0.35056000  0.99376000  0.07847000  1.0
  H  H124  1  0.82043000  0.55004000  0.69030000  1.0
  H  H125  1  0.67958000  0.05004000  0.80971000  1.0
  H  H126  1  0.17958000  0.44996000  0.30971000  1.0
  H  H127  1  0.32043000  0.94996000  0.19029000  1.0
  H  H128  1  0.06762000  0.57227000  0.49534000  1.0
  H  H129  1  0.43238000  0.07228000  0.00466000  1.0
  H  H130  1  0.93238000  0.42772000  0.50466000  1.0
  H  H131  1  0.56762000  0.92772000  0.99534000  1.0
  H  H132  1  0.11710000  0.48549000  0.52823000  1.0
  H  H133  1  0.38290000  0.98548000  0.97177000  1.0
  H  H134  1  0.88290000  0.51451000  0.47177000  1.0
  H  H135  1  0.61710000  0.01451000  0.02823000  1.0
  C  C136  1  0.17986000  0.90382000  0.69992000  1.0
  C  C137  1  0.32014000  0.40382000  0.80008000  1.0
  C  C138  1  0.82014000  0.09618000  0.30008000  1.0
  C  C139  1  0.67986000  0.59618000  0.19992000  1.0
  C  C140  1  0.27109000  0.85834000  0.70340000  1.0
  C  C141  1  0.22890000  0.35834000  0.79660000  1.0
  C  C142  1  0.72891000  0.14167000  0.29660000  1.0
  C  C143  1  0.77110000  0.64167000  0.20340000  1.0
  C  C144  1  0.36700000  0.88765000  0.68441000  1.0
  C  C145  1  0.13299000  0.38766000  0.81558000  1.0
  C  C146  1  0.63300000  0.11235000  0.31559000  1.0
  C  C147  1  0.86701000  0.61235000  0.18441000  1.0
  C  C148  1  0.36589000  0.96293000  0.66191000  1.0
  C  C149  1  0.13411000  0.46294000  0.83809000  1.0
  C  C150  1  0.63411000  0.03707000  0.33809000  1.0
  C  C151  1  0.86589000  0.53706000  0.16191000  1.0
  C  C152  1  0.27183000  0.00523000  0.65964000  1.0
  C  C153  1  0.22816000  0.50523000  0.84035000  1.0
  C  C154  1  0.72816000  0.99477000  0.34036000  1.0
  C  C155  1  0.77184000  0.49477000  0.15965000  1.0
  C  C156  1  0.46795000  0.84069000  0.69093000  1.0
  C  C157  1  0.03204000  0.34070000  0.80907000  1.0
  C  C158  1  0.53204000  0.15930000  0.30907000  1.0
  C  C159  1  0.96796000  0.65930000  0.19093000  1.0
  C  C160  1  0.53425000  0.85499000  0.75765000  1.0
  C  C161  1  0.96574000  0.35499000  0.74235000  1.0
  C  C162  1  0.46574000  0.14501000  0.24235000  1.0
  C  C163  1  0.03426000  0.64501000  0.25765000  1.0
  C  C164  1  0.63101000  0.80395000  0.76693000  1.0
  C  C165  1  0.86899000  0.30395000  0.73307000  1.0
  C  C166  1  0.36899000  0.19605000  0.23307000  1.0
  C  C167  1  0.13101000  0.69605000  0.26693000  1.0
  C  C168  1  0.62584000  0.73211000  0.79586000  1.0
  C  C169  1  0.87416000  0.23211000  0.70414000  1.0
  C  C170  1  0.37416000  0.26789000  0.20414000  1.0
  C  C171  1  0.12584000  0.76789000  0.29586000  1.0
  C  C172  1  0.71633000  0.68586000  0.80264000  1.0
  C  C173  1  0.78367000  0.18587000  0.69736000  1.0
  C  C174  1  0.28367000  0.31413000  0.19736000  1.0
  C  C175  1  0.21633000  0.81413000  0.30264000  1.0
  C  C176  1  0.81628000  0.77632000  0.75299000  1.0
  C  C177  1  0.68372000  0.27632000  0.74700000  1.0
  C  C178  1  0.18372000  0.22368000  0.24701000  1.0
  C  C179  1  0.31628000  0.72368000  0.25300000  1.0
  C  C180  1  0.72877000  0.82540000  0.74497000  1.0
  C  C181  1  0.77123000  0.32540000  0.75503000  1.0
  C  C182  1  0.27123000  0.17460000  0.25504000  1.0
  C  C183  1  0.22877000  0.67460000  0.24496000  1.0
  C  C184  1  0.78226000  0.93248000  0.58645000  1.0
  C  C185  1  0.71773000  0.43248000  0.91355000  1.0
  C  C186  1  0.21773000  0.06752000  0.41355000  1.0
  C  C187  1  0.28227000  0.56752000  0.08645000  1.0
  C  C188  1  0.67964000  0.96251000  0.59267000  1.0
  C  C189  1  0.82036000  0.46252000  0.90733000  1.0
  C  C190  1  0.32035000  0.03748000  0.40733000  1.0
  C  C191  1  0.17964000  0.53749000  0.09267000  1.0
  C  C192  1  0.59302000  0.94264000  0.54691000  1.0
  C  C193  1  0.90697000  0.44264000  0.95309000  1.0
  C  C194  1  0.40697000  0.05736000  0.45308000  1.0
  C  C195  1  0.09303000  0.55736000  0.04692000  1.0
  C  C196  1  0.60698000  0.89344000  0.49564000  1.0
  C  C197  1  0.89302000  0.39344000  0.00436000  1.0
  C  C198  1  0.39302000  0.10656000  0.50436000  1.0
  C  C199  1  0.10698000  0.60656000  0.99564000  1.0
  C  C200  1  0.70885000  0.86335000  0.48999000  1.0
  C  C201  1  0.79115000  0.36336000  0.01001000  1.0
  C  C202  1  0.29115000  0.13664000  0.51001000  1.0
  C  C203  1  0.20885000  0.63664000  0.98999000  1.0
  C  C204  1  0.79566000  0.88255000  0.53514000  1.0
  C  C205  1  0.70434000  0.38255000  0.96486000  1.0
  C  C206  1  0.20434000  0.11745000  0.46486000  1.0
  C  C207  1  0.29566000  0.61745000  0.03514000  1.0
  C  C208  1  0.88012000  0.95449000  0.63111000  1.0
  C  C209  1  0.61988000  0.45449000  0.86889000  1.0
  C  C210  1  0.11988000  0.04551000  0.36889000  1.0
  C  C211  1  0.38012000  0.54551000  0.13111000  1.0
  C  C212  1  0.66036000  0.01405000  0.64796000  1.0
  C  C213  1  0.83964000  0.51406000  0.85204000  1.0
  C  C214  1  0.33964000  0.98594000  0.35204000  1.0
  C  C215  1  0.16036000  0.48595000  0.14796000  1.0
  C  C216  1  0.19345000  0.24785000  0.63557000  1.0
  C  C217  1  0.30655000  0.74785000  0.86443000  1.0
  C  C218  1  0.80655000  0.75215000  0.36443000  1.0
  C  C219  1  0.69345000  0.25215000  0.13557000  1.0
  C  C220  1  0.29798000  0.27836000  0.64209000  1.0
  C  C221  1  0.20201000  0.77836000  0.85791000  1.0
  C  C222  1  0.70201000  0.72164000  0.35791000  1.0
  C  C223  1  0.79799000  0.22164000  0.14209000  1.0
  C  C224  1  0.32209000  0.33870000  0.60184000  1.0
  C  C225  1  0.17791000  0.83870000  0.89816000  1.0
  C  C226  1  0.67791000  0.66130000  0.39816000  1.0
  C  C227  1  0.82209000  0.16130000  0.10184000  1.0
  C  C228  1  0.24536000  0.36549000  0.55324000  1.0
  C  C229  1  0.25464000  0.86549000  0.94676000  1.0
  C  C230  1  0.75464000  0.63451000  0.44676000  1.0
  C  C231  1  0.74535000  0.13452000  0.05324000  1.0
  C  C232  1  0.14276000  0.33323000  0.54500000  1.0
  C  C233  1  0.35724000  0.83323000  0.95500000  1.0
  C  C234  1  0.85724000  0.66677000  0.45500000  1.0
  C  C235  1  0.64276000  0.16677000  0.04500000  1.0
  C  C236  1  0.11676000  0.27561000  0.58671000  1.0
  C  C237  1  0.38323000  0.77561000  0.91329000  1.0
  C  C238  1  0.88323000  0.72439000  0.41329000  1.0
  C  C239  1  0.61676000  0.22440000  0.08671000  1.0
  C  C240  1  0.16345000  0.18388000  0.67841000  1.0
  C  C241  1  0.33655000  0.68389000  0.82159000  1.0
  C  C242  1  0.83656000  0.81611000  0.32159000  1.0
  C  C243  1  0.66345000  0.31612000  0.17841000  1.0
  C  C244  1  0.39075000  0.24294000  0.68430000  1.0
  C  C245  1  0.10925000  0.74294000  0.81571000  1.0
  C  C246  1  0.60926000  0.75706000  0.31571000  1.0
  C  C247  1  0.89075000  0.25706000  0.18429000  1.0
  C  C248  1  0.93535000  0.99603000  0.79756000  1.0
  C  C249  1  0.56465000  0.49603000  0.70244000  1.0
  C  C250  1  0.06465000  0.00397000  0.20244000  1.0
  C  C251  1  0.43535000  0.50397000  0.29756000  1.0
  C  C252  1  0.91417000  0.99110000  0.86225000  1.0
  C  C253  1  0.58583000  0.49110000  0.63776000  1.0
  C  C254  1  0.08583000  0.00890000  0.13775000  1.0
  C  C255  1  0.41417000  0.50890000  0.36225000  1.0
  C  C256  1  0.97664000  0.03233000  0.91038000  1.0
  C  C257  1  0.52336000  0.53233000  0.58962000  1.0
  C  C258  1  0.02336000  0.96767000  0.08962000  1.0
  C  C259  1  0.47664000  0.46767000  0.41038000  1.0
  C  C260  1  0.05904000  0.07793000  0.89043000  1.0
  C  C261  1  0.44096000  0.57793000  0.60957000  1.0
  C  C262  1  0.94096000  0.92207000  0.10956000  1.0
  C  C263  1  0.55904000  0.42207000  0.39044000  1.0
  C  C264  1  0.07620000  0.08025000  0.82508000  1.0
  C  C265  1  0.42380000  0.58025000  0.67492000  1.0
  C  C266  1  0.92380000  0.91975000  0.17492000  1.0
  C  C267  1  0.57620000  0.41975000  0.32508000  1.0
  C  C268  1  0.95845000  0.02644000  0.98096000  1.0
  C  C269  1  0.54155000  0.52644000  0.51905000  1.0
  C  C270  1  0.04155000  0.97356000  0.01904000  1.0
  C  C271  1  0.45845000  0.47356000  0.48096000  1.0
  C  C272  1  0.07246000  0.60329000  0.69157000  1.0
  C  C273  1  0.42755000  0.10329000  0.80843000  1.0
  C  C274  1  0.92755000  0.39671000  0.30843000  1.0
  C  C275  1  0.57246000  0.89671000  0.19157000  1.0
  C  C276  1  0.09627000  0.57914000  0.63080000  1.0
  C  C277  1  0.40373000  0.07915000  0.86920000  1.0
  C  C278  1  0.90373000  0.42085000  0.36920000  1.0
  C  C279  1  0.59628000  0.92086000  0.13080000  1.0
  C  C280  1  0.01710000  0.54431000  0.58749000  1.0
  C  C281  1  0.48291000  0.04431000  0.91251000  1.0
  C  C282  1  0.98291000  0.45569000  0.41251000  1.0
  C  C283  1  0.51709000  0.95569000  0.08749000  1.0
  C  C284  1  0.91579000  0.53374000  0.60906000  1.0
  C  C285  1  0.58421000  0.03374000  0.89094000  1.0
  C  C286  1  0.08421000  0.46626000  0.39094000  1.0
  C  C287  1  0.41579000  0.96626000  0.10906000  1.0
  C  C288  1  0.89731000  0.55853000  0.67087000  1.0
  C  C289  1  0.60270000  0.05853000  0.82913000  1.0
  C  C290  1  0.10270000  0.44147000  0.32913000  1.0
  C  C291  1  0.39730000  0.94147000  0.17087000  1.0
  C  C292  1  0.04422000  0.52088000  0.52104000  1.0
  C  C293  1  0.45578000  0.02088000  0.97896000  1.0
  C  C294  1  0.95578000  0.47912000  0.47896000  1.0
  C  C295  1  0.54422000  0.97912000  0.02104000  1.0
  N  N296  1  0.18012000  0.97648000  0.67866000  1.0
  N  N297  1  0.31988000  0.47648000  0.82134000  1.0
  N  N298  1  0.81988000  0.02352000  0.32134000  1.0
  N  N299  1  0.68012000  0.52352000  0.17866000  1.0
  N  N300  1  0.81065000  0.70760000  0.78198000  1.0
  N  N301  1  0.68935000  0.20760000  0.71802000  1.0
  N  N302  1  0.18935000  0.29240000  0.21802000  1.0
  N  N303  1  0.31065000  0.79240000  0.28198000  1.0
  N  N304  1  0.01547000  0.03964000  0.77939000  1.0
  N  N305  1  0.48453000  0.53964000  0.72061000  1.0
  N  N306  1  0.98453000  0.96036000  0.22061000  1.0
  N  N307  1  0.51547000  0.46036000  0.27939000  1.0
  N  N308  1  0.97388000  0.59325000  0.71111000  1.0
  N  N309  1  0.52613000  0.09325000  0.78890000  1.0
  N  N310  1  0.02613000  0.40675000  0.28890000  1.0
  N  N311  1  0.47388000  0.90675000  0.21111000  1.0
  O  O312  1  0.90936000  0.02524000  0.62820000  1.0
  O  O313  1  0.59064000  0.52524000  0.87180000  1.0
  O  O314  1  0.09063000  0.97475000  0.37179000  1.0
  O  O315  1  0.40936000  0.47476000  0.12820000  1.0
  O  O316  1  0.93039000  0.90522000  0.66595000  1.0
  O  O317  1  0.56961000  0.40522000  0.83405000  1.0
  O  O318  1  0.06960000  0.09477000  0.33405000  1.0
  O  O319  1  0.43039000  0.59478000  0.16595000  1.0
  O  O320  1  0.71132000  0.00582000  0.70337000  1.0
  O  O321  1  0.78869000  0.50582000  0.79663000  1.0
  O  O322  1  0.28869000  0.99418000  0.29663000  1.0
  O  O323  1  0.21131000  0.49418000  0.20337000  1.0
  O  O324  1  0.58675000  0.06540000  0.63385000  1.0
  O  O325  1  0.91325000  0.56540000  0.86615000  1.0
  O  O326  1  0.41325000  0.93460000  0.36615000  1.0
  O  O327  1  0.08675000  0.43460000  0.13385000  1.0
  O  O328  1  0.08401000  0.14278000  0.65284000  1.0
  O  O329  1  0.41600000  0.64278000  0.84715000  1.0
  O  O330  1  0.91600000  0.85722000  0.34715000  1.0
  O  O331  1  0.58400000  0.35722000  0.15285000  1.0
  O  O332  1  0.21316000  0.17483000  0.73396000  1.0
  O  O333  1  0.28684000  0.67483000  0.76603000  1.0
  O  O334  1  0.78684000  0.82517000  0.26604000  1.0
  O  O335  1  0.71316000  0.32517000  0.23396000  1.0
  O  O336  1  0.42092000  0.17855000  0.66125000  1.0
  O  O337  1  0.07907000  0.67855000  0.83876000  1.0
  O  O338  1  0.57908000  0.82146000  0.33875000  1.0
  O  O339  1  0.92093000  0.32146000  0.16124000  1.0
  O  O340  1  0.43639000  0.27674000  0.73246000  1.0
  O  O341  1  0.06361000  0.77674000  0.76754000  1.0
  O  O342  1  0.56361000  0.72326000  0.26754000  1.0
  O  O343  1  0.93639000  0.22326000  0.23246000  1.0
