# generated using pymatgen
data_HgH14C10(SCl)2
_symmetry_space_group_name_H-M   'P 1'
_cell_length_a   7.58430000
_cell_length_b   8.62810365
_cell_length_c   11.38710000
_cell_angle_alpha   84.93803631
_cell_angle_beta   76.20980000
_cell_angle_gamma   64.42867323
_symmetry_Int_Tables_number   1
_chemical_formula_structural   HgH14C10(SCl)2
_chemical_formula_sum   'Hg2 H28 C20 S4 Cl4'
_cell_volume   652.69562656
_cell_formula_units_Z   2
loop_
 _symmetry_equiv_pos_site_id
 _symmetry_equiv_pos_as_xyz
  1  'x, y, z'
loop_
 _atom_site_type_symbol
 _atom_site_label
 _atom_site_symmetry_multiplicity
 _atom_site_fract_x
 _atom_site_fract_y
 _atom_site_fract_z
 _atom_site_occupancy
  Hg  Hg0  1  0.23179000  0.78605000  0.07062000  1.0
  Hg  Hg1  1  0.76821000  0.21395000  0.92938000  1.0
  H  H2  1  0.05321000  0.39393000  0.17950000  1.0
  H  H3  1  0.94680000  0.60607000  0.82050000  1.0
  H  H4  1  0.07151000  0.54584000  0.26722000  1.0
  H  H5  1  0.92849000  0.45416000  0.73278000  1.0
  H  H6  1  0.72769000  0.95746000  0.13694000  1.0
  H  H7  1  0.27231000  0.04255000  0.86306000  1.0
  H  H8  1  0.62691000  0.82989000  0.08655000  1.0
  H  H9  1  0.37308000  0.17012000  0.91345000  1.0
  H  H10  1  0.34705000  0.95801000  0.27452000  1.0
  H  H11  1  0.65295000  0.04198000  0.72548000  1.0
  H  H12  1  0.38664000  0.85170000  0.41461000  1.0
  H  H13  1  0.61335000  0.14830000  0.58540000  1.0
  H  H14  1  0.67383000  0.39002000  0.23550000  1.0
  H  H15  1  0.32618000  0.60998000  0.76450000  1.0
  H  H16  1  0.68818000  0.53522000  0.11659000  1.0
  H  H17  1  0.31183000  0.46478000  0.88341000  1.0
  H  H18  1  0.61131000  0.50050000  0.44123000  1.0
  H  H19  1  0.38868000  0.49950000  0.55876000  1.0
  H  H20  1  0.87152000  0.38434000  0.40935000  1.0
  H  H21  1  0.12850000  0.61565000  0.59065000  1.0
  H  H22  1  0.77928000  0.57058000  0.58932000  1.0
  H  H23  1  0.22071000  0.42942000  0.41067000  1.0
  H  H24  1  0.76993000  0.85277000  0.54695000  1.0
  H  H25  1  0.23005000  0.14722000  0.45306000  1.0
  H  H26  1  0.62821000  0.00497000  0.37156000  1.0
  H  H27  1  0.37178000  0.99503000  0.62844000  1.0
  H  H28  1  0.87673000  0.87171000  0.30887000  1.0
  H  H29  1  0.12327000  0.12829000  0.69114000  1.0
  C  C30  1  0.76406000  0.58424000  0.28078000  1.0
  C  C31  1  0.23594000  0.41576000  0.71923000  1.0
  C  C32  1  0.98147000  0.52786000  0.21188000  1.0
  C  C33  1  0.01854000  0.47214000  0.78812000  1.0
  C  C34  1  0.72383000  0.83142000  0.14389000  1.0
  C  C35  1  0.27616000  0.16859000  0.85611000  1.0
  C  C36  1  0.66328000  0.78405000  0.27617000  1.0
  C  C37  1  0.33672000  0.21595000  0.72382000  1.0
  C  C38  1  0.43590000  0.83830000  0.31576000  1.0
  C  C39  1  0.56410000  0.16170000  0.68424000  1.0
  C  C40  1  0.64997000  0.52322000  0.21521000  1.0
  C  C41  1  0.35004000  0.47677000  0.78479000  1.0
  C  C42  1  0.75220000  0.51577000  0.41057000  1.0
  C  C43  1  0.24780000  0.48422000  0.58943000  1.0
  C  C44  1  0.76455000  0.62512000  0.50016000  1.0
  C  C45  1  0.23546000  0.37486000  0.49983000  1.0
  C  C46  1  0.75702000  0.78229000  0.47677000  1.0
  C  C47  1  0.24297000  0.21772000  0.52324000  1.0
  C  C48  1  0.73404000  0.86819000  0.35781000  1.0
  C  C49  1  0.26594000  0.13182000  0.64220000  1.0
  S  S50  1  0.97329000  0.66488000  0.07973000  1.0
  S  S51  1  0.02671000  0.33512000  0.92027000  1.0
  S  S52  1  0.38614000  0.66377000  0.27172000  1.0
  S  S53  1  0.61386000  0.33623000  0.72828000  1.0
  Cl  Cl54  1  0.02933000  0.08746000  0.15888000  1.0
  Cl  Cl55  1  0.97068000  0.91255000  0.84111000  1.0
  Cl  Cl56  1  0.53921000  0.70690000  0.91101000  1.0
  Cl  Cl57  1  0.46080000  0.29310000  0.08899000  1.0
