# generated using pymatgen
data_LiH2C2O3
_symmetry_space_group_name_H-M   'P 1'
_cell_length_a   4.98394000
_cell_length_b   8.25672427
_cell_length_c   8.25789669
_cell_angle_alpha   68.28431498
_cell_angle_beta   72.43525011
_cell_angle_gamma   72.43208603
_symmetry_Int_Tables_number   1
_chemical_formula_structural   LiH2C2O3
_chemical_formula_sum   'Li4 H8 C8 O12'
_cell_volume   293.96509846
_cell_formula_units_Z   4
loop_
 _symmetry_equiv_pos_site_id
 _symmetry_equiv_pos_as_xyz
  1  'x, y, z'
loop_
 _atom_site_type_symbol
 _atom_site_label
 _atom_site_symmetry_multiplicity
 _atom_site_fract_x
 _atom_site_fract_y
 _atom_site_fract_z
 _atom_site_occupancy
  C  C0  1  0.43988000  0.97112000  0.79070000  1.0
  C  C1  1  0.70169500  0.52889000  0.70930000  1.0
  C  C2  1  0.56012000  0.02887500  0.20930500  1.0
  C  C3  1  0.29830500  0.47111000  0.29070000  1.0
  C  C4  1  0.73751500  0.71988500  0.66328500  1.0
  C  C5  1  0.62070500  0.78013500  0.83669500  1.0
  C  C6  1  0.26249000  0.28012000  0.33672000  1.0
  C  C7  1  0.37928500  0.21986000  0.16330000  1.0
  H  H8  1  0.97596500  0.83787000  0.85086000  1.0
  H  H9  1  0.16471500  0.66212500  0.64914500  1.0
  H  H10  1  0.02402500  0.16213000  0.14915000  1.0
  H  H11  1  0.83529500  0.33787500  0.35084500  1.0
  H  H12  1  0.59878000  0.80409500  0.56855500  1.0
  H  H13  1  0.47143000  0.69592000  0.93144000  1.0
  H  H14  1  0.40122500  0.19590500  0.43144500  1.0
  H  H15  1  0.52857000  0.30408000  0.06856000  1.0
  Li  Li16  1  0.89464500  0.18244000  0.67978000  1.0
  Li  Li17  1  0.25686000  0.31758500  0.82021500  1.0
  Li  Li18  1  0.10535000  0.81756000  0.32022000  1.0
  Li  Li19  1  0.74313500  0.68242500  0.17978500  1.0
  O  O20  1  0.84585500  0.75205000  0.92109000  1.0
  O  O21  1  0.01898500  0.74797500  0.57891500  1.0
  O  O22  1  0.15414000  0.24795000  0.07891000  1.0
  O  O23  1  0.98102500  0.25202000  0.42109000  1.0
  O  O24  1  0.18974500  0.98742500  0.76936500  1.0
  O  O25  1  0.44654000  0.51256500  0.73065500  1.0
  O  O26  1  0.81023500  0.01257500  0.23063500  1.0
  O  O27  1  0.55347000  0.48743000  0.26935000  1.0
  O  O28  1  0.91600000  0.39818000  0.72818000  1.0
  O  O29  1  0.54234500  0.10183500  0.77180500  1.0
  O  O30  1  0.08399500  0.60183000  0.27182000  1.0
  O  O31  1  0.45765000  0.89816000  0.22819000  1.0
