# generated using pymatgen
data_AlH6C12ClO6
_symmetry_space_group_name_H-M   'P 1'
_cell_length_a   6.65155000
_cell_length_b   11.07999546
_cell_length_c   17.75456971
_cell_angle_alpha   78.92726104
_cell_angle_beta   80.42957085
_cell_angle_gamma   73.50390806
_symmetry_Int_Tables_number   1
_chemical_formula_structural   AlH6C12ClO6
_chemical_formula_sum   'Al2 H12 C24 Cl2 O12'
_cell_volume   1222.57184342
_cell_formula_units_Z   2
loop_
 _symmetry_equiv_pos_site_id
 _symmetry_equiv_pos_as_xyz
  1  'x, y, z'
loop_
 _atom_site_type_symbol
 _atom_site_label
 _atom_site_symmetry_multiplicity
 _atom_site_fract_x
 _atom_site_fract_y
 _atom_site_fract_z
 _atom_site_occupancy
  Al  Al0  1  0.49919000  0.49959000  0.50020000  1.0
  Al  Al1  1  0.99947000  0.49952000  0.49978000  1.0
  H  H2  1  0.24075000  0.42869000  0.59559000  1.0
  H  H3  1  0.75668000  0.57034000  0.40444000  1.0
  H  H4  1  0.36925000  0.88324000  0.52109000  1.0
  H  H5  1  0.62847000  0.11569000  0.47942000  1.0
  H  H6  1  0.40074000  0.42375000  0.73303000  1.0
  H  H7  1  0.32201000  0.41332000  0.87570000  1.0
  H  H8  1  0.79390000  0.61494000  0.87065000  1.0
  H  H9  1  0.21521000  0.38315000  0.12831000  1.0
  H  H10  1  0.59440000  0.58072000  0.26747000  1.0
  H  H11  1  0.67541000  0.59230000  0.12483000  1.0
  H  H12  1  0.20780000  0.21231000  0.52966000  1.0
  H  H13  1  0.79030000  0.78677000  0.47032000  1.0
  C  C14  1  0.68842000  0.51242000  0.63666000  1.0
  C  C15  1  0.84903000  0.26857000  0.50650000  1.0
  C  C16  1  0.31072000  0.48720000  0.36321000  1.0
  C  C17  1  0.14925000  0.73052000  0.49364000  1.0
  C  C18  1  0.92812000  0.13081000  0.50328000  1.0
  C  C19  1  0.06971000  0.86815000  0.49721000  1.0
  C  C20  1  0.13977000  0.06370000  0.51608000  1.0
  C  C21  1  0.85799000  0.93521000  0.48450000  1.0
  C  C22  1  0.20631000  0.93346000  0.51289000  1.0
  C  C23  1  0.79134000  0.06545000  0.48775000  1.0
  C  C24  1  0.64484000  0.51952000  0.72112000  1.0
  C  C25  1  0.48735000  0.46397000  0.76427000  1.0
  C  C26  1  0.44292000  0.45834000  0.84367000  1.0
  C  C27  1  0.55590000  0.51118000  0.88350000  1.0
  C  C28  1  0.70924000  0.57093000  0.84099000  1.0
  C  C29  1  0.75395000  0.57486000  0.76114000  1.0
  C  C30  1  0.51749000  0.50464000  0.96477000  1.0
  C  C31  1  0.48644000  0.49774000  0.03500000  1.0
  C  C32  1  0.44741000  0.49063000  0.11629000  1.0
  C  C33  1  0.29677000  0.42841000  0.15839000  1.0
  C  C34  1  0.25085000  0.42372000  0.23825000  1.0
  C  C35  1  0.35606000  0.48077000  0.27870000  1.0
  C  C36  1  0.51117000  0.53872000  0.23596000  1.0
  C  C37  1  0.55669000  0.54520000  0.15653000  1.0
  Cl  Cl38  1  0.94073000  0.65453000  0.71562000  1.0
  Cl  Cl39  1  0.06725000  0.34141000  0.28331000  1.0
  O  O40  1  0.54357000  0.49328000  0.60518000  1.0
  O  O41  1  0.98360000  0.32574000  0.51831000  1.0
  O  O42  1  0.13100000  0.47755000  0.39742000  1.0
  O  O43  1  0.34133000  0.67478000  0.50163000  1.0
  O  O44  1  0.45462000  0.50635000  0.39517000  1.0
  O  O45  1  0.01525000  0.67334000  0.48135000  1.0
  O  O46  1  0.86796000  0.52156000  0.60206000  1.0
  O  O47  1  0.65685000  0.32438000  0.49874000  1.0
  O  O48  1  0.25822000  0.44270000  0.53949000  1.0
  O  O49  1  0.74024000  0.55643000  0.46053000  1.0
  O  O50  1  0.28131000  0.12012000  0.53157000  1.0
  O  O51  1  0.71656000  0.87884000  0.46886000  1.0
