# generated using pymatgen
data_Tl2H6C7(N2O)2
_symmetry_space_group_name_H-M   'P 1'
_cell_length_a   8.28593000
_cell_length_b   9.67488000
_cell_length_c   13.34710000
_cell_angle_alpha   90.00030000
_cell_angle_beta   90.00020000
_cell_angle_gamma   76.55500000
_symmetry_Int_Tables_number   1
_chemical_formula_structural   Tl2H6C7(N2O)2
_chemical_formula_sum   'Tl8 H24 C28 N16 O8'
_cell_volume   1040.65111215
_cell_formula_units_Z   4
loop_
 _symmetry_equiv_pos_site_id
 _symmetry_equiv_pos_as_xyz
  1  'x, y, z'
loop_
 _atom_site_type_symbol
 _atom_site_label
 _atom_site_symmetry_multiplicity
 _atom_site_fract_x
 _atom_site_fract_y
 _atom_site_fract_z
 _atom_site_occupancy
  Tl  Tl0  1  0.20538000  0.58217000  0.95481000  1.0
  Tl  Tl1  1  0.79462000  0.91783000  0.45481000  1.0
  Tl  Tl2  1  0.79461000  0.41783000  0.04519000  1.0
  Tl  Tl3  1  0.20538000  0.08217000  0.54519000  1.0
  Tl  Tl4  1  0.09973000  0.50472000  0.29002000  1.0
  Tl  Tl5  1  0.90027000  0.99528000  0.79002000  1.0
  Tl  Tl6  1  0.90027000  0.49529000  0.70998000  1.0
  Tl  Tl7  1  0.09973000  0.00472000  0.20998000  1.0
  H  H8  1  0.97197000  0.84517000  0.99604000  1.0
  H  H9  1  0.02803000  0.65483000  0.49605000  1.0
  H  H10  1  0.02803000  0.15483000  0.00396000  1.0
  H  H11  1  0.97197000  0.34518000  0.50395000  1.0
  H  H12  1  0.75664000  0.06843000  0.99926000  1.0
  H  H13  1  0.24336000  0.43157000  0.49926000  1.0
  H  H14  1  0.24335000  0.93157000  0.00075000  1.0
  H  H15  1  0.75664000  0.56843000  0.50074000  1.0
  H  H16  1  0.51976000  0.91271000  0.24831000  1.0
  H  H17  1  0.48025000  0.58729000  0.74831000  1.0
  H  H18  1  0.48023000  0.08729000  0.75169000  1.0
  H  H19  1  0.51976000  0.41271000  0.25169000  1.0
  H  H20  1  0.73071000  0.68607000  0.24276000  1.0
  H  H21  1  0.26929000  0.81393000  0.74276000  1.0
  H  H22  1  0.26928000  0.31392000  0.75724000  1.0
  H  H23  1  0.73071000  0.18608000  0.25723000  1.0
  H  H24  1  0.41176000  0.74832000  0.06649000  1.0
  H  H25  1  0.58824000  0.75168000  0.56649000  1.0
  H  H26  1  0.58824000  0.25168000  0.93350000  1.0
  H  H27  1  0.41176000  0.24832000  0.43351000  1.0
  H  H28  1  0.35575000  0.69831000  0.17489000  1.0
  H  H29  1  0.64425000  0.80170000  0.67489000  1.0
  H  H30  1  0.64425000  0.30169000  0.82511000  1.0
  H  H31  1  0.35575000  0.19831000  0.32511000  1.0
  C  C32  1  0.86770000  0.74429000  0.11714000  1.0
  C  C33  1  0.13230000  0.75570000  0.61714000  1.0
  C  C34  1  0.13230000  0.25570000  0.88286000  1.0
  C  C35  1  0.86770000  0.24430000  0.38286000  1.0
  C  C36  1  0.87234000  0.85921000  0.05128000  1.0
  C  C37  1  0.12766000  0.64079000  0.55128000  1.0
  C  C38  1  0.12766000  0.14079000  0.94873000  1.0
  C  C39  1  0.87234000  0.35921000  0.44872000  1.0
  C  C40  1  0.75153000  0.98518000  0.05337000  1.0
  C  C41  1  0.24847000  0.51481000  0.55337000  1.0
  C  C42  1  0.24846000  0.01481000  0.94663000  1.0
  C  C43  1  0.75153000  0.48519000  0.44663000  1.0
  C  C44  1  0.62069000  0.00723000  0.12321000  1.0
  C  C45  1  0.37931000  0.49277000  0.62321000  1.0
  C  C46  1  0.37930000  0.99277000  0.87679000  1.0
  C  C47  1  0.62070000  0.50724000  0.37679000  1.0
  C  C48  1  0.61905000  0.89825000  0.19286000  1.0
  C  C49  1  0.38095000  0.60175000  0.69286000  1.0
  C  C50  1  0.38094000  0.10175000  0.80714000  1.0
  C  C51  1  0.61905000  0.39825000  0.30714000  1.0
  C  C52  1  0.73857000  0.77083000  0.19028000  1.0
  C  C53  1  0.26144000  0.72917000  0.69028000  1.0
  C  C54  1  0.26143000  0.22917000  0.80973000  1.0
  C  C55  1  0.73857000  0.27084000  0.30972000  1.0
  C  C56  1  0.49042000  0.13701000  0.12036000  1.0
  C  C57  1  0.50959000  0.36299000  0.62036000  1.0
  C  C58  1  0.50958000  0.86299000  0.87964000  1.0
  C  C59  1  0.49042000  0.63702000  0.37964000  1.0
  N  N60  1  0.47629000  0.23949000  0.04937000  1.0
  N  N61  1  0.52372000  0.26050000  0.54937000  1.0
  N  N62  1  0.52371000  0.76050000  0.95063000  1.0
  N  N63  1  0.47629000  0.73950000  0.45063000  1.0
  N  N64  1  0.34095000  0.33945000  0.07409000  1.0
  N  N65  1  0.65906000  0.16055000  0.57409000  1.0
  N  N66  1  0.65905000  0.66055000  0.92591000  1.0
  N  N67  1  0.34095000  0.83945000  0.42591000  1.0
  N  N68  1  0.27363000  0.30088000  0.15563000  1.0
  N  N69  1  0.72638000  0.19912000  0.65563000  1.0
  N  N70  1  0.72637000  0.69912000  0.84437000  1.0
  N  N71  1  0.27362000  0.80088000  0.34437000  1.0
  N  N72  1  0.36523000  0.17400000  0.18745000  1.0
  N  N73  1  0.63477000  0.32600000  0.68745000  1.0
  N  N74  1  0.63476000  0.82600000  0.81255000  1.0
  N  N75  1  0.36523000  0.67401000  0.31255000  1.0
  O  O76  1  0.97437000  0.62053000  0.10974000  1.0
  O  O77  1  0.02563000  0.87947000  0.60974000  1.0
  O  O78  1  0.02563000  0.37947000  0.89026000  1.0
  O  O79  1  0.97437000  0.12054000  0.39026000  1.0
  O  O80  1  0.31545000  0.74238000  0.10983000  1.0
  O  O81  1  0.68455000  0.75762000  0.60983000  1.0
  O  O82  1  0.68455000  0.25761000  0.89016000  1.0
  O  O83  1  0.31546000  0.24238000  0.39017000  1.0
