# generated using pymatgen
data_ZnH22C16(NO)4
_symmetry_space_group_name_H-M   'P 1'
_cell_length_a   6.64805000
_cell_length_b   14.45590000
_cell_length_c   20.58240000
_cell_angle_alpha   90.00010000
_cell_angle_beta   89.99980000
_cell_angle_gamma   89.99980000
_symmetry_Int_Tables_number   1
_chemical_formula_structural   ZnH22C16(NO)4
_chemical_formula_sum   'Zn4 H88 C64 N16 O16'
_cell_volume   1978.04162506
_cell_formula_units_Z   4
loop_
 _symmetry_equiv_pos_site_id
 _symmetry_equiv_pos_as_xyz
  1  'x, y, z'
loop_
 _atom_site_type_symbol
 _atom_site_label
 _atom_site_symmetry_multiplicity
 _atom_site_fract_x
 _atom_site_fract_y
 _atom_site_fract_z
 _atom_site_occupancy
  Zn  Zn0  1  0.84035000  0.48467000  0.80857000  1.0
  Zn  Zn1  1  0.65965000  0.51533000  0.30857000  1.0
  Zn  Zn2  1  0.15965000  0.98467000  0.69143000  1.0
  Zn  Zn3  1  0.34035000  0.01533000  0.19143000  1.0
  H  H4  1  0.19018000  0.40626000  0.71509000  1.0
  H  H5  1  0.89219000  0.28495000  0.87442000  1.0
  H  H6  1  0.15142000  0.15508000  0.82030000  1.0
  H  H7  1  0.35570000  0.25510000  0.66597000  1.0
  H  H8  1  0.35008000  0.15360000  0.71437000  1.0
  H  H9  1  0.61713000  0.32402000  0.73997000  1.0
  H  H10  1  0.59472000  0.22969000  0.79324000  1.0
  H  H11  1  0.78082000  0.08131000  0.76805000  1.0
  H  H12  1  0.78847000  0.29108000  0.62459000  1.0
  H  H13  1  0.06828000  0.15322000  0.59268000  1.0
  H  H14  1  0.05045000  0.49423000  0.13305000  1.0
  H  H15  1  0.87965000  0.56458000  0.08898000  1.0
  H  H16  1  0.83840000  0.35348000  0.09766000  1.0
  H  H17  1  0.68639000  0.43007000  0.05273000  1.0
  H  H18  1  0.00538000  0.47503000  0.98900000  1.0
  H  H19  1  0.91940000  0.36112000  0.97742000  1.0
  H  H20  1  0.25743000  0.41210000  0.07304000  1.0
  H  H21  1  0.16319000  0.30011000  0.05705000  1.0
  H  H22  1  0.27941000  0.31371000  0.94084000  1.0
  H  H23  1  0.47689000  0.32271000  0.99728000  1.0
  H  H24  1  0.27262000  0.48560000  0.92719000  1.0
  H  H25  1  0.45934000  0.49893000  0.98684000  1.0
  H  H26  1  0.30982000  0.59374000  0.21509000  1.0
  H  H27  1  0.60781000  0.71506000  0.37442000  1.0
  H  H28  1  0.34858000  0.84493000  0.32029000  1.0
  H  H29  1  0.14430000  0.74490000  0.16597000  1.0
  H  H30  1  0.14992000  0.84640000  0.21437000  1.0
  H  H31  1  0.88287000  0.67598000  0.23997000  1.0
  H  H32  1  0.90528000  0.77032000  0.29324000  1.0
  H  H33  1  0.71918000  0.91868000  0.26804000  1.0
  H  H34  1  0.71153000  0.70891000  0.12459000  1.0
  H  H35  1  0.43172000  0.84678000  0.09268000  1.0
  H  H36  1  0.44954000  0.50577000  0.63306000  1.0
  H  H37  1  0.62033000  0.43542000  0.58899000  1.0
  H  H38  1  0.66160000  0.64652000  0.59766000  1.0
  H  H39  1  0.81361000  0.56993000  0.55273000  1.0
  H  H40  1  0.49461000  0.52497000  0.48900000  1.0
  H  H41  1  0.58061000  0.63888000  0.47742000  1.0
  H  H42  1  0.24257000  0.58790000  0.57304000  1.0
  H  H43  1  0.33682000  0.69989000  0.55705000  1.0
  H  H44  1  0.22060000  0.68629000  0.44084000  1.0
  H  H45  1  0.02312000  0.67730000  0.49728000  1.0
  H  H46  1  0.22739000  0.51440000  0.42719000  1.0
  H  H47  1  0.04066000  0.50108000  0.48684000  1.0
  H  H48  1  0.80982000  0.90626000  0.78491000  1.0
  H  H49  1  0.10783000  0.78495000  0.62559000  1.0
  H  H50  1  0.84859000  0.65508000  0.67970000  1.0
  H  H51  1  0.64430000  0.75510000  0.83403000  1.0
  H  H52  1  0.64992000  0.65359000  0.78563000  1.0
  H  H53  1  0.38288000  0.82402000  0.76003000  1.0
  H  H54  1  0.40529000  0.72969000  0.70676000  1.0
  H  H55  1  0.21918000  0.58132000  0.73195000  1.0
  H  H56  1  0.21153000  0.79108000  0.87541000  1.0
  H  H57  1  0.93172000  0.65322000  0.90731000  1.0
  H  H58  1  0.94954000  0.99422000  0.36694000  1.0
  H  H59  1  0.12032000  0.06457000  0.41101000  1.0
  H  H60  1  0.16161000  0.85348000  0.40234000  1.0
  H  H61  1  0.31361000  0.93008000  0.44727000  1.0
  H  H62  1  0.99461000  0.97503000  0.51100000  1.0
  H  H63  1  0.08060000  0.86113000  0.52258000  1.0
  H  H64  1  0.74258000  0.91209000  0.42696000  1.0
  H  H65  1  0.83682000  0.80011000  0.44295000  1.0
  H  H66  1  0.72059000  0.81371000  0.55916000  1.0
  H  H67  1  0.52311000  0.82270000  0.50272000  1.0
  H  H68  1  0.72738000  0.98560000  0.57281000  1.0
  H  H69  1  0.54065000  0.99893000  0.51316000  1.0
  H  H70  1  0.69019000  0.09374000  0.28491000  1.0
  H  H71  1  0.39218000  0.21506000  0.12558000  1.0
  H  H72  1  0.65142000  0.34493000  0.17971000  1.0
  H  H73  1  0.85570000  0.24491000  0.33403000  1.0
  H  H74  1  0.85009000  0.34641000  0.28563000  1.0
  H  H75  1  0.11713000  0.17598000  0.26003000  1.0
  H  H76  1  0.09473000  0.27031000  0.20676000  1.0
  H  H77  1  0.28081000  0.41869000  0.23196000  1.0
  H  H78  1  0.28848000  0.20891000  0.37541000  1.0
  H  H79  1  0.56827000  0.34678000  0.40732000  1.0
  H  H80  1  0.55046000  0.00578000  0.86694000  1.0
  H  H81  1  0.37968000  0.93543000  0.91101000  1.0
  H  H82  1  0.33839000  0.14652000  0.90235000  1.0
  H  H83  1  0.18639000  0.06993000  0.94727000  1.0
  H  H84  1  0.50538000  0.02497000  0.01100000  1.0
  H  H85  1  0.41939000  0.13888000  0.02258000  1.0
  H  H86  1  0.75742000  0.08790000  0.92697000  1.0
  H  H87  1  0.66318000  0.19989000  0.94295000  1.0
  H  H88  1  0.77941000  0.18629000  0.05916000  1.0
  H  H89  1  0.97688000  0.17730000  0.00272000  1.0
  H  H90  1  0.77262000  0.01440000  0.07281000  1.0
  H  H91  1  0.95935000  0.00108000  0.01316000  1.0
  C  C92  1  0.14910000  0.35734000  0.75268000  1.0
  C  C93  1  0.99887000  0.29118000  0.83493000  1.0
  C  C94  1  0.12689000  0.22707000  0.80872000  1.0
  C  C95  1  0.37410000  0.22860000  0.71559000  1.0
  C  C96  1  0.58432000  0.24973000  0.74201000  1.0
  C  C97  1  0.81991000  0.11770000  0.72378000  1.0
  C  C98  1  0.82669000  0.22626000  0.64803000  1.0
  C  C99  1  0.96412000  0.15861000  0.63306000  1.0
  C  C100  1  0.75335000  0.50301000  0.17459000  1.0
  C  C101  1  0.89413000  0.49903000  0.11612000  1.0
  C  C102  1  0.84042000  0.41898000  0.07031000  1.0
  C  C103  1  0.98669000  0.40791000  0.01369000  1.0
  C  C104  1  0.19016000  0.36845000  0.03477000  1.0
  C  C105  1  0.34132000  0.35830000  0.97930000  1.0
  C  C106  1  0.40316000  0.45086000  0.94952000  1.0
  C  C107  1  0.55992000  0.44200000  0.89642000  1.0
  C  C108  1  0.35090000  0.64266000  0.25268000  1.0
  C  C109  1  0.50112000  0.70882000  0.33492000  1.0
  C  C110  1  0.37311000  0.77293000  0.30872000  1.0
  C  C111  1  0.12590000  0.77140000  0.21559000  1.0
  C  C112  1  0.91568000  0.75027000  0.24201000  1.0
  C  C113  1  0.68009000  0.88229000  0.22378000  1.0
  C  C114  1  0.67331000  0.77373000  0.14803000  1.0
  C  C115  1  0.53587000  0.84138000  0.13305000  1.0
  C  C116  1  0.74663000  0.49699000  0.67459000  1.0
  C  C117  1  0.60585000  0.50097000  0.61612000  1.0
  C  C118  1  0.65957000  0.58102000  0.57031000  1.0
  C  C119  1  0.51331000  0.59209000  0.51369000  1.0
  C  C120  1  0.30984000  0.63155000  0.53477000  1.0
  C  C121  1  0.15869000  0.64171000  0.47930000  1.0
  C  C122  1  0.09684000  0.54914000  0.44952000  1.0
  C  C123  1  0.94008000  0.55801000  0.39642000  1.0
  C  C124  1  0.85092000  0.85734000  0.74732000  1.0
  C  C125  1  0.00114000  0.79118000  0.66508000  1.0
  C  C126  1  0.87311000  0.72706000  0.69128000  1.0
  C  C127  1  0.62590000  0.72859000  0.78441000  1.0
  C  C128  1  0.41569000  0.74973000  0.75799000  1.0
  C  C129  1  0.18010000  0.61771000  0.77622000  1.0
  C  C130  1  0.17331000  0.72626000  0.85197000  1.0
  C  C131  1  0.03588000  0.65862000  0.86694000  1.0
  C  C132  1  0.24663000  0.00301000  0.32541000  1.0
  C  C133  1  0.10585000  0.99902000  0.38387000  1.0
  C  C134  1  0.15958000  0.91898000  0.42969000  1.0
  C  C135  1  0.01331000  0.90791000  0.48631000  1.0
  C  C136  1  0.80984000  0.86845000  0.46523000  1.0
  C  C137  1  0.65868000  0.85829000  0.52070000  1.0
  C  C138  1  0.59684000  0.95086000  0.55048000  1.0
  C  C139  1  0.44007000  0.94199000  0.60358000  1.0
  C  C140  1  0.64910000  0.14266000  0.24732000  1.0
  C  C141  1  0.49888000  0.20882000  0.16508000  1.0
  C  C142  1  0.62688000  0.27293000  0.19128000  1.0
  C  C143  1  0.87410000  0.27141000  0.28441000  1.0
  C  C144  1  0.08432000  0.25027000  0.25799000  1.0
  C  C145  1  0.31990000  0.38229000  0.27622000  1.0
  C  C146  1  0.32669000  0.27373000  0.35197000  1.0
  C  C147  1  0.46412000  0.34139000  0.36695000  1.0
  C  C148  1  0.25337000  0.99699000  0.82541000  1.0
  C  C149  1  0.39415000  0.00098000  0.88388000  1.0
  C  C150  1  0.34042000  0.08102000  0.92969000  1.0
  C  C151  1  0.48668000  0.09209000  0.98632000  1.0
  C  C152  1  0.69016000  0.13155000  0.96523000  1.0
  C  C153  1  0.84132000  0.14170000  0.02070000  1.0
  C  C154  1  0.90316000  0.04914000  0.05048000  1.0
  C  C155  1  0.05993000  0.05800000  0.10357000  1.0
  N  N156  1  0.01331000  0.37194000  0.79921000  1.0
  N  N157  1  0.22008000  0.26973000  0.75665000  1.0
  N  N158  1  0.73723000  0.19936000  0.70574000  1.0
  N  N159  1  0.95909000  0.09159000  0.68107000  1.0
  N  N160  1  0.48669000  0.62806000  0.29921000  1.0
  N  N161  1  0.27991000  0.73027000  0.25664000  1.0
  N  N162  1  0.76277000  0.80064000  0.20574000  1.0
  N  N163  1  0.54091000  0.90841000  0.18107000  1.0
  N  N164  1  0.98670000  0.87194000  0.70079000  1.0
  N  N165  1  0.77992000  0.76973000  0.74336000  1.0
  N  N166  1  0.26278000  0.69936000  0.79426000  1.0
  N  N167  1  0.04091000  0.59159000  0.81893000  1.0
  N  N168  1  0.51331000  0.12806000  0.20079000  1.0
  N  N169  1  0.72009000  0.23027000  0.24335000  1.0
  N  N170  1  0.23723000  0.30064000  0.29426000  1.0
  N  N171  1  0.45908000  0.40841000  0.31893000  1.0
  O  O172  1  0.84110000  0.50299000  0.23122000  1.0
  O  O173  1  0.56657000  0.50357000  0.16635000  1.0
  O  O174  1  0.66565000  0.51584000  0.88395000  1.0
  O  O175  1  0.58259000  0.36751000  0.86614000  1.0
  O  O176  1  0.65890000  0.49701000  0.73122000  1.0
  O  O177  1  0.93343000  0.49643000  0.66635000  1.0
  O  O178  1  0.83435000  0.48417000  0.38395000  1.0
  O  O179  1  0.91741000  0.63249000  0.36615000  1.0
  O  O180  1  0.15889000  0.00299000  0.26877000  1.0
  O  O181  1  0.43342000  0.00357000  0.33365000  1.0
  O  O182  1  0.33434000  0.01584000  0.61605000  1.0
  O  O183  1  0.41741000  0.86751000  0.63386000  1.0
  O  O184  1  0.34110000  0.99701000  0.76878000  1.0
  O  O185  1  0.06657000  0.99643000  0.83365000  1.0
  O  O186  1  0.16565000  0.98415000  0.11605000  1.0
  O  O187  1  0.08261000  0.13249000  0.13385000  1.0
