# generated using pymatgen
data_GdH25C29NO6
_symmetry_space_group_name_H-M   'P 1'
_cell_length_a   8.06312000
_cell_length_b   12.81670000
_cell_length_c   12.95700000
_cell_angle_alpha   94.36460000
_cell_angle_beta   92.63460000
_cell_angle_gamma   100.91600000
_symmetry_Int_Tables_number   1
_chemical_formula_structural   GdH25C29NO6
_chemical_formula_sum   'Gd2 H50 C58 N2 O12'
_cell_volume   1308.47355352
_cell_formula_units_Z   2
loop_
 _symmetry_equiv_pos_site_id
 _symmetry_equiv_pos_as_xyz
  1  'x, y, z'
loop_
 _atom_site_type_symbol
 _atom_site_label
 _atom_site_symmetry_multiplicity
 _atom_site_fract_x
 _atom_site_fract_y
 _atom_site_fract_z
 _atom_site_occupancy
  Gd  Gd0  1  0.23135000  0.98000000  0.45620000  1.0
  Gd  Gd1  1  0.76865000  0.02000000  0.54380000  1.0
  H  H2  1  0.07388000  0.38194000  0.60959000  1.0
  H  H3  1  0.92612000  0.61806000  0.39041000  1.0
  H  H4  1  0.21842000  0.21870000  0.33706000  1.0
  H  H5  1  0.78158000  0.78130000  0.66294000  1.0
  H  H6  1  0.38171000  0.39139000  0.28631000  1.0
  H  H7  1  0.61829000  0.60862000  0.71369000  1.0
  H  H8  1  0.39631000  0.55758000  0.40037000  1.0
  H  H9  1  0.60369000  0.44242000  0.59963000  1.0
  H  H10  1  0.20633000  0.23744000  0.72229000  1.0
  H  H11  1  0.79367000  0.76255000  0.27772000  1.0
  H  H12  1  0.74686000  0.27443000  0.71837000  1.0
  H  H13  1  0.25314000  0.72557000  0.28163000  1.0
  H  H14  1  0.78058000  0.43841000  0.84178000  1.0
  H  H15  1  0.21941000  0.56159000  0.15822000  1.0
  H  H16  1  0.52674000  0.50123000  0.90434000  1.0
  H  H17  1  0.47326000  0.49877000  0.09566000  1.0
  H  H18  1  0.12804000  0.78542000  0.71266000  1.0
  H  H19  1  0.87195000  0.21458000  0.28734000  1.0
  H  H20  1  0.29710000  0.68368000  0.00242000  1.0
  H  H21  1  0.70290000  0.31632000  0.99758000  1.0
  H  H22  1  0.59444000  0.74865000  0.96340000  1.0
  H  H23  1  0.40555000  0.25135000  0.03660000  1.0
  H  H24  1  0.65918000  0.83461000  0.79875000  1.0
  H  H25  1  0.34081000  0.16538000  0.20125000  1.0
  H  H26  1  0.89078000  0.01678000  0.29947000  1.0
  H  H27  1  0.10923000  0.98322000  0.70053000  1.0
  H  H28  1  0.80108000  0.03839000  0.12050000  1.0
  H  H29  1  0.19892000  0.96161000  0.87950000  1.0
  H  H30  1  0.25566000  0.93343000  0.02483000  1.0
  H  H31  1  0.74434000  0.06657000  0.97517000  1.0
  H  H32  1  0.32484000  0.91588000  0.20932000  1.0
  H  H33  1  0.67516000  0.08413000  0.79068000  1.0
  H  H34  1  0.31825000  0.65201000  0.55120000  1.0
  H  H35  1  0.68175000  0.34799000  0.44880000  1.0
  H  H36  1  0.30351000  0.57582000  0.66033000  1.0
  H  H37  1  0.69649000  0.42419000  0.33967000  1.0
  H  H38  1  0.11722000  0.59765000  0.59482000  1.0
  H  H39  1  0.88278000  0.40235000  0.40518000  1.0
  H  H40  1  0.07696000  0.35717000  0.82502000  1.0
  H  H41  1  0.92304000  0.64283000  0.17498000  1.0
  H  H42  1  0.18917000  0.49135000  0.82973000  1.0
  H  H43  1  0.81084000  0.50865000  0.17027000  1.0
  H  H44  1  0.19337000  0.41932000  0.94061000  1.0
  H  H45  1  0.80663000  0.58067000  0.05939000  1.0
  H  H46  1  0.92095000  0.69767000  0.82023000  1.0
  H  H47  1  0.07905000  0.30233000  0.17977000  1.0
  H  H48  1  0.97701000  0.73690000  0.95414000  1.0
  H  H49  1  0.02298000  0.26311000  0.04586000  1.0
  H  H50  1  0.98824000  0.60691000  0.90239000  1.0
  H  H51  1  0.01175000  0.39309000  0.09761000  1.0
  C  C52  1  0.03537000  0.19085000  0.50725000  1.0
  C  C53  1  0.96463000  0.80916000  0.49275000  1.0
  C  C54  1  0.13751000  0.29094000  0.47649000  1.0
  C  C55  1  0.86249000  0.70906000  0.52351000  1.0
  C  C56  1  0.14460000  0.38542000  0.53979000  1.0
  C  C57  1  0.85539000  0.61458000  0.46021000  1.0
  C  C58  1  0.22274000  0.29284000  0.38465000  1.0
  C  C59  1  0.77726000  0.70717000  0.61535000  1.0
  C  C60  1  0.31447000  0.38909000  0.35747000  1.0
  C  C61  1  0.68552000  0.61091000  0.64253000  1.0
  C  C62  1  0.32261000  0.48277000  0.42180000  1.0
  C  C63  1  0.67739000  0.51723000  0.57820000  1.0
  C  C64  1  0.23756000  0.48234000  0.51387000  1.0
  C  C65  1  0.76244000  0.51766000  0.48613000  1.0
  C  C66  1  0.45234000  0.14980000  0.63900000  1.0
  C  C67  1  0.54768000  0.85020000  0.36100000  1.0
  C  C68  1  0.47432000  0.24596000  0.71526000  1.0
  C  C69  1  0.52568000  0.75404000  0.28474000  1.0
  C  C70  1  0.33135000  0.28172000  0.75068000  1.0
  C  C71  1  0.66865000  0.71827000  0.24932000  1.0
  C  C72  1  0.34770000  0.37316000  0.81936000  1.0
  C  C73  1  0.65229000  0.62684000  0.18064000  1.0
  C  C74  1  0.63700000  0.30179000  0.74873000  1.0
  C  C75  1  0.36300000  0.69821000  0.25128000  1.0
  C  C76  1  0.65443000  0.39333000  0.81701000  1.0
  C  C77  1  0.34557000  0.60667000  0.18299000  1.0
  C  C78  1  0.51154000  0.42875000  0.85190000  1.0
  C  C79  1  0.48846000  0.57125000  0.14810000  1.0
  C  C80  1  0.43462000  0.86918000  0.64845000  1.0
  C  C81  1  0.56538000  0.13082000  0.35154000  1.0
  C  C82  1  0.39715000  0.81529000  0.74624000  1.0
  C  C83  1  0.60285000  0.18470000  0.25376000  1.0
  C  C84  1  0.22900000  0.77723000  0.76864000  1.0
  C  C85  1  0.77100000  0.22277000  0.23136000  1.0
  C  C86  1  0.19015000  0.72965000  0.86041000  1.0
  C  C87  1  0.80985000  0.27035000  0.13959000  1.0
  C  C88  1  0.32421000  0.72012000  0.93008000  1.0
  C  C89  1  0.67579000  0.27988000  0.06992000  1.0
  C  C90  1  0.49220000  0.75692000  0.90824000  1.0
  C  C91  1  0.50779000  0.24308000  0.09176000  1.0
  C  C92  1  0.52903000  0.80460000  0.81652000  1.0
  C  C93  1  0.47096000  0.19540000  0.18348000  1.0
  C  C94  1  0.96854000  0.99861000  0.23655000  1.0
  C  C95  1  0.03146000  0.00139000  0.76345000  1.0
  C  C96  1  0.91891000  0.01082000  0.13472000  1.0
  C  C97  1  0.08110000  0.98918000  0.86528000  1.0
  C  C98  1  0.02213000  0.99093000  0.05418000  1.0
  C  C99  1  0.97788000  0.00907000  0.94582000  1.0
  C  C100  1  0.16954000  0.95347000  0.08213000  1.0
  C  C101  1  0.83046000  0.04653000  0.91787000  1.0
  C  C102  1  0.20964000  0.94295000  0.18581000  1.0
  C  C103  1  0.79036000  0.05705000  0.81419000  1.0
  C  C104  1  0.24492000  0.58238000  0.58343000  1.0
  C  C105  1  0.75508000  0.41763000  0.41657000  1.0
  C  C106  1  0.19340000  0.41203000  0.85549000  1.0
  C  C107  1  0.80660000  0.58797000  0.14451000  1.0
  C  C108  1  0.00936000  0.69099000  0.88514000  1.0
  C  C109  1  0.99064000  0.30901000  0.11486000  1.0
  N  N110  1  0.11346000  0.96702000  0.26308000  1.0
  N  N111  1  0.88655000  0.03298000  0.73693000  1.0
  O  O112  1  0.03750000  0.10003000  0.45550000  1.0
  O  O113  1  0.96251000  0.89997000  0.54450000  1.0
  O  O114  1  0.94001000  0.19424000  0.58205000  1.0
  O  O115  1  0.06000000  0.80576000  0.41795000  1.0
  O  O116  1  0.58301000  0.11158000  0.61893000  1.0
  O  O117  1  0.41700000  0.88842000  0.38108000  1.0
  O  O118  1  0.30512000  0.11145000  0.59820000  1.0
  O  O119  1  0.69488000  0.88854000  0.40180000  1.0
  O  O120  1  0.31015000  0.88887000  0.59492000  1.0
  O  O121  1  0.68983000  0.11113000  0.40508000  1.0
  O  O122  1  0.58855000  0.89290000  0.62621000  1.0
  O  O123  1  0.41144000  0.10710000  0.37379000  1.0
