# generated using pymatgen
data_CdH21C15N5O6
_symmetry_space_group_name_H-M   'P 1'
_cell_length_a   12.59850000
_cell_length_b   12.69670000
_cell_length_c   13.96121267
_cell_angle_alpha   89.99946077
_cell_angle_beta   64.46085031
_cell_angle_gamma   89.99850000
_symmetry_Int_Tables_number   1
_chemical_formula_structural   CdH21C15N5O6
_chemical_formula_sum   'Cd4 H84 C60 N20 O24'
_cell_volume   2015.02028685
_cell_formula_units_Z   4
loop_
 _symmetry_equiv_pos_site_id
 _symmetry_equiv_pos_as_xyz
  1  'x, y, z'
loop_
 _atom_site_type_symbol
 _atom_site_label
 _atom_site_symmetry_multiplicity
 _atom_site_fract_x
 _atom_site_fract_y
 _atom_site_fract_z
 _atom_site_occupancy
  Cd  Cd0  1  0.83905000  0.21585000  0.30172000  1.0
  Cd  Cd1  1  0.66095000  0.71586000  0.19827000  1.0
  Cd  Cd2  1  0.16096000  0.78414000  0.69827000  1.0
  Cd  Cd3  1  0.33905000  0.28414000  0.80173000  1.0
  H  H4  1  0.63410000  0.24800000  0.25961000  1.0
  H  H5  1  0.86589000  0.74800000  0.24039000  1.0
  H  H6  1  0.36590000  0.75200000  0.74039000  1.0
  H  H7  1  0.13411000  0.25200000  0.75961000  1.0
  H  H8  1  0.58317000  0.16868000  0.35589000  1.0
  H  H9  1  0.91682000  0.66868000  0.14412000  1.0
  H  H10  1  0.41683000  0.83132000  0.64412000  1.0
  H  H11  1  0.08318000  0.33132000  0.85588000  1.0
  H  H12  1  0.79380000  0.88845000  0.71328000  1.0
  H  H13  1  0.70622000  0.38845000  0.78672000  1.0
  H  H14  1  0.20620000  0.11155000  0.28673000  1.0
  H  H15  1  0.29378000  0.61155000  0.21329000  1.0
  H  H16  1  0.80230000  0.89422000  0.16086000  1.0
  H  H17  1  0.69769000  0.39423000  0.33914000  1.0
  H  H18  1  0.19769000  0.10576000  0.83914000  1.0
  H  H19  1  0.30230000  0.60577000  0.66086000  1.0
  H  H20  1  0.85811000  0.99826000  0.20963000  1.0
  H  H21  1  0.64188000  0.49828000  0.29037000  1.0
  H  H22  1  0.14189000  0.00173000  0.79036000  1.0
  H  H23  1  0.35812000  0.50173000  0.70963000  1.0
  H  H24  1  0.49636000  0.75047000  0.44588000  1.0
  H  H25  1  0.00364000  0.25047000  0.05413000  1.0
  H  H26  1  0.50364000  0.24953000  0.55414000  1.0
  H  H27  1  0.99636000  0.74953000  0.94587000  1.0
  H  H28  1  0.72818000  0.15240000  0.56912000  1.0
  H  H29  1  0.77183000  0.65241000  0.93087000  1.0
  H  H30  1  0.27184000  0.84760000  0.43087000  1.0
  H  H31  1  0.22818000  0.34760000  0.06913000  1.0
  H  H32  1  0.15551000  0.97932000  0.19542000  1.0
  H  H33  1  0.34447000  0.47933000  0.30458000  1.0
  H  H34  1  0.84447000  0.02068000  0.80458000  1.0
  H  H35  1  0.65552000  0.52067000  0.69542000  1.0
  H  H36  1  0.21002000  0.80791000  0.09484000  1.0
  H  H37  1  0.28999000  0.30791000  0.40515000  1.0
  H  H38  1  0.78999000  0.19209000  0.90515000  1.0
  H  H39  1  0.71001000  0.69208000  0.59484000  1.0
  H  H40  1  0.18225000  0.79112000  0.98212000  1.0
  H  H41  1  0.31777000  0.29112000  0.51785000  1.0
  H  H42  1  0.81777000  0.20888000  0.01786000  1.0
  H  H43  1  0.68224000  0.70887000  0.48213000  1.0
  H  H44  1  0.29056000  0.11883000  0.11242000  1.0
  H  H45  1  0.20940000  0.61883000  0.38761000  1.0
  H  H46  1  0.70942000  0.88118000  0.88760000  1.0
  H  H47  1  0.79058000  0.38116000  0.61240000  1.0
  H  H48  1  0.44412000  0.01665000  0.96608000  1.0
  H  H49  1  0.05585000  0.51663000  0.53394000  1.0
  H  H50  1  0.55587000  0.98338000  0.03393000  1.0
  H  H51  1  0.94414000  0.48335000  0.46607000  1.0
  H  H52  1  0.37014000  0.94294000  0.08463000  1.0
  H  H53  1  0.12985000  0.44294000  0.41538000  1.0
  H  H54  1  0.62986000  0.05707000  0.91538000  1.0
  H  H55  1  0.87014000  0.55705000  0.58462000  1.0
  H  H56  1  0.02616000  0.90001000  0.12226000  1.0
  H  H57  1  0.47383000  0.40003000  0.37773000  1.0
  H  H58  1  0.97384000  0.09998000  0.87772000  1.0
  H  H59  1  0.52618000  0.59998000  0.62225000  1.0
  H  H60  1  0.09808000  0.97150000  0.00352000  1.0
  H  H61  1  0.40192000  0.47150000  0.49647000  1.0
  H  H62  1  0.90194000  0.02850000  0.99646000  1.0
  H  H63  1  0.59808000  0.52849000  0.50352000  1.0
  H  H64  1  0.32447000  0.93029000  0.88589000  1.0
  H  H65  1  0.17552000  0.43027000  0.61412000  1.0
  H  H66  1  0.67553000  0.06972000  0.11411000  1.0
  H  H67  1  0.82448000  0.56971000  0.38588000  1.0
  H  H68  1  0.39348000  0.83353000  0.93067000  1.0
  H  H69  1  0.10653000  0.33351000  0.56932000  1.0
  H  H70  1  0.60653000  0.16649000  0.06932000  1.0
  H  H71  1  0.89348000  0.66647000  0.43068000  1.0
  H  H72  1  0.47458000  0.98152000  0.72716000  1.0
  H  H73  1  0.02543000  0.48151000  0.77284000  1.0
  H  H74  1  0.52544000  0.01850000  0.27283000  1.0
  H  H75  1  0.97457000  0.51849000  0.22716000  1.0
  H  H76  1  0.57224000  0.07810000  0.73579000  1.0
  H  H77  1  0.92778000  0.57810000  0.76420000  1.0
  H  H78  1  0.42778000  0.92191000  0.26420000  1.0
  H  H79  1  0.07223000  0.42190000  0.23580000  1.0
  H  H80  1  0.58603000  0.90973000  0.82018000  1.0
  H  H81  1  0.91398000  0.40971000  0.67983000  1.0
  H  H82  1  0.41397000  0.09029000  0.17983000  1.0
  H  H83  1  0.08602000  0.59029000  0.32018000  1.0
  H  H84  1  0.61790000  0.83932000  0.70006000  1.0
  H  H85  1  0.88212000  0.33932000  0.79995000  1.0
  H  H86  1  0.38210000  0.16068000  0.29995000  1.0
  H  H87  1  0.11789000  0.66068000  0.20006000  1.0
  C  C88  1  0.69794000  0.98230000  0.41234000  1.0
  C  C89  1  0.80207000  0.48231000  0.08765000  1.0
  C  C90  1  0.30207000  0.01770000  0.58766000  1.0
  C  C91  1  0.19793000  0.51769000  0.91235000  1.0
  C  C92  1  0.55483000  0.81677000  0.43811000  1.0
  C  C93  1  0.94518000  0.31678000  0.06189000  1.0
  C  C94  1  0.44518000  0.18322000  0.56190000  1.0
  C  C95  1  0.05482000  0.68323000  0.93811000  1.0
  C  C96  1  0.71304000  0.92112000  0.32212000  1.0
  C  C97  1  0.78696000  0.42113000  0.17788000  1.0
  C  C98  1  0.28696000  0.07887000  0.67788000  1.0
  C  C99  1  0.21304000  0.57887000  0.82212000  1.0
  C  C100  1  0.70656000  0.08800000  0.52950000  1.0
  C  C101  1  0.79344000  0.58801000  0.97049000  1.0
  C  C102  1  0.29345000  0.91199000  0.47049000  1.0
  C  C103  1  0.20656000  0.41199000  0.02951000  1.0
  C  C104  1  0.14561000  0.01908000  0.12922000  1.0
  C  C105  1  0.35438000  0.51909000  0.37078000  1.0
  C  C106  1  0.85438000  0.98091000  0.87078000  1.0
  C  C107  1  0.64562000  0.48090000  0.62921000  1.0
  C  C108  1  0.20576000  0.84976000  0.02716000  1.0
  C  C109  1  0.29426000  0.34976000  0.47282000  1.0
  C  C110  1  0.79425000  0.15025000  0.97283000  1.0
  C  C111  1  0.70575000  0.65023000  0.52716000  1.0
  C  C112  1  0.26718000  0.06688000  0.06132000  1.0
  C  C113  1  0.23279000  0.56688000  0.43870000  1.0
  C  C114  1  0.73279000  0.93313000  0.93870000  1.0
  C  C115  1  0.76720000  0.43311000  0.56130000  1.0
  C  C116  1  0.36024000  0.98006000  0.01754000  1.0
  C  C117  1  0.13974000  0.48005000  0.48248000  1.0
  C  C118  1  0.63975000  0.01996000  0.98247000  1.0
  C  C119  1  0.86025000  0.51994000  0.51753000  1.0
  C  C120  1  0.61393000  0.94764000  0.51129000  1.0
  C  C121  1  0.88608000  0.44765000  0.98871000  1.0
  C  C122  1  0.38608000  0.05236000  0.48871000  1.0
  C  C123  1  0.11393000  0.55235000  0.01129000  1.0
  C  C124  1  0.05611000  0.10525000  0.18384000  1.0
  C  C125  1  0.44385000  0.60527000  0.31617000  1.0
  C  C126  1  0.94386000  0.89474000  0.81615000  1.0
  C  C127  1  0.55613000  0.39473000  0.68384000  1.0
  C  C128  1  0.11097000  0.93526000  0.06925000  1.0
  C  C129  1  0.38902000  0.43527000  0.43075000  1.0
  C  C130  1  0.88903000  0.06473000  0.93074000  1.0
  C  C131  1  0.61098000  0.56472000  0.56924000  1.0
  C  C132  1  0.32638000  0.89611000  0.95773000  1.0
  C  C133  1  0.17362000  0.39609000  0.54228000  1.0
  C  C134  1  0.67363000  0.10391000  0.04227000  1.0
  C  C135  1  0.82639000  0.60389000  0.45772000  1.0
  C  C136  1  0.27216000  0.13948000  0.97244000  1.0
  C  C137  1  0.22780000  0.63946000  0.52758000  1.0
  C  C138  1  0.72782000  0.86054000  0.02758000  1.0
  C  C139  1  0.77219000  0.36052000  0.47242000  1.0
  C  C140  1  0.56762000  0.00200000  0.70039000  1.0
  C  C141  1  0.93239000  0.50200000  0.79961000  1.0
  C  C142  1  0.43239000  0.99801000  0.29961000  1.0
  C  C143  1  0.06762000  0.49800000  0.20039000  1.0
  C  C144  1  0.62970000  0.91541000  0.73271000  1.0
  C  C145  1  0.87032000  0.41541000  0.76729000  1.0
  C  C146  1  0.37031000  0.08459000  0.26729000  1.0
  C  C147  1  0.12968000  0.58459000  0.23272000  1.0
  N  N148  1  0.53874000  0.86646000  0.52793000  1.0
  N  N149  1  0.96127000  0.36647000  0.97208000  1.0
  N  N150  1  0.46127000  0.13354000  0.47208000  1.0
  N  N151  1  0.03873000  0.63354000  0.02793000  1.0
  N  N152  1  0.63680000  0.83854000  0.33943000  1.0
  N  N153  1  0.86321000  0.33855000  0.16057000  1.0
  N  N154  1  0.36321000  0.16145000  0.66057000  1.0
  N  N155  1  0.13680000  0.66146000  0.83943000  1.0
  N  N156  1  0.75382000  0.07162000  0.42550000  1.0
  N  N157  1  0.74618000  0.57164000  0.07449000  1.0
  N  N158  1  0.24618000  0.92837000  0.57450000  1.0
  N  N159  1  0.25383000  0.42837000  0.92550000  1.0
  N  N160  1  0.62185000  0.01542000  0.58521000  1.0
  N  N161  1  0.87816000  0.51542000  0.91478000  1.0
  N  N162  1  0.37817000  0.98458000  0.41478000  1.0
  N  N163  1  0.12184000  0.48458000  0.08522000  1.0
  N  N164  1  0.79748000  0.93776000  0.22511000  1.0
  N  N165  1  0.70252000  0.43778000  0.27489000  1.0
  N  N166  1  0.20252000  0.06222000  0.77489000  1.0
  N  N167  1  0.29748000  0.56222000  0.72511000  1.0
  O  O168  1  0.18005000  0.16361000  0.96154000  1.0
  O  O169  1  0.31993000  0.66362000  0.53846000  1.0
  O  O170  1  0.81994000  0.83638000  0.03845000  1.0
  O  O171  1  0.68007000  0.33638000  0.46153000  1.0
  O  O172  1  0.65380000  0.18380000  0.28652000  1.0
  O  O173  1  0.84620000  0.68380000  0.21348000  1.0
  O  O174  1  0.34620000  0.81620000  0.71348000  1.0
  O  O175  1  0.15380000  0.31619000  0.78652000  1.0
  O  O176  1  0.08187000  0.17792000  0.23147000  1.0
  O  O177  1  0.41808000  0.67795000  0.26855000  1.0
  O  O178  1  0.91808000  0.82206000  0.76854000  1.0
  O  O179  1  0.58191000  0.32205000  0.73145000  1.0
  O  O180  1  0.95381000  0.09840000  0.18274000  1.0
  O  O181  1  0.54616000  0.59841000  0.31724000  1.0
  O  O182  1  0.04616000  0.90159000  0.81724000  1.0
  O  O183  1  0.45383000  0.40159000  0.68275000  1.0
  O  O184  1  0.75077000  0.94242000  0.69358000  1.0
  O  O185  1  0.74924000  0.44242000  0.80642000  1.0
  O  O186  1  0.24923000  0.05758000  0.30643000  1.0
  O  O187  1  0.25077000  0.55758000  0.19358000  1.0
  O  O188  1  0.37417000  0.17578000  0.91126000  1.0
  O  O189  1  0.12580000  0.67574000  0.58878000  1.0
  O  O190  1  0.62581000  0.82427000  0.08879000  1.0
  O  O191  1  0.87419000  0.32424000  0.41122000  1.0
