# generated using pymatgen
data_Zn2H30C35(N3O4)2
_symmetry_space_group_name_H-M   'P 1'
_cell_length_a   11.17830000
_cell_length_b   15.90670000
_cell_length_c   17.01890000
_cell_angle_alpha   87.75740000
_cell_angle_beta   87.99680000
_cell_angle_gamma   85.71860000
_symmetry_Int_Tables_number   1
_chemical_formula_structural   Zn2H30C35(N3O4)2
_chemical_formula_sum   'Zn2 H30 C35 N6 O8'
_cell_volume   3013.81379380
_cell_formula_units_Z   1
loop_
 _symmetry_equiv_pos_site_id
 _symmetry_equiv_pos_as_xyz
  1  'x, y, z'
loop_
 _atom_site_type_symbol
 _atom_site_label
 _atom_site_symmetry_multiplicity
 _atom_site_fract_x
 _atom_site_fract_y
 _atom_site_fract_z
 _atom_site_occupancy
  Zn  Zn0  1  0.49248000  0.59039000  0.50882000  1.0
  Zn  Zn1  1  0.51336000  0.41376000  0.49173000  1.0
  H  H2  1  0.12590000  0.37693000  0.46750000  1.0
  H  H3  1  0.56695000  0.35742000  0.90687000  1.0
  H  H4  1  0.36630000  0.42237000  0.27132000  1.0
  H  H5  1  0.61847000  0.71817000  0.42812000  1.0
  H  H6  1  0.62639000  0.87650000  0.41703000  1.0
  H  H7  1  0.66216000  0.28616000  0.39574000  1.0
  H  H8  1  0.35243000  0.89262000  0.60147000  1.0
  H  H9  1  0.09032000  0.55415000  0.53469000  1.0
  H  H10  1  0.90395000  0.37428000  0.48927000  1.0
  H  H11  1  0.90144000  0.56792000  0.47706000  1.0
  H  H12  1  0.50099000  0.65040000  0.09248000  1.0
  H  H13  1  0.24659000  0.42186000  0.07369000  1.0
  H  H14  1  0.36327000  0.34658000  0.09932000  1.0
  H  H15  1  0.24765000  0.37454000  0.17044000  1.0
  H  H16  1  0.76844000  0.16429000  0.34333000  1.0
  H  H17  1  0.76683000  0.06627000  0.39851000  1.0
  H  H18  1  0.66533000  0.08895000  0.32218000  1.0
  H  H19  1  0.27586000  0.76591000  0.65709000  1.0
  H  H20  1  0.28907000  0.67443000  0.59757000  1.0
  H  H21  1  0.39662000  0.68639000  0.66868000  1.0
  H  H22  1  0.40868000  0.11536000  0.56994000  1.0
  H  H23  1  0.39641000  0.27514000  0.57006000  1.0
  H  H24  1  0.35446000  0.57801000  0.73967000  1.0
  H  H25  1  0.32194000  0.57758000  0.88629000  1.0
  H  H26  1  0.58765000  0.71632000  0.19410000  1.0
  H  H27  1  0.49237000  0.71694000  0.28061000  1.0
  H  H28  1  0.63007000  0.65557000  0.28034000  1.0
  H  H29  1  0.58006000  0.29351000  0.71961000  1.0
  H  H30  1  0.69103000  0.36619000  0.70947000  1.0
  H  H31  1  0.67880000  0.30371000  0.79834000  1.0
  C  C32  1  0.48053000  0.52873000  0.34876000  1.0
  C  C33  1  0.39643000  0.47195000  0.23083000  1.0
  C  C34  1  0.37490000  0.46809000  0.15089000  1.0
  C  C35  1  0.41973000  0.53288000  0.10133000  1.0
  C  C36  1  0.47178000  0.60091000  0.13347000  1.0
  C  C37  1  0.49261000  0.60439000  0.21362000  1.0
  C  C38  1  0.38268000  0.53027000  0.85812000  1.0
  C  C39  1  0.40152000  0.53026000  0.77718000  1.0
  C  C40  1  0.44526000  0.46798000  0.90455000  1.0
  C  C41  1  0.48111000  0.46965000  0.74118000  1.0
  C  C42  1  0.54109000  0.40494000  0.78722000  1.0
  C  C43  1  0.73618000  0.50214000  0.48814000  1.0
  C  C44  1  0.52048000  0.40511000  0.86877000  1.0
  C  C45  1  0.45795000  0.23911000  0.53078000  1.0
  C  C46  1  0.46483000  0.15198000  0.53033000  1.0
  C  C47  1  0.54669000  0.11039000  0.47790000  1.0
  C  C48  1  0.62132000  0.15748000  0.42736000  1.0
  C  C49  1  0.60734000  0.24535000  0.43271000  1.0
  C  C50  1  0.56637000  0.84678000  0.45953000  1.0
  C  C51  1  0.56184000  0.75990000  0.46549000  1.0
  C  C52  1  0.48903000  0.89538000  0.50949000  1.0
  C  C53  1  0.41496000  0.76678000  0.56703000  1.0
  C  C54  1  0.49928000  0.47789000  0.65347000  1.0
  C  C55  1  0.41285000  0.85485000  0.56292000  1.0
  C  C56  1  0.26885000  0.49390000  0.50872000  1.0
  C  C57  1  0.07402000  0.43375000  0.48706000  1.0
  C  C58  1  0.13601000  0.49680000  0.51172000  1.0
  C  C59  1  0.94418000  0.43497000  0.48684000  1.0
  C  C60  1  0.86846000  0.50507000  0.48327000  1.0
  C  C61  1  0.45663000  0.53647000  0.26252000  1.0
  C  C62  1  0.30441000  0.39906000  0.12208000  1.0
  C  C63  1  0.71067000  0.11732000  0.36984000  1.0
  C  C64  1  0.33856000  0.72151000  0.62593000  1.0
  C  C65  1  0.55414000  0.67731000  0.24356000  1.0
  C  C66  1  0.62760000  0.33851000  0.75204000  1.0
  N  N67  1  0.42040000  0.53587000  0.01825000  1.0
  N  N68  1  0.44043000  0.46451000  0.98770000  1.0
  N  N69  1  0.52841000  0.28479000  0.48250000  1.0
  N  N70  1  0.56136000  0.02114000  0.47456000  1.0
  N  N71  1  0.47762000  0.98448000  0.51012000  1.0
  N  N72  1  0.48829000  0.72076000  0.51740000  1.0
  O  O73  1  0.46930000  0.59532000  0.38839000  1.0
  O  O74  1  0.50970000  0.45437000  0.37577000  1.0
  O  O75  1  0.67560000  0.57359000  0.48716000  1.0
  O  O76  1  0.69286000  0.43010000  0.49376000  1.0
  O  O77  1  0.51137000  0.55237000  0.62529000  1.0
  O  O78  1  0.49954000  0.41156000  0.61406000  1.0
  O  O79  1  0.31388000  0.56333000  0.52247000  1.0
  O  O80  1  0.32776000  0.42472000  0.49275000  1.0
