# generated using pymatgen
data_ZnH22C24BrNO6
_symmetry_space_group_name_H-M   'P 1'
_cell_length_a   11.03010000
_cell_length_b   14.11500000
_cell_length_c   15.22800000
_cell_angle_alpha   87.93780000
_cell_angle_beta   89.32630000
_cell_angle_gamma   88.91590000
_symmetry_Int_Tables_number   1
_chemical_formula_structural   ZnH22C24BrNO6
_chemical_formula_sum   'Zn2 H44 C48 Br2 N2 O12'
_cell_volume   2368.74005144
_cell_formula_units_Z   2
loop_
 _symmetry_equiv_pos_site_id
 _symmetry_equiv_pos_as_xyz
  1  'x, y, z'
loop_
 _atom_site_type_symbol
 _atom_site_label
 _atom_site_symmetry_multiplicity
 _atom_site_fract_x
 _atom_site_fract_y
 _atom_site_fract_z
 _atom_site_occupancy
  Zn  Zn0  1  0.49675000  0.60360000  0.49584000  1.0
  Zn  Zn1  1  0.50021000  0.39841000  0.49514000  1.0
  H  H2  1  0.62049000  0.94140000  0.39523000  1.0
  H  H3  1  0.58143000  0.62726000  0.20799000  1.0
  H  H4  1  0.50634000  0.35898000  0.94981000  1.0
  H  H5  1  0.32132000  0.39711000  0.06404000  1.0
  H  H6  1  0.30551000  0.07448000  0.54032000  1.0
  H  H7  1  0.68713000  0.06530000  0.47239000  1.0
  H  H8  1  0.31790000  0.25209000  0.53561000  1.0
  H  H9  1  0.68193000  0.24342000  0.46951000  1.0
  H  H10  1  0.72608000  0.73390000  0.27827000  1.0
  H  H11  1  0.73013000  0.85057000  0.31728000  1.0
  H  H12  1  0.50169000  0.76083000  0.24517000  1.0
  H  H13  1  0.36286000  0.93102000  0.61137000  1.0
  H  H14  1  0.51613000  0.88133000  0.26911000  1.0
  H  H15  1  0.67306000  0.90118000  0.14695000  1.0
  H  H16  1  0.53443000  0.85914000  0.10675000  1.0
  H  H17  1  0.65903000  0.77962000  0.12315000  1.0
  H  H18  1  0.19833000  0.73124000  0.53718000  1.0
  H  H19  1  0.19587000  0.83104000  0.60750000  1.0
  H  H20  1  0.19553000  0.62237000  0.67012000  1.0
  H  H21  1  0.18178000  0.72071000  0.73865000  1.0
  H  H22  1  0.98267000  0.76850000  0.66594000  1.0
  H  H23  1  0.97680000  0.65024000  0.70936000  1.0
  H  H24  1  0.23263000  0.56119000  0.35021000  1.0
  H  H25  1  0.99885000  0.67153000  0.59519000  1.0
  H  H26  1  0.40106000  0.27344000  0.73614000  1.0
  H  H27  1  0.43714000  0.23970000  0.84757000  1.0
  H  H28  1  0.58172000  0.18737000  0.68226000  1.0
  H  H29  1  0.63267000  0.16407000  0.79037000  1.0
  H  H30  1  0.45441000  0.05998000  0.82367000  1.0
  H  H31  1  0.53291000  0.02015000  0.72916000  1.0
  H  H32  1  0.39522000  0.08624000  0.71755000  1.0
  H  H33  1  0.44025000  0.28320000  0.26725000  1.0
  H  H34  1  0.34983000  0.26260000  0.17288000  1.0
  H  H35  1  0.78189000  0.54820000  0.33380000  1.0
  H  H36  1  0.25875000  0.26601000  0.36390000  1.0
  H  H37  1  0.16599000  0.24972000  0.27219000  1.0
  H  H38  1  0.28192000  0.09958000  0.23691000  1.0
  H  H39  1  0.22395000  0.09152000  0.34597000  1.0
  H  H40  1  0.37936000  0.11567000  0.32690000  1.0
  H  H41  1  0.12887000  0.60799000  0.21279000  1.0
  H  H42  1  0.90308000  0.60017000  0.20395000  1.0
  H  H43  1  0.40506000  0.65459000  0.91981000  1.0
  H  H44  1  0.57045000  0.62868000  0.04430000  1.0
  H  H45  1  0.43400000  0.64447000  0.75705000  1.0
  C  C46  1  0.49898000  0.49705000  0.66419000  1.0
  C  C47  1  0.44743000  0.51162000  0.04280000  1.0
  C  C48  1  0.39143000  0.10857000  0.52525000  1.0
  C  C49  1  0.60256000  0.10357000  0.48553000  1.0
  C  C50  1  0.39682000  0.20685000  0.52232000  1.0
  C  C51  1  0.60109000  0.20203000  0.48398000  1.0
  C  C52  1  0.49557000  0.05461000  0.50545000  1.0
  C  C53  1  0.56463000  0.90238000  0.44275000  1.0
  C  C54  1  0.41824000  0.89747000  0.56129000  1.0
  C  C55  1  0.56144000  0.80344000  0.44260000  1.0
  C  C56  1  0.42024000  0.79866000  0.55700000  1.0
  C  C57  1  0.47699000  0.50776000  0.32552000  1.0
  C  C58  1  0.49252000  0.95020000  0.50363000  1.0
  C  C59  1  0.26200000  0.49183000  0.50180000  1.0
  C  C60  1  0.73409000  0.49012000  0.48965000  1.0
  C  C61  1  0.13421000  0.55780000  0.34695000  1.0
  C  C62  1  0.88034000  0.55072000  0.33768000  1.0
  C  C63  1  0.07590000  0.58460000  0.27022000  1.0
  C  C64  1  0.94818000  0.58039000  0.26548000  1.0
  C  C65  1  0.93756000  0.52281000  0.41798000  1.0
  C  C66  1  0.06704000  0.52543000  0.42201000  1.0
  C  C67  1  0.12558000  0.49324000  0.50081000  1.0
  C  C68  1  0.48452000  0.49731000  0.76210000  1.0
  C  C69  1  0.87048000  0.49093000  0.49383000  1.0
  C  C70  1  0.05858000  0.46160000  0.57282000  1.0
  C  C71  1  0.92988000  0.46160000  0.57002000  1.0
  C  C72  1  0.43263000  0.58778000  0.89101000  1.0
  C  C73  1  0.51744000  0.57865000  0.08434000  1.0
  C  C74  1  0.44864000  0.58248000  0.80067000  1.0
  C  C75  1  0.52372000  0.57779000  0.17550000  1.0
  C  C76  1  0.66971000  0.79109000  0.30528000  1.0
  C  C77  1  0.56597000  0.81949000  0.24396000  1.0
  C  C78  1  0.61084000  0.84115000  0.15022000  1.0
  C  C79  1  0.46055000  0.51122000  0.22779000  1.0
  C  C80  1  0.22138000  0.75538000  0.60281000  1.0
  C  C81  1  0.15926000  0.69517000  0.67343000  1.0
  C  C82  1  0.02196000  0.69671000  0.66030000  1.0
  C  C83  1  0.47623000  0.25535000  0.78146000  1.0
  C  C84  1  0.55065000  0.17134000  0.74999000  1.0
  C  C85  1  0.47948000  0.07946000  0.75536000  1.0
  C  C86  1  0.34799000  0.28989000  0.24010000  1.0
  C  C87  1  0.25777000  0.23637000  0.29806000  1.0
  C  C88  1  0.28728000  0.13010000  0.30219000  1.0
  C  C89  1  0.50454000  0.41650000  0.81729000  1.0
  C  C90  1  0.38591000  0.44705000  0.18648000  1.0
  C  C91  1  0.48567000  0.42142000  0.90796000  1.0
  C  C92  1  0.38057000  0.44700000  0.09483000  1.0
  C  C93  1  0.45151000  0.50686000  0.94598000  1.0
  Br  Br94  1  0.14243000  0.41859000  0.67587000  1.0
  Br  Br95  1  0.83802000  0.42436000  0.67140000  1.0
  N  N96  1  0.49955000  0.25259000  0.50111000  1.0
  N  N97  1  0.49118000  0.75232000  0.49931000  1.0
  O  O98  1  0.52259000  0.57649000  0.62632000  1.0
  O  O99  1  0.35255000  0.74383000  0.61209000  1.0
  O  O100  1  0.55521000  0.33496000  0.78443000  1.0
  O  O101  1  0.31234000  0.38867000  0.23702000  1.0
  O  O102  1  0.46617000  0.58644000  0.36378000  1.0
  O  O103  1  0.48312000  0.41942000  0.62616000  1.0
  O  O104  1  0.50325000  0.42750000  0.36133000  1.0
  O  O105  1  0.31249000  0.57002000  0.51404000  1.0
  O  O106  1  0.68102000  0.57007000  0.48080000  1.0
  O  O107  1  0.31301000  0.41258000  0.48722000  1.0
  O  O108  1  0.68544000  0.40913000  0.49377000  1.0
  O  O109  1  0.62602000  0.74977000  0.38765000  1.0
