# generated using pymatgen
data_Zn5H31C36N9O16
_symmetry_space_group_name_H-M   'P 1'
_cell_length_a   15.52350000
_cell_length_b   19.36060000
_cell_length_c   25.33950000
_cell_angle_alpha   89.99990000
_cell_angle_beta   90.00000000
_cell_angle_gamma   90.00000000
_symmetry_Int_Tables_number   1
_chemical_formula_structural   Zn5H31C36N9O16
_chemical_formula_sum   'Zn20 H124 C144 N36 O64'
_cell_volume   7615.64163355
_cell_formula_units_Z   4
loop_
 _symmetry_equiv_pos_site_id
 _symmetry_equiv_pos_as_xyz
  1  'x, y, z'
loop_
 _atom_site_type_symbol
 _atom_site_label
 _atom_site_symmetry_multiplicity
 _atom_site_fract_x
 _atom_site_fract_y
 _atom_site_fract_z
 _atom_site_occupancy
  Zn  Zn0  1  0.45254000  0.65947000  0.76887000  1.0
  Zn  Zn1  1  0.04746000  0.34053000  0.26887000  1.0
  Zn  Zn2  1  0.95254000  0.84053000  0.73113000  1.0
  Zn  Zn3  1  0.54746000  0.15947000  0.23113000  1.0
  Zn  Zn4  1  0.54746000  0.34053000  0.23113000  1.0
  Zn  Zn5  1  0.95254000  0.65947000  0.73113000  1.0
  Zn  Zn6  1  0.04746000  0.15947000  0.26887000  1.0
  Zn  Zn7  1  0.45254000  0.84053000  0.76887000  1.0
  Zn  Zn8  1  0.47377000  0.53498000  0.54733000  1.0
  Zn  Zn9  1  0.02623000  0.46502000  0.04733000  1.0
  Zn  Zn10  1  0.97378000  0.96502000  0.95267000  1.0
  Zn  Zn11  1  0.52622000  0.03498000  0.45267000  1.0
  Zn  Zn12  1  0.52623000  0.46502000  0.45267000  1.0
  Zn  Zn13  1  0.97378000  0.53499000  0.95267000  1.0
  Zn  Zn14  1  0.02623000  0.03498000  0.04733000  1.0
  Zn  Zn15  1  0.47377000  0.96502000  0.54733000  1.0
  Zn  Zn16  1  0.32148000  0.75000000  0.69412000  1.0
  Zn  Zn17  1  0.17852000  0.25000000  0.19412000  1.0
  Zn  Zn18  1  0.82148000  0.75000000  0.80588000  1.0
  Zn  Zn19  1  0.67852000  0.25000000  0.30588000  1.0
  H  H20  1  0.33898000  0.75000000  0.79331000  1.0
  H  H21  1  0.16102000  0.25000000  0.29331000  1.0
  H  H22  1  0.83898000  0.75000000  0.70669000  1.0
  H  H23  1  0.66102000  0.25000000  0.20669000  1.0
  H  H24  1  0.50131000  0.75000000  0.26596000  1.0
  H  H25  1  0.99869000  0.24999000  0.76596000  1.0
  H  H26  1  0.00131000  0.75000000  0.23404000  1.0
  H  H27  1  0.49869000  0.25000000  0.73404000  1.0
  H  H28  1  0.51364000  0.43353000  0.97151000  1.0
  H  H29  1  0.98636000  0.56647000  0.47151000  1.0
  H  H30  1  0.01364000  0.06647000  0.52849000  1.0
  H  H31  1  0.48636000  0.93353000  0.02849000  1.0
  H  H32  1  0.48636000  0.56647000  0.02849000  1.0
  H  H33  1  0.01364000  0.43353000  0.52849000  1.0
  H  H34  1  0.98636000  0.93353000  0.47151000  1.0
  H  H35  1  0.51364000  0.06647000  0.97151000  1.0
  H  H36  1  0.35805000  0.68890000  0.54225000  1.0
  H  H37  1  0.14195000  0.31110000  0.04225000  1.0
  H  H38  1  0.85805000  0.81110000  0.95775000  1.0
  H  H39  1  0.64195000  0.18890000  0.45775000  1.0
  H  H40  1  0.64195000  0.31110000  0.45775000  1.0
  H  H41  1  0.85805000  0.68890000  0.95775000  1.0
  H  H42  1  0.14195000  0.18890000  0.04225000  1.0
  H  H43  1  0.35805000  0.81110000  0.54225000  1.0
  H  H44  1  0.26645000  0.69036000  0.58539000  1.0
  H  H45  1  0.23355000  0.30964000  0.08539000  1.0
  H  H46  1  0.76645000  0.80964000  0.91461000  1.0
  H  H47  1  0.73355000  0.19036000  0.41461000  1.0
  H  H48  1  0.73355000  0.30964000  0.41461000  1.0
  H  H49  1  0.76645000  0.69036000  0.91461000  1.0
  H  H50  1  0.23355000  0.19036000  0.08539000  1.0
  H  H51  1  0.26645000  0.80964000  0.58539000  1.0
  H  H52  1  0.29711000  0.61325000  0.55064000  1.0
  H  H53  1  0.20289000  0.38675000  0.05064000  1.0
  H  H54  1  0.79712000  0.88675000  0.94936000  1.0
  H  H55  1  0.70289000  0.11325000  0.44936000  1.0
  H  H56  1  0.70289000  0.38675000  0.44936000  1.0
  H  H57  1  0.79711000  0.61325000  0.94936000  1.0
  H  H58  1  0.20289000  0.11325000  0.05064000  1.0
  H  H59  1  0.29711000  0.88675000  0.55064000  1.0
  H  H60  1  0.59997000  0.55203000  0.67450000  1.0
  H  H61  1  0.90003000  0.44797000  0.17450000  1.0
  H  H62  1  0.09997000  0.94797000  0.82550000  1.0
  H  H63  1  0.40003000  0.05203000  0.32550000  1.0
  H  H64  1  0.40003000  0.44797000  0.32550000  1.0
  H  H65  1  0.09997000  0.55203000  0.82550000  1.0
  H  H66  1  0.90003000  0.05203000  0.17450000  1.0
  H  H67  1  0.59997000  0.94797000  0.67450000  1.0
  H  H68  1  0.52944000  0.48382000  0.65732000  1.0
  H  H69  1  0.97056000  0.51618000  0.15732000  1.0
  H  H70  1  0.02944000  0.01618000  0.84268000  1.0
  H  H71  1  0.47056000  0.98382000  0.34268000  1.0
  H  H72  1  0.47056000  0.51618000  0.34268000  1.0
  H  H73  1  0.02944000  0.48382000  0.84268000  1.0
  H  H74  1  0.97056000  0.98382000  0.15732000  1.0
  H  H75  1  0.52944000  0.01618000  0.65732000  1.0
  H  H76  1  0.52628000  0.51952000  0.72277000  1.0
  H  H77  1  0.97372000  0.48048000  0.22277000  1.0
  H  H78  1  0.02628000  0.98048000  0.77723000  1.0
  H  H79  1  0.47372000  0.01952000  0.27723000  1.0
  H  H80  1  0.47372000  0.48048000  0.27723000  1.0
  H  H81  1  0.02628000  0.51952000  0.77723000  1.0
  H  H82  1  0.97372000  0.01952000  0.22277000  1.0
  H  H83  1  0.52628000  0.98048000  0.72277000  1.0
  H  H84  1  0.49628000  0.75000000  0.49106000  1.0
  H  H85  1  0.00372000  0.25000000  0.99106000  1.0
  H  H86  1  0.99628000  0.75000000  0.00894000  1.0
  H  H87  1  0.50372000  0.25000000  0.50894000  1.0
  H  H88  1  0.53706000  0.63873000  0.34590000  1.0
  H  H89  1  0.96294000  0.36127000  0.84590000  1.0
  H  H90  1  0.03706000  0.86127000  0.15410000  1.0
  H  H91  1  0.46294000  0.13873000  0.65410000  1.0
  H  H92  1  0.46294000  0.36127000  0.65410000  1.0
  H  H93  1  0.03706000  0.63873000  0.15410000  1.0
  H  H94  1  0.96294000  0.13873000  0.84590000  1.0
  H  H95  1  0.53706000  0.86127000  0.34590000  1.0
  H  H96  1  0.29707000  0.44264000  0.01243000  1.0
  H  H97  1  0.20293000  0.55735000  0.51243000  1.0
  H  H98  1  0.79706000  0.05736000  0.48757000  1.0
  H  H99  1  0.70294000  0.94264000  0.98757000  1.0
  H  H100  1  0.70294000  0.55736000  0.98757000  1.0
  H  H101  1  0.79706000  0.44264000  0.48757000  1.0
  H  H102  1  0.20294000  0.94265000  0.51243000  1.0
  H  H103  1  0.29707000  0.05735000  0.01243000  1.0
  H  H104  1  0.48807000  0.50232000  0.89742000  1.0
  H  H105  1  0.01193000  0.49768000  0.39742000  1.0
  H  H106  1  0.98807000  0.99768000  0.60258000  1.0
  H  H107  1  0.51193000  0.00232000  0.10258000  1.0
  H  H108  1  0.51193000  0.49768000  0.10258000  1.0
  H  H109  1  0.98807000  0.50232000  0.60258000  1.0
  H  H110  1  0.01193000  0.00233000  0.39742000  1.0
  H  H111  1  0.48807000  0.99767000  0.89742000  1.0
  H  H112  1  0.22653000  0.57410000  0.88230000  1.0
  H  H113  1  0.27347000  0.42590000  0.38230000  1.0
  H  H114  1  0.72653000  0.92590000  0.61770000  1.0
  H  H115  1  0.77347000  0.07410000  0.11770000  1.0
  H  H116  1  0.77347000  0.42590000  0.11770000  1.0
  H  H117  1  0.72653000  0.57410000  0.61770000  1.0
  H  H118  1  0.27347000  0.07410000  0.38230000  1.0
  H  H119  1  0.22653000  0.92590000  0.88230000  1.0
  H  H120  1  0.20843000  0.61058000  0.67270000  1.0
  H  H121  1  0.29157000  0.38942000  0.17270000  1.0
  H  H122  1  0.70843000  0.88942000  0.82730000  1.0
  H  H123  1  0.79157000  0.11058000  0.32730000  1.0
  H  H124  1  0.79157000  0.38942000  0.32730000  1.0
  H  H125  1  0.70843000  0.61058000  0.82730000  1.0
  H  H126  1  0.29157000  0.11058000  0.17270000  1.0
  H  H127  1  0.20843000  0.88942000  0.67270000  1.0
  H  H128  1  0.11595000  0.58659000  0.70966000  1.0
  H  H129  1  0.38405000  0.41341000  0.20966000  1.0
  H  H130  1  0.61595000  0.91342000  0.79034000  1.0
  H  H131  1  0.88405000  0.08659000  0.29034000  1.0
  H  H132  1  0.88405000  0.41341000  0.29034000  1.0
  H  H133  1  0.61595000  0.58659000  0.79034000  1.0
  H  H134  1  0.38405000  0.08659000  0.20966000  1.0
  H  H135  1  0.11595000  0.91341000  0.70966000  1.0
  H  H136  1  0.21461000  0.60881000  0.74268000  1.0
  H  H137  1  0.28539000  0.39119000  0.24268000  1.0
  H  H138  1  0.71462000  0.89119000  0.75732000  1.0
  H  H139  1  0.78539000  0.10881000  0.25732000  1.0
  H  H140  1  0.78539000  0.39119000  0.25732000  1.0
  H  H141  1  0.71462000  0.60881000  0.75732000  1.0
  H  H142  1  0.28539000  0.10881000  0.24268000  1.0
  H  H143  1  0.21461000  0.89119000  0.74268000  1.0
  C  C144  1  0.32077000  0.65925000  0.57130000  1.0
  C  C145  1  0.17923000  0.34075000  0.07130000  1.0
  C  C146  1  0.82077000  0.84075000  0.92870000  1.0
  C  C147  1  0.67923000  0.15925000  0.42870000  1.0
  C  C148  1  0.67923000  0.34075000  0.42870000  1.0
  C  C149  1  0.82077000  0.65926000  0.92870000  1.0
  C  C150  1  0.17923000  0.15925000  0.07130000  1.0
  C  C151  1  0.32077000  0.84075000  0.57130000  1.0
  C  C152  1  0.37641000  0.63745000  0.61579000  1.0
  C  C153  1  0.12359000  0.36255000  0.11579000  1.0
  C  C154  1  0.87641000  0.86255000  0.88421000  1.0
  C  C155  1  0.62359000  0.13745000  0.38421000  1.0
  C  C156  1  0.62359000  0.36255000  0.38421000  1.0
  C  C157  1  0.87641000  0.63745000  0.88421000  1.0
  C  C158  1  0.12359000  0.13745000  0.11579000  1.0
  C  C159  1  0.37641000  0.86255000  0.61579000  1.0
  C  C160  1  0.46881000  0.58170000  0.66312000  1.0
  C  C161  1  0.03120000  0.41830000  0.16312000  1.0
  C  C162  1  0.96881000  0.91830000  0.83688000  1.0
  C  C163  1  0.53119000  0.08170000  0.33688000  1.0
  C  C164  1  0.53119000  0.41830000  0.33688000  1.0
  C  C165  1  0.96881000  0.58170000  0.83688000  1.0
  C  C166  1  0.03120000  0.08170000  0.16312000  1.0
  C  C167  1  0.46881000  0.91830000  0.66312000  1.0
  C  C168  1  0.53486000  0.53128000  0.68072000  1.0
  C  C169  1  0.96514000  0.46872000  0.18072000  1.0
  C  C170  1  0.03486000  0.96872000  0.81928000  1.0
  C  C171  1  0.46514000  0.03128000  0.31928000  1.0
  C  C172  1  0.46514000  0.46872000  0.31928000  1.0
  C  C173  1  0.03486000  0.53128000  0.81928000  1.0
  C  C174  1  0.96514000  0.03128000  0.18072000  1.0
  C  C175  1  0.53486000  0.96872000  0.68072000  1.0
  C  C176  1  0.50813000  0.61959000  0.45058000  1.0
  C  C177  1  0.99187000  0.38041000  0.95058000  1.0
  C  C178  1  0.00814000  0.88041000  0.04942000  1.0
  C  C179  1  0.49186000  0.11959000  0.54942000  1.0
  C  C180  1  0.49186000  0.38041000  0.54942000  1.0
  C  C181  1  0.00813000  0.61959000  0.04941000  1.0
  C  C182  1  0.99186000  0.11959000  0.95058000  1.0
  C  C183  1  0.50813000  0.88041000  0.45058000  1.0
  C  C184  1  0.51467000  0.68725000  0.42154000  1.0
  C  C185  1  0.98532000  0.31275000  0.92154000  1.0
  C  C186  1  0.01467000  0.81275000  0.07846000  1.0
  C  C187  1  0.48533000  0.18725000  0.57846000  1.0
  C  C188  1  0.48533000  0.31275000  0.57846000  1.0
  C  C189  1  0.01467000  0.68725000  0.07846000  1.0
  C  C190  1  0.98532000  0.18725000  0.92154000  1.0
  C  C191  1  0.51467000  0.81275000  0.42154000  1.0
  C  C192  1  0.50680000  0.75000000  0.44859000  1.0
  C  C193  1  0.99320000  0.25000000  0.94859000  1.0
  C  C194  1  0.00680000  0.75000000  0.05141000  1.0
  C  C195  1  0.49320000  0.25000000  0.55142000  1.0
  C  C196  1  0.52960000  0.68745000  0.36696000  1.0
  C  C197  1  0.97040000  0.31255000  0.86696000  1.0
  C  C198  1  0.02960000  0.81255000  0.13304000  1.0
  C  C199  1  0.47040000  0.18746000  0.63304000  1.0
  C  C200  1  0.47040000  0.31255000  0.63304000  1.0
  C  C201  1  0.02960000  0.68746000  0.13304000  1.0
  C  C202  1  0.97040000  0.18746000  0.86695000  1.0
  C  C203  1  0.52960000  0.81254000  0.36696000  1.0
  C  C204  1  0.53607000  0.75000000  0.33989000  1.0
  C  C205  1  0.96393000  0.25000000  0.83989000  1.0
  C  C206  1  0.03607000  0.75000000  0.16011000  1.0
  C  C207  1  0.46393000  0.25000000  0.66011000  1.0
  C  C208  1  0.16043000  0.50984000  0.96864000  1.0
  C  C209  1  0.33958000  0.49016000  0.46864000  1.0
  C  C210  1  0.66042000  0.99015000  0.53136000  1.0
  C  C211  1  0.83958000  0.00984000  0.03136000  1.0
  C  C212  1  0.83958000  0.49015000  0.03136000  1.0
  C  C213  1  0.66042000  0.50984000  0.53136000  1.0
  C  C214  1  0.33958000  0.00984000  0.46864000  1.0
  C  C215  1  0.16042000  0.99016000  0.96864000  1.0
  C  C216  1  0.25181000  0.50786000  0.94902000  1.0
  C  C217  1  0.24819000  0.49213000  0.44902000  1.0
  C  C218  1  0.75181000  0.99213000  0.55098000  1.0
  C  C219  1  0.74819000  0.00787000  0.05098000  1.0
  C  C220  1  0.74819000  0.49213000  0.05098000  1.0
  C  C221  1  0.75181000  0.50786000  0.55098000  1.0
  C  C222  1  0.24819000  0.00787000  0.44902000  1.0
  C  C223  1  0.25181000  0.99214000  0.94903000  1.0
  C  C224  1  0.31411000  0.46989000  0.97635000  1.0
  C  C225  1  0.18590000  0.53011000  0.47635000  1.0
  C  C226  1  0.81410000  0.03011000  0.52365000  1.0
  C  C227  1  0.68590000  0.96989000  0.02365000  1.0
  C  C228  1  0.68590000  0.53011000  0.02365000  1.0
  C  C229  1  0.81410000  0.46989000  0.52365000  1.0
  C  C230  1  0.18590000  0.96989000  0.47635000  1.0
  C  C231  1  0.31411000  0.03011000  0.97635000  1.0
  C  C232  1  0.39870000  0.46682000  0.95757000  1.0
  C  C233  1  0.10130000  0.53318000  0.45757000  1.0
  C  C234  1  0.89870000  0.03318000  0.54243000  1.0
  C  C235  1  0.60130000  0.96682000  0.04243000  1.0
  C  C236  1  0.60130000  0.53318000  0.04243000  1.0
  C  C237  1  0.89870000  0.46682000  0.54243000  1.0
  C  C238  1  0.10130000  0.96682000  0.45757000  1.0
  C  C239  1  0.39870000  0.03318000  0.95757000  1.0
  C  C240  1  0.42191000  0.50293000  0.91197000  1.0
  C  C241  1  0.07809000  0.49707000  0.41197000  1.0
  C  C242  1  0.92191000  0.99707000  0.58803000  1.0
  C  C243  1  0.57809000  0.00293000  0.08803000  1.0
  C  C244  1  0.57809000  0.49707000  0.08803000  1.0
  C  C245  1  0.92191000  0.50293000  0.58803000  1.0
  C  C246  1  0.07809000  0.00293000  0.41197000  1.0
  C  C247  1  0.42191000  0.99707000  0.91197000  1.0
  C  C248  1  0.35949000  0.54168000  0.88502000  1.0
  C  C249  1  0.14051000  0.45832000  0.38502000  1.0
  C  C250  1  0.85949000  0.95832000  0.61498000  1.0
  C  C251  1  0.64051000  0.04168000  0.11498000  1.0
  C  C252  1  0.64051000  0.45832000  0.11498000  1.0
  C  C253  1  0.85949000  0.54168000  0.61498000  1.0
  C  C254  1  0.14051000  0.04168000  0.38502000  1.0
  C  C255  1  0.35949000  0.95832000  0.88502000  1.0
  C  C256  1  0.27450000  0.54366000  0.90321000  1.0
  C  C257  1  0.22550000  0.45634000  0.40321000  1.0
  C  C258  1  0.77450000  0.95634000  0.59679000  1.0
  C  C259  1  0.72550000  0.04366000  0.09679000  1.0
  C  C260  1  0.72550000  0.45633000  0.09679000  1.0
  C  C261  1  0.77450000  0.54366000  0.59679000  1.0
  C  C262  1  0.22550000  0.04366000  0.40321000  1.0
  C  C263  1  0.27450000  0.95634000  0.90321000  1.0
  C  C264  1  0.38377000  0.58395000  0.83818000  1.0
  C  C265  1  0.11623000  0.41605000  0.33818000  1.0
  C  C266  1  0.88377000  0.91605000  0.66182000  1.0
  C  C267  1  0.61623000  0.08395000  0.16182000  1.0
  C  C268  1  0.61623000  0.41605000  0.16182000  1.0
  C  C269  1  0.88377000  0.58395000  0.66182000  1.0
  C  C270  1  0.11623000  0.08395000  0.33818000  1.0
  C  C271  1  0.38377000  0.91605000  0.83818000  1.0
  C  C272  1  0.17216000  0.62076000  0.70907000  1.0
  C  C273  1  0.32784000  0.37924000  0.20907000  1.0
  C  C274  1  0.67216000  0.87924000  0.79093000  1.0
  C  C275  1  0.82784000  0.12076000  0.29093000  1.0
  C  C276  1  0.82784000  0.37924000  0.29093000  1.0
  C  C277  1  0.67216000  0.62076000  0.79093000  1.0
  C  C278  1  0.32784000  0.12076000  0.20907000  1.0
  C  C279  1  0.17216000  0.87924000  0.70907000  1.0
  C  C280  1  0.14386000  0.69390000  0.71125000  1.0
  C  C281  1  0.35614000  0.30610000  0.21125000  1.0
  C  C282  1  0.64386000  0.80610000  0.78875000  1.0
  C  C283  1  0.85614000  0.19390000  0.28875000  1.0
  C  C284  1  0.85614000  0.30610000  0.28875000  1.0
  C  C285  1  0.64386000  0.69390000  0.78875000  1.0
  C  C286  1  0.35614000  0.19390000  0.21125000  1.0
  C  C287  1  0.14386000  0.80610000  0.71125000  1.0
  N  N288  1  0.37514000  0.66559000  0.66393000  1.0
  N  N289  1  0.12486000  0.33441000  0.16393000  1.0
  N  N290  1  0.87514000  0.83441000  0.83607000  1.0
  N  N291  1  0.62486000  0.16559000  0.33607000  1.0
  N  N292  1  0.62486000  0.33441000  0.33607000  1.0
  N  N293  1  0.87514000  0.66559000  0.83607000  1.0
  N  N294  1  0.12486000  0.16559000  0.16393000  1.0
  N  N295  1  0.37514000  0.83441000  0.66393000  1.0
  N  N296  1  0.43410000  0.63011000  0.69410000  1.0
  N  N297  1  0.06591000  0.36988000  0.19410000  1.0
  N  N298  1  0.93410000  0.86989000  0.80590000  1.0
  N  N299  1  0.56591000  0.13012000  0.30590000  1.0
  N  N300  1  0.56591000  0.36988000  0.30590000  1.0
  N  N301  1  0.93410000  0.63011000  0.80590000  1.0
  N  N302  1  0.06591000  0.13012000  0.19410000  1.0
  N  N303  1  0.43410000  0.86988000  0.69410000  1.0
  N  N304  1  0.43435000  0.58516000  0.61397000  1.0
  N  N305  1  0.06565000  0.41484000  0.11397000  1.0
  N  N306  1  0.93436000  0.91484000  0.88603000  1.0
  N  N307  1  0.56565000  0.08516000  0.38603000  1.0
  N  N308  1  0.56565000  0.41484000  0.38603000  1.0
  N  N309  1  0.93435000  0.58516000  0.88603000  1.0
  N  N310  1  0.06565000  0.08516000  0.11397000  1.0
  N  N311  1  0.43435000  0.91484000  0.61397000  1.0
  N  N312  1  0.19599000  0.75000000  0.70463000  1.0
  N  N313  1  0.30401000  0.25000000  0.20463000  1.0
  N  N314  1  0.69599000  0.75000000  0.79537000  1.0
  N  N315  1  0.80401000  0.25000000  0.29537000  1.0
  N  N316  1  0.06368000  0.71445000  0.72116000  1.0
  N  N317  1  0.43632000  0.28555000  0.22116000  1.0
  N  N318  1  0.56368000  0.78555000  0.77884000  1.0
  N  N319  1  0.93632000  0.21445000  0.27884000  1.0
  N  N320  1  0.93632000  0.28555000  0.27884000  1.0
  N  N321  1  0.56368000  0.71445000  0.77884000  1.0
  N  N322  1  0.43632000  0.21445000  0.22116000  1.0
  N  N323  1  0.06368000  0.78555000  0.72116000  1.0
  O  O324  1  0.48639000  0.62159000  0.49901000  1.0
  O  O325  1  0.01361000  0.37842000  0.99900000  1.0
  O  O326  1  0.98639000  0.87842000  0.00099000  1.0
  O  O327  1  0.51361000  0.12158000  0.50099000  1.0
  O  O328  1  0.51361000  0.37841000  0.50099000  1.0
  O  O329  1  0.98639000  0.62159000  0.00099000  1.0
  O  O330  1  0.01361000  0.12158000  0.99900000  1.0
  O  O331  1  0.48639000  0.87841000  0.49901000  1.0
  O  O332  1  0.52489000  0.56509000  0.42424000  1.0
  O  O333  1  0.97511000  0.43491000  0.92424000  1.0
  O  O334  1  0.02489000  0.93491000  0.07576000  1.0
  O  O335  1  0.47511000  0.06509000  0.57576000  1.0
  O  O336  1  0.47511000  0.43491000  0.57576000  1.0
  O  O337  1  0.02489000  0.56509000  0.07576000  1.0
  O  O338  1  0.97511000  0.06509000  0.92423000  1.0
  O  O339  1  0.52489000  0.93491000  0.42424000  1.0
  O  O340  1  0.10500000  0.53849000  0.93893000  1.0
  O  O341  1  0.39500000  0.46151000  0.43893000  1.0
  O  O342  1  0.60500000  0.96151000  0.56107000  1.0
  O  O343  1  0.89500000  0.03849000  0.06107000  1.0
  O  O344  1  0.89500000  0.46150000  0.06107000  1.0
  O  O345  1  0.60500000  0.53850000  0.56107000  1.0
  O  O346  1  0.39500000  0.03850000  0.43893000  1.0
  O  O347  1  0.10500000  0.96150000  0.93893000  1.0
  O  O348  1  0.14564000  0.48206000  0.01331000  1.0
  O  O349  1  0.35436000  0.51793000  0.51331000  1.0
  O  O350  1  0.64564000  0.01793000  0.48669000  1.0
  O  O351  1  0.85436000  0.98206000  0.98668000  1.0
  O  O352  1  0.85436000  0.51793000  0.98669000  1.0
  O  O353  1  0.64564000  0.48207000  0.48669000  1.0
  O  O354  1  0.35436000  0.98206000  0.51331000  1.0
  O  O355  1  0.14564000  0.01794000  0.01332000  1.0
  O  O356  1  0.32815000  0.61989000  0.81398000  1.0
  O  O357  1  0.17185000  0.38011000  0.31398000  1.0
  O  O358  1  0.82814000  0.88011000  0.68602000  1.0
  O  O359  1  0.67186000  0.11989000  0.18602000  1.0
  O  O360  1  0.67185000  0.38011000  0.18602000  1.0
  O  O361  1  0.82815000  0.61989000  0.68602000  1.0
  O  O362  1  0.17185000  0.11989000  0.31398000  1.0
  O  O363  1  0.32815000  0.88011000  0.81398000  1.0
  O  O364  1  0.46418000  0.58500000  0.82392000  1.0
  O  O365  1  0.03582000  0.41500000  0.32391000  1.0
  O  O366  1  0.96418000  0.91500000  0.67609000  1.0
  O  O367  1  0.53582000  0.08500000  0.17608000  1.0
  O  O368  1  0.53582000  0.41500000  0.17608000  1.0
  O  O369  1  0.96418000  0.58500000  0.67609000  1.0
  O  O370  1  0.03582000  0.08500000  0.32392000  1.0
  O  O371  1  0.46418000  0.91500000  0.82392000  1.0
  O  O372  1  0.38133000  0.75000000  0.76493000  1.0
  O  O373  1  0.11867000  0.25000000  0.26493000  1.0
  O  O374  1  0.88133000  0.75000000  0.73507000  1.0
  O  O375  1  0.61867000  0.25000000  0.23507000  1.0
  O  O376  1  0.55478000  0.75000000  0.28595000  1.0
  O  O377  1  0.94522000  0.25000000  0.78594000  1.0
  O  O378  1  0.05478000  0.75000000  0.21405000  1.0
  O  O379  1  0.44522000  0.25000000  0.71405000  1.0
  O  O380  1  0.45606000  0.42788000  0.98621000  1.0
  O  O381  1  0.04394000  0.57212000  0.48621000  1.0
  O  O382  1  0.95606000  0.07212000  0.51379000  1.0
  O  O383  1  0.54394000  0.92788000  0.01379000  1.0
  O  O384  1  0.54394000  0.57212000  0.01379000  1.0
  O  O385  1  0.95606000  0.42788000  0.51379000  1.0
  O  O386  1  0.04394000  0.92788000  0.48621000  1.0
  O  O387  1  0.45606000  0.07212000  0.98621000  1.0
