# generated using pymatgen
data_H16PbC14N6O7
_symmetry_space_group_name_H-M   'P 1'
_cell_length_a   7.55606000
_cell_length_b   10.50120000
_cell_length_c   29.28690000
_cell_angle_alpha   89.99950000
_cell_angle_beta   96.10250000
_cell_angle_gamma   89.99980000
_symmetry_Int_Tables_number   1
_chemical_formula_structural   H16PbC14N6O7
_chemical_formula_sum   'H64 Pb4 C56 N24 O28'
_cell_volume   2310.67954044
_cell_formula_units_Z   4
loop_
 _symmetry_equiv_pos_site_id
 _symmetry_equiv_pos_as_xyz
  1  'x, y, z'
loop_
 _atom_site_type_symbol
 _atom_site_label
 _atom_site_symmetry_multiplicity
 _atom_site_fract_x
 _atom_site_fract_y
 _atom_site_fract_z
 _atom_site_occupancy
  H  H0  1  0.33260000  0.59101000  0.20502000  1.0
  H  H1  1  0.16739000  0.59100000  0.79498000  1.0
  H  H2  1  0.66735000  0.40899000  0.79498000  1.0
  H  H3  1  0.83262000  0.40898000  0.20502000  1.0
  H  H4  1  0.38418000  0.68845000  0.13042000  1.0
  H  H5  1  0.11583000  0.68844000  0.86958000  1.0
  H  H6  1  0.61579000  0.31155000  0.86959000  1.0
  H  H7  1  0.88418000  0.31154000  0.13041000  1.0
  H  H8  1  0.44094000  0.30850000  0.07725000  1.0
  H  H9  1  0.05905000  0.30848000  0.92275000  1.0
  H  H10  1  0.55908000  0.69151000  0.92276000  1.0
  H  H11  1  0.94093000  0.69149000  0.07724000  1.0
  H  H12  1  0.39249000  0.22632000  0.15582000  1.0
  H  H13  1  0.10748000  0.22631000  0.84418000  1.0
  H  H14  1  0.60752000  0.77369000  0.84419000  1.0
  H  H15  1  0.89250000  0.77368000  0.15581000  1.0
  H  H16  1  0.47920000  0.72372000  0.01070000  1.0
  H  H17  1  0.02082000  0.72370000  0.98930000  1.0
  H  H18  1  0.52083000  0.27629000  0.98930000  1.0
  H  H19  1  0.97919000  0.27627000  0.01070000  1.0
  H  H20  1  0.54935000  0.74491000  0.07055000  1.0
  H  H21  1  0.95066000  0.74491000  0.92945000  1.0
  H  H22  1  0.45066000  0.25509000  0.92946000  1.0
  H  H23  1  0.04935000  0.25508000  0.07054000  1.0
  H  H24  1  0.31922000  0.73846000  0.05139000  1.0
  H  H25  1  0.18080000  0.73844000  0.94861000  1.0
  H  H26  1  0.68080000  0.26155000  0.94861000  1.0
  H  H27  1  0.81922000  0.26153000  0.05139000  1.0
  H  H28  1  0.31849000  0.98372000  0.30895000  1.0
  H  H29  1  0.18153000  0.98371000  0.69105000  1.0
  H  H30  1  0.68153000  0.01629000  0.69105000  1.0
  H  H31  1  0.81848000  0.01628000  0.30894000  1.0
  H  H32  1  0.22000000  0.86107000  0.37355000  1.0
  H  H33  1  0.28002000  0.86107000  0.62645000  1.0
  H  H34  1  0.78002000  0.13893000  0.62646000  1.0
  H  H35  1  0.72000000  0.13894000  0.37354000  1.0
  H  H36  1  0.06948000  0.21773000  0.43255000  1.0
  H  H37  1  0.43051000  0.21774000  0.56745000  1.0
  H  H38  1  0.93049000  0.78227000  0.56744000  1.0
  H  H39  1  0.56952000  0.78227000  0.43256000  1.0
  H  H40  1  0.16867000  0.32665000  0.36396000  1.0
  H  H41  1  0.33131000  0.32665000  0.63604000  1.0
  H  H42  1  0.83131000  0.67335000  0.63604000  1.0
  H  H43  1  0.66871000  0.67335000  0.36396000  1.0
  H  H44  1  0.23414000  0.78973000  0.45237000  1.0
  H  H45  1  0.26587000  0.78973000  0.54763000  1.0
  H  H46  1  0.76586000  0.21028000  0.54763000  1.0
  H  H47  1  0.73414000  0.21029000  0.45237000  1.0
  H  H48  1  0.02692000  0.77717000  0.41869000  1.0
  H  H49  1  0.47309000  0.77718000  0.58131000  1.0
  H  H50  1  0.97307000  0.22283000  0.58131000  1.0
  H  H51  1  0.52692000  0.22283000  0.41869000  1.0
  H  H52  1  0.03429000  0.78068000  0.48001000  1.0
  H  H53  1  0.46572000  0.78069000  0.51999000  1.0
  H  H54  1  0.96570000  0.21932000  0.51999000  1.0
  H  H55  1  0.53430000  0.21933000  0.48001000  1.0
  H  H56  1  0.67785000  0.13708000  0.23566000  1.0
  H  H57  1  0.82214000  0.13708000  0.76434000  1.0
  H  H58  1  0.32214000  0.86293000  0.76434000  1.0
  H  H59  1  0.17785000  0.86293000  0.23566000  1.0
  H  H60  1  0.49174000  0.06539000  0.22907000  1.0
  H  H61  1  0.00825000  0.06538000  0.77093000  1.0
  H  H62  1  0.50825000  0.93462000  0.77093000  1.0
  H  H63  1  0.99174000  0.93462000  0.22906000  1.0
  Pb  Pb64  1  0.37548000  0.31705000  0.27015000  1.0
  Pb  Pb65  1  0.12452000  0.31704000  0.72986000  1.0
  Pb  Pb66  1  0.62450000  0.68295000  0.72986000  1.0
  Pb  Pb67  1  0.87548000  0.68296000  0.27014000  1.0
  C  C68  1  0.35663000  0.53139000  0.17579000  1.0
  C  C69  1  0.14337000  0.53138000  0.82421000  1.0
  C  C70  1  0.64335000  0.46862000  0.82421000  1.0
  C  C71  1  0.85664000  0.46861000  0.17579000  1.0
  C  C72  1  0.38573000  0.58520000  0.13371000  1.0
  C  C73  1  0.11427000  0.58519000  0.86629000  1.0
  C  C74  1  0.61425000  0.41481000  0.86630000  1.0
  C  C75  1  0.88574000  0.41479000  0.13370000  1.0
  C  C76  1  0.41810000  0.50573000  0.09700000  1.0
  C  C77  1  0.08190000  0.50572000  0.90300000  1.0
  C  C78  1  0.58190000  0.49427000  0.90301000  1.0
  C  C79  1  0.91809000  0.49426000  0.09699000  1.0
  C  C80  1  0.41731000  0.37351000  0.10491000  1.0
  C  C81  1  0.08269000  0.37350000  0.89509000  1.0
  C  C82  1  0.58270000  0.62650000  0.89510000  1.0
  C  C83  1  0.91731000  0.62648000  0.10490000  1.0
  C  C84  1  0.38890000  0.32792000  0.14800000  1.0
  C  C85  1  0.11108000  0.32792000  0.85200000  1.0
  C  C86  1  0.61110000  0.67208000  0.85201000  1.0
  C  C87  1  0.88891000  0.67207000  0.14799000  1.0
  C  C88  1  0.45271000  0.55825000  0.05197000  1.0
  C  C89  1  0.04730000  0.55824000  0.94803000  1.0
  C  C90  1  0.54730000  0.44175000  0.94804000  1.0
  C  C91  1  0.95270000  0.44174000  0.05196000  1.0
  C  C92  1  0.45011000  0.69981000  0.04544000  1.0
  C  C93  1  0.04991000  0.69980000  0.95457000  1.0
  C  C94  1  0.54991000  0.30019000  0.95457000  1.0
  C  C95  1  0.95010000  0.30018000  0.04543000  1.0
  C  C96  1  0.26184000  0.03278000  0.33688000  1.0
  C  C97  1  0.23817000  0.03278000  0.66312000  1.0
  C  C98  1  0.73817000  0.96722000  0.66312000  1.0
  C  C99  1  0.76183000  0.96722000  0.33688000  1.0
  C  C100  1  0.20668000  0.96421000  0.37354000  1.0
  C  C101  1  0.29334000  0.96421000  0.62646000  1.0
  C  C102  1  0.79333000  0.03579000  0.62646000  1.0
  C  C103  1  0.70668000  0.03579000  0.37353000  1.0
  C  C104  1  0.13739000  0.02972000  0.40941000  1.0
  C  C105  1  0.36262000  0.02972000  0.59059000  1.0
  C  C106  1  0.86260000  0.97029000  0.59059000  1.0
  C  C107  1  0.63741000  0.97029000  0.40941000  1.0
  C  C108  1  0.12342000  0.16294000  0.40572000  1.0
  C  C109  1  0.37657000  0.16294000  0.59428000  1.0
  C  C110  1  0.87656000  0.83706000  0.59429000  1.0
  C  C111  1  0.62345000  0.83706000  0.40572000  1.0
  C  C112  1  0.17962000  0.22343000  0.36771000  1.0
  C  C113  1  0.32038000  0.22343000  0.63229000  1.0
  C  C114  1  0.82037000  0.77658000  0.63229000  1.0
  C  C115  1  0.67964000  0.77658000  0.36771000  1.0
  C  C116  1  0.08085000  0.96079000  0.44940000  1.0
  C  C117  1  0.41915000  0.96080000  0.55060000  1.0
  C  C118  1  0.91914000  0.03921000  0.55060000  1.0
  C  C119  1  0.58086000  0.03921000  0.44940000  1.0
  C  C120  1  0.09353000  0.81859000  0.45041000  1.0
  C  C121  1  0.40647000  0.81860000  0.54959000  1.0
  C  C122  1  0.90646000  0.18141000  0.54959000  1.0
  C  C123  1  0.59354000  0.18142000  0.45040000  1.0
  N  N124  1  0.35956000  0.40538000  0.18307000  1.0
  N  N125  1  0.14043000  0.40537000  0.81693000  1.0
  N  N126  1  0.64042000  0.59463000  0.81694000  1.0
  N  N127  1  0.85958000  0.59461000  0.18306000  1.0
  N  N128  1  0.25009000  0.16011000  0.33387000  1.0
  N  N129  1  0.24991000  0.16011000  0.66613000  1.0
  N  N130  1  0.74991000  0.83989000  0.66613000  1.0
  N  N131  1  0.75011000  0.83989000  0.33387000  1.0
  N  N132  1  0.48455000  0.47472000  0.02086000  1.0
  N  N133  1  0.01544000  0.47470000  0.97914000  1.0
  N  N134  1  0.51545000  0.52529000  0.97914000  1.0
  N  N135  1  0.98454000  0.52527000  0.02085000  1.0
  N  N136  1  0.02457000  0.03246000  0.48131000  1.0
  N  N137  1  0.47544000  0.03247000  0.51869000  1.0
  N  N138  1  0.97542000  0.96754000  0.51869000  1.0
  N  N139  1  0.52458000  0.96754000  0.48130000  1.0
  N  N140  1  0.01817000  0.17088000  0.23646000  1.0
  N  N141  1  0.48181000  0.17087000  0.76354000  1.0
  N  N142  1  0.98182000  0.82913000  0.76354000  1.0
  N  N143  1  0.51818000  0.82913000  0.23646000  1.0
  N  N144  1  0.74598000  0.41708000  0.31549000  1.0
  N  N145  1  0.75401000  0.41708000  0.68451000  1.0
  N  N146  1  0.25401000  0.58292000  0.68451000  1.0
  N  N147  1  0.24598000  0.58292000  0.31549000  1.0
  O  O148  1  0.16573000  0.14519000  0.22157000  1.0
  O  O149  1  0.33426000  0.14517000  0.77843000  1.0
  O  O150  1  0.83426000  0.85482000  0.77843000  1.0
  O  O151  1  0.66573000  0.85483000  0.22156000  1.0
  O  O152  1  0.89453000  0.08693000  0.23223000  1.0
  O  O153  1  0.60546000  0.08693000  0.76777000  1.0
  O  O154  1  0.10546000  0.91307000  0.76777000  1.0
  O  O155  1  0.39454000  0.91307000  0.23223000  1.0
  O  O156  1  0.99354000  0.27588000  0.25537000  1.0
  O  O157  1  0.50643000  0.27587000  0.74464000  1.0
  O  O158  1  0.00644000  0.72413000  0.74463000  1.0
  O  O159  1  0.49357000  0.72413000  0.25537000  1.0
  O  O160  1  0.68263000  0.45454000  0.27499000  1.0
  O  O161  1  0.81736000  0.45454000  0.72501000  1.0
  O  O162  1  0.31737000  0.54546000  0.72501000  1.0
  O  O163  1  0.18262000  0.54546000  0.27499000  1.0
  O  O164  1  0.86829000  0.47983000  0.33754000  1.0
  O  O165  1  0.63171000  0.47983000  0.66246000  1.0
  O  O166  1  0.13171000  0.52018000  0.66246000  1.0
  O  O167  1  0.36829000  0.52018000  0.33754000  1.0
  O  O168  1  0.68093000  0.31867000  0.33199000  1.0
  O  O169  1  0.81906000  0.31866000  0.66801000  1.0
  O  O170  1  0.31906000  0.68134000  0.66801000  1.0
  O  O171  1  0.18093000  0.68134000  0.33199000  1.0
  O  O172  1  0.54717000  0.15114000  0.23174000  1.0
  O  O173  1  0.95283000  0.15114000  0.76826000  1.0
  O  O174  1  0.45283000  0.84886000  0.76826000  1.0
  O  O175  1  0.04716000  0.84886000  0.23174000  1.0
