# generated using pymatgen
data_CoH8C12(NO2)2
_symmetry_space_group_name_H-M   'P 1'
_cell_length_a   5.38682000
_cell_length_b   8.10184000
_cell_length_c   8.18768032
_cell_angle_alpha   84.24374570
_cell_angle_beta   71.09748712
_cell_angle_gamma   72.62190000
_symmetry_Int_Tables_number   1
_chemical_formula_structural   CoH8C12(NO2)2
_chemical_formula_sum   'Co1 H8 C12 N2 O4'
_cell_volume   322.63183827
_cell_formula_units_Z   1
loop_
 _symmetry_equiv_pos_site_id
 _symmetry_equiv_pos_as_xyz
  1  'x, y, z'
loop_
 _atom_site_type_symbol
 _atom_site_label
 _atom_site_symmetry_multiplicity
 _atom_site_fract_x
 _atom_site_fract_y
 _atom_site_fract_z
 _atom_site_occupancy
  Co  Co0  1  0.96205000  0.50001000  0.49996000  1.0
  H  H1  1  0.77655000  0.87211000  0.50555000  1.0
  H  H2  1  0.14706000  0.12788000  0.49453000  1.0
  H  H3  1  0.77100000  0.50595000  0.87150000  1.0
  H  H4  1  0.15208000  0.49409000  0.12846000  1.0
  H  H5  1  0.75944000  0.10720000  0.28863000  1.0
  H  H6  1  0.15927000  0.89269000  0.71145000  1.0
  H  H7  1  0.76164000  0.28905000  0.10676000  1.0
  H  H8  1  0.15634000  0.71093000  0.89323000  1.0
  C  C9  1  0.53804000  0.42958000  0.42969000  1.0
  C  C10  1  0.38605000  0.57054000  0.57023000  1.0
  C  C11  1  0.85871000  0.84380000  0.36789000  1.0
  C  C12  1  0.06347000  0.15617000  0.63218000  1.0
  C  C13  1  0.85377000  0.36806000  0.84340000  1.0
  C  C14  1  0.06802000  0.63193000  0.15657000  1.0
  C  C15  1  0.85175000  0.97395000  0.24457000  1.0
  C  C16  1  0.06779000  0.02596000  0.75553000  1.0
  C  C17  1  0.85060000  0.24475000  0.97366000  1.0
  C  C18  1  0.06855000  0.75520000  0.02635000  1.0
  C  C19  1  0.95936000  0.93243000  0.06758000  1.0
  C  C20  1  0.95897000  0.06747000  0.93250000  1.0
  N  N21  1  0.96490000  0.67416000  0.32598000  1.0
  N  N22  1  0.95835000  0.32586000  0.67400000  1.0
  O  O23  1  0.39869000  0.36890000  0.36728000  1.0
  O  O24  1  0.12432000  0.61754000  0.61521000  1.0
  O  O25  1  0.79974000  0.38247000  0.38472000  1.0
  O  O26  1  0.52529000  0.63130000  0.63261000  1.0
