# generated using pymatgen
data_PrH4C6N2O7
_symmetry_space_group_name_H-M   'P 1'
_cell_length_a   6.85807000
_cell_length_b   11.36680000
_cell_length_c   13.43390000
_cell_angle_alpha   75.21400000
_cell_angle_beta   89.99840000
_cell_angle_gamma   72.47400000
_symmetry_Int_Tables_number   1
_chemical_formula_structural   PrH4C6N2O7
_chemical_formula_sum   'Pr4 H16 C24 N8 O28'
_cell_volume   962.19217979
_cell_formula_units_Z   4
loop_
 _symmetry_equiv_pos_site_id
 _symmetry_equiv_pos_as_xyz
  1  'x, y, z'
loop_
 _atom_site_type_symbol
 _atom_site_label
 _atom_site_symmetry_multiplicity
 _atom_site_fract_x
 _atom_site_fract_y
 _atom_site_fract_z
 _atom_site_occupancy
  Pr  Pr0  1  0.42354000  0.30006000  0.88049000  1.0
  Pr  Pr1  1  0.72404000  0.70000000  0.61953000  1.0
  Pr  Pr2  1  0.57645000  0.69995000  0.11951000  1.0
  Pr  Pr3  1  0.27596000  0.29999000  0.38047000  1.0
  H  H4  1  0.00069000  0.12752000  0.80004000  1.0
  H  H5  1  0.12878000  0.87246000  0.69985000  1.0
  H  H6  1  0.99932000  0.87247000  0.19997000  1.0
  H  H7  1  0.87123000  0.12752000  0.30015000  1.0
  H  H8  1  0.07733000  0.16609000  0.60942000  1.0
  H  H9  1  0.24412000  0.83389000  0.89048000  1.0
  H  H10  1  0.92267000  0.83391000  0.39059000  1.0
  H  H11  1  0.75589000  0.16611000  0.10953000  1.0
  H  H12  1  0.45627000  0.57070000  0.82154000  1.0
  H  H13  1  0.02687000  0.42935000  0.67846000  1.0
  H  H14  1  0.54373000  0.42931000  0.17845000  1.0
  H  H15  1  0.97313000  0.57065000  0.32154000  1.0
  H  H16  1  0.33249000  0.56783000  0.72744000  1.0
  H  H17  1  0.90017000  0.43225000  0.77258000  1.0
  H  H18  1  0.66751000  0.43217000  0.27256000  1.0
  H  H19  1  0.09983000  0.56775000  0.22742000  1.0
  C  C20  1  0.59871000  0.27364000  0.63926000  1.0
  C  C21  1  0.87281000  0.72632000  0.86074000  1.0
  C  C22  1  0.40129000  0.72636000  0.36074000  1.0
  C  C23  1  0.12719000  0.27368000  0.13927000  1.0
  C  C24  1  0.37437000  0.33848000  0.62020000  1.0
  C  C25  1  0.71314000  0.66151000  0.87981000  1.0
  C  C26  1  0.62564000  0.66152000  0.37980000  1.0
  C  C27  1  0.28685000  0.33849000  0.12018000  1.0
  C  C28  1  0.88497000  0.17433000  0.73517000  1.0
  C  C29  1  0.05985000  0.82566000  0.76475000  1.0
  C  C30  1  0.11503000  0.82567000  0.26483000  1.0
  C  C31  1  0.94016000  0.17433000  0.23525000  1.0
  C  C32  1  0.75496000  0.25886000  0.57232000  1.0
  C  C33  1  0.01437000  0.74108000  0.92764000  1.0
  C  C34  1  0.24505000  0.74114000  0.42768000  1.0
  C  C35  1  0.98563000  0.25892000  0.07236000  1.0
  C  C36  1  0.76488000  0.30813000  0.45955000  1.0
  C  C37  1  0.07360000  0.69178000  0.04036000  1.0
  C  C38  1  0.23513000  0.69187000  0.54045000  1.0
  C  C39  1  0.92640000  0.30822000  0.95964000  1.0
  C  C40  1  0.43101000  0.99523000  0.95572000  1.0
  C  C41  1  0.42629000  0.00472000  0.54431000  1.0
  C  C42  1  0.56898000  0.00477000  0.04428000  1.0
  C  C43  1  0.57369000  0.99527000  0.45568000  1.0
  N  N44  1  0.68328000  0.22150000  0.74029000  1.0
  N  N45  1  0.90519000  0.77850000  0.75969000  1.0
  N  N46  1  0.31672000  0.77850000  0.25971000  1.0
  N  N47  1  0.09481000  0.22149000  0.24032000  1.0
  N  N48  1  0.93314000  0.19514000  0.63596000  1.0
  N  N49  1  0.12890000  0.80481000  0.86395000  1.0
  N  N50  1  0.06687000  0.80486000  0.36404000  1.0
  N  N51  1  0.87110000  0.19519000  0.13605000  1.0
  O  O52  1  0.27878000  0.35034000  0.70109000  1.0
  O  O53  1  0.62936000  0.64968000  0.79892000  1.0
  O  O54  1  0.72123000  0.64967000  0.29891000  1.0
  O  O55  1  0.37065000  0.35032000  0.20108000  1.0
  O  O56  1  0.93803000  0.31307000  0.42973000  1.0
  O  O57  1  0.25174000  0.68671000  0.07018000  1.0
  O  O58  1  0.06198000  0.68693000  0.57027000  1.0
  O  O59  1  0.74826000  0.31329000  0.92981000  1.0
  O  O60  1  0.28446000  0.37889000  0.53070000  1.0
  O  O61  1  0.66343000  0.62111000  0.96930000  1.0
  O  O62  1  0.71555000  0.62111000  0.46930000  1.0
  O  O63  1  0.33653000  0.37890000  0.03070000  1.0
  O  O64  1  0.60470000  0.34420000  0.39771000  1.0
  O  O65  1  0.94940000  0.65578000  0.10225000  1.0
  O  O66  1  0.39532000  0.65579000  0.60229000  1.0
  O  O67  1  0.05059000  0.34421000  0.89775000  1.0
  O  O68  1  0.35027000  0.09518000  0.88393000  1.0
  O  O69  1  0.44581000  0.90479000  0.61619000  1.0
  O  O70  1  0.64973000  0.90482000  0.11606000  1.0
  O  O71  1  0.55418000  0.09521000  0.38381000  1.0
  O  O72  1  0.35570000  0.52978000  0.80317000  1.0
  O  O73  1  0.88549000  0.47032000  0.69685000  1.0
  O  O74  1  0.64430000  0.47022000  0.19683000  1.0
  O  O75  1  0.11451000  0.52968000  0.30315000  1.0
  O  O76  1  0.41098000  0.88558000  0.96415000  1.0
  O  O77  1  0.29643000  0.11427000  0.53584000  1.0
  O  O78  1  0.58901000  0.11443000  0.03585000  1.0
  O  O79  1  0.70355000  0.88572000  0.46416000  1.0
