# generated using pymatgen
data_SnH16(C7O)2
_symmetry_space_group_name_H-M   'P 1'
_cell_length_a   9.93932000
_cell_length_b   9.97927000
_cell_length_c   13.86700000
_cell_angle_alpha   101.36700000
_cell_angle_beta   90.00000000
_cell_angle_gamma   90.00000000
_symmetry_Int_Tables_number   1
_chemical_formula_structural   SnH16(C7O)2
_chemical_formula_sum   'Sn4 H64 C56 O8'
_cell_volume   1348.44909193
_cell_formula_units_Z   4
loop_
 _symmetry_equiv_pos_site_id
 _symmetry_equiv_pos_as_xyz
  1  'x, y, z'
loop_
 _atom_site_type_symbol
 _atom_site_label
 _atom_site_symmetry_multiplicity
 _atom_site_fract_x
 _atom_site_fract_y
 _atom_site_fract_z
 _atom_site_occupancy
  Sn  Sn0  1  0.48425000  0.53662000  0.22130000  1.0
  Sn  Sn1  1  0.98425000  0.46338000  0.27870000  1.0
  Sn  Sn2  1  0.51575000  0.46338000  0.77870000  1.0
  Sn  Sn3  1  0.01576000  0.53662000  0.72130000  1.0
  H  H4  1  0.02033000  0.81219000  0.31136000  1.0
  H  H5  1  0.52032000  0.18781000  0.18864000  1.0
  H  H6  1  0.97967000  0.18781000  0.68864000  1.0
  H  H7  1  0.47967000  0.81219000  0.81136000  1.0
  H  H8  1  0.10387000  0.02740000  0.23865000  1.0
  H  H9  1  0.60387000  0.97260000  0.26135000  1.0
  H  H10  1  0.89613000  0.97260000  0.76135000  1.0
  H  H11  1  0.39613000  0.02740000  0.73865000  1.0
  H  H12  1  0.01538000  0.16641000  0.11361000  1.0
  H  H13  1  0.51538000  0.83359000  0.38640000  1.0
  H  H14  1  0.98462000  0.83358000  0.88639000  1.0
  H  H15  1  0.48462000  0.16642000  0.61360000  1.0
  H  H16  1  0.87168000  0.21708000  0.99047000  1.0
  H  H17  1  0.37168000  0.78292000  0.50953000  1.0
  H  H18  1  0.12832000  0.78292000  0.00952000  1.0
  H  H19  1  0.62832000  0.21708000  0.49047000  1.0
  H  H20  1  0.68327000  0.09633000  0.91985000  1.0
  H  H21  1  0.18327000  0.90367000  0.58016000  1.0
  H  H22  1  0.31673000  0.90368000  0.08016000  1.0
  H  H23  1  0.81673000  0.09633000  0.41984000  1.0
  H  H24  1  0.58437000  0.90072000  0.95650000  1.0
  H  H25  1  0.08436000  0.09927000  0.54350000  1.0
  H  H26  1  0.41563000  0.09928000  0.04350000  1.0
  H  H27  1  0.91563000  0.90073000  0.45650000  1.0
  H  H28  1  0.64135000  0.77978000  0.07978000  1.0
  H  H29  1  0.14135000  0.22021000  0.42021000  1.0
  H  H30  1  0.35865000  0.22021000  0.92021000  1.0
  H  H31  1  0.85865000  0.77979000  0.57978000  1.0
  H  H32  1  0.41830000  0.56035000  0.41394000  1.0
  H  H33  1  0.91830000  0.43965000  0.08606000  1.0
  H  H34  1  0.58170000  0.43965000  0.58606000  1.0
  H  H35  1  0.08170000  0.56035000  0.91395000  1.0
  H  H36  1  0.59604000  0.59026000  0.40287000  1.0
  H  H37  1  0.09604000  0.40974000  0.09713000  1.0
  H  H38  1  0.40396000  0.40974000  0.59714000  1.0
  H  H39  1  0.90396000  0.59026000  0.90287000  1.0
  H  H40  1  0.53065000  0.41970000  0.37933000  1.0
  H  H41  1  0.03065000  0.58030000  0.12067000  1.0
  H  H42  1  0.46935000  0.58030000  0.62067000  1.0
  H  H43  1  0.96935000  0.41970000  0.87933000  1.0
  H  H44  1  0.29519000  0.62570000  0.10775000  1.0
  H  H45  1  0.79518000  0.37429000  0.39225000  1.0
  H  H46  1  0.70481000  0.37430000  0.89225000  1.0
  H  H47  1  0.20481000  0.62570000  0.60775000  1.0
  H  H48  1  0.38581000  0.76950000  0.17649000  1.0
  H  H49  1  0.88581000  0.23049000  0.32351000  1.0
  H  H50  1  0.61419000  0.23050000  0.82351000  1.0
  H  H51  1  0.11419000  0.76951000  0.67649000  1.0
  H  H52  1  0.25495000  0.68976000  0.23358000  1.0
  H  H53  1  0.75495000  0.31024000  0.26642000  1.0
  H  H54  1  0.74505000  0.31024000  0.76642000  1.0
  H  H55  1  0.24505000  0.68976000  0.73358000  1.0
  H  H56  1  0.63664000  0.47153000  0.05743000  1.0
  H  H57  1  0.13664000  0.52846000  0.44257000  1.0
  H  H58  1  0.36336000  0.52847000  0.94257000  1.0
  H  H59  1  0.86336000  0.47153000  0.55743000  1.0
  H  H60  1  0.51277000  0.34068000  0.05607000  1.0
  H  H61  1  0.01277000  0.65932000  0.44393000  1.0
  H  H62  1  0.48722000  0.65932000  0.94393000  1.0
  H  H63  1  0.98723000  0.34068000  0.55607000  1.0
  H  H64  1  0.66254000  0.34248000  0.12797000  1.0
  H  H65  1  0.16254000  0.65751000  0.37203000  1.0
  H  H66  1  0.33746000  0.65751000  0.87202000  1.0
  H  H67  1  0.83746000  0.34248000  0.62798000  1.0
  C  C68  1  0.84415000  0.80813000  0.21211000  1.0
  C  C69  1  0.34415000  0.19186000  0.28789000  1.0
  C  C70  1  0.15586000  0.19186000  0.78789000  1.0
  C  C71  1  0.65585000  0.80814000  0.71211000  1.0
  C  C72  1  0.96903000  0.85574000  0.25549000  1.0
  C  C73  1  0.46903000  0.14425000  0.24451000  1.0
  C  C74  1  0.03097000  0.14426000  0.74451000  1.0
  C  C75  1  0.53097000  0.85574000  0.75549000  1.0
  C  C76  1  0.01367000  0.96759000  0.21750000  1.0
  C  C77  1  0.51367000  0.03241000  0.28250000  1.0
  C  C78  1  0.98633000  0.03241000  0.78250000  1.0
  C  C79  1  0.48633000  0.96759000  0.71749000  1.0
  C  C80  1  0.92857000  0.09900000  0.09478000  1.0
  C  C81  1  0.42857000  0.90100000  0.40522000  1.0
  C  C82  1  0.07143000  0.90100000  0.90522000  1.0
  C  C83  1  0.57143000  0.09900000  0.59478000  1.0
  C  C84  1  0.84363000  0.12879000  0.02165000  1.0
  C  C85  1  0.34363000  0.87120000  0.47835000  1.0
  C  C86  1  0.15637000  0.87120000  0.97835000  1.0
  C  C87  1  0.65637000  0.12880000  0.52165000  1.0
  C  C88  1  0.73067000  0.05656000  0.97951000  1.0
  C  C89  1  0.23067000  0.94344000  0.52049000  1.0
  C  C90  1  0.26933000  0.94344000  0.02049000  1.0
  C  C91  1  0.76933000  0.05656000  0.47950000  1.0
  C  C92  1  0.67112000  0.93967000  0.00159000  1.0
  C  C93  1  0.17111000  0.06033000  0.49841000  1.0
  C  C94  1  0.32889000  0.06033000  0.99841000  1.0
  C  C95  1  0.82888000  0.93967000  0.50158000  1.0
  C  C96  1  0.70572000  0.86636000  0.07403000  1.0
  C  C97  1  0.20572000  0.13364000  0.42597000  1.0
  C  C98  1  0.29428000  0.13364000  0.92597000  1.0
  C  C99  1  0.79428000  0.86636000  0.57402000  1.0
  C  C100  1  0.91939000  0.99313000  0.14685000  1.0
  C  C101  1  0.41939000  0.00687000  0.35315000  1.0
  C  C102  1  0.08061000  0.00687000  0.85315000  1.0
  C  C103  1  0.58060000  0.99313000  0.64685000  1.0
  C  C104  1  0.81175000  0.88884000  0.14103000  1.0
  C  C105  1  0.31175000  0.11116000  0.35897000  1.0
  C  C106  1  0.18825000  0.11115000  0.85896000  1.0
  C  C107  1  0.68825000  0.88885000  0.64103000  1.0
  C  C108  1  0.76043000  0.70205000  0.24119000  1.0
  C  C109  1  0.26042000  0.29794000  0.25881000  1.0
  C  C110  1  0.23958000  0.29794000  0.75881000  1.0
  C  C111  1  0.73957000  0.70206000  0.74119000  1.0
  C  C112  1  0.51062000  0.52571000  0.37337000  1.0
  C  C113  1  0.01062000  0.47429000  0.12663000  1.0
  C  C114  1  0.48938000  0.47429000  0.62663000  1.0
  C  C115  1  0.98938000  0.52571000  0.87338000  1.0
  C  C116  1  0.33680000  0.67224000  0.17973000  1.0
  C  C117  1  0.83680000  0.32776000  0.32027000  1.0
  C  C118  1  0.66320000  0.32776000  0.82027000  1.0
  C  C119  1  0.16320000  0.67224000  0.67973000  1.0
  C  C120  1  0.58665000  0.40622000  0.10150000  1.0
  C  C121  1  0.08666000  0.59377000  0.39850000  1.0
  C  C122  1  0.41334000  0.59377000  0.89850000  1.0
  C  C123  1  0.91335000  0.40623000  0.60151000  1.0
  O  O124  1  0.63437000  0.70246000  0.21832000  1.0
  O  O125  1  0.13437000  0.29753000  0.28168000  1.0
  O  O126  1  0.36563000  0.29754000  0.78167000  1.0
  O  O127  1  0.86563000  0.70246000  0.71832000  1.0
  O  O128  1  0.80849000  0.61755000  0.29025000  1.0
  O  O129  1  0.30849000  0.38245000  0.20975000  1.0
  O  O130  1  0.19151000  0.38245000  0.70975000  1.0
  O  O131  1  0.69151000  0.61755000  0.79025000  1.0
