# generated using pymatgen
data_Zn4H16C40O13F4
_symmetry_space_group_name_H-M   'P 1'
_cell_length_a   23.82245851
_cell_length_b   23.82260000
_cell_length_c   23.82080000
_cell_angle_alpha   66.57170000
_cell_angle_beta   72.46760188
_cell_angle_gamma   107.52944377
_symmetry_Int_Tables_number   1
_chemical_formula_structural   Zn4H16C40O13F4
_chemical_formula_sum   'Zn8 H32 C80 O26 F8'
_cell_volume   10368.81992618
_cell_formula_units_Z   2
loop_
 _symmetry_equiv_pos_site_id
 _symmetry_equiv_pos_as_xyz
  1  'x, y, z'
loop_
 _atom_site_type_symbol
 _atom_site_label
 _atom_site_symmetry_multiplicity
 _atom_site_fract_x
 _atom_site_fract_y
 _atom_site_fract_z
 _atom_site_occupancy
  Zn  Zn0  1  0.05774000  0.09993000  0.45779000  1.0
  Zn  Zn1  1  0.05774000  0.95781000  0.48445000  1.0
  Zn  Zn2  1  0.94226000  0.95780000  0.59994000  1.0
  Zn  Zn3  1  0.94228000  0.98448000  0.45779000  1.0
  Zn  Zn4  1  0.94226000  0.40007000  0.04220000  1.0
  Zn  Zn5  1  0.05775000  0.54221000  0.90005000  1.0
  Zn  Zn6  1  0.94226000  0.54219000  0.01555000  1.0
  Zn  Zn7  1  0.05772000  0.51553000  0.04221000  1.0
  H  H8  1  0.92367000  0.27155000  0.96389000  1.0
  H  H9  1  0.92327000  0.20828000  0.90151000  1.0
  H  H10  1  0.07672000  0.40151000  0.70825000  1.0
  H  H11  1  0.07633000  0.46390000  0.77151000  1.0
  H  H12  1  0.92327000  0.09849000  0.79175000  1.0
  H  H13  1  0.92367000  0.03611000  0.72848000  1.0
  H  H14  1  0.07628000  0.22847000  0.53609000  1.0
  H  H15  1  0.07667000  0.29173000  0.59847000  1.0
  H  H16  1  0.07634000  0.61247000  0.15210000  1.0
  H  H17  1  0.07674000  0.67526000  0.21497000  1.0
  H  H18  1  0.92328000  0.71502000  0.17520000  1.0
  H  H19  1  0.92368000  0.65216000  0.11242000  1.0
  H  H20  1  0.07667000  0.78494000  0.32483000  1.0
  H  H21  1  0.07628000  0.84781000  0.38761000  1.0
  H  H22  1  0.92367000  0.88756000  0.34786000  1.0
  H  H23  1  0.92328000  0.82479000  0.28498000  1.0
  H  H24  1  0.73543000  0.27154000  0.15216000  1.0
  H  H25  1  0.60978000  0.20828000  0.21503000  1.0
  H  H26  1  0.60977000  0.40151000  0.17520000  1.0
  H  H27  1  0.73542000  0.46390000  0.11242000  1.0
  H  H28  1  0.39023000  0.09849000  0.32481000  1.0
  H  H29  1  0.26458000  0.03610000  0.38759000  1.0
  H  H30  1  0.26457000  0.22844000  0.34791000  1.0
  H  H31  1  0.39022000  0.29171000  0.28505000  1.0
  H  H32  1  0.26458000  0.65219000  0.77154000  1.0
  H  H33  1  0.39023000  0.71506000  0.70827000  1.0
  H  H34  1  0.39022000  0.67520000  0.90153000  1.0
  H  H35  1  0.26457000  0.61242000  0.96392000  1.0
  H  H36  1  0.60979000  0.82482000  0.59846000  1.0
  H  H37  1  0.73544000  0.88760000  0.53608000  1.0
  H  H38  1  0.73542000  0.84788000  0.72845000  1.0
  H  H39  1  0.60977000  0.78501000  0.79172000  1.0
  C  C40  1  0.18259000  0.09129000  0.40871000  1.0
  C  C41  1  1.00000000  0.86303000  0.63698000  1.0
  C  C42  1  0.99998000  0.09128000  0.59130000  1.0
  C  C43  1  0.81742000  0.90872000  0.59128000  1.0
  C  C44  1  0.00000000  0.13698000  0.36302000  1.0
  C  C45  1  0.99999000  0.90870000  0.40871000  1.0
  C  C46  1  1.00000000  0.40872000  0.90870000  1.0
  C  C47  1  0.00000000  0.63697000  0.86302000  1.0
  C  C48  1  0.81741000  0.40871000  0.09131000  1.0
  C  C49  1  0.00000000  0.59130000  0.09128000  1.0
  C  C50  1  1.00000000  0.36303000  0.13698000  1.0
  C  C51  1  0.18258000  0.59129000  0.90872000  1.0
  C  C52  1  1.00000000  0.19462000  0.30538000  1.0
  C  C53  1  1.00000000  0.30538000  0.19462000  1.0
  C  C54  1  0.95770000  0.18100000  0.27671000  1.0
  C  C55  1  0.04230000  0.31900000  0.22329000  1.0
  C  C56  1  0.95770000  0.23441000  0.22330000  1.0
  C  C57  1  0.04230000  0.26559000  0.27670000  1.0
  C  C58  1  0.00000000  0.80538000  0.69462000  1.0
  C  C59  1  0.00000000  0.69462000  0.80538000  1.0
  C  C60  1  0.95770000  0.77670000  0.76560000  1.0
  C  C61  1  0.04230000  0.72330000  0.73440000  1.0
  C  C62  1  0.95770000  0.72329000  0.81901000  1.0
  C  C63  1  0.04230000  0.77671000  0.68099000  1.0
  C  C64  1  0.00000000  0.37132000  0.87130000  1.0
  C  C65  1  0.95683000  0.29924000  0.90798000  1.0
  C  C66  1  0.95666000  0.26422000  0.87334000  1.0
  C  C67  1  0.99999000  0.30080000  0.80080000  1.0
  C  C68  1  0.04333000  0.37335000  0.76420000  1.0
  C  C69  1  0.04317000  0.40800000  0.79921000  1.0
  C  C70  1  0.99999000  0.26534000  0.76533000  1.0
  C  C71  1  0.99998000  0.23467000  0.73467000  1.0
  C  C72  1  0.99997000  0.19920000  0.69920000  1.0
  C  C73  1  0.95665000  0.12666000  0.73580000  1.0
  C  C74  1  0.95682000  0.09201000  0.70078000  1.0
  C  C75  1  0.99997000  0.12869000  0.62869000  1.0
  C  C76  1  0.04313000  0.20078000  0.59200000  1.0
  C  C77  1  0.04329000  0.23579000  0.62665000  1.0
  C  C78  1  0.00001000  0.62872000  0.12866000  1.0
  C  C79  1  0.04318000  0.63521000  0.15758000  1.0
  C  C80  1  0.04335000  0.67003000  0.19242000  1.0
  C  C81  1  0.00001000  0.69922000  0.19917000  1.0
  C  C82  1  0.95668000  0.69249000  0.16996000  1.0
  C  C83  1  0.95684000  0.65763000  0.13516000  1.0
  C  C84  1  1.00000000  0.73468000  0.23465000  1.0
  C  C85  1  0.99999000  0.76533000  0.26533000  1.0
  C  C86  1  0.99998000  0.80079000  0.30082000  1.0
  C  C87  1  0.04329000  0.80750000  0.33005000  1.0
  C  C88  1  0.04313000  0.84235000  0.36486000  1.0
  C  C89  1  0.99997000  0.87128000  0.37134000  1.0
  C  C90  1  0.95682000  0.86481000  0.34240000  1.0
  C  C91  1  0.95665000  0.83000000  0.30755000  1.0
  C  C92  1  0.74262000  0.37132000  0.12869000  1.0
  C  C93  1  0.70721000  0.29923000  0.15762000  1.0
  C  C94  1  0.63755000  0.26421000  0.19248000  1.0
  C  C95  1  0.60160000  0.30080000  0.19921000  1.0
  C  C96  1  0.63755000  0.37335000  0.16998000  1.0
  C  C97  1  0.70721000  0.40799000  0.13517000  1.0
  C  C98  1  0.53067000  0.26534000  0.23468000  1.0
  C  C99  1  0.46934000  0.23466000  0.26535000  1.0
  C  C100  1  0.39840000  0.19919000  0.30084000  1.0
  C  C101  1  0.36245000  0.12665000  0.33005000  1.0
  C  C102  1  0.29279000  0.09200000  0.36485000  1.0
  C  C103  1  0.25738000  0.12868000  0.37134000  1.0
  C  C104  1  0.29279000  0.20076000  0.34243000  1.0
  C  C105  1  0.36245000  0.23578000  0.30758000  1.0
  C  C106  1  0.25738000  0.62871000  0.87132000  1.0
  C  C107  1  0.29279000  0.65764000  0.79923000  1.0
  C  C108  1  0.36245000  0.69250000  0.76422000  1.0
  C  C109  1  0.39840000  0.69922000  0.80081000  1.0
  C  C110  1  0.36245000  0.67000000  0.87336000  1.0
  C  C111  1  0.29278000  0.63518000  0.90801000  1.0
  C  C112  1  0.46934000  0.73469000  0.76533000  1.0
  C  C113  1  0.53067000  0.76536000  0.73465000  1.0
  C  C114  1  0.60161000  0.80083000  0.69917000  1.0
  C  C115  1  0.63756000  0.83004000  0.62663000  1.0
  C  C116  1  0.70722000  0.86484000  0.59199000  1.0
  C  C117  1  0.74262000  0.87133000  0.62867000  1.0
  C  C118  1  0.70721000  0.84241000  0.70076000  1.0
  C  C119  1  0.63755000  0.80756000  0.73578000  1.0
  O  O120  1  0.00000000  0.00000000  0.50000000  1.0
  O  O121  1  0.15343000  0.12770000  0.41290000  1.0
  O  O122  1  0.04035000  0.88475000  0.57490000  1.0
  O  O123  1  0.95938000  0.02571000  0.62772000  1.0
  O  O124  1  0.15344000  0.02573000  0.43365000  1.0
  O  O125  1  0.04060000  0.12770000  0.52573000  1.0
  O  O126  1  0.95965000  0.88474000  0.65561000  1.0
  O  O127  1  0.84656000  0.91290000  0.62771000  1.0
  O  O128  1  0.95966000  0.07491000  0.38474000  1.0
  O  O129  1  0.84658000  0.93369000  0.52570000  1.0
  O  O130  1  0.04035000  0.15560000  0.38474000  1.0
  O  O131  1  0.04060000  0.91289000  0.43367000  1.0
  O  O132  1  0.95939000  0.93367000  0.41289000  1.0
  O  O133  1  1.00000000  0.50000000  0.00000000  1.0
  O  O134  1  0.95939000  0.37230000  0.97427000  1.0
  O  O135  1  0.04036000  0.61527000  0.84438000  1.0
  O  O136  1  0.84657000  0.47428000  0.06634000  1.0
  O  O137  1  0.04062000  0.47429000  0.87227000  1.0
  O  O138  1  0.84657000  0.37230000  0.08711000  1.0
  O  O139  1  0.95965000  0.61525000  0.92510000  1.0
  O  O140  1  0.95938000  0.58710000  0.06633000  1.0
  O  O141  1  0.04034000  0.42509000  0.11526000  1.0
  O  O142  1  0.04060000  0.56633000  0.08710000  1.0
  O  O143  1  0.95965000  0.34440000  0.11526000  1.0
  O  O144  1  0.15344000  0.58711000  0.87230000  1.0
  O  O145  1  0.15342000  0.56632000  0.97430000  1.0
  F  F146  1  0.91475000  0.11550000  0.29926000  1.0
  F  F147  1  0.08525000  0.38450000  0.20074000  1.0
  F  F148  1  0.91475000  0.21401000  0.20075000  1.0
  F  F149  1  0.08525000  0.28599000  0.29925000  1.0
  F  F150  1  0.91475000  0.79924000  0.78601000  1.0
  F  F151  1  0.08525000  0.70075000  0.71399000  1.0
  F  F152  1  0.91475000  0.70073000  0.88452000  1.0
  F  F153  1  0.08525000  0.79926000  0.61548000  1.0
