# generated using pymatgen
data_CuH9C9SCl
_symmetry_space_group_name_H-M   'P 1'
_cell_length_a   5.92422000
_cell_length_b   8.66391000
_cell_length_c   18.17490000
_cell_angle_alpha   88.86570000
_cell_angle_beta   89.95250000
_cell_angle_gamma   80.01020000
_symmetry_Int_Tables_number   1
_chemical_formula_structural   CuH9C9SCl
_chemical_formula_sum   'Cu4 H36 C36 S4 Cl4'
_cell_volume   918.53475243
_cell_formula_units_Z   4
loop_
 _symmetry_equiv_pos_site_id
 _symmetry_equiv_pos_as_xyz
  1  'x, y, z'
loop_
 _atom_site_type_symbol
 _atom_site_label
 _atom_site_symmetry_multiplicity
 _atom_site_fract_x
 _atom_site_fract_y
 _atom_site_fract_z
 _atom_site_occupancy
  Cu  Cu0  1  0.32353000  0.35915000  0.50675000  1.0
  Cu  Cu1  1  0.67646000  0.64084000  0.49325000  1.0
  Cu  Cu2  1  0.10011000  0.69955000  0.61713000  1.0
  Cu  Cu3  1  0.89988000  0.30045000  0.38287000  1.0
  H  H4  1  0.55764000  0.21303000  0.00850000  1.0
  H  H5  1  0.44232000  0.78698000  0.99150000  1.0
  H  H6  1  0.57296000  0.44811000  0.65579000  1.0
  H  H7  1  0.42703000  0.55189000  0.34419000  1.0
  H  H8  1  0.50700000  0.29941000  0.71915000  1.0
  H  H9  1  0.49302000  0.70059000  0.28084000  1.0
  H  H10  1  0.49263000  0.64738000  0.75030000  1.0
  H  H11  1  0.50739000  0.35261000  0.24969000  1.0
  H  H12  1  0.22084000  0.71540000  0.79132000  1.0
  H  H13  1  0.77920000  0.28460000  0.20867000  1.0
  H  H14  1  0.76076000  0.43200000  0.81023000  1.0
  H  H15  1  0.23928000  0.56799000  0.18977000  1.0
  H  H16  1  0.85383000  0.24523000  0.91494000  1.0
  H  H17  1  0.14616000  0.75476000  0.08506000  1.0
  H  H18  1  0.16245000  0.36890000  0.99533000  1.0
  H  H19  1  0.83753000  0.63111000  0.00466000  1.0
  H  H20  1  0.06675000  0.55060000  0.88852000  1.0
  H  H21  1  0.93327000  0.44940000  0.11146000  1.0
  H  H22  1  0.34166000  0.95739000  0.52748000  1.0
  H  H23  1  0.65829000  0.04259000  0.47252000  1.0
  H  H24  1  0.05965000  0.06927000  0.53356000  1.0
  H  H25  1  0.94033000  0.93071000  0.46644000  1.0
  H  H26  1  0.96278000  0.17522000  0.67837000  1.0
  H  H27  1  0.03719000  0.82477000  0.32163000  1.0
  H  H28  1  0.78435000  0.03371000  0.65675000  1.0
  H  H29  1  0.21565000  0.96626000  0.34326000  1.0
  H  H30  1  0.23357000  0.10600000  0.79317000  1.0
  H  H31  1  0.76645000  0.89400000  0.20683000  1.0
  H  H32  1  0.25106000  0.01062000  0.92255000  1.0
  H  H33  1  0.74896000  0.98940000  0.07745000  1.0
  H  H34  1  0.96420000  0.85292000  0.96940000  1.0
  H  H35  1  0.03581000  0.14712000  0.03061000  1.0
  H  H36  1  0.65804000  0.79397000  0.88535000  1.0
  H  H37  1  0.34197000  0.20605000  0.11467000  1.0
  H  H38  1  0.64261000  0.89024000  0.75514000  1.0
  H  H39  1  0.35740000  0.10975000  0.24488000  1.0
  C  C40  1  0.51461000  0.29402000  0.96195000  1.0
  C  C41  1  0.48535000  0.70599000  0.03805000  1.0
  C  C42  1  0.31239000  0.18250000  0.57694000  1.0
  C  C43  1  0.68761000  0.81749000  0.42305000  1.0
  C  C44  1  0.37037000  0.29164000  0.61239000  1.0
  C  C45  1  0.62961000  0.70834000  0.38760000  1.0
  C  C46  1  0.44157000  0.37922000  0.67307000  1.0
  C  C47  1  0.55842000  0.62078000  0.32692000  1.0
  C  C48  1  0.34366000  0.61046000  0.77694000  1.0
  C  C49  1  0.65636000  0.38954000  0.22305000  1.0
  C  C50  1  0.40638000  0.50337000  0.84212000  1.0
  C  C51  1  0.59365000  0.49663000  0.15788000  1.0
  C  C52  1  0.62852000  0.41742000  0.85049000  1.0
  C  C53  1  0.37147000  0.58258000  0.14950000  1.0
  C  C54  1  0.68155000  0.31288000  0.90993000  1.0
  C  C55  1  0.31845000  0.68712000  0.09007000  1.0
  C  C56  1  0.29340000  0.38057000  0.95441000  1.0
  C  C57  1  0.70659000  0.61945000  0.04558000  1.0
  C  C58  1  0.23968000  0.48365000  0.89471000  1.0
  C  C59  1  0.76031000  0.51637000  0.10528000  1.0
  C  C60  1  0.22593000  0.03938000  0.56167000  1.0
  C  C61  1  0.77404000  0.96061000  0.43833000  1.0
  C  C62  1  0.93879000  0.05289000  0.68603000  1.0
  C  C63  1  0.06120000  0.94710000  0.31398000  1.0
  C  C64  1  0.93529000  0.00547000  0.76586000  1.0
  C  C65  1  0.06472000  0.99452000  0.23414000  1.0
  C  C66  1  0.10636000  0.03847000  0.81360000  1.0
  C  C67  1  0.89366000  0.96153000  0.18640000  1.0
  C  C68  1  0.11664000  0.98387000  0.88640000  1.0
  C  C69  1  0.88337000  0.01615000  0.11361000  1.0
  C  C70  1  0.95513000  0.89607000  0.91255000  1.0
  C  C71  1  0.04488000  0.10395000  0.08746000  1.0
  C  C72  1  0.78344000  0.86360000  0.86561000  1.0
  C  C73  1  0.21658000  0.13641000  0.13440000  1.0
  C  C74  1  0.77400000  0.91756000  0.79245000  1.0
  C  C75  1  0.22601000  0.08244000  0.20756000  1.0
  S  S76  1  0.19226000  0.92990000  0.64690000  1.0
  S  S77  1  0.80773000  0.07010000  0.35310000  1.0
  S  S78  1  0.19414000  0.51788000  0.70617000  1.0
  S  S79  1  0.80586000  0.48212000  0.29382000  1.0
  Cl  Cl80  1  0.69815000  0.72412000  0.60983000  1.0
  Cl  Cl81  1  0.30185000  0.27586000  0.39016000  1.0
  Cl  Cl82  1  0.22169000  0.62855000  0.49940000  1.0
  Cl  Cl83  1  0.77830000  0.37145000  0.50060000  1.0
