# generated using pymatgen
data_ZnH24C24SN4O7
_symmetry_space_group_name_H-M   'P 1'
_cell_length_a   9.83366000
_cell_length_b   12.64040000
_cell_length_c   20.98928236
_cell_angle_alpha   89.99920947
_cell_angle_beta   99.42164139
_cell_angle_gamma   89.99750000
_symmetry_Int_Tables_number   1
_chemical_formula_structural   ZnH24C24SN4O7
_chemical_formula_sum   'Zn4 H96 C96 S4 N16 O28'
_cell_volume   2573.80276732
_cell_formula_units_Z   4
loop_
 _symmetry_equiv_pos_site_id
 _symmetry_equiv_pos_as_xyz
  1  'x, y, z'
loop_
 _atom_site_type_symbol
 _atom_site_label
 _atom_site_symmetry_multiplicity
 _atom_site_fract_x
 _atom_site_fract_y
 _atom_site_fract_z
 _atom_site_occupancy
  Zn  Zn0  1  0.22245000  0.76526000  0.96759000  1.0
  Zn  Zn1  1  0.22246000  0.73476000  0.46759000  1.0
  Zn  Zn2  1  0.77754000  0.26525000  0.53240000  1.0
  Zn  Zn3  1  0.77756000  0.23475000  0.03240000  1.0
  H  H4  1  0.29999000  0.45010000  0.76663000  1.0
  H  H5  1  0.18632000  0.00100000  0.76293000  1.0
  H  H6  1  0.24786000  0.83726000  0.83177000  1.0
  H  H7  1  0.08999000  0.96844000  0.98431000  1.0
  H  H8  1  0.02033000  0.13402000  0.92285000  1.0
  H  H9  1  0.02363000  0.23985000  0.82957000  1.0
  H  H10  1  0.97756000  0.15915000  0.75946000  1.0
  H  H11  1  0.05684000  0.25809000  0.68174000  1.0
  H  H12  1  0.07534000  0.36231000  0.74021000  1.0
  H  H13  1  0.30195000  0.27651000  0.66877000  1.0
  H  H14  1  0.21111000  0.39801000  0.65406000  1.0
  H  H15  1  0.23828000  0.32253000  0.84856000  1.0
  H  H16  1  0.32325000  0.19864000  0.85459000  1.0
  H  H17  1  0.45602000  0.24787000  0.76868000  1.0
  H  H18  1  0.47623000  0.34573000  0.83167000  1.0
  H  H19  1  0.52637000  0.48709000  0.75829000  1.0
  H  H20  1  0.53529000  0.37901000  0.70428000  1.0
  H  H21  1  0.48728000  0.40674000  0.59021000  1.0
  H  H22  1  0.37815000  0.51638000  0.49694000  1.0
  H  H23  1  0.32684000  0.63033000  0.71535000  1.0
  H  H24  1  0.57335000  0.50436000  0.09226000  1.0
  H  H25  1  0.67120000  0.74635000  0.96302000  1.0
  H  H26  1  0.99648000  0.55956000  0.06930000  1.0
  H  H27  1  0.23033000  0.73427000  0.61522000  1.0
  H  H28  1  0.30002000  0.04990000  0.26664000  1.0
  H  H29  1  0.18639000  0.49895000  0.26296000  1.0
  H  H30  1  0.24791000  0.66270000  0.33178000  1.0
  H  H31  1  0.08998000  0.53159000  0.48432000  1.0
  H  H32  1  0.02031000  0.36600000  0.42287000  1.0
  H  H33  1  0.02367000  0.26014000  0.32961000  1.0
  H  H34  1  0.97756000  0.34084000  0.25949000  1.0
  H  H35  1  0.05684000  0.24191000  0.18176000  1.0
  H  H36  1  0.07536000  0.13768000  0.24022000  1.0
  H  H37  1  0.30194000  0.22349000  0.16877000  1.0
  H  H38  1  0.21111000  0.10200000  0.15406000  1.0
  H  H39  1  0.23834000  0.17746000  0.34858000  1.0
  H  H40  1  0.32328000  0.30134000  0.35459000  1.0
  H  H41  1  0.45602000  0.25212000  0.26867000  1.0
  H  H42  1  0.47626000  0.15425000  0.33166000  1.0
  H  H43  1  0.52639000  0.01290000  0.25828000  1.0
  H  H44  1  0.53529000  0.12097000  0.20427000  1.0
  H  H45  1  0.48727000  0.09326000  0.09021000  1.0
  H  H46  1  0.37815000  0.98361000  0.99693000  1.0
  H  H47  1  0.32680000  0.86967000  0.21535000  1.0
  H  H48  1  0.57331000  0.99567000  0.59226000  1.0
  H  H49  1  0.67119000  0.75367000  0.46302000  1.0
  H  H50  1  0.99644000  0.94044000  0.56930000  1.0
  H  H51  1  0.23032000  0.76574000  0.11522000  1.0
  H  H52  1  0.69999000  0.95010000  0.73337000  1.0
  H  H53  1  0.81364000  0.50100000  0.73706000  1.0
  H  H54  1  0.75210000  0.33727000  0.66822000  1.0
  H  H55  1  0.91003000  0.46842000  0.51569000  1.0
  H  H56  1  0.97967000  0.63400000  0.57714000  1.0
  H  H57  1  0.97634000  0.73984000  0.67042000  1.0
  H  H58  1  0.02242000  0.65914000  0.74053000  1.0
  H  H59  1  0.94312000  0.75807000  0.81825000  1.0
  H  H60  1  0.92463000  0.86230000  0.75979000  1.0
  H  H61  1  0.69803000  0.77651000  0.83123000  1.0
  H  H62  1  0.78887000  0.89799000  0.84594000  1.0
  H  H63  1  0.76166000  0.82252000  0.65143000  1.0
  H  H64  1  0.67671000  0.69864000  0.64542000  1.0
  H  H65  1  0.54396000  0.74788000  0.73133000  1.0
  H  H66  1  0.52374000  0.84574000  0.66834000  1.0
  H  H67  1  0.47361000  0.98711000  0.74171000  1.0
  H  H68  1  0.46469000  0.87905000  0.79573000  1.0
  H  H69  1  0.51273000  0.90675000  0.90979000  1.0
  H  H70  1  0.62185000  0.01642000  0.00306000  1.0
  H  H71  1  0.67318000  0.13033000  0.78464000  1.0
  H  H72  1  0.42668000  0.00435000  0.40774000  1.0
  H  H73  1  0.32881000  0.24635000  0.53698000  1.0
  H  H74  1  0.00355000  0.05956000  0.43071000  1.0
  H  H75  1  0.76968000  0.23427000  0.88477000  1.0
  H  H76  1  0.69999000  0.54991000  0.23336000  1.0
  H  H77  1  0.81365000  0.99898000  0.23705000  1.0
  H  H78  1  0.75213000  0.16273000  0.16822000  1.0
  H  H79  1  0.91001000  0.03157000  0.01568000  1.0
  H  H80  1  0.97966000  0.86598000  0.07713000  1.0
  H  H81  1  0.97635000  0.76014000  0.17041000  1.0
  H  H82  1  0.02243000  0.84085000  0.24052000  1.0
  H  H83  1  0.94314000  0.74192000  0.31825000  1.0
  H  H84  1  0.92465000  0.63770000  0.25979000  1.0
  H  H85  1  0.69803000  0.72350000  0.33122000  1.0
  H  H86  1  0.78889000  0.60201000  0.34594000  1.0
  H  H87  1  0.76170000  0.67748000  0.15143000  1.0
  H  H88  1  0.67674000  0.80136000  0.14541000  1.0
  H  H89  1  0.54397000  0.75214000  0.23132000  1.0
  H  H90  1  0.52376000  0.65427000  0.16833000  1.0
  H  H91  1  0.47363000  0.51290000  0.24172000  1.0
  H  H92  1  0.46469000  0.62100000  0.29571000  1.0
  H  H93  1  0.51274000  0.59329000  0.40979000  1.0
  H  H94  1  0.62185000  0.48363000  0.50307000  1.0
  H  H95  1  0.67316000  0.36968000  0.28466000  1.0
  H  H96  1  0.42668000  0.49567000  0.90774000  1.0
  H  H97  1  0.32884000  0.25366000  0.03698000  1.0
  H  H98  1  0.00356000  0.44043000  0.93070000  1.0
  H  H99  1  0.76966000  0.26574000  0.38478000  1.0
  C  C100  1  0.16548000  0.99589000  0.81222000  1.0
  C  C101  1  0.20041000  0.90664000  0.84988000  1.0
  C  C102  1  0.10917000  0.97847000  0.93510000  1.0
  C  C103  1  0.07039000  0.07021000  0.90053000  1.0
  C  C104  1  0.09944000  0.08029000  0.83791000  1.0
  C  C105  1  0.06169000  0.17846000  0.79894000  1.0
  C  C106  1  0.12954000  0.29572000  0.72044000  1.0
  C  C107  1  0.24817000  0.33925000  0.69105000  1.0
  C  C108  1  0.28261000  0.26136000  0.82036000  1.0
  C  C109  1  0.40269000  0.30832000  0.79307000  1.0
  C  C110  1  0.46883000  0.44208000  0.71784000  1.0
  C  C111  1  0.41752000  0.51137000  0.66070000  1.0
  C  C112  1  0.43297000  0.47957000  0.59847000  1.0
  C  C113  1  0.37190000  0.54037000  0.54627000  1.0
  C  C114  1  0.34430000  0.60458000  0.66772000  1.0
  C  C115  1  0.78899000  0.52120000  0.08410000  1.0
  C  C116  1  0.64909000  0.54492000  0.06859000  1.0
  C  C117  1  0.60583000  0.62658000  0.02493000  1.0
  C  C118  1  0.45828000  0.66199000  0.01650000  1.0
  C  C119  1  0.70307000  0.68113000  0.99595000  1.0
  C  C120  1  0.84338000  0.65671000  0.01119000  1.0
  C  C121  1  0.94643000  0.72402000  0.98362000  1.0
  C  C122  1  0.88691000  0.57590000  0.05553000  1.0
  C  C123  1  0.28770000  0.66095000  0.61266000  1.0
  C  C124  1  0.16552000  0.50408000  0.31224000  1.0
  C  C125  1  0.20045000  0.59334000  0.34990000  1.0
  C  C126  1  0.10917000  0.52154000  0.43511000  1.0
  C  C127  1  0.07038000  0.42981000  0.40055000  1.0
  C  C128  1  0.09945000  0.41970000  0.33793000  1.0
  C  C129  1  0.06171000  0.32153000  0.29897000  1.0
  C  C130  1  0.12954000  0.20427000  0.22045000  1.0
  C  C131  1  0.24817000  0.16075000  0.19105000  1.0
  C  C132  1  0.28263000  0.23863000  0.32037000  1.0
  C  C133  1  0.40272000  0.19167000  0.29307000  1.0
  C  C134  1  0.46883000  0.05791000  0.21783000  1.0
  C  C135  1  0.41751000  0.98862000  0.16070000  1.0
  C  C136  1  0.43297000  0.02043000  0.09848000  1.0
  C  C137  1  0.37192000  0.95962000  0.04628000  1.0
  C  C138  1  0.34429000  0.89543000  0.16772000  1.0
  C  C139  1  0.78896000  0.97881000  0.58410000  1.0
  C  C140  1  0.64905000  0.95510000  0.56859000  1.0
  C  C141  1  0.60580000  0.87344000  0.52493000  1.0
  C  C142  1  0.45824000  0.83802000  0.51650000  1.0
  C  C143  1  0.70304000  0.81889000  0.49595000  1.0
  C  C144  1  0.84336000  0.84329000  0.51119000  1.0
  C  C145  1  0.94638000  0.77596000  0.48362000  1.0
  C  C146  1  0.88688000  0.92409000  0.55553000  1.0
  C  C147  1  0.28770000  0.83906000  0.11266000  1.0
  C  C148  1  0.83450000  0.49589000  0.68778000  1.0
  C  C149  1  0.79957000  0.40664000  0.65011000  1.0
  C  C150  1  0.89084000  0.47846000  0.56490000  1.0
  C  C151  1  0.92961000  0.57019000  0.59947000  1.0
  C  C152  1  0.90054000  0.58029000  0.66208000  1.0
  C  C153  1  0.93828000  0.67845000  0.70105000  1.0
  C  C154  1  0.87044000  0.79571000  0.77956000  1.0
  C  C155  1  0.75181000  0.83924000  0.80895000  1.0
  C  C156  1  0.71735000  0.76135000  0.67963000  1.0
  C  C157  1  0.59727000  0.80832000  0.70693000  1.0
  C  C158  1  0.53116000  0.94210000  0.78217000  1.0
  C  C159  1  0.58249000  0.01139000  0.83930000  1.0
  C  C160  1  0.56703000  0.97958000  0.90152000  1.0
  C  C161  1  0.62810000  0.04039000  0.95372000  1.0
  C  C162  1  0.65571000  0.10457000  0.83227000  1.0
  C  C163  1  0.21104000  0.02119000  0.41591000  1.0
  C  C164  1  0.35093000  0.04491000  0.43142000  1.0
  C  C165  1  0.39419000  0.12656000  0.47507000  1.0
  C  C166  1  0.54173000  0.16199000  0.48349000  1.0
  C  C167  1  0.29695000  0.18112000  0.50405000  1.0
  C  C168  1  0.15664000  0.15671000  0.48882000  1.0
  C  C169  1  0.05359000  0.22403000  0.51638000  1.0
  C  C170  1  0.11311000  0.07590000  0.44448000  1.0
  C  C171  1  0.71231000  0.16095000  0.88733000  1.0
  C  C172  1  0.83451000  0.00410000  0.18777000  1.0
  C  C173  1  0.79957000  0.09336000  0.15010000  1.0
  C  C174  1  0.89083000  0.02153000  0.06489000  1.0
  C  C175  1  0.92961000  0.92980000  0.09945000  1.0
  C  C176  1  0.90056000  0.91970000  0.16207000  1.0
  C  C177  1  0.93829000  0.82153000  0.20104000  1.0
  C  C178  1  0.87047000  0.70428000  0.27956000  1.0
  C  C179  1  0.75183000  0.66076000  0.30895000  1.0
  C  C180  1  0.71737000  0.73865000  0.17963000  1.0
  C  C181  1  0.59730000  0.69169000  0.20692000  1.0
  C  C182  1  0.53118000  0.55792000  0.28217000  1.0
  C  C183  1  0.58250000  0.48863000  0.33931000  1.0
  C  C184  1  0.56703000  0.52044000  0.40153000  1.0
  C  C185  1  0.62810000  0.45964000  0.45373000  1.0
  C  C186  1  0.65570000  0.39544000  0.33229000  1.0
  C  C187  1  0.21104000  0.47881000  0.91590000  1.0
  C  C188  1  0.35094000  0.45510000  0.93141000  1.0
  C  C189  1  0.39421000  0.37344000  0.97508000  1.0
  C  C190  1  0.54176000  0.33802000  0.98350000  1.0
  C  C191  1  0.29697000  0.31888000  0.00405000  1.0
  C  C192  1  0.15666000  0.34329000  0.98881000  1.0
  C  C193  1  0.05364000  0.27595000  0.01638000  1.0
  C  C194  1  0.11312000  0.42409000  0.94447000  1.0
  C  C195  1  0.71231000  0.33905000  0.38735000  1.0
  S  S196  1  0.84695000  0.43499000  0.15027000  1.0
  S  S197  1  0.84693000  0.06501000  0.65027000  1.0
  S  S198  1  0.15307000  0.93499000  0.34973000  1.0
  S  S199  1  0.15305000  0.56501000  0.84973000  1.0
  N  N200  1  0.17428000  0.89827000  0.91074000  1.0
  N  N201  1  0.17769000  0.21700000  0.77004000  1.0
  N  N202  1  0.35096000  0.38990000  0.74305000  1.0
  N  N203  1  0.29972000  0.62861000  0.55285000  1.0
  N  N204  1  0.17430000  0.60173000  0.41076000  1.0
  N  N205  1  0.17769000  0.28298000  0.27005000  1.0
  N  N206  1  0.35098000  0.11010000  0.24306000  1.0
  N  N207  1  0.29972000  0.87139000  0.05285000  1.0
  N  N208  1  0.82571000  0.39827000  0.58925000  1.0
  N  N209  1  0.82229000  0.71700000  0.72996000  1.0
  N  N210  1  0.64902000  0.88990000  0.75695000  1.0
  N  N211  1  0.70029000  0.12863000  0.94715000  1.0
  N  N212  1  0.82572000  0.10172000  0.08924000  1.0
  N  N213  1  0.82231000  0.78300000  0.22996000  1.0
  N  N214  1  0.64903000  0.61011000  0.25694000  1.0
  N  N215  1  0.70029000  0.37140000  0.44716000  1.0
  O  O216  1  0.07431000  0.70059000  0.00548000  1.0
  O  O217  1  0.90531000  0.79714000  0.94519000  1.0
  O  O218  1  0.41538000  0.71990000  0.96585000  1.0
  O  O219  1  0.38691000  0.63791000  0.05857000  1.0
  O  O220  1  0.84345000  0.32478000  0.12719000  1.0
  O  O221  1  0.98461000  0.47204000  0.17733000  1.0
  O  O222  1  0.74541000  0.44835000  0.19544000  1.0
  O  O223  1  0.07426000  0.79938000  0.50547000  1.0
  O  O224  1  0.90526000  0.70283000  0.44521000  1.0
  O  O225  1  0.41539000  0.78012000  0.46585000  1.0
  O  O226  1  0.38688000  0.86209000  0.55856000  1.0
  O  O227  1  0.84341000  0.17522000  0.62719000  1.0
  O  O228  1  0.98459000  0.02796000  0.67732000  1.0
  O  O229  1  0.74541000  0.05165000  0.69544000  1.0
  O  O230  1  0.92571000  0.20060000  0.49452000  1.0
  O  O231  1  0.09469000  0.29716000  0.55480000  1.0
  O  O232  1  0.58463000  0.21988000  0.53415000  1.0
  O  O233  1  0.61309000  0.13791000  0.44142000  1.0
  O  O234  1  0.15658000  0.82478000  0.37281000  1.0
  O  O235  1  0.01541000  0.97206000  0.32267000  1.0
  O  O236  1  0.25461000  0.94835000  0.30457000  1.0
  O  O237  1  0.92575000  0.29939000  0.99453000  1.0
  O  O238  1  0.09477000  0.20282000  0.05479000  1.0
  O  O239  1  0.58464000  0.28012000  0.03415000  1.0
  O  O240  1  0.61312000  0.36208000  0.94143000  1.0
  O  O241  1  0.15656000  0.67522000  0.87281000  1.0
  O  O242  1  0.01538000  0.52796000  0.82268000  1.0
  O  O243  1  0.25456000  0.55165000  0.80456000  1.0
