# generated using pymatgen
data_Al2H7C20S2Br2O10F
_symmetry_space_group_name_H-M   'P 1'
_cell_length_a   6.62513000
_cell_length_b   11.05820519
_cell_length_c   12.73870891
_cell_angle_alpha   82.32751676
_cell_angle_beta   75.08879345
_cell_angle_gamma   73.74869140
_symmetry_Int_Tables_number   1
_chemical_formula_structural   Al2H7C20S2Br2O10F
_chemical_formula_sum   'Al2 H7 C20 S2 Br2 O10 F1'
_cell_volume   863.89822569
_cell_formula_units_Z   1
loop_
 _symmetry_equiv_pos_site_id
 _symmetry_equiv_pos_as_xyz
  1  'x, y, z'
loop_
 _atom_site_type_symbol
 _atom_site_label
 _atom_site_symmetry_multiplicity
 _atom_site_fract_x
 _atom_site_fract_y
 _atom_site_fract_z
 _atom_site_occupancy
  Al  Al0  1  0.50204000  0.49823000  0.49872000  1.0
  Al  Al1  1  0.00154000  0.50124000  0.49696000  1.0
  H  H2  1  0.22871000  0.64444000  0.41723000  1.0
  H  H3  1  0.80393000  0.34518000  0.55358000  1.0
  H  H4  1  0.40141000  0.44872000  0.85240000  1.0
  H  H5  1  0.79406000  0.76076000  0.65532000  1.0
  H  H6  1  0.88956000  0.87499000  0.78044000  1.0
  H  H7  1  0.54851000  0.23030000  0.65048000  1.0
  H  H8  1  0.76521000  0.11061000  0.77827000  1.0
  C  C9  1  0.63094000  0.72431000  0.50577000  1.0
  C  C10  1  0.85413000  0.50281000  0.30275000  1.0
  C  C11  1  0.36874000  0.27378000  0.49073000  1.0
  C  C12  1  0.14478000  0.49846000  0.69334000  1.0
  C  C13  1  0.77287000  0.53060000  0.11265000  1.0
  C  C14  1  0.22652000  0.47348000  0.88176000  1.0
  C  C15  1  0.90913000  0.50123000  0.18391000  1.0
  C  C16  1  0.08748000  0.50113000  0.81244000  1.0
  C  C17  1  0.11033000  0.48334000  0.99140000  1.0
  C  C18  1  0.88448000  0.52007000  0.00261000  1.0
  C  C19  1  0.56237000  0.86598000  0.50220000  1.0
  C  C20  1  0.62005000  0.92990000  0.57595000  1.0
  C  C21  1  0.44635000  0.93356000  0.42743000  1.0
  C  C22  1  0.74102000  0.86339000  0.65282000  1.0
  C  C23  1  0.79441000  0.92754000  0.72300000  1.0
  C  C24  1  0.43330000  0.13210000  0.49479000  1.0
  C  C25  1  0.38238000  0.06762000  0.42314000  1.0
  C  C26  1  0.55236000  0.06520000  0.57304000  1.0
  C  C27  1  0.60482000  0.12794000  0.64900000  1.0
  C  C28  1  0.72475000  0.06061000  0.72148000  1.0
  S  S29  1  0.17986000  0.46204000  0.11535000  1.0
  S  S30  1  0.81483000  0.54083000  0.87905000  1.0
  Br  Br31  1  0.23894000  0.15910000  0.31476000  1.0
  Br  Br32  1  0.38576000  0.84764000  0.32387000  1.0
  O  O33  1  0.48257000  0.66673000  0.53043000  1.0
  O  O34  1  0.01346000  0.48297000  0.34757000  1.0
  O  O35  1  0.16810000  0.32836000  0.51179000  1.0
  O  O36  1  0.34543000  0.46951000  0.64693000  1.0
  O  O37  1  0.52118000  0.32815000  0.47059000  1.0
  O  O38  1  0.98686000  0.52341000  0.64689000  1.0
  O  O39  1  0.83280000  0.67284000  0.48397000  1.0
  O  O40  1  0.65490000  0.52483000  0.35085000  1.0
  O  O41  1  0.24741000  0.55980000  0.45241000  1.0
  O  O42  1  0.75897000  0.43671000  0.54461000  1.0
  F  F43  1  0.55608000  0.56810000  0.14323000  1.0
