# generated using pymatgen
data_MnH10C12N4O5
_symmetry_space_group_name_H-M   'P 1'
_cell_length_a   7.83421000
_cell_length_b   11.47390000
_cell_length_c   16.55880000
_cell_angle_alpha   89.99960000
_cell_angle_beta   89.99990000
_cell_angle_gamma   98.86460000
_symmetry_Int_Tables_number   1
_chemical_formula_structural   MnH10C12N4O5
_chemical_formula_sum   'Mn4 H40 C48 N16 O20'
_cell_volume   1470.67383711
_cell_formula_units_Z   4
loop_
 _symmetry_equiv_pos_site_id
 _symmetry_equiv_pos_as_xyz
  1  'x, y, z'
loop_
 _atom_site_type_symbol
 _atom_site_label
 _atom_site_symmetry_multiplicity
 _atom_site_fract_x
 _atom_site_fract_y
 _atom_site_fract_z
 _atom_site_occupancy
  Mn  Mn0  1  0.53368000  0.26781000  0.70749000  1.0
  Mn  Mn1  1  0.96633000  0.23219000  0.20748000  1.0
  Mn  Mn2  1  0.46633000  0.73219000  0.29252000  1.0
  Mn  Mn3  1  0.03365000  0.76781000  0.79252000  1.0
  H  H4  1  0.89789000  0.13746000  0.65586000  1.0
  H  H5  1  0.60211000  0.36254000  0.15586000  1.0
  H  H6  1  0.10211000  0.86253000  0.34415000  1.0
  H  H7  1  0.39787000  0.63747000  0.84414000  1.0
  H  H8  1  0.69583000  0.09929000  0.51997000  1.0
  H  H9  1  0.80418000  0.40072000  0.01997000  1.0
  H  H10  1  0.30418000  0.90072000  0.48003000  1.0
  H  H11  1  0.19581000  0.59928000  0.98003000  1.0
  H  H12  1  0.66849000  0.84952000  0.77700000  1.0
  H  H13  1  0.83151000  0.65048000  0.27701000  1.0
  H  H14  1  0.33149000  0.15048000  0.22299000  1.0
  H  H15  1  0.16850000  0.34952000  0.72299000  1.0
  H  H16  1  0.82148000  0.20921000  0.83356000  1.0
  H  H17  1  0.67853000  0.29079000  0.33356000  1.0
  H  H18  1  0.17852000  0.79079000  0.16644000  1.0
  H  H19  1  0.32149000  0.70921000  0.66645000  1.0
  H  H20  1  0.86507000  0.97872000  0.87095000  1.0
  H  H21  1  0.63493000  0.52127000  0.37095000  1.0
  H  H22  1  0.13491000  0.02127000  0.12905000  1.0
  H  H23  1  0.36509000  0.47873000  0.62905000  1.0
  H  H24  1  0.49503000  0.97268000  0.68377000  1.0
  H  H25  1  0.00498000  0.52732000  0.18377000  1.0
  H  H26  1  0.50497000  0.02733000  0.31623000  1.0
  H  H27  1  0.99503000  0.47267000  0.81623000  1.0
  H  H28  1  0.82860000  0.68683000  0.63450000  1.0
  H  H29  1  0.67139000  0.81318000  0.13450000  1.0
  H  H30  1  0.17139000  0.31318000  0.36550000  1.0
  H  H31  1  0.32861000  0.18681000  0.86550000  1.0
  H  H32  1  0.71398000  0.53968000  0.74351000  1.0
  H  H33  1  0.78600000  0.96032000  0.24351000  1.0
  H  H34  1  0.28601000  0.46032000  0.25649000  1.0
  H  H35  1  0.21400000  0.03967000  0.75649000  1.0
  H  H36  1  0.64891000  0.35750000  0.52140000  1.0
  H  H37  1  0.85109000  0.14251000  0.02140000  1.0
  H  H38  1  0.35108000  0.64250000  0.47860000  1.0
  H  H39  1  0.14891000  0.85750000  0.97861000  1.0
  H  H40  1  0.79802000  0.59127000  0.49307000  1.0
  H  H41  1  0.70199000  0.90874000  0.99307000  1.0
  H  H42  1  0.20198000  0.40873000  0.50693000  1.0
  H  H43  1  0.29801000  0.09126000  0.00693000  1.0
  C  C44  1  0.27090000  0.19517000  0.61205000  1.0
  C  C45  1  0.22910000  0.30483000  0.11204000  1.0
  C  C46  1  0.72910000  0.80483000  0.38796000  1.0
  C  C47  1  0.77089000  0.69517000  0.88795000  1.0
  C  C48  1  0.10832000  0.16864000  0.56734000  1.0
  C  C49  1  0.39168000  0.33136000  0.06734000  1.0
  C  C50  1  0.89168000  0.83134000  0.43266000  1.0
  C  C51  1  0.60832000  0.66866000  0.93266000  1.0
  C  C52  1  0.93956000  0.14220000  0.59338000  1.0
  C  C53  1  0.56045000  0.35780000  0.09338000  1.0
  C  C54  1  0.06044000  0.85779000  0.40662000  1.0
  C  C55  1  0.43955000  0.64221000  0.90662000  1.0
  C  C56  1  0.83536000  0.12174000  0.52329000  1.0
  C  C57  1  0.66465000  0.37826000  0.02329000  1.0
  C  C58  1  0.16464000  0.87826000  0.47671000  1.0
  C  C59  1  0.33535000  0.62174000  0.97671000  1.0
  C  C60  1  0.94639000  0.13862000  0.45826000  1.0
  C  C61  1  0.55362000  0.36138000  0.95826000  1.0
  C  C62  1  0.05362000  0.86139000  0.54174000  1.0
  C  C63  1  0.44638000  0.63862000  0.04174000  1.0
  C  C64  1  0.91252000  0.13970000  0.37070000  1.0
  C  C65  1  0.58749000  0.36030000  0.87070000  1.0
  C  C66  1  0.08749000  0.86030000  0.62930000  1.0
  C  C67  1  0.41252000  0.63970000  0.12930000  1.0
  C  C68  1  0.76124000  0.12589000  0.80806000  1.0
  C  C69  1  0.73877000  0.37410000  0.30806000  1.0
  C  C70  1  0.23876000  0.87410000  0.19194000  1.0
  C  C71  1  0.26124000  0.62590000  0.69194000  1.0
  C  C72  1  0.78223000  0.01283000  0.82749000  1.0
  C  C73  1  0.71778000  0.48716000  0.32749000  1.0
  C  C74  1  0.21777000  0.98717000  0.17251000  1.0
  C  C75  1  0.28223000  0.51283000  0.67251000  1.0
  C  C76  1  0.59153000  0.00737000  0.72828000  1.0
  C  C77  1  0.90848000  0.49263000  0.22828000  1.0
  C  C78  1  0.40847000  0.99263000  0.27172000  1.0
  C  C79  1  0.09153000  0.50737000  0.77172000  1.0
  C  C80  1  0.71576000  0.52012000  0.67960000  1.0
  C  C81  1  0.78423000  0.97989000  0.17960000  1.0
  C  C82  1  0.28423000  0.47988000  0.32040000  1.0
  C  C83  1  0.21577000  0.02011000  0.82041000  1.0
  C  C84  1  0.68569000  0.42987000  0.56300000  1.0
  C  C85  1  0.81431000  0.07014000  0.06300000  1.0
  C  C86  1  0.31431000  0.57013000  0.43700000  1.0
  C  C87  1  0.18569000  0.92986000  0.93700000  1.0
  C  C88  1  0.75724000  0.54494000  0.54833000  1.0
  C  C89  1  0.74276000  0.95507000  0.04833000  1.0
  C  C90  1  0.24276000  0.45507000  0.45167000  1.0
  C  C91  1  0.25724000  0.04493000  0.95167000  1.0
  N  N92  1  0.64129000  0.12155000  0.74599000  1.0
  N  N93  1  0.85872000  0.37845000  0.24598000  1.0
  N  N94  1  0.35872000  0.87846000  0.25401000  1.0
  N  N95  1  0.14129000  0.62155000  0.75402000  1.0
  N  N96  1  0.67424000  0.94000000  0.77691000  1.0
  N  N97  1  0.82577000  0.56000000  0.27691000  1.0
  N  N98  1  0.32575000  0.06000000  0.22309000  1.0
  N  N99  1  0.17424000  0.44000000  0.72309000  1.0
  N  N100  1  0.66062000  0.41511000  0.64563000  1.0
  N  N101  1  0.83938000  0.08489000  0.14562000  1.0
  N  N102  1  0.33938000  0.58489000  0.35437000  1.0
  N  N103  1  0.16062000  0.91511000  0.85438000  1.0
  N  N104  1  0.77405000  0.60012000  0.62250000  1.0
  N  N105  1  0.72594000  0.89989000  0.12250000  1.0
  N  N106  1  0.22595000  0.39989000  0.37750000  1.0
  N  N107  1  0.27406000  0.10011000  0.87750000  1.0
  O  O108  1  0.25770000  0.21983000  0.68838000  1.0
  O  O109  1  0.24229000  0.28017000  0.18838000  1.0
  O  O110  1  0.74229000  0.78016000  0.31162000  1.0
  O  O111  1  0.75769000  0.71983000  0.81161000  1.0
  O  O112  1  0.41628000  0.19637000  0.57902000  1.0
  O  O113  1  0.08373000  0.30363000  0.07900000  1.0
  O  O114  1  0.58373000  0.80363000  0.42100000  1.0
  O  O115  1  0.91626000  0.69638000  0.92098000  1.0
  O  O116  1  0.11413000  0.16703000  0.48456000  1.0
  O  O117  1  0.38588000  0.33296000  0.98455000  1.0
  O  O118  1  0.88587000  0.83297000  0.51545000  1.0
  O  O119  1  0.61412000  0.66704000  0.01544000  1.0
  O  O120  1  0.04070000  0.18492000  0.32489000  1.0
  O  O121  1  0.45931000  0.31508000  0.82490000  1.0
  O  O122  1  0.95932000  0.81508000  0.67511000  1.0
  O  O123  1  0.54069000  0.68492000  0.17510000  1.0
  O  O124  1  0.76345000  0.10176000  0.34562000  1.0
  O  O125  1  0.73656000  0.39824000  0.84562000  1.0
  O  O126  1  0.23656000  0.89824000  0.65439000  1.0
  O  O127  1  0.26345000  0.60176000  0.15438000  1.0
