# generated using pymatgen
data_ZnH41C37N3O8
_symmetry_space_group_name_H-M   'P 1'
_cell_length_a   10.60840000
_cell_length_b   18.79100000
_cell_length_c   19.16600000
_cell_angle_alpha   89.55180000
_cell_angle_beta   94.12970000
_cell_angle_gamma   89.93980000
_symmetry_Int_Tables_number   1
_chemical_formula_structural   ZnH41C37N3O8
_chemical_formula_sum   'Zn2 H82 C74 N6 O16'
_cell_volume   3810.55586063
_cell_formula_units_Z   2
loop_
 _symmetry_equiv_pos_site_id
 _symmetry_equiv_pos_as_xyz
  1  'x, y, z'
loop_
 _atom_site_type_symbol
 _atom_site_label
 _atom_site_symmetry_multiplicity
 _atom_site_fract_x
 _atom_site_fract_y
 _atom_site_fract_z
 _atom_site_occupancy
  Zn  Zn0  1  0.51016000  0.41889000  0.50164000  1.0
  Zn  Zn1  1  0.51677000  0.58623000  0.50180000  1.0
  H  H2  1  0.43906000  0.62327000  0.72204000  1.0
  H  H3  1  0.59746000  0.40769000  0.27213000  1.0
  H  H4  1  0.33990000  0.58119000  0.29694000  1.0
  H  H5  1  0.39207000  0.39657000  0.70724000  1.0
  H  H6  1  0.17443000  0.44898000  0.92714000  1.0
  H  H7  1  0.54658000  0.53939000  0.07192000  1.0
  H  H8  1  0.18112000  0.43871000  0.05637000  1.0
  H  H9  1  0.53988000  0.55029000  0.94304000  1.0
  H  H10  1  0.51597000  0.17045000  0.61710000  1.0
  H  H11  1  0.32366000  0.83228000  0.44371000  1.0
  H  H12  1  0.47410000  0.16901000  0.39257000  1.0
  H  H13  1  0.68142000  0.83707000  0.56345000  1.0
  H  H14  1  0.01503000  0.66039000  0.36832000  1.0
  H  H15  1  0.01106000  0.58649000  0.31139000  1.0
  H  H16  1  0.89070000  0.65192000  0.30216000  1.0
  H  H17  1  0.80600000  0.54590000  0.36194000  1.0
  H  H18  1  0.81387000  0.61824000  0.41853000  1.0
  H  H19  1  0.00981000  0.39338000  0.67540000  1.0
  H  H20  1  0.00599000  0.32172000  0.61589000  1.0
  H  H21  1  0.13114000  0.32853000  0.68231000  1.0
  H  H22  1  0.20700000  0.36731000  0.56684000  1.0
  H  H23  1  0.21364000  0.43702000  0.62665000  1.0
  H  H24  1  0.91334000  0.38011000  0.32616000  1.0
  H  H25  1  0.90112000  0.46839000  0.29320000  1.0
  H  H26  1  0.00546000  0.40742000  0.25715000  1.0
  H  H27  1  0.12856000  0.49124000  0.33673000  1.0
  H  H28  1  0.14356000  0.40358000  0.36782000  1.0
  H  H29  1  0.12385000  0.51684000  0.69417000  1.0
  H  H30  1  0.10761000  0.60549000  0.66269000  1.0
  H  H31  1  0.01956000  0.57619000  0.73277000  1.0
  H  H32  1  0.87766000  0.58050000  0.62321000  1.0
  H  H33  1  0.89519000  0.49260000  0.65347000  1.0
  H  H34  1  0.05897000  0.30393000  0.41056000  1.0
  H  H35  1  0.08843000  0.28771000  0.50136000  1.0
  H  H36  1  0.96774000  0.23990000  0.45310000  1.0
  H  H37  1  0.86757000  0.33431000  0.52124000  1.0
  H  H38  1  0.84070000  0.35153000  0.43190000  1.0
  H  H39  1  0.92296000  0.69536000  0.49185000  1.0
  H  H40  1  0.96589000  0.68270000  0.58231000  1.0
  H  H41  1  0.04718000  0.74610000  0.53375000  1.0
  H  H42  1  0.17928000  0.63650000  0.55447000  1.0
  H  H43  1  0.14232000  0.65274000  0.46567000  1.0
  H  H44  1  0.68394000  0.22189000  0.68284000  1.0
  H  H45  1  0.77069000  0.27489000  0.62583000  1.0
  H  H46  1  0.73232000  0.30874000  0.70788000  1.0
  H  H47  1  0.58933000  0.36461000  0.61779000  1.0
  H  H48  1  0.50018000  0.30613000  0.66683000  1.0
  H  H49  1  0.17273000  0.75903000  0.39257000  1.0
  H  H50  1  0.28979000  0.78422000  0.33501000  1.0
  H  H51  1  0.20127000  0.70577000  0.31934000  1.0
  H  H52  1  0.41555000  0.67401000  0.36946000  1.0
  H  H53  1  0.30427000  0.64726000  0.42628000  1.0
  H  H54  1  0.40344000  0.22548000  0.29904000  1.0
  H  H55  1  0.26925000  0.24725000  0.34532000  1.0
  H  H56  1  0.31949000  0.30516000  0.27933000  1.0
  H  H57  1  0.38397000  0.35812000  0.39187000  1.0
  H  H58  1  0.52038000  0.33144000  0.35370000  1.0
  H  H59  1  0.82988000  0.77773000  0.62159000  1.0
  H  H60  1  0.70192000  0.76906000  0.67636000  1.0
  H  H61  1  0.82424000  0.70454000  0.67972000  1.0
  H  H62  1  0.63748000  0.65423000  0.61519000  1.0
  H  H63  1  0.75624000  0.66467000  0.55791000  1.0
  H  H64  1  0.18149000  0.07196000  0.50658000  1.0
  H  H65  1  0.25298000  0.15582000  0.49329000  1.0
  H  H66  1  0.12325000  0.12846000  0.43655000  1.0
  H  H67  1  0.32161000  0.11184000  0.37640000  1.0
  H  H68  1  0.24400000  0.03157000  0.38981000  1.0
  H  H69  1  0.39349000  0.93332000  0.66374000  1.0
  H  H70  1  0.44418000  0.84938000  0.63440000  1.0
  H  H71  1  0.49813000  0.87988000  0.71869000  1.0
  H  H72  1  0.67023000  0.89785000  0.63844000  1.0
  H  H73  1  0.61491000  0.97781000  0.67011000  1.0
  H  H74  1  0.80895000  0.06380000  0.50408000  1.0
  H  H75  1  0.74037000  0.14932000  0.51156000  1.0
  H  H76  1  0.86903000  0.12306000  0.57037000  1.0
  H  H77  1  0.66974000  0.11305000  0.63088000  1.0
  H  H78  1  0.74320000  0.03059000  0.62298000  1.0
  H  H79  1  0.59247000  0.93883000  0.34272000  1.0
  H  H80  1  0.54815000  0.85370000  0.37307000  1.0
  H  H81  1  0.48669000  0.88499000  0.28998000  1.0
  H  H82  1  0.31958000  0.89964000  0.37333000  1.0
  H  H83  1  0.37052000  0.98069000  0.34134000  1.0
  C  C84  1  0.52093000  0.50384000  0.36864000  1.0
  C  C85  1  0.46242000  0.51192000  0.63278000  1.0
  C  C86  1  0.27405000  0.49765000  0.48305000  1.0
  C  C87  1  0.74891000  0.49149000  0.51361000  1.0
  C  C88  1  0.03525000  0.47052000  0.42938000  1.0
  C  C89  1  0.98582000  0.51482000  0.56016000  1.0
  C  C90  1  0.96871000  0.42343000  0.48503000  1.0
  C  C91  1  0.05060000  0.56227000  0.50443000  1.0
  C  C92  1  0.94853000  0.53638000  0.44542000  1.0
  C  C93  1  0.07109000  0.44891000  0.54368000  1.0
  C  C94  1  0.88489000  0.48911000  0.50093000  1.0
  C  C95  1  0.13526000  0.49711000  0.48809000  1.0
  C  C96  1  0.41780000  0.57218000  0.74565000  1.0
  C  C97  1  0.52293000  0.44338000  0.25117000  1.0
  C  C98  1  0.37810000  0.54002000  0.26487000  1.0
  C  C99  1  0.39157000  0.44527000  0.73752000  1.0
  C  C100  1  0.38516000  0.56847000  0.81451000  1.0
  C  C101  1  0.47707000  0.43826000  0.18159000  1.0
  C  C102  1  0.33243000  0.53240000  0.19548000  1.0
  C  C103  1  0.36630000  0.44321000  0.80769000  1.0
  C  C104  1  0.36411000  0.50396000  0.84977000  1.0
  C  C105  1  0.38243000  0.48303000  0.15007000  1.0
  C  C106  1  0.42262000  0.50989000  0.70673000  1.0
  C  C107  1  0.47426000  0.49551000  0.29313000  1.0
  C  C108  1  0.25607000  0.46899000  0.95885000  1.0
  C  C109  1  0.46454000  0.52002000  0.04010000  1.0
  C  C110  1  0.25929000  0.46330000  0.03146000  1.0
  C  C111  1  0.46049000  0.52647000  0.96777000  1.0
  C  C112  1  0.36417000  0.48820000  0.07251000  1.0
  C  C113  1  0.35677000  0.50032000  0.92651000  1.0
  C  C114  1  0.52688000  0.27031000  0.56363000  1.0
  C  C115  1  0.42244000  0.73422000  0.46061000  1.0
  C  C116  1  0.47586000  0.27012000  0.44267000  1.0
  C  C117  1  0.60005000  0.73557000  0.54029000  1.0
  C  C118  1  0.51126000  0.19663000  0.56624000  1.0
  C  C119  1  0.40701000  0.80724000  0.46894000  1.0
  C  C120  1  0.48287000  0.19619000  0.44241000  1.0
  C  C121  1  0.60168000  0.80971000  0.53746000  1.0
  C  C122  1  0.49583000  0.15689000  0.50492000  1.0
  C  C123  1  0.50095000  0.84830000  0.50439000  1.0
  C  C124  1  0.41326000  0.04007000  0.45688000  1.0
  C  C125  1  0.55622000  0.96558000  0.56215000  1.0
  C  C126  1  0.57558000  0.03948000  0.55418000  1.0
  C  C127  1  0.43416000  0.96638000  0.44867000  1.0
  C  C128  1  0.49625000  0.92739000  0.50519000  1.0
  C  C129  1  0.49424000  0.07790000  0.50552000  1.0
  C  C130  1  0.87347000  0.58103000  0.39146000  1.0
  C  C131  1  0.95209000  0.62200000  0.34066000  1.0
  C  C132  1  0.14688000  0.40284000  0.59575000  1.0
  C  C133  1  0.06899000  0.35921000  0.64490000  1.0
  C  C134  1  0.07480000  0.44733000  0.35908000  1.0
  C  C135  1  0.96762000  0.42465000  0.30616000  1.0
  C  C136  1  0.94711000  0.53701000  0.63089000  1.0
  C  C137  1  0.05559000  0.56012000  0.68286000  1.0
  C  C138  1  0.91628000  0.34942000  0.47452000  1.0
  C  C139  1  0.01331000  0.29227000  0.45902000  1.0
  C  C140  1  0.10010000  0.63693000  0.51407000  1.0
  C  C141  1  0.00324000  0.69311000  0.53135000  1.0
  C  C142  1  0.57410000  0.30836000  0.62929000  1.0
  C  C143  1  0.69702000  0.27628000  0.66326000  1.0
  C  C144  1  0.34609000  0.69503000  0.40406000  1.0
  C  C145  1  0.24714000  0.73868000  0.36086000  1.0
  C  C146  1  0.43564000  0.31071000  0.37673000  1.0
  C  C147  1  0.35299000  0.26940000  0.32239000  1.0
  C  C148  1  0.69196000  0.69502000  0.58903000  1.0
  C  C149  1  0.76577000  0.73945000  0.64432000  1.0
  C  C150  1  0.29806000  0.07385000  0.41731000  1.0
  C  C151  1  0.20940000  0.10973000  0.46643000  1.0
  C  C152  1  0.58828000  0.93379000  0.63481000  1.0
  C  C153  1  0.47433000  0.89665000  0.66428000  1.0
  C  C154  1  0.69169000  0.07251000  0.59270000  1.0
  C  C155  1  0.78233000  0.10415000  0.54155000  1.0
  C  C156  1  0.40050000  0.93616000  0.37596000  1.0
  C  C157  1  0.51362000  0.90109000  0.34399000  1.0
  N  N158  1  0.50402000  0.30713000  0.50276000  1.0
  N  N159  1  0.51398000  0.69783000  0.49962000  1.0
  N  N160  1  0.37088000  0.63700000  0.85075000  1.0
  N  N161  1  0.53234000  0.38143000  0.14012000  1.0
  N  N162  1  0.23036000  0.58161000  0.17005000  1.0
  N  N163  1  0.35055000  0.37144000  0.83827000  1.0
  O  O164  1  0.56621000  0.44897000  0.40020000  1.0
  O  O165  1  0.49994000  0.57147000  0.61059000  1.0
  O  O166  1  0.45450000  0.45349000  0.60012000  1.0
  O  O167  1  0.50722000  0.56537000  0.39369000  1.0
  O  O168  1  0.32691000  0.43906000  0.46735000  1.0
  O  O169  1  0.69738000  0.55291000  0.50762000  1.0
  O  O170  1  0.69448000  0.43414000  0.53135000  1.0
  O  O171  1  0.33166000  0.55587000  0.49663000  1.0
  O  O172  1  0.44997000  0.68386000  0.84075000  1.0
  O  O173  1  0.27933000  0.64328000  0.88671000  1.0
  O  O174  1  0.64778000  0.37123000  0.14998000  1.0
  O  O175  1  0.45887000  0.34677000  0.10057000  1.0
  O  O176  1  0.14387000  0.55697000  0.13068000  1.0
  O  O177  1  0.23685000  0.64372000  0.19152000  1.0
  O  O178  1  0.27025000  0.33260000  0.80759000  1.0
  O  O179  1  0.41985000  0.35494000  0.89040000  1.0
