# generated using pymatgen
data_HgH6C3NCl2
_symmetry_space_group_name_H-M   'P 1'
_cell_length_a   6.26346000
_cell_length_b   6.26343000
_cell_length_c   14.91470000
_cell_angle_alpha   89.99990000
_cell_angle_beta   89.99970000
_cell_angle_gamma   87.36690000
_symmetry_Int_Tables_number   1
_chemical_formula_structural   HgH6C3NCl2
_chemical_formula_sum   'Hg4 H24 C12 N4 Cl8'
_cell_volume   584.49700051
_cell_formula_units_Z   4
loop_
 _symmetry_equiv_pos_site_id
 _symmetry_equiv_pos_as_xyz
  1  'x, y, z'
loop_
 _atom_site_type_symbol
 _atom_site_label
 _atom_site_symmetry_multiplicity
 _atom_site_fract_x
 _atom_site_fract_y
 _atom_site_fract_z
 _atom_site_occupancy
  Hg  Hg0  1  0.26263000  0.73738000  0.51390000  1.0
  Hg  Hg1  1  0.73737000  0.26262000  0.01390000  1.0
  Hg  Hg2  1  0.26263000  0.73737000  0.98610000  1.0
  Hg  Hg3  1  0.73737000  0.26264000  0.48610000  1.0
  H  H4  1  0.57436000  0.62031000  0.67051000  1.0
  H  H5  1  0.42562000  0.37967000  0.17051000  1.0
  H  H6  1  0.37968000  0.42564000  0.82949000  1.0
  H  H7  1  0.62033000  0.57438000  0.32949000  1.0
  H  H8  1  0.42562000  0.37968000  0.32949000  1.0
  H  H9  1  0.57439000  0.62033000  0.82949000  1.0
  H  H10  1  0.62032000  0.57437000  0.17051000  1.0
  H  H11  1  0.37967000  0.42561000  0.67051000  1.0
  H  H12  1  0.00602000  0.53132000  0.67154000  1.0
  H  H13  1  0.99398000  0.46867000  0.17154000  1.0
  H  H14  1  0.46866000  0.99400000  0.82846000  1.0
  H  H15  1  0.53132000  0.00601000  0.32846000  1.0
  H  H16  1  0.99399000  0.46868000  0.32846000  1.0
  H  H17  1  0.00601000  0.53131000  0.82846000  1.0
  H  H18  1  0.53133000  0.00601000  0.17155000  1.0
  H  H19  1  0.46869000  0.99398000  0.67154000  1.0
  H  H20  1  0.92562000  0.80728000  0.67129000  1.0
  H  H21  1  0.07439000  0.19272000  0.17129000  1.0
  H  H22  1  0.19270000  0.07438000  0.82871000  1.0
  H  H23  1  0.80728000  0.92562000  0.32871000  1.0
  H  H24  1  0.07438000  0.19272000  0.32870000  1.0
  H  H25  1  0.92563000  0.80727000  0.82870000  1.0
  H  H26  1  0.80729000  0.92561000  0.17129000  1.0
  H  H27  1  0.19273000  0.07438000  0.67129000  1.0
  C  C28  1  0.41917000  0.58086000  0.69812000  1.0
  C  C29  1  0.58085000  0.41915000  0.19812000  1.0
  C  C30  1  0.41913000  0.58084000  0.80188000  1.0
  C  C31  1  0.58086000  0.41916000  0.30188000  1.0
  C  C32  1  0.04269000  0.68859000  0.69811000  1.0
  C  C33  1  0.95732000  0.31142000  0.19811000  1.0
  C  C34  1  0.31139000  0.95733000  0.80189000  1.0
  C  C35  1  0.68860000  0.04267000  0.30189000  1.0
  C  C36  1  0.95733000  0.31139000  0.30188000  1.0
  C  C37  1  0.04265000  0.68863000  0.80189000  1.0
  C  C38  1  0.68860000  0.04267000  0.19812000  1.0
  C  C39  1  0.31139000  0.95733000  0.69811000  1.0
  N  N40  1  0.25738000  0.74262000  0.66419000  1.0
  N  N41  1  0.74262000  0.25737000  0.16419000  1.0
  N  N42  1  0.25738000  0.74262000  0.83580000  1.0
  N  N43  1  0.74262000  0.25739000  0.33581000  1.0
  Cl  Cl44  1  0.28488000  0.28488000  0.50000000  1.0
  Cl  Cl45  1  0.71512000  0.71512000  0.00000000  1.0
  Cl  Cl46  1  0.71513000  0.71513000  0.50000000  1.0
  Cl  Cl47  1  0.28487000  0.28487000  0.00000000  1.0
  Cl  Cl48  1  0.19766000  0.80234000  0.35933000  1.0
  Cl  Cl49  1  0.80233000  0.19766000  0.85933000  1.0
  Cl  Cl50  1  0.19766000  0.80234000  0.14068000  1.0
  Cl  Cl51  1  0.80234000  0.19766000  0.64067000  1.0
