# generated using pymatgen
data_Zn4H45C83N23
_symmetry_space_group_name_H-M   'P 1'
_cell_length_a   19.02610000
_cell_length_b   19.03840000
_cell_length_c   20.24840000
_cell_angle_alpha   104.78600000
_cell_angle_beta   108.19600000
_cell_angle_gamma   112.38700000
_symmetry_Int_Tables_number   1
_chemical_formula_structural   Zn4H45C83N23
_chemical_formula_sum   'Zn4 H45 C83 N23'
_cell_volume   5828.95892411
_cell_formula_units_Z   1
loop_
 _symmetry_equiv_pos_site_id
 _symmetry_equiv_pos_as_xyz
  1  'x, y, z'
loop_
 _atom_site_type_symbol
 _atom_site_label
 _atom_site_symmetry_multiplicity
 _atom_site_fract_x
 _atom_site_fract_y
 _atom_site_fract_z
 _atom_site_occupancy
  Zn  Zn0  1  0.88533000  0.89195000  0.50321000  1.0
  Zn  Zn1  1  0.10244000  0.10102000  0.49940000  1.0
  Zn  Zn2  1  0.09290000  0.99598000  0.60397000  1.0
  Zn  Zn3  1  0.89229000  0.99161000  0.39380000  1.0
  H  H4  1  0.83914000  0.00700000  0.61315000  1.0
  H  H5  1  0.30049000  0.74370000  0.48131000  1.0
  H  H6  1  0.12024000  0.26417000  0.61768000  1.0
  H  H7  1  0.42803000  0.74265000  0.47634000  1.0
  H  H8  1  0.54856000  0.79613000  0.44617000  1.0
  H  H9  1  0.56143000  0.95124000  0.32253000  1.0
  H  H10  1  0.31581000  0.98238000  0.28124000  1.0
  H  H11  1  0.84122000  0.60225000  0.54410000  1.0
  H  H12  1  0.11498000  0.74226000  0.68660000  1.0
  H  H13  1  0.19123000  0.67024000  0.73038000  1.0
  H  H14  1  0.19032000  0.53823000  0.72182000  1.0
  H  H15  1  0.13075000  0.99378000  0.37246000  1.0
  H  H16  1  0.11309000  0.38328000  0.66091000  1.0
  H  H17  1  0.29222000  0.11992000  0.74749000  1.0
  H  H18  1  0.83919000  0.24379000  0.51972000  1.0
  H  H19  1  0.75869000  0.31874000  0.49988000  1.0
  H  H20  1  0.75983000  0.45077000  0.50803000  1.0
  H  H21  1  0.43712000  0.19681000  0.81746000  1.0
  H  H22  1  0.57409000  0.30903000  0.93095000  1.0
  H  H23  1  0.70654000  0.46341000  0.14698000  1.0
  H  H24  1  0.44066000  0.37074000  0.71556000  1.0
  H  H25  1  0.77759000  0.62069000  0.03357000  1.0
  H  H26  1  0.11915000  0.86031000  0.67222000  1.0
  H  H27  1  0.58010000  0.48163000  0.82843000  1.0
  H  H28  1  0.68915000  0.95789000  0.32768000  1.0
  H  H29  1  0.86284000  0.74580000  0.15837000  1.0
  H  H30  1  0.88924000  0.12197000  0.17709000  1.0
  H  H31  1  0.89170000  0.15718000  0.06792000  1.0
  H  H32  1  0.83320000  0.10169000  0.85724000  1.0
  H  H33  1  0.83309000  0.05747000  0.73052000  1.0
  H  H34  1  0.16384000  0.23038000  0.28067000  1.0
  H  H35  1  0.10483000  0.26846000  0.96805000  1.0
  H  H36  1  0.16485000  0.26773000  0.17186000  1.0
  H  H37  1  0.88049000  0.04501000  0.24416000  1.0
  H  H38  1  0.10563000  0.22806000  0.84187000  1.0
  H  H39  1  0.30753000  0.25496000  0.60483000  1.0
  H  H40  1  0.68759000  0.83234000  0.47835000  1.0
  H  H41  1  0.84506000  0.12122000  0.47693000  1.0
  H  H42  1  0.11569000  0.14465000  0.74415000  1.0
  H  H43  1  0.87568000  0.72624000  0.39657000  1.0
  H  H44  1  0.84516000  0.71785000  0.52827000  1.0
  H  H45  1  0.87638000  0.85379000  0.24690000  1.0
  H  H46  1  0.12976000  0.85741000  0.51451000  1.0
  H  H47  1  0.21421000  0.95395000  0.33492000  1.0
  H  H48  1  0.20479000  0.80383000  0.46324000  1.0
  C  C49  1  0.90774000  0.03280000  0.63564000  1.0
  C  C50  1  0.91271000  0.76436000  0.56239000  1.0
  C  C51  1  0.88015000  0.83432000  0.29322000  1.0
  C  C52  1  0.05362000  0.21819000  0.57793000  1.0
  C  C53  1  0.12442000  0.89695000  0.48515000  1.0
  C  C54  1  0.86442000  0.75552000  0.29322000  1.0
  C  C55  1  0.14885000  0.90869000  0.42814000  1.0
  C  C56  1  0.98083000  0.75664000  0.60600000  1.0
  C  C57  1  0.02046000  0.13759000  0.29267000  1.0
  C  C58  1  0.23649000  0.91665000  0.35860000  1.0
  C  C59  1  0.20304000  0.88291000  0.40316000  1.0
  C  C60  1  0.98024000  0.22623000  0.56158000  1.0
  C  C61  1  0.23159000  0.83295000  0.43046000  1.0
  C  C62  1  0.29754000  0.82291000  0.42067000  1.0
  C  C63  1  0.33647000  0.86401000  0.38133000  1.0
  C  C64  1  0.28221000  0.14311000  0.70362000  1.0
  C  C65  1  0.30289000  0.90887000  0.34779000  1.0
  C  C66  1  0.33139000  0.77703000  0.45292000  1.0
  C  C67  1  0.40200000  0.77643000  0.45018000  1.0
  C  C68  1  0.44534000  0.82162000  0.41513000  1.0
  C  C69  1  0.41006000  0.86384000  0.37881000  1.0
  C  C70  1  0.45211000  0.90877000  0.34337000  1.0
  C  C71  1  0.33950000  0.21429000  0.70075000  1.0
  C  C72  1  0.41397000  0.94998000  0.30623000  1.0
  C  C73  1  0.34211000  0.94941000  0.30836000  1.0
  C  C74  1  0.52204000  0.82812000  0.41764000  1.0
  C  C75  1  0.56610000  0.87598000  0.38645000  1.0
  C  C76  1  0.70195000  0.92953000  0.36690000  1.0
  C  C77  1  0.52911000  0.91433000  0.34796000  1.0
  C  C78  1  0.90080000  0.60530000  0.57696000  1.0
  C  C79  1  0.97843000  0.68170000  0.61428000  1.0
  C  C80  1  0.05396000  0.68344000  0.65622000  1.0
  C  C81  1  0.05413000  0.61043000  0.65819000  1.0
  C  C82  1  0.65023000  0.88836000  0.39689000  1.0
  C  C83  1  0.97537000  0.53234000  0.61696000  1.0
  C  C84  1  0.89769000  0.53072000  0.57749000  1.0
  C  C85  1  0.13125000  0.61033000  0.69754000  1.0
  C  C86  1  0.13076000  0.53726000  0.69282000  1.0
  C  C87  1  0.05313000  0.45754000  0.64813000  1.0
  C  C88  1  0.28992000  0.21298000  0.63176000  1.0
  C  C89  1  0.97487000  0.45644000  0.61205000  1.0
  C  C90  1  0.89667000  0.37793000  0.56761000  1.0
  C  C91  1  0.81876000  0.37852000  0.53240000  1.0
  C  C92  1  0.81932000  0.45160000  0.53692000  1.0
  C  C93  1  0.87882000  0.76873000  0.36935000  1.0
  C  C94  1  0.05227000  0.38122000  0.63506000  1.0
  C  C95  1  0.97664000  0.30360000  0.58656000  1.0
  C  C96  1  0.89916000  0.30325000  0.55612000  1.0
  C  C97  1  0.82914000  0.67895000  0.22528000  1.0
  C  C98  1  0.82757000  0.68413000  0.15633000  1.0
  C  C99  1  0.78078000  0.61456000  0.08634000  1.0
  C  C100  1  0.70094000  0.86515000  0.44323000  1.0
  C  C101  1  0.73375000  0.53422000  0.08210000  1.0
  C  C102  1  0.74115000  0.52581000  0.15015000  1.0
  C  C103  1  0.78743000  0.59672000  0.22096000  1.0
  C  C104  1  0.12464000  0.96622000  0.41256000  1.0
  C  C105  1  0.54442000  0.32148000  0.88325000  1.0
  C  C106  1  0.46764000  0.25961000  0.82010000  1.0
  C  C107  1  0.58380000  0.40316000  0.88764000  1.0
  C  C108  1  0.42648000  0.27651000  0.75982000  1.0
  C  C109  1  0.46988000  0.35637000  0.76202000  1.0
  C  C110  1  0.54767000  0.41860000  0.82480000  1.0
  C  C111  1  0.97022000  0.13594000  0.77710000  1.0
  C  C112  1  0.91346000  0.14539000  0.50605000  1.0
  C  C113  1  0.04564000  0.19940000  0.84486000  1.0
  C  C114  1  0.04581000  0.22301000  0.91546000  1.0
  C  C115  1  0.05224000  0.83662000  0.63523000  1.0
  C  C116  1  0.96917000  0.18450000  0.92044000  1.0
  C  C117  1  0.89220000  0.12910000  0.85241000  1.0
  C  C118  1  0.89279000  0.10483000  0.78192000  1.0
  C  C119  1  0.95066000  0.17330000  0.11518000  1.0
  C  C120  1  0.94997000  0.15309000  0.17594000  1.0
  C  C121  1  0.02850000  0.21269000  0.11241000  1.0
  C  C122  1  0.02589000  0.17031000  0.23562000  1.0
  C  C123  1  0.10388000  0.21477000  0.23494000  1.0
  C  C124  1  0.04889000  0.10365000  0.70214000  1.0
  C  C125  1  0.10505000  0.23606000  0.17435000  1.0
  C  C126  1  0.94604000  0.07690000  0.28857000  1.0
  C  C127  1  0.97477000  0.09698000  0.70768000  1.0
  C  C128  1  0.17453000  0.20964000  0.40140000  1.0
  C  C129  1  0.45351000  0.99354000  0.26875000  1.0
  C  C130  1  0.78635000  0.58278000  0.28668000  1.0
  C  C131  1  0.08531000  0.15350000  0.36220000  1.0
  N  N132  1  0.94013000  0.00344000  0.59231000  1.0
  N  N133  1  0.65325000  0.47393000  0.95384000  1.0
  N  N134  1  0.96364000  0.18865000  0.98867000  1.0
  N  N135  1  0.03170000  0.13956000  0.53445000  1.0
  N  N136  1  0.03531000  0.22322000  0.04789000  1.0
  N  N137  1  0.20546000  0.10318000  0.64200000  1.0
  N  N138  1  0.77669000  0.93033000  0.39320000  1.0
  N  N139  1  0.21026000  0.14664000  0.59714000  1.0
  N  N140  1  0.77597000  0.89017000  0.44078000  1.0
  N  N141  1  0.94553000  0.09473000  0.49013000  1.0
  N  N142  1  0.02687000  0.04703000  0.63329000  1.0
  N  N143  1  0.09063000  0.98780000  0.45792000  1.0
  N  N144  1  0.89944000  0.84776000  0.40933000  1.0
  N  N145  1  0.24851000  0.25507000  0.43731000  1.0
  N  N146  1  0.48766000  0.02897000  0.23874000  1.0
  N  N147  1  0.78469000  0.57020000  0.33992000  1.0
  N  N148  1  0.02847000  0.88739000  0.61108000  1.0
  N  N149  1  0.96479000  0.05868000  0.34962000  1.0
  N  N150  1  0.05049000  0.10534000  0.39526000  1.0
  N  N151  1  0.94135000  0.84229000  0.56570000  1.0
  N  N152  1  0.90012000  0.88794000  0.36251000  1.0
  N  N153  1  0.09062000  0.94532000  0.50266000  1.0
  N  N154  1  0.67321000  0.46095000  0.01393000  1.0
