# generated using pymatgen
data_HoZnH16C26N2ClO11
_symmetry_space_group_name_H-M   'P 1'
_cell_length_a   9.61092000
_cell_length_b   12.36520000
_cell_length_c   12.68340000
_cell_angle_alpha   74.02000000
_cell_angle_beta   84.22150000
_cell_angle_gamma   71.69730000
_symmetry_Int_Tables_number   1
_chemical_formula_structural   HoZnH16C26N2ClO11
_chemical_formula_sum   'Ho2 Zn2 H32 C52 N4 Cl2 O22'
_cell_volume   1375.58748003
_cell_formula_units_Z   2
loop_
 _symmetry_equiv_pos_site_id
 _symmetry_equiv_pos_as_xyz
  1  'x, y, z'
loop_
 _atom_site_type_symbol
 _atom_site_label
 _atom_site_symmetry_multiplicity
 _atom_site_fract_x
 _atom_site_fract_y
 _atom_site_fract_z
 _atom_site_occupancy
  Ho  Ho0  1  0.70594000  0.02855000  0.96935000  1.0
  Ho  Ho1  1  0.29406000  0.97145000  0.03065000  1.0
  Zn  Zn2  1  0.83633000  0.84814000  0.68879000  1.0
  Zn  Zn3  1  0.16367000  0.15186000  0.31121000  1.0
  H  H4  1  0.56355000  0.24332000  0.06258000  1.0
  H  H5  1  0.43645000  0.75668000  0.93742000  1.0
  H  H6  1  0.44844000  0.17568000  0.04800000  1.0
  H  H7  1  0.55155000  0.82432000  0.95200000  1.0
  H  H8  1  0.83700000  0.71078000  0.28430000  1.0
  H  H9  1  0.16300000  0.28922000  0.71570000  1.0
  H  H10  1  0.80893000  0.54700000  0.44426000  1.0
  H  H11  1  0.19108000  0.45300000  0.55574000  1.0
  H  H12  1  0.56008000  0.55687000  0.53046000  1.0
  H  H13  1  0.43992000  0.44313000  0.46954000  1.0
  H  H14  1  0.04891000  0.75966000  0.53069000  1.0
  H  H15  1  0.95109000  0.24034000  0.46931000  1.0
  H  H16  1  0.44699000  0.84203000  0.56049000  1.0
  H  H17  1  0.55301000  0.15797000  0.43951000  1.0
  H  H18  1  0.30927000  0.95777000  0.69303000  1.0
  H  H19  1  0.69073000  0.04223000  0.30697000  1.0
  H  H20  1  0.04811000  0.96523000  0.74143000  1.0
  H  H21  1  0.95189000  0.03477000  0.25857000  1.0
  H  H22  1  0.16535000  0.67348000  0.20750000  1.0
  H  H23  1  0.83464000  0.32652000  0.79250000  1.0
  H  H24  1  0.10836000  0.48195000  0.29644000  1.0
  H  H25  1  0.89163000  0.51805000  0.70356000  1.0
  H  H26  1  0.92248000  0.43007000  0.21517000  1.0
  H  H27  1  0.07752000  0.56993000  0.78483000  1.0
  H  H28  1  0.73908000  0.37386000  0.99677000  1.0
  H  H29  1  0.26092000  0.62614000  0.00323000  1.0
  H  H30  1  0.59352000  0.62344000  0.19436000  1.0
  H  H31  1  0.40648000  0.37656000  0.80564000  1.0
  H  H32  1  0.41145000  0.51662000  0.28461000  1.0
  H  H33  1  0.58855000  0.48338000  0.71539000  1.0
  H  H34  1  0.40615000  0.33966000  0.22786000  1.0
  H  H35  1  0.59385000  0.66034000  0.77214000  1.0
  C  C36  1  0.45582000  0.72168000  0.41843000  1.0
  C  C37  1  0.54418000  0.27833000  0.58157000  1.0
  C  C38  1  0.46873000  0.81221000  0.32735000  1.0
  C  C39  1  0.53127000  0.18779000  0.67265000  1.0
  C  C40  1  0.60824000  0.80619000  0.27869000  1.0
  C  C41  1  0.39176000  0.19381000  0.72131000  1.0
  C  C42  1  0.73023000  0.71194000  0.32253000  1.0
  C  C43  1  0.26978000  0.28806000  0.67747000  1.0
  C  C44  1  0.71393000  0.62098000  0.41143000  1.0
  C  C45  1  0.28607000  0.37902000  0.58857000  1.0
  C  C46  1  0.57601000  0.62557000  0.45976000  1.0
  C  C47  1  0.42399000  0.37443000  0.54024000  1.0
  C  C48  1  0.33635000  0.91692000  0.28924000  1.0
  C  C49  1  0.66365000  0.08308000  0.71076000  1.0
  C  C50  1  0.62814000  0.89470000  0.17619000  1.0
  C  C51  1  0.37186000  0.10530000  0.82381000  1.0
  C  C52  1  0.11066000  0.80197000  0.56529000  1.0
  C  C53  1  0.88934000  0.19802000  0.43471000  1.0
  C  C54  1  0.25745000  0.79164000  0.53656000  1.0
  C  C55  1  0.74255000  0.20836000  0.46344000  1.0
  C  C56  1  0.33241000  0.84806000  0.58183000  1.0
  C  C57  1  0.66759000  0.15194000  0.41817000  1.0
  C  C58  1  0.25595000  0.91228000  0.65547000  1.0
  C  C59  1  0.74405000  0.08772000  0.34453000  1.0
  C  C60  1  0.11022000  0.91803000  0.68240000  1.0
  C  C61  1  0.88978000  0.08196000  0.31760000  1.0
  C  C62  1  0.87425000  0.58893000  0.08356000  1.0
  C  C63  1  0.12575000  0.41107000  0.91644000  1.0
  C  C64  1  0.90689000  0.69377000  0.03238000  1.0
  C  C65  1  0.09311000  0.30623000  0.96762000  1.0
  C  C66  1  0.01185000  0.72373000  0.07841000  1.0
  C  C67  1  0.98815000  0.27627000  0.92159000  1.0
  C  C68  1  0.08389000  0.64811000  0.17392000  1.0
  C  C69  1  0.91611000  0.35189000  0.82608000  1.0
  C  C70  1  0.05088000  0.54331000  0.22353000  1.0
  C  C71  1  0.94912000  0.45669000  0.77647000  1.0
  C  C72  1  0.94560000  0.51335000  0.17881000  1.0
  C  C73  1  0.05440000  0.48665000  0.82119000  1.0
  C  C74  1  0.83502000  0.77044000  0.92641000  1.0
  C  C75  1  0.16498000  0.22955000  0.07359000  1.0
  C  C76  1  0.04677000  0.83606000  0.02242000  1.0
  C  C77  1  0.95322000  0.16394000  0.97758000  1.0
  C  C78  1  0.66963000  0.40611000  0.06177000  1.0
  C  C79  1  0.33037000  0.59389000  0.93823000  1.0
  C  C80  1  0.68110000  0.50393000  0.09065000  1.0
  C  C81  1  0.31890000  0.49607000  0.90935000  1.0
  C  C82  1  0.58846000  0.54566000  0.17224000  1.0
  C  C83  1  0.41153000  0.45434000  0.82776000  1.0
  C  C84  1  0.48806000  0.48605000  0.22211000  1.0
  C  C85  1  0.51194000  0.51395000  0.77789000  1.0
  C  C86  1  0.48346000  0.38814000  0.18980000  1.0
  C  C87  1  0.51653000  0.61187000  0.81019000  1.0
  N  N88  1  0.03969000  0.86347000  0.63713000  1.0
  N  N89  1  0.96031000  0.13653000  0.36287000  1.0
  N  N90  1  0.57285000  0.34952000  0.11074000  1.0
  N  N91  1  0.42715000  0.65048000  0.88926000  1.0
  Cl  Cl92  1  0.76541000  0.74538000  0.59801000  1.0
  Cl  Cl93  1  0.23458000  0.25462000  0.40199000  1.0
  O  O94  1  0.31694000  0.72323000  0.46456000  1.0
  O  O95  1  0.68306000  0.27677000  0.53544000  1.0
  O  O96  1  0.31814000  0.99833000  0.33715000  1.0
  O  O97  1  0.68185000  0.00168000  0.66284000  1.0
  O  O98  1  0.25443000  0.91690000  0.21734000  1.0
  O  O99  1  0.74557000  0.08310000  0.78265000  1.0
  O  O100  1  0.52409000  0.94302000  0.10647000  1.0
  O  O101  1  0.47590000  0.05698000  0.89353000  1.0
  O  O102  1  0.74912000  0.91816000  0.15544000  1.0
  O  O103  1  0.25087000  0.08184000  0.84457000  1.0
  O  O104  1  0.77678000  0.56095000  0.02963000  1.0
  O  O105  1  0.22322000  0.43905000  0.97038000  1.0
  O  O106  1  0.90035000  0.74898000  0.83941000  1.0
  O  O107  1  0.09966000  0.25102000  0.16059000  1.0
  O  O108  1  0.71333000  0.85044000  0.92913000  1.0
  O  O109  1  0.28667000  0.14956000  0.07087000  1.0
  O  O110  1  0.95044000  0.91885000  0.96187000  1.0
  O  O111  1  0.04956000  0.08115000  0.03814000  1.0
  O  O112  1  0.17409000  0.83961000  0.03662000  1.0
  O  O113  1  0.82592000  0.16039000  0.96338000  1.0
  O  O114  1  0.54943000  0.18027000  0.02977000  1.0
  O  O115  1  0.45057000  0.81973000  0.97023000  1.0
