# generated using pymatgen
data_SmH15C20(N3O5)2
_symmetry_space_group_name_H-M   'P 1'
_cell_length_a   9.31962000
_cell_length_b   9.43813000
_cell_length_c   13.45590000
_cell_angle_alpha   73.25690000
_cell_angle_beta   81.66760000
_cell_angle_gamma   69.51850000
_symmetry_Int_Tables_number   1
_chemical_formula_structural   SmH15C20(N3O5)2
_chemical_formula_sum   'Sm2 H30 C40 N12 O20'
_cell_volume   1060.46919353
_cell_formula_units_Z   2
loop_
 _symmetry_equiv_pos_site_id
 _symmetry_equiv_pos_as_xyz
  1  'x, y, z'
loop_
 _atom_site_type_symbol
 _atom_site_label
 _atom_site_symmetry_multiplicity
 _atom_site_fract_x
 _atom_site_fract_y
 _atom_site_fract_z
 _atom_site_occupancy
  Sm  Sm0  1  0.23862000  0.54183000  0.48273000  1.0
  Sm  Sm1  1  0.76137000  0.45817000  0.51727000  1.0
  H  H2  1  0.91064000  0.77624000  0.47057000  1.0
  H  H3  1  0.08936000  0.22376000  0.52943000  1.0
  H  H4  1  0.02162000  0.84091000  0.50926000  1.0
  H  H5  1  0.97838000  0.15909000  0.49073000  1.0
  H  H6  1  0.26017000  0.87214000  0.35140000  1.0
  H  H7  1  0.73984000  0.12786000  0.64860000  1.0
  H  H8  1  0.43114000  0.74282000  0.36262000  1.0
  H  H9  1  0.56886000  0.25719000  0.63738000  1.0
  H  H10  1  0.68935000  0.02981000  0.45509000  1.0
  H  H11  1  0.31064000  0.97019000  0.54491000  1.0
  H  H12  1  0.54104000  0.90989000  0.21096000  1.0
  H  H13  1  0.45897000  0.09010000  0.78904000  1.0
  H  H14  1  0.46157000  0.18842000  0.11313000  1.0
  H  H15  1  0.53844000  0.81157000  0.88687000  1.0
  H  H16  1  0.58028000  0.55410000  0.22721000  1.0
  H  H17  1  0.41972000  0.44589000  0.77279000  1.0
  H  H18  1  0.24418000  0.69837000  0.01122000  1.0
  H  H19  1  0.75582000  0.30163000  0.98878000  1.0
  H  H20  1  0.15974000  0.56563000  0.94929000  1.0
  H  H21  1  0.84028000  0.43437000  0.05071000  1.0
  H  H22  1  0.25890000  0.28467000  0.03868000  1.0
  H  H23  1  0.74109000  0.71532000  0.96132000  1.0
  H  H24  1  0.05231000  0.17867000  0.81597000  1.0
  H  H25  1  0.94769000  0.82133000  0.18401000  1.0
  H  H26  1  0.35252000  0.87657000  0.08205000  1.0
  H  H27  1  0.64749000  0.12342000  0.91794000  1.0
  H  H28  1  0.80579000  0.73295000  0.69749000  1.0
  H  H29  1  0.19422000  0.26706000  0.30250000  1.0
  H  H30  1  0.01513000  0.03390000  0.74504000  1.0
  H  H31  1  0.98487000  0.96611000  0.25497000  1.0
  C  C32  1  0.60558000  0.33255000  0.38247000  1.0
  C  C33  1  0.39441000  0.66745000  0.61754000  1.0
  C  C34  1  0.58749000  0.22261000  0.32790000  1.0
  C  C35  1  0.41251000  0.77739000  0.67210000  1.0
  C  C36  1  0.63809000  0.06448000  0.38033000  1.0
  C  C37  1  0.36191000  0.93552000  0.61968000  1.0
  C  C38  1  0.61910000  0.95112000  0.34062000  1.0
  C  C39  1  0.38090000  0.04887000  0.65939000  1.0
  C  C40  1  0.55351000  0.99716000  0.24416000  1.0
  C  C41  1  0.44649000  0.00284000  0.75585000  1.0
  C  C42  1  0.50739000  0.15341000  0.18948000  1.0
  C  C43  1  0.49262000  0.84658000  0.81052000  1.0
  C  C44  1  0.52102000  0.26741000  0.23164000  1.0
  C  C45  1  0.47898000  0.73259000  0.76836000  1.0
  C  C46  1  0.49659000  0.55509000  0.17868000  1.0
  C  C47  1  0.50342000  0.44490000  0.82133000  1.0
  C  C48  1  0.32699000  0.62216000  0.06892000  1.0
  C  C49  1  0.67301000  0.37784000  0.93108000  1.0
  C  C50  1  0.02875000  0.42178000  0.78948000  1.0
  C  C51  1  0.97124000  0.57823000  0.21051000  1.0
  C  C52  1  0.05802000  0.53032000  0.82951000  1.0
  C  C53  1  0.94198000  0.46968000  0.17049000  1.0
  C  C54  1  0.14045000  0.47920000  0.91923000  1.0
  C  C55  1  0.85955000  0.52080000  0.08076000  1.0
  C  C56  1  0.19445000  0.32110000  0.96949000  1.0
  C  C57  1  0.80555000  0.67890000  0.03050000  1.0
  C  C58  1  0.16154000  0.21219000  0.93270000  1.0
  C  C59  1  0.83845000  0.78780000  0.06730000  1.0
  C  C60  1  0.07692000  0.26457000  0.84396000  1.0
  C  C61  1  0.92308000  0.73543000  0.15603000  1.0
  C  C62  1  0.21570000  0.04054000  0.98140000  1.0
  C  C63  1  0.78429000  0.95946000  0.01858000  1.0
  C  C64  1  0.95948000  0.46008000  0.68731000  1.0
  C  C65  1  0.04051000  0.53993000  0.31269000  1.0
  C  C66  1  0.88212000  0.78033000  0.72107000  1.0
  C  C67  1  0.11788000  0.21968000  0.27893000  1.0
  C  C68  1  0.66754000  0.78471000  0.40059000  1.0
  C  C69  1  0.33246000  0.21529000  0.59941000  1.0
  C  C70  1  0.98949000  0.92936000  0.74833000  1.0
  C  C71  1  0.01052000  0.07064000  0.25168000  1.0
  N  N72  1  0.41084000  0.68020000  0.11263000  1.0
  N  N73  1  0.58916000  0.31980000  0.88737000  1.0
  N  N74  1  0.35600000  0.46939000  0.10371000  1.0
  N  N75  1  0.64400000  0.53061000  0.89629000  1.0
  N  N76  1  0.87180000  0.93058000  0.69717000  1.0
  N  N77  1  0.12820000  0.06942000  0.30283000  1.0
  N  N78  1  0.07079000  0.78918000  0.80154000  1.0
  N  N79  1  0.92921000  0.21082000  0.19847000  1.0
  N  N80  1  0.46529000  0.42630000  0.17476000  1.0
  N  N81  1  0.53471000  0.57369000  0.82525000  1.0
  N  N82  1  0.00207000  0.69340000  0.78309000  1.0
  N  N83  1  0.99793000  0.30660000  0.21691000  1.0
  O  O84  1  0.48655000  0.42831000  0.41413000  1.0
  O  O85  1  0.51344000  0.57169000  0.58588000  1.0
  O  O86  1  0.74137000  0.31913000  0.39780000  1.0
  O  O87  1  0.25862000  0.68088000  0.60220000  1.0
  O  O88  1  0.03408000  0.50553000  0.60457000  1.0
  O  O89  1  0.96590000  0.49448000  0.39543000  1.0
  O  O90  1  0.01427000  0.79013000  0.45746000  1.0
  O  O91  1  0.98573000  0.20987000  0.54254000  1.0
  O  O92  1  0.31994000  0.75847000  0.37499000  1.0
  O  O93  1  0.68006000  0.24152000  0.62501000  1.0
  O  O94  1  0.17663000  0.94938000  0.95054000  1.0
  O  O95  1  0.82339000  0.05063000  0.04944000  1.0
  O  O96  1  0.31223000  0.99677000  0.05775000  1.0
  O  O97  1  0.68778000  0.00323000  0.94224000  1.0
  O  O98  1  0.74647000  0.74071000  0.48144000  1.0
  O  O99  1  0.25353000  0.25928000  0.51857000  1.0
  O  O100  1  0.62890000  0.68528000  0.37221000  1.0
  O  O101  1  0.37110000  0.31472000  0.62779000  1.0
  O  O102  1  0.83259000  0.43845000  0.68749000  1.0
  O  O103  1  0.16741000  0.56156000  0.31251000  1.0
