# generated using pymatgen
data_Al6H24C65O32
_symmetry_space_group_name_H-M   'P 1'
_cell_length_a   12.50790000
_cell_length_b   12.67828042
_cell_length_c   26.95810000
_cell_angle_alpha   81.61693655
_cell_angle_beta   88.85480000
_cell_angle_gamma   60.66285637
_symmetry_Int_Tables_number   1
_chemical_formula_structural   Al6H24C65O32
_chemical_formula_sum   'Al6 H24 C65 O32'
_cell_volume   3680.33806994
_cell_formula_units_Z   1
loop_
 _symmetry_equiv_pos_site_id
 _symmetry_equiv_pos_as_xyz
  1  'x, y, z'
loop_
 _atom_site_type_symbol
 _atom_site_label
 _atom_site_symmetry_multiplicity
 _atom_site_fract_x
 _atom_site_fract_y
 _atom_site_fract_z
 _atom_site_occupancy
  Al  Al0  1  0.40862000  0.17267000  0.48904000  1.0
  Al  Al1  1  0.41777000  0.91261000  0.50471000  1.0
  Al  Al2  1  0.65805000  0.91382000  0.50392000  1.0
  Al  Al3  1  0.93542000  0.15826000  0.01734000  1.0
  Al  Al4  1  0.67888000  0.41070000  0.00606000  1.0
  Al  Al5  1  0.91212000  0.42535000  0.00458000  1.0
  H  H6  1  0.62103000  0.52850000  0.31892000  1.0
  H  H7  1  0.01944000  0.40459000  0.76420000  1.0
  H  H8  1  0.71472000  0.79506000  0.19260000  1.0
  H  H9  1  0.69997000  0.82542000  0.28222000  1.0
  H  H10  1  0.47744000  0.19786000  0.71434000  1.0
  H  H11  1  0.87113000  0.10906000  0.79730000  1.0
  H  H12  1  0.86608000  0.07131000  0.70916000  1.0
  H  H13  1  0.08654000  0.93910000  0.83116000  1.0
  H  H14  1  0.06097000  0.05176000  0.87091000  1.0
  H  H15  1  0.18287000  0.89800000  0.88722000  1.0
  H  H16  1  0.03734000  0.52156000  0.69252000  1.0
  H  H17  1  0.89584000  0.51687000  0.69241000  1.0
  H  H18  1  0.95374000  0.54964000  0.63421000  1.0
  H  H19  1  0.57134000  0.49785000  0.19318000  1.0
  H  H20  1  0.72532000  0.39414000  0.21448000  1.0
  H  H21  1  0.60667000  0.42180000  0.25670000  1.0
  H  H22  1  0.36095000  0.17811000  0.78049000  1.0
  H  H23  1  0.32033000  0.33405000  0.75664000  1.0
  H  H24  1  0.28847000  0.29407000  0.81976000  1.0
  H  H25  1  0.39136000  0.86771000  0.78362000  1.0
  H  H26  1  0.42156000  0.91521000  0.72090000  1.0
  H  H27  1  0.39939000  0.78464000  0.73370000  1.0
  H  H28  1  0.28477000  0.37281000  0.50512000  1.0
  H  H29  1  0.04821000  0.95503000  0.05778000  1.0
  C  C30  1  0.28722000  0.08886000  0.42157000  1.0
  C  C31  1  0.69439000  0.73709000  0.22058000  1.0
  C  C32  1  0.68624000  0.75408000  0.27043000  1.0
  C  C33  1  0.65897000  0.67889000  0.30628000  1.0
  C  C34  1  0.67647000  0.64473000  0.20530000  1.0
  C  C35  1  0.68558000  0.62741000  0.15440000  1.0
  C  C36  1  0.64718000  0.69834000  0.35696000  1.0
  C  C37  1  0.69361000  0.60862000  0.11097000  1.0
  C  C38  1  0.69457000  0.20122000  0.13673000  1.0
  C  C39  1  0.68514000  0.18183000  0.18209000  1.0
  C  C40  1  0.67665000  0.16260000  0.23182000  1.0
  C  C41  1  0.60846000  0.76776000  0.44620000  1.0
  C  C42  1  0.67075000  0.14749000  0.27783000  1.0
  C  C43  1  0.66253000  0.13100000  0.32766000  1.0
  C  C44  1  0.65370000  0.11506000  0.37319000  1.0
  C  C45  1  0.10072000  0.22504000  0.13622000  1.0
  C  C46  1  0.12667000  0.20344000  0.18157000  1.0
  C  C47  1  0.15354000  0.17970000  0.23120000  1.0
  C  C48  1  0.17685000  0.15721000  0.27703000  1.0
  C  C49  1  0.20562000  0.13346000  0.32650000  1.0
  C  C50  1  0.23466000  0.11201000  0.37155000  1.0
  C  C51  1  0.69214000  0.60975000  0.87445000  1.0
  C  C52  1  0.62748000  0.08898000  0.42422000  1.0
  C  C53  1  0.68313000  0.63026000  0.82836000  1.0
  C  C54  1  0.67368000  0.65088000  0.77799000  1.0
  C  C55  1  0.66453333  0.66880000  0.73162000  1.0
  C  C56  1  0.65084000  0.69317000  0.68131000  1.0
  C  C57  1  0.63720000  0.71812000  0.63532000  1.0
  C  C58  1  0.64999000  0.10110000  0.61381000  1.0
  C  C59  1  0.56262000  0.17855000  0.73319000  1.0
  C  C60  1  0.56582000  0.19887000  0.78247000  1.0
  C  C61  1  0.78561000  0.12778000  0.77880000  1.0
  C  C62  1  0.78303000  0.10687000  0.72988000  1.0
  C  C63  1  0.26810000  0.08523000  0.56183000  1.0
  C  C64  1  0.67094000  0.13282000  0.70671000  1.0
  C  C65  1  0.67847000  0.17422000  0.80583000  1.0
  C  C66  1  0.68322000  0.19720000  0.85508000  1.0
  C  C67  1  0.66343000  0.11424000  0.65671000  1.0
  C  C68  1  0.69279000  0.21642000  0.89733000  1.0
  C  C69  1  0.20825000  0.11261000  0.60777000  1.0
  C  C70  1  0.18809000  0.06528000  0.73997000  1.0
  C  C71  1  0.17059000  0.09052000  0.78947000  1.0
  C  C72  1  0.06590000  0.31096000  0.75644000  1.0
  C  C73  1  0.08316000  0.28549000  0.70748000  1.0
  C  C74  1  0.61211000  0.76997000  0.58294000  1.0
  C  C75  1  0.14736000  0.16159000  0.69876000  1.0
  C  C76  1  0.11074000  0.21419000  0.79745000  1.0
  C  C77  1  0.09809000  0.23870000  0.84725000  1.0
  C  C78  1  0.17672000  0.13479000  0.64983000  1.0
  C  C79  1  0.08937000  0.25314000  0.89120000  1.0
  C  C80  1  0.72103000  0.23008000  0.08605000  1.0
  C  C81  1  0.71972000  0.56073000  0.06467000  1.0
  C  C82  1  0.05182000  0.24820000  0.08559000  1.0
  C  C83  1  0.72256000  0.23841000  0.94437000  1.0
  C  C84  1  0.71710000  0.56144000  0.92718000  1.0
  C  C85  1  0.61736000  0.08456000  0.56600000  1.0
  C  C86  1  0.05194000  0.26457000  0.94169000  1.0
  C  C87  1  0.63519000  0.71853000  0.40019000  1.0
  C  C88  1  0.64171000  0.58633000  0.29096000  1.0
  C  C89  1  0.65090000  0.56697000  0.24112000  1.0
  C  C90  1  0.13035000  0.97070000  0.85586000  1.0
  C  C91  1  0.97922000  0.49710000  0.67215000  1.0
  C  C92  1  0.63709000  0.46507000  0.22575000  1.0
  C  C93  1  0.35296000  0.26301000  0.79019000  1.0
  C  C94  1  0.37185000  0.87511000  0.74332000  1.0
  O  O95  1  0.52958000  0.16815000  0.43996000  1.0
  O  O96  1  0.51069000  0.79244000  0.56260000  1.0
  O  O97  1  0.69190000  0.79469000  0.56227000  1.0
  O  O98  1  0.69934000  0.99299000  0.54623000  1.0
  O  O99  1  0.49619000  0.99703000  0.49933000  1.0
  O  O100  1  0.03217000  0.16730000  0.07239000  1.0
  O  O101  1  0.82345000  0.15590000  0.07136000  1.0
  O  O102  1  0.63889000  0.33270000  0.06107000  1.0
  O  O103  1  0.64498000  0.53119000  0.04746000  1.0
  O  O104  1  0.81982000  0.54475000  0.04492000  1.0
  O  O105  1  0.02799000  0.35109000  0.05888000  1.0
  O  O106  1  0.31825000  0.16436000  0.43196000  1.0
  O  O107  1  0.03731000  0.17893000  0.96477000  1.0
  O  O108  1  0.82999000  0.16575000  0.96362000  1.0
  O  O109  1  0.63971000  0.33227000  0.96261000  1.0
  O  O110  1  0.64034000  0.53366000  0.94872000  1.0
  O  O111  1  0.81717000  0.54414000  0.94699000  1.0
  O  O112  1  0.03074000  0.36304000  0.95859000  1.0
  O  O113  1  0.84098000  0.33392000  0.00953000  1.0
  O  O114  1  0.30166000  0.99170000  0.45044000  1.0
  O  O115  1  0.50499000  0.79103000  0.46451000  1.0
  O  O116  1  0.68683000  0.79110000  0.46455000  1.0
  O  O117  1  0.70521000  0.98298000  0.44841000  1.0
  O  O118  1  0.50935000  0.15857000  0.54783000  1.0
  O  O119  1  0.29040000  0.16451000  0.53724000  1.0
  O  O120  1  0.29932000  0.97876000  0.55006000  1.0
  O  O121  1  0.21864000  0.99546000  0.82859000  1.0
  O  O122  1  0.04492000  0.37107000  0.66565000  1.0
  O  O123  1  0.46750000  0.24162000  0.81105000  1.0
  O  O124  1  0.24188000  0.94808000  0.73008000  1.0
  O  O125  1  0.33307000  0.33260000  0.47834000  1.0
  O  O126  1  0.02115000  0.99863000  0.02395000  1.0
