# generated using pymatgen
data_CdH20C22N2O7
_symmetry_space_group_name_H-M   'P 1'
_cell_length_a   12.00850000
_cell_length_b   12.00850000
_cell_length_c   17.65530000
_cell_angle_alpha   96.40990000
_cell_angle_beta   96.40970000
_cell_angle_gamma   109.50600000
_symmetry_Int_Tables_number   1
_chemical_formula_structural   CdH20C22N2O7
_chemical_formula_sum   'Cd4 H80 C88 N8 O28'
_cell_volume   2354.51286684
_cell_formula_units_Z   4
loop_
 _symmetry_equiv_pos_site_id
 _symmetry_equiv_pos_as_xyz
  1  'x, y, z'
loop_
 _atom_site_type_symbol
 _atom_site_label
 _atom_site_symmetry_multiplicity
 _atom_site_fract_x
 _atom_site_fract_y
 _atom_site_fract_z
 _atom_site_occupancy
  Cd  Cd0  1  0.45390000  0.29467000  0.07146000  1.0
  Cd  Cd1  1  0.70532000  0.54610000  0.42854000  1.0
  Cd  Cd2  1  0.54610000  0.70533000  0.92854000  1.0
  Cd  Cd3  1  0.29468000  0.45390000  0.57146000  1.0
  H  H4  1  0.58098000  0.55400000  0.09103000  1.0
  H  H5  1  0.44600000  0.41902000  0.40896000  1.0
  H  H6  1  0.41902000  0.44600000  0.90896000  1.0
  H  H7  1  0.55400000  0.58097000  0.59103000  1.0
  H  H8  1  0.57719000  0.49969000  0.16762000  1.0
  H  H9  1  0.50031000  0.42282000  0.33238000  1.0
  H  H10  1  0.42282000  0.50031000  0.83238000  1.0
  H  H11  1  0.49969000  0.57718000  0.66762000  1.0
  H  H12  1  0.49166000  0.26477000  0.24903000  1.0
  H  H13  1  0.73522000  0.50834000  0.25096000  1.0
  H  H14  1  0.50833000  0.73523000  0.75096000  1.0
  H  H15  1  0.26477000  0.49167000  0.74904000  1.0
  H  H16  1  0.59849000  0.18080000  0.34186000  1.0
  H  H17  1  0.81920000  0.40150000  0.15814000  1.0
  H  H18  1  0.40151000  0.81920000  0.65814000  1.0
  H  H19  1  0.18081000  0.59850000  0.84187000  1.0
  H  H20  1  0.70433000  0.01203000  0.14684000  1.0
  H  H21  1  0.98797000  0.29568000  0.35316000  1.0
  H  H22  1  0.29568000  0.98798000  0.85316000  1.0
  H  H23  1  0.01203000  0.70432000  0.64685000  1.0
  H  H24  1  0.59712000  0.10960000  0.06231000  1.0
  H  H25  1  0.89039000  0.40288000  0.43769000  1.0
  H  H26  1  0.40288000  0.89040000  0.93769000  1.0
  H  H27  1  0.10961000  0.59712000  0.56231000  1.0
  H  H28  1  0.72617000  0.94924000  0.27687000  1.0
  H  H29  1  0.05076000  0.27384000  0.22313000  1.0
  H  H30  1  0.27383000  0.05076000  0.72313000  1.0
  H  H31  1  0.94924000  0.72617000  0.77687000  1.0
  H  H32  1  0.83196000  0.09420000  0.30709000  1.0
  H  H33  1  0.90580000  0.16804000  0.19291000  1.0
  H  H34  1  0.16804000  0.90580000  0.69291000  1.0
  H  H35  1  0.09421000  0.83197000  0.80709000  1.0
  H  H36  1  0.61626000  0.97623000  0.38522000  1.0
  H  H37  1  0.02377000  0.38374000  0.11478000  1.0
  H  H38  1  0.38374000  0.02377000  0.61478000  1.0
  H  H39  1  0.97624000  0.61626000  0.88522000  1.0
  H  H40  1  0.71697000  0.12381000  0.41563000  1.0
  H  H41  1  0.87618000  0.28303000  0.08437000  1.0
  H  H42  1  0.28304000  0.87619000  0.58437000  1.0
  H  H43  1  0.12382000  0.71697000  0.91563000  1.0
  H  H44  1  0.74935000  0.95216000  0.48403000  1.0
  H  H45  1  0.04784000  0.25065000  0.01596000  1.0
  H  H46  1  0.25066000  0.04784000  0.51596000  1.0
  H  H47  1  0.95216000  0.74934000  0.98404000  1.0
  H  H48  1  0.80767000  0.91364000  0.40158000  1.0
  H  H49  1  0.08636000  0.19233000  0.09842000  1.0
  H  H50  1  0.19233000  0.08636000  0.59841000  1.0
  H  H51  1  0.91364000  0.80767000  0.90159000  1.0
  H  H52  1  0.19620000  0.22481000  0.43659000  1.0
  H  H53  1  0.77520000  0.80380000  0.06341000  1.0
  H  H54  1  0.80380000  0.77519000  0.56341000  1.0
  H  H55  1  0.22480000  0.19620000  0.93659000  1.0
  H  H56  1  0.01141000  0.04798000  0.38102000  1.0
  H  H57  1  0.95203000  0.98859000  0.11897000  1.0
  H  H58  1  0.98859000  0.95203000  0.61897000  1.0
  H  H59  1  0.04797000  0.01140000  0.88103000  1.0
  H  H60  1  0.84212000  0.15306000  0.56573000  1.0
  H  H61  1  0.84694000  0.15787000  0.93427000  1.0
  H  H62  1  0.15787000  0.84693000  0.43426000  1.0
  H  H63  1  0.15306000  0.84213000  0.06574000  1.0
  H  H64  1  0.03361000  0.32380000  0.61382000  1.0
  H  H65  1  0.67620000  0.96639000  0.88618000  1.0
  H  H66  1  0.96639000  0.67619000  0.38618000  1.0
  H  H67  1  0.32380000  0.03362000  0.11382000  1.0
  H  H68  1  0.75385000  0.98317000  0.72864000  1.0
  H  H69  1  0.01682000  0.24615000  0.77137000  1.0
  H  H70  1  0.24616000  0.01683000  0.27137000  1.0
  H  H71  1  0.98317000  0.75384000  0.22863000  1.0
  H  H72  1  0.40070000  0.32555000  0.80540000  1.0
  H  H73  1  0.67446000  0.59931000  0.69460000  1.0
  H  H74  1  0.59931000  0.67446000  0.19460000  1.0
  H  H75  1  0.32554000  0.40069000  0.30540000  1.0
  H  H76  1  0.55472000  0.19841000  0.62203000  1.0
  H  H77  1  0.80159000  0.44529000  0.87797000  1.0
  H  H78  1  0.44528000  0.80158000  0.37797000  1.0
  H  H79  1  0.19841000  0.55471000  0.12203000  1.0
  H  H80  1  0.63685000  0.13415000  0.85478000  1.0
  H  H81  1  0.86584000  0.36315000  0.64522000  1.0
  H  H82  1  0.36315000  0.86585000  0.14522000  1.0
  H  H83  1  0.13415000  0.63685000  0.35478000  1.0
  C  C84  1  0.54178000  0.20977000  0.22905000  1.0
  C  C85  1  0.79022000  0.45822000  0.27095000  1.0
  C  C86  1  0.45822000  0.79023000  0.77095000  1.0
  C  C87  1  0.20978000  0.54178000  0.72905000  1.0
  C  C88  1  0.60153000  0.16122000  0.28057000  1.0
  C  C89  1  0.83877000  0.39847000  0.21943000  1.0
  C  C90  1  0.39847000  0.83878000  0.71943000  1.0
  C  C91  1  0.16122000  0.60154000  0.78057000  1.0
  C  C92  1  0.66439000  0.09026000  0.25280000  1.0
  C  C93  1  0.90974000  0.33561000  0.24720000  1.0
  C  C94  1  0.33561000  0.90975000  0.74720000  1.0
  C  C95  1  0.09026000  0.66440000  0.75280000  1.0
  C  C96  1  0.66028000  0.06946000  0.17255000  1.0
  C  C97  1  0.93054000  0.33973000  0.32745000  1.0
  C  C98  1  0.33972000  0.93055000  0.82745000  1.0
  C  C99  1  0.06947000  0.66028000  0.67256000  1.0
  C  C100  1  0.60004000  0.12220000  0.12468000  1.0
  C  C101  1  0.87780000  0.39996000  0.37532000  1.0
  C  C102  1  0.39996000  0.87781000  0.87532000  1.0
  C  C103  1  0.12220000  0.60005000  0.62468000  1.0
  C  C104  1  0.73672000  0.03975000  0.30481000  1.0
  C  C105  1  0.96025000  0.26328000  0.19519000  1.0
  C  C106  1  0.26328000  0.96025000  0.69519000  1.0
  C  C107  1  0.03976000  0.73673000  0.80481000  1.0
  C  C108  1  0.70909000  0.03475000  0.38687000  1.0
  C  C109  1  0.96525000  0.29090000  0.11313000  1.0
  C  C110  1  0.29091000  0.96525000  0.61313000  1.0
  C  C111  1  0.03475000  0.70910000  0.88687000  1.0
  C  C112  1  0.79311000  0.98813000  0.43619000  1.0
  C  C113  1  0.01187000  0.20689000  0.06381000  1.0
  C  C114  1  0.20689000  0.01187000  0.56380000  1.0
  C  C115  1  0.98813000  0.79311000  0.93620000  1.0
  C  C116  1  0.11512000  0.20553000  0.46291000  1.0
  C  C117  1  0.79447000  0.88488000  0.03708000  1.0
  C  C118  1  0.88488000  0.79447000  0.53708000  1.0
  C  C119  1  0.20553000  0.11512000  0.96292000  1.0
  C  C120  1  0.01175000  0.10818000  0.43221000  1.0
  C  C121  1  0.89183000  0.98824000  0.06779000  1.0
  C  C122  1  0.98825000  0.89182000  0.56779000  1.0
  C  C123  1  0.10817000  0.01175000  0.93221000  1.0
  C  C124  1  0.90975000  0.08690000  0.46801000  1.0
  C  C125  1  0.91310000  0.09025000  0.03199000  1.0
  C  C126  1  0.09025000  0.91309000  0.53199000  1.0
  C  C127  1  0.08690000  0.90975000  0.96801000  1.0
  C  C128  1  0.91826000  0.16609000  0.53489000  1.0
  C  C129  1  0.83391000  0.08174000  0.96511000  1.0
  C  C130  1  0.08174000  0.83390000  0.46511000  1.0
  C  C131  1  0.16609000  0.91826000  0.03489000  1.0
  C  C132  1  0.02457000  0.26112000  0.56188000  1.0
  C  C133  1  0.73888000  0.97543000  0.93812000  1.0
  C  C134  1  0.97542000  0.73888000  0.43812000  1.0
  C  C135  1  0.26112000  0.02458000  0.06188000  1.0
  C  C136  1  0.52104000  0.23532000  0.83948000  1.0
  C  C137  1  0.76468000  0.47896000  0.66052000  1.0
  C  C138  1  0.47896000  0.76469000  0.16052000  1.0
  C  C139  1  0.23532000  0.52103000  0.33948000  1.0
  C  C140  1  0.45966000  0.28039000  0.78634000  1.0
  C  C141  1  0.71961000  0.54034000  0.71366000  1.0
  C  C142  1  0.54033000  0.71961000  0.21366000  1.0
  C  C143  1  0.28039000  0.45966000  0.28634000  1.0
  C  C144  1  0.47218000  0.26917000  0.70848000  1.0
  C  C145  1  0.73084000  0.52783000  0.79152000  1.0
  C  C146  1  0.52782000  0.73083000  0.29152000  1.0
  C  C147  1  0.26917000  0.47218000  0.20848000  1.0
  C  C148  1  0.54383000  0.20720000  0.68262000  1.0
  C  C149  1  0.79280000  0.45619000  0.81738000  1.0
  C  C150  1  0.45618000  0.79280000  0.31738000  1.0
  C  C151  1  0.20720000  0.54382000  0.18262000  1.0
  C  C152  1  0.60097000  0.15557000  0.73471000  1.0
  C  C153  1  0.84443000  0.39903000  0.76529000  1.0
  C  C154  1  0.39903000  0.84443000  0.26529000  1.0
  C  C155  1  0.15557000  0.60097000  0.23471000  1.0
  C  C156  1  0.59096000  0.17104000  0.81328000  1.0
  C  C157  1  0.82896000  0.40904000  0.68672000  1.0
  C  C158  1  0.40904000  0.82896000  0.18672000  1.0
  C  C159  1  0.17104000  0.59095000  0.31328000  1.0
  C  C160  1  0.51057000  0.25653000  0.92324000  1.0
  C  C161  1  0.74346000  0.48942000  0.57676000  1.0
  C  C162  1  0.48942000  0.74347000  0.07676000  1.0
  C  C163  1  0.25653000  0.51057000  0.42324000  1.0
  C  C164  1  0.66960000  0.08432000  0.70297000  1.0
  C  C165  1  0.91567000  0.33040000  0.79704000  1.0
  C  C166  1  0.33040000  0.91567000  0.29703000  1.0
  C  C167  1  0.08433000  0.66959000  0.20297000  1.0
  C  C168  1  0.40942000  0.32639000  0.65536000  1.0
  C  C169  1  0.67361000  0.59059000  0.84464000  1.0
  C  C170  1  0.59058000  0.67361000  0.34464000  1.0
  C  C171  1  0.32639000  0.40942000  0.15536000  1.0
  N  N172  1  0.54209000  0.19268000  0.15244000  1.0
  N  N173  1  0.80731000  0.45790000  0.34755000  1.0
  N  N174  1  0.45791000  0.80733000  0.84755000  1.0
  N  N175  1  0.19268000  0.54210000  0.65245000  1.0
  N  N176  1  0.12150000  0.28159000  0.52654000  1.0
  N  N177  1  0.71841000  0.87850000  0.97346000  1.0
  N  N178  1  0.87850000  0.71840000  0.47346000  1.0
  N  N179  1  0.28159000  0.12150000  0.02655000  1.0
  O  O180  1  0.60198000  0.49221000  0.11686000  1.0
  O  O181  1  0.50779000  0.39802000  0.38314000  1.0
  O  O182  1  0.39802000  0.50779000  0.88314000  1.0
  O  O183  1  0.49221000  0.60197000  0.61686000  1.0
  O  O184  1  0.55696000  0.20699000  0.97041000  1.0
  O  O185  1  0.79300000  0.44302000  0.52958000  1.0
  O  O186  1  0.44301000  0.79299000  0.02958000  1.0
  O  O187  1  0.20699000  0.55696000  0.47042000  1.0
  O  O188  1  0.45136000  0.32429000  0.94338000  1.0
  O  O189  1  0.67571000  0.54864000  0.55662000  1.0
  O  O190  1  0.54865000  0.67572000  0.05662000  1.0
  O  O191  1  0.32430000  0.45136000  0.44338000  1.0
  O  O192  1  0.71628000  0.03184000  0.75706000  1.0
  O  O193  1  0.96815000  0.28372000  0.74294000  1.0
  O  O194  1  0.28372000  0.96816000  0.24294000  1.0
  O  O195  1  0.03184000  0.71627000  0.25706000  1.0
  O  O196  1  0.68415000  0.07021000  0.63542000  1.0
  O  O197  1  0.92978000  0.31585000  0.86457000  1.0
  O  O198  1  0.31585000  0.92978000  0.36458000  1.0
  O  O199  1  0.07022000  0.68414000  0.13542000  1.0
  O  O200  1  0.36214000  0.39696000  0.68829000  1.0
  O  O201  1  0.60304000  0.63787000  0.81171000  1.0
  O  O202  1  0.63786000  0.60304000  0.31171000  1.0
  O  O203  1  0.39696000  0.36214000  0.18829000  1.0
  O  O204  1  0.40635000  0.30567000  0.58343000  1.0
  O  O205  1  0.69433000  0.59364000  0.91657000  1.0
  O  O206  1  0.59365000  0.69434000  0.41656000  1.0
  O  O207  1  0.30567000  0.40636000  0.08344000  1.0
