# generated using pymatgen
data_LiH8C4ClO2
_symmetry_space_group_name_H-M   'P 1'
_cell_length_a   7.09023000
_cell_length_b   7.62643000
_cell_length_c   11.37390000
_cell_angle_alpha   90.00000000
_cell_angle_beta   90.00000000
_cell_angle_gamma   90.00000000
_symmetry_Int_Tables_number   1
_chemical_formula_structural   LiH8C4ClO2
_chemical_formula_sum   'Li4 H32 C16 Cl4 O8'
_cell_volume   615.02251865
_cell_formula_units_Z   4
loop_
 _symmetry_equiv_pos_site_id
 _symmetry_equiv_pos_as_xyz
  1  'x, y, z'
loop_
 _atom_site_type_symbol
 _atom_site_label
 _atom_site_symmetry_multiplicity
 _atom_site_fract_x
 _atom_site_fract_y
 _atom_site_fract_z
 _atom_site_occupancy
  Li  Li0  1  0.86548000  0.12828000  0.03567000  1.0
  Li  Li1  1  0.63452000  0.87172000  0.53567000  1.0
  Li  Li2  1  0.13452000  0.62828000  0.46433000  1.0
  Li  Li3  1  0.36548000  0.37172000  0.96433000  1.0
  H  H4  1  0.07545000  0.02335000  0.25001000  1.0
  H  H5  1  0.42455000  0.97665000  0.75000000  1.0
  H  H6  1  0.92455000  0.52335000  0.25000000  1.0
  H  H7  1  0.57545000  0.47665000  0.75000000  1.0
  H  H8  1  0.89566000  0.86812000  0.28937000  1.0
  H  H9  1  0.60434000  0.13188000  0.78937000  1.0
  H  H10  1  0.10434000  0.36812000  0.21063000  1.0
  H  H11  1  0.39566000  0.63188000  0.71063000  1.0
  H  H12  1  0.00195000  0.02125000  0.46851000  1.0
  H  H13  1  0.49805000  0.97875000  0.96850000  1.0
  H  H14  1  0.99805000  0.52125000  0.03150000  1.0
  H  H15  1  0.50195000  0.47875000  0.53150000  1.0
  H  H16  1  0.95549000  0.23026000  0.40215000  1.0
  H  H17  1  0.54451000  0.76974000  0.90215000  1.0
  H  H18  1  0.04451000  0.73026000  0.09785000  1.0
  H  H19  1  0.45549000  0.26974000  0.59785000  1.0
  H  H20  1  0.63867000  0.30893000  0.36164000  1.0
  H  H21  1  0.86132000  0.69107000  0.86164000  1.0
  H  H22  1  0.36133000  0.80893000  0.13836000  1.0
  H  H23  1  0.13867000  0.19107000  0.63836000  1.0
  H  H24  1  0.45396000  0.15529000  0.39711000  1.0
  H  H25  1  0.04604000  0.84471000  0.89712000  1.0
  H  H26  1  0.54604000  0.65529000  0.10288000  1.0
  H  H27  1  0.95396000  0.34471000  0.60288000  1.0
  H  H28  1  0.56993000  0.94946000  0.24652000  1.0
  H  H29  1  0.93007000  0.05054000  0.74652000  1.0
  H  H30  1  0.43007000  0.44946000  0.25348000  1.0
  H  H31  1  0.06993000  0.55054000  0.75348000  1.0
  H  H32  1  0.52921000  0.15768000  0.17786000  1.0
  H  H33  1  0.97079000  0.84233000  0.67786000  1.0
  H  H34  1  0.47079000  0.65767000  0.32214000  1.0
  H  H35  1  0.02921000  0.34233000  0.82214000  1.0
  C  C36  1  0.93182000  0.00855000  0.28455000  1.0
  C  C37  1  0.56818000  0.99145000  0.78455000  1.0
  C  C38  1  0.06818000  0.50855000  0.21545000  1.0
  C  C39  1  0.43182000  0.49145000  0.71545000  1.0
  C  C40  1  0.91331000  0.09109000  0.40493000  1.0
  C  C41  1  0.58668000  0.90891000  0.90493000  1.0
  C  C42  1  0.08669000  0.59109000  0.09507000  1.0
  C  C43  1  0.41332000  0.40891000  0.59507000  1.0
  C  C44  1  0.59844000  0.16928000  0.36364000  1.0
  C  C45  1  0.90156000  0.83072000  0.86364000  1.0
  C  C46  1  0.40156000  0.66928000  0.13636000  1.0
  C  C47  1  0.09844000  0.33072000  0.63636000  1.0
  C  C48  1  0.61570000  0.08765000  0.24285000  1.0
  C  C49  1  0.88430000  0.91235000  0.74285000  1.0
  C  C50  1  0.38430000  0.58765000  0.25715000  1.0
  C  C51  1  0.11570000  0.41235000  0.75715000  1.0
  Cl  Cl52  1  0.69046000  0.36903000  0.97404000  1.0
  Cl  Cl53  1  0.80954000  0.63097000  0.47404000  1.0
  Cl  Cl54  1  0.30954000  0.86903000  0.52596000  1.0
  Cl  Cl55  1  0.19046000  0.13097000  0.02596000  1.0
  O  O56  1  0.80775000  0.09469000  0.20176000  1.0
  O  O57  1  0.69225000  0.90531000  0.70176000  1.0
  O  O58  1  0.19225000  0.59469000  0.29824000  1.0
  O  O59  1  0.30775000  0.40531000  0.79824000  1.0
  O  O60  1  0.72050000  0.08059000  0.44599000  1.0
  O  O61  1  0.77950000  0.91941000  0.94599000  1.0
  O  O62  1  0.27950000  0.58059000  0.05401000  1.0
  O  O63  1  0.22050000  0.41941000  0.55401000  1.0
