# generated using pymatgen
data_FeH6C14(N4O)2
_symmetry_space_group_name_H-M   'P 1'
_cell_length_a   7.78435000
_cell_length_b   8.88064000
_cell_length_c   11.28020000
_cell_angle_alpha   89.99990000
_cell_angle_beta   101.59500000
_cell_angle_gamma   89.99670000
_symmetry_Int_Tables_number   1
_chemical_formula_structural   FeH6C14(N4O)2
_chemical_formula_sum   'Fe2 H12 C28 N16 O4'
_cell_volume   763.88679053
_cell_formula_units_Z   2
loop_
 _symmetry_equiv_pos_site_id
 _symmetry_equiv_pos_as_xyz
  1  'x, y, z'
loop_
 _atom_site_type_symbol
 _atom_site_label
 _atom_site_symmetry_multiplicity
 _atom_site_fract_x
 _atom_site_fract_y
 _atom_site_fract_z
 _atom_site_occupancy
  Fe  Fe0  1  0.99999000  0.50001000  0.00000000  1.0
  Fe  Fe1  1  0.50001000  0.00000000  0.50000000  1.0
  H  H2  1  0.55779000  0.39845000  0.85482000  1.0
  H  H3  1  0.94225000  0.89840000  0.64521000  1.0
  H  H4  1  0.44220000  0.60154000  0.14518000  1.0
  H  H5  1  0.05774000  0.10160000  0.35478000  1.0
  H  H6  1  0.39749000  0.42653000  0.71775000  1.0
  H  H7  1  0.10255000  0.92643000  0.78226000  1.0
  H  H8  1  0.60249000  0.57346000  0.28225000  1.0
  H  H9  1  0.89743000  0.07356000  0.21773000  1.0
  H  H10  1  0.41334000  0.24663000  0.79267000  1.0
  H  H11  1  0.08672000  0.74657000  0.70731000  1.0
  H  H12  1  0.58664000  0.75336000  0.20733000  1.0
  H  H13  1  0.91327000  0.25344000  0.29268000  1.0
  C  C14  1  0.18332000  0.44202000  0.26048000  1.0
  C  C15  1  0.31666000  0.94201000  0.23953000  1.0
  C  C16  1  0.81668000  0.55799000  0.73952000  1.0
  C  C17  1  0.68335000  0.05799000  0.76048000  1.0
  C  C18  1  0.34170000  0.30977000  0.43464000  1.0
  C  C19  1  0.15826000  0.80977000  0.06536000  1.0
  C  C20  1  0.65829000  0.69023000  0.56535000  1.0
  C  C21  1  0.84174000  0.19023000  0.93464000  1.0
  C  C22  1  0.19863000  0.55242000  0.46186000  1.0
  C  C23  1  0.30134000  0.05243000  0.03815000  1.0
  C  C24  1  0.80137000  0.44758000  0.53813000  1.0
  C  C25  1  0.69869000  0.94757000  0.96187000  1.0
  C  C26  1  0.29836000  0.41598000  0.87457000  1.0
  C  C27  1  0.20167000  0.91594000  0.62545000  1.0
  C  C28  1  0.70163000  0.58402000  0.12543000  1.0
  C  C29  1  0.79833000  0.08407000  0.37455000  1.0
  C  C30  1  0.24710000  0.43711000  0.38566000  1.0
  C  C31  1  0.25286000  0.93709000  0.11433000  1.0
  C  C32  1  0.75290000  0.56290000  0.61434000  1.0
  C  C33  1  0.74716000  0.06291000  0.88568000  1.0
  C  C34  1  0.08175000  0.66989000  0.39808000  1.0
  C  C35  1  0.41821000  0.16986000  0.10192000  1.0
  C  C36  1  0.91826000  0.33012000  0.60192000  1.0
  C  C37  1  0.58181000  0.83012000  0.89809000  1.0
  C  C38  1  0.42558000  0.36895000  0.80593000  1.0
  C  C39  1  0.07444000  0.86889000  0.69408000  1.0
  C  C40  1  0.57440000  0.63105000  0.19406000  1.0
  C  C41  1  0.92554000  0.13111000  0.30591000  1.0
  N  N42  1  0.12243000  0.45194000  0.15728000  1.0
  N  N43  1  0.37756000  0.95194000  0.34273000  1.0
  N  N44  1  0.87756000  0.54807000  0.84272000  1.0
  N  N45  1  0.62245000  0.04806000  0.65728000  1.0
  N  N46  1  0.41323000  0.19786000  0.46919000  1.0
  N  N47  1  0.08673000  0.69786000  0.03082000  1.0
  N  N48  1  0.58677000  0.80215000  0.53081000  1.0
  N  N49  1  0.91325000  0.30214000  0.96918000  1.0
  N  N50  1  0.98615000  0.76581000  0.35608000  1.0
  N  N51  1  0.51380000  0.26578000  0.14391000  1.0
  N  N52  1  0.01385000  0.23420000  0.64393000  1.0
  N  N53  1  0.48622000  0.73421000  0.85608000  1.0
  N  N54  1  0.19304000  0.45062000  0.92877000  1.0
  N  N55  1  0.30699000  0.95059000  0.57123000  1.0
  N  N56  1  0.80695000  0.54939000  0.07122000  1.0
  N  N57  1  0.69301000  0.04942000  0.42877000  1.0
  O  O58  1  0.24179000  0.56023000  0.57407000  1.0
  O  O59  1  0.25813000  0.06025000  0.92591000  1.0
  O  O60  1  0.75821000  0.43978000  0.42593000  1.0
  O  O61  1  0.74190000  0.93974000  0.07411000  1.0
