# generated using pymatgen
data_AlH6C13BrNClO5
_symmetry_space_group_name_H-M   'P 1'
_cell_length_a   6.66678000
_cell_length_b   11.09850000
_cell_length_c   16.87310000
_cell_angle_alpha   84.70750000
_cell_angle_beta   84.19370000
_cell_angle_gamma   73.73250000
_symmetry_Int_Tables_number   1
_chemical_formula_structural   AlH6C13BrNClO5
_chemical_formula_sum   'Al2 H12 C26 Br2 N2 Cl2 O10'
_cell_volume   1189.65823274
_cell_formula_units_Z   2
loop_
 _symmetry_equiv_pos_site_id
 _symmetry_equiv_pos_as_xyz
  1  'x, y, z'
loop_
 _atom_site_type_symbol
 _atom_site_label
 _atom_site_symmetry_multiplicity
 _atom_site_fract_x
 _atom_site_fract_y
 _atom_site_fract_z
 _atom_site_occupancy
  Al  Al0  1  0.48311000  0.50687000  0.49544000  1.0
  Al  Al1  1  0.98403000  0.50310000  0.49886000  1.0
  H  H2  1  0.16768000  0.65689000  0.45365000  1.0
  H  H3  1  0.73738000  0.43460000  0.59292000  1.0
  H  H4  1  0.91954000  0.42006000  0.73791000  1.0
  H  H5  1  0.85942000  0.41165000  0.88648000  1.0
  H  H6  1  0.39176000  0.55549000  0.89727000  1.0
  H  H7  1  0.62906000  0.41003000  0.10164000  1.0
  H  H8  1  0.15571000  0.55830000  0.11462000  1.0
  H  H9  1  0.07817000  0.56286000  0.26300000  1.0
  H  H10  1  0.89408000  0.77278000  0.59628000  1.0
  H  H11  1  0.65676000  0.23946000  0.58803000  1.0
  H  H12  1  0.16006000  0.12350000  0.44530000  1.0
  H  H13  1  0.28005000  0.88897000  0.44837000  1.0
  C  C14  1  0.61908000  0.73389000  0.50411000  1.0
  C  C15  1  0.78005000  0.49739000  0.35469000  1.0
  C  C16  1  0.34734000  0.27965000  0.49682000  1.0
  C  C17  1  0.20028000  0.49883000  0.64354000  1.0
  C  C18  1  0.18586000  0.49302000  0.73276000  1.0
  C  C19  1  0.02228000  0.44935000  0.77365000  1.0
  C  C20  1  0.98784000  0.44469000  0.85591000  1.0
  C  C21  1  0.11999000  0.48593000  0.90050000  1.0
  C  C22  1  0.28922000  0.52515000  0.86182000  1.0
  C  C23  1  0.32255000  0.52851000  0.77877000  1.0
  C  C24  1  0.72630000  0.44399000  0.13755000  1.0
  C  C25  1  0.89576000  0.48404000  0.09975000  1.0
  C  C26  1  0.02413000  0.52791000  0.14468000  1.0
  C  C27  1  0.98041000  0.53044000  0.22651000  1.0
  C  C28  1  0.81225000  0.48960000  0.26616000  1.0
  C  C29  1  0.68668000  0.44436000  0.22035000  1.0
  C  C30  1  0.55181000  0.87339000  0.51004000  1.0
  C  C31  1  0.66737000  0.93861000  0.54903000  1.0
  C  C32  1  0.36971000  0.94033000  0.47548000  1.0
  C  C33  1  0.84049000  0.87490000  0.59345000  1.0
  C  C34  1  0.94144000  0.93994000  0.63420000  1.0
  C  C35  1  0.41746000  0.13916000  0.50576000  1.0
  C  C36  1  0.30230000  0.07225000  0.47345000  1.0
  C  C37  1  0.59889000  0.07381000  0.54672000  1.0
  C  C38  1  0.70638000  0.13761000  0.58928000  1.0
  C  C39  1  0.87278000  0.07294000  0.63235000  1.0
  Br  Br40  1  0.17070000  0.84732000  0.69185000  1.0
  Br  Br41  1  0.00278000  0.16526000  0.69001000  1.0
  N  N42  1  0.09544000  0.49226000  0.98439000  1.0
  N  N43  1  0.92337000  0.47629000  0.01608000  1.0
  Cl  Cl44  1  0.53121000  0.58317000  0.73726000  1.0
  Cl  Cl45  1  0.48894000  0.38111000  0.26294000  1.0
  O  O46  1  0.47278000  0.68008000  0.50543000  1.0
  O  O47  1  0.94368000  0.48771000  0.39043000  1.0
  O  O48  1  0.15104000  0.33189000  0.50320000  1.0
  O  O49  1  0.37996000  0.48695000  0.60669000  1.0
  O  O50  1  0.48906000  0.33713000  0.48330000  1.0
  O  O51  1  0.02941000  0.51266000  0.61104000  1.0
  O  O52  1  0.81521000  0.67915000  0.49579000  1.0
  O  O53  1  0.59492000  0.51670000  0.38756000  1.0
  O  O54  1  0.21077000  0.56639000  0.46470000  1.0
  O  O55  1  0.74793000  0.45130000  0.53532000  1.0
