# generated using pymatgen
data_CuH24C24(N6Cl)2
_symmetry_space_group_name_H-M   'P 1'
_cell_length_a   7.54716000
_cell_length_b   8.32468000
_cell_length_c   11.10040000
_cell_angle_alpha   77.87970000
_cell_angle_beta   88.60730000
_cell_angle_gamma   72.14520000
_symmetry_Int_Tables_number   1
_chemical_formula_structural   CuH24C24(N6Cl)2
_chemical_formula_sum   'Cu1 H24 C24 N12 Cl2'
_cell_volume   648.42344849
_cell_formula_units_Z   1
loop_
 _symmetry_equiv_pos_site_id
 _symmetry_equiv_pos_as_xyz
  1  'x, y, z'
loop_
 _atom_site_type_symbol
 _atom_site_label
 _atom_site_symmetry_multiplicity
 _atom_site_fract_x
 _atom_site_fract_y
 _atom_site_fract_z
 _atom_site_occupancy
  Cu  Cu0  1  0.00000000  0.00000000  0.00000000  1.0
  H  H1  1  0.21494000  0.48305000  0.39993000  1.0
  H  H2  1  0.78506000  0.51695000  0.60007000  1.0
  H  H3  1  0.63684000  0.10109000  0.64932000  1.0
  H  H4  1  0.36316000  0.89891000  0.35068000  1.0
  H  H5  1  0.80214000  0.99097000  0.47185000  1.0
  H  H6  1  0.19786000  0.00903000  0.52815000  1.0
  H  H7  1  0.66977000  0.12620000  0.25782000  1.0
  H  H8  1  0.33023000  0.87380000  0.74218000  1.0
  H  H9  1  0.29145000  0.53226000  0.17040000  1.0
  H  H10  1  0.70855000  0.46774000  0.82959000  1.0
  H  H11  1  0.45509000  0.36121000  0.11681000  1.0
  H  H12  1  0.54492000  0.63878000  0.88319000  1.0
  H  H13  1  0.42206000  0.36941000  0.71328000  1.0
  H  H14  1  0.57795000  0.63058000  0.28672000  1.0
  H  H15  1  0.23312000  0.50820000  0.61017000  1.0
  H  H16  1  0.76689000  0.49181000  0.38984000  1.0
  H  H17  1  0.78073000  0.34760000  0.11010000  1.0
  H  H18  1  0.21927000  0.65240000  0.88989000  1.0
  H  H19  1  0.35336000  0.09484000  0.09408000  1.0
  H  H20  1  0.64664000  0.90514000  0.90593000  1.0
  H  H21  1  0.84119000  0.15898000  0.72161000  1.0
  H  H22  1  0.15880000  0.84102000  0.27838000  1.0
  H  H23  1  0.33697000  0.17048000  0.88245000  1.0
  H  H24  1  0.66302000  0.82952000  0.11755000  1.0
  C  C25  1  0.43265000  0.31178000  0.31488000  1.0
  C  C26  1  0.56736000  0.68822000  0.68512000  1.0
  C  C27  1  0.34405000  0.37547000  0.41507000  1.0
  C  C28  1  0.65595000  0.62454000  0.58493000  1.0
  C  C29  1  0.41884000  0.30261000  0.53505000  1.0
  C  C30  1  0.58116000  0.69739000  0.46495000  1.0
  C  C31  1  0.58290000  0.16275000  0.55507000  1.0
  C  C32  1  0.41710000  0.83726000  0.44493000  1.0
  C  C33  1  0.67443000  0.10010000  0.45592000  1.0
  C  C34  1  0.32557000  0.89990000  0.54408000  1.0
  C  C35  1  0.59935000  0.17478000  0.33595000  1.0
  C  C36  1  0.40065000  0.82522000  0.66405000  1.0
  C  C37  1  0.34968000  0.39133000  0.18571000  1.0
  C  C38  1  0.65032000  0.60867000  0.81429000  1.0
  C  C39  1  0.32177000  0.37407000  0.64157000  1.0
  C  C40  1  0.67823000  0.62593000  0.35842000  1.0
  C  C41  1  0.93072000  0.31564000  0.12091000  1.0
  C  C42  1  0.06927000  0.68436000  0.87909000  1.0
  C  C43  1  0.22095000  0.18379000  0.11123000  1.0
  C  C44  1  0.77905000  0.81620000  0.88878000  1.0
  C  C45  1  0.97195000  0.18278000  0.73359000  1.0
  C  C46  1  0.02805000  0.81722000  0.26640000  1.0
  C  C47  1  0.22012000  0.18664000  0.82026000  1.0
  C  C48  1  0.77988000  0.81336000  0.17975000  1.0
  N  N49  1  0.20031000  0.32639000  0.15500000  1.0
  N  N50  1  0.79969000  0.67360000  0.84501000  1.0
  N  N51  1  0.01610000  0.41224000  0.16272000  1.0
  N  N52  1  0.98390000  0.58777000  0.83728000  1.0
  N  N53  1  0.05180000  0.17313000  0.08856000  1.0
  N  N54  1  0.94819000  0.82687000  0.91144000  1.0
  N  N55  1  0.20254000  0.27533000  0.70325000  1.0
  N  N56  1  0.79746000  0.72467000  0.29675000  1.0
  N  N57  1  0.04549000  0.27450000  0.64595000  1.0
  N  N58  1  0.95452000  0.72550000  0.35405000  1.0
  N  N59  1  0.07471000  0.12580000  0.84215000  1.0
  N  N60  1  0.92528000  0.87420000  0.15785000  1.0
  Cl  Cl61  1  0.37937000  0.79753000  0.04986000  1.0
  Cl  Cl62  1  0.62062000  0.20247000  0.95014000  1.0
