# generated using pymatgen
data_KH3C3(N2O3)2
_symmetry_space_group_name_H-M   'P 1'
_cell_length_a   6.29837691
_cell_length_b   7.66127387
_cell_length_c   8.65834000
_cell_angle_alpha   79.17499801
_cell_angle_beta   86.65628557
_cell_angle_gamma   67.30086767
_symmetry_Int_Tables_number   1
_chemical_formula_structural   KH3C3(N2O3)2
_chemical_formula_sum   'K2 H6 C6 N8 O12'
_cell_volume   378.53033675
_cell_formula_units_Z   2
loop_
 _symmetry_equiv_pos_site_id
 _symmetry_equiv_pos_as_xyz
  1  'x, y, z'
loop_
 _atom_site_type_symbol
 _atom_site_label
 _atom_site_symmetry_multiplicity
 _atom_site_fract_x
 _atom_site_fract_y
 _atom_site_fract_z
 _atom_site_occupancy
  C  C0  1  0.58496500  0.33934500  0.72255000  1.0
  C  C1  1  0.41504000  0.66065000  0.27745000  1.0
  C  C2  1  0.83455000  0.22622000  0.74640500  1.0
  C  C3  1  0.16544500  0.77377500  0.25360000  1.0
  C  C4  1  0.16258000  0.12967000  0.93521500  1.0
  C  C5  1  0.83741500  0.87033500  0.06479500  1.0
  H  H6  1  0.83582000  0.31830000  0.95839000  1.0
  H  H7  1  0.16417500  0.68170500  0.04161000  1.0
  H  H8  1  0.47740500  0.94271500  0.88074500  1.0
  H  H9  1  0.52260000  0.05728000  0.11926000  1.0
  H  H10  1  0.24650500  0.00533500  0.74180000  1.0
  H  H11  1  0.75349500  0.99466500  0.25819500  1.0
  K  K12  1  0.87759500  0.76694500  0.64132000  1.0
  K  K13  1  0.12241000  0.23306000  0.35867500  1.0
  N  N14  1  0.46026500  0.30636500  0.61016500  1.0
  N  N15  1  0.53974000  0.69363000  0.38983500  1.0
  N  N16  1  0.46890500  0.49688500  0.79897500  1.0
  N  N17  1  0.53110000  0.50312000  0.20102500  1.0
  N  N18  1  0.93225000  0.23066000  0.88317000  1.0
  N  N19  1  0.06776000  0.76934000  0.11683000  1.0
  N  N20  1  0.30796500  0.01552500  0.84458500  1.0
  N  N21  1  0.69203500  0.98447500  0.15541000  1.0
  O  O22  1  0.54564000  0.15341000  0.55487000  1.0
  O  O23  1  0.45436500  0.84658500  0.44513500  1.0
  O  O24  1  0.26649000  0.43205000  0.56112000  1.0
  O  O25  1  0.73350500  0.56795500  0.43888000  1.0
  O  O26  1  0.58722000  0.57964000  0.84282000  1.0
  O  O27  1  0.41278000  0.42035000  0.15718500  1.0
  O  O28  1  0.25822500  0.54819500  0.82663500  1.0
  O  O29  1  0.74178500  0.45180500  0.17337000  1.0
  O  O30  1  0.95008000  0.12665000  0.64931500  1.0
  O  O31  1  0.04992000  0.87335000  0.35068000  1.0
  O  O32  1  0.21603000  0.15119000  0.06532500  1.0
  O  O33  1  0.78398000  0.84880000  0.93466500  1.0
