# generated using pymatgen
data_HgH12C10N5ClO5
_symmetry_space_group_name_H-M   'P 1'
_cell_length_a   8.51050000
_cell_length_b   13.11320000
_cell_length_c   13.91700000
_cell_angle_alpha   109.37200000
_cell_angle_beta   90.00000000
_cell_angle_gamma   89.99990000
_symmetry_Int_Tables_number   1
_chemical_formula_structural   HgH12C10N5ClO5
_chemical_formula_sum   'Hg4 H48 C40 N20 Cl4 O20'
_cell_volume   1465.20467272
_cell_formula_units_Z   4
loop_
 _symmetry_equiv_pos_site_id
 _symmetry_equiv_pos_as_xyz
  1  'x, y, z'
loop_
 _atom_site_type_symbol
 _atom_site_label
 _atom_site_symmetry_multiplicity
 _atom_site_fract_x
 _atom_site_fract_y
 _atom_site_fract_z
 _atom_site_occupancy
  Hg  Hg0  1  0.73201000  0.28549000  0.35674000  1.0
  Hg  Hg1  1  0.23202000  0.21451000  0.14326000  1.0
  Hg  Hg2  1  0.26799000  0.71451000  0.64326000  1.0
  Hg  Hg3  1  0.76799000  0.78549000  0.85674000  1.0
  H  H4  1  0.25932000  0.86524000  0.39846000  1.0
  H  H5  1  0.75932000  0.63476000  0.10153000  1.0
  H  H6  1  0.74068000  0.13476000  0.60154000  1.0
  H  H7  1  0.24068000  0.36524000  0.89847000  1.0
  H  H8  1  0.09687000  0.95117000  0.39808000  1.0
  H  H9  1  0.59687000  0.54883000  0.10192000  1.0
  H  H10  1  0.90313000  0.04883000  0.60192000  1.0
  H  H11  1  0.40313000  0.45118000  0.89808000  1.0
  H  H12  1  0.15494000  0.93329000  0.51426000  1.0
  H  H13  1  0.65495000  0.56671000  0.98574000  1.0
  H  H14  1  0.84506000  0.06670000  0.48574000  1.0
  H  H15  1  0.34506000  0.43330000  0.01426000  1.0
  H  H16  1  0.47913000  0.30984000  0.70608000  1.0
  H  H17  1  0.97913000  0.19015000  0.79392000  1.0
  H  H18  1  0.52087000  0.69016000  0.29392000  1.0
  H  H19  1  0.02087000  0.80985000  0.20608000  1.0
  H  H20  1  0.27401000  0.27836000  0.70834000  1.0
  H  H21  1  0.77400000  0.22164000  0.79166000  1.0
  H  H22  1  0.72599000  0.72164000  0.29166000  1.0
  H  H23  1  0.22599000  0.77836000  0.20834000  1.0
  H  H24  1  0.33909000  0.37000000  0.64537000  1.0
  H  H25  1  0.83909000  0.13000000  0.85463000  1.0
  H  H26  1  0.66091000  0.63000000  0.35462000  1.0
  H  H27  1  0.16091000  0.87000000  0.14538000  1.0
  H  H28  1  0.69224000  0.02582000  0.10034000  1.0
  H  H29  1  0.19223000  0.47418000  0.39966000  1.0
  H  H30  1  0.30776000  0.97418000  0.89966000  1.0
  H  H31  1  0.80777000  0.52582000  0.60034000  1.0
  H  H32  1  0.84011000  0.97564000  0.16039000  1.0
  H  H33  1  0.34011000  0.52436000  0.33961000  1.0
  H  H34  1  0.15989000  0.02436000  0.83961000  1.0
  H  H35  1  0.65989000  0.47564000  0.66039000  1.0
  H  H36  1  0.81597000  0.11799000  0.19233000  1.0
  H  H37  1  0.31596000  0.38201000  0.30767000  1.0
  H  H38  1  0.18403000  0.88200000  0.80767000  1.0
  H  H39  1  0.68404000  0.61800000  0.69233000  1.0
  H  H40  1  0.69417000  0.82433000  0.14086000  1.0
  H  H41  1  0.19417000  0.67567000  0.35914000  1.0
  H  H42  1  0.30583000  0.17567000  0.85915000  1.0
  H  H43  1  0.80583000  0.32433000  0.64086000  1.0
  H  H44  1  0.53390000  0.86409000  0.08269000  1.0
  H  H45  1  0.03390000  0.63592000  0.41731000  1.0
  H  H46  1  0.46611000  0.13591000  0.91731000  1.0
  H  H47  1  0.96610000  0.36409000  0.58269000  1.0
  H  H48  1  0.49923000  0.77934000  0.15732000  1.0
  H  H49  1  0.99923000  0.72065000  0.34268000  1.0
  H  H50  1  0.50078000  0.22065000  0.84268000  1.0
  H  H51  1  0.00077000  0.27935000  0.65732000  1.0
  C  C52  1  0.19753000  0.93889000  0.44222000  1.0
  C  C53  1  0.69753000  0.56111000  0.05778000  1.0
  C  C54  1  0.80247000  0.06111000  0.55778000  1.0
  C  C55  1  0.30247000  0.43889000  0.94222000  1.0
  C  C56  1  0.42078000  0.03114000  0.39332000  1.0
  C  C57  1  0.92077000  0.46886000  0.10668000  1.0
  C  C58  1  0.57923000  0.96886000  0.60668000  1.0
  C  C59  1  0.07923000  0.53114000  0.89332000  1.0
  C  C60  1  0.28385000  0.11650000  0.55312000  1.0
  C  C61  1  0.78385000  0.38350000  0.94688000  1.0
  C  C62  1  0.71615000  0.88350000  0.44688000  1.0
  C  C63  1  0.21615000  0.61650000  0.05312000  1.0
  C  C64  1  0.36805000  0.29702000  0.66373000  1.0
  C  C65  1  0.86805000  0.20298000  0.83627000  1.0
  C  C66  1  0.63195000  0.70298000  0.33627000  1.0
  C  C67  1  0.13195000  0.79702000  0.16373000  1.0
  C  C68  1  0.49732000  0.21558000  0.50184000  1.0
  C  C69  1  0.99732000  0.28442000  0.99817000  1.0
  C  C70  1  0.50268000  0.78442000  0.49816000  1.0
  C  C71  1  0.00267000  0.71558000  0.00183000  1.0
  C  C72  1  0.51479000  0.12280000  0.40910000  1.0
  C  C73  1  0.01479000  0.37720000  0.09091000  1.0
  C  C74  1  0.48521000  0.87720000  0.59090000  1.0
  C  C75  1  0.98521000  0.62280000  0.90910000  1.0
  C  C76  1  0.64038000  0.03938000  0.25382000  1.0
  C  C77  1  0.14038000  0.46062000  0.24618000  1.0
  C  C78  1  0.35962000  0.96062000  0.74618000  1.0
  C  C79  1  0.85962000  0.53938000  0.75382000  1.0
  C  C80  1  0.75342000  0.04105000  0.17346000  1.0
  C  C81  1  0.25342000  0.45895000  0.32654000  1.0
  C  C82  1  0.24658000  0.95895000  0.82654000  1.0
  C  C83  1  0.74659000  0.54106000  0.67346000  1.0
  C  C84  1  0.54740000  0.94479000  0.24289000  1.0
  C  C85  1  0.04741000  0.55521000  0.25711000  1.0
  C  C86  1  0.45259000  0.05521000  0.75711000  1.0
  C  C87  1  0.95260000  0.44479000  0.74289000  1.0
  C  C88  1  0.56951000  0.84700000  0.15186000  1.0
  C  C89  1  0.06951000  0.65300000  0.34813000  1.0
  C  C90  1  0.43049000  0.15300000  0.84814000  1.0
  C  C91  1  0.93049000  0.34700000  0.65187000  1.0
  N  N92  1  0.30662000  0.03025000  0.46350000  1.0
  N  N93  1  0.80662000  0.46975000  0.03650000  1.0
  N  N94  1  0.69338000  0.96974000  0.53650000  1.0
  N  N95  1  0.19338000  0.53026000  0.96350000  1.0
  N  N96  1  0.38474000  0.20530000  0.56931000  1.0
  N  N97  1  0.88474000  0.29470000  0.93070000  1.0
  N  N98  1  0.61526000  0.79470000  0.43069000  1.0
  N  N99  1  0.11526000  0.70530000  0.06930000  1.0
  N  N100  1  0.62097000  0.12520000  0.33760000  1.0
  N  N101  1  0.12096000  0.37479000  0.16240000  1.0
  N  N102  1  0.37903000  0.87480000  0.66240000  1.0
  N  N103  1  0.87904000  0.62520000  0.83760000  1.0
  N  N104  1  0.43932000  0.94236000  0.31115000  1.0
  N  N105  1  0.93932000  0.55764000  0.18884000  1.0
  N  N106  1  0.56068000  0.05763000  0.68885000  1.0
  N  N107  1  0.06068000  0.44237000  0.81116000  1.0
  N  N108  1  0.09012000  0.21011000  0.35651000  1.0
  N  N109  1  0.59013000  0.28989000  0.14349000  1.0
  N  N110  1  0.90988000  0.78989000  0.64349000  1.0
  N  N111  1  0.40987000  0.71011000  0.85651000  1.0
  Cl  Cl112  1  0.80638000  0.46816000  0.40099000  1.0
  Cl  Cl113  1  0.30638000  0.03184000  0.09901000  1.0
  Cl  Cl114  1  0.19362000  0.53184000  0.59901000  1.0
  Cl  Cl115  1  0.69362000  0.96816000  0.90099000  1.0
  O  O116  1  0.18432000  0.11386000  0.61645000  1.0
  O  O117  1  0.68432000  0.38614000  0.88355000  1.0
  O  O118  1  0.81568000  0.88614000  0.38354000  1.0
  O  O119  1  0.31569000  0.61386000  0.11645000  1.0
  O  O120  1  0.57951000  0.29865000  0.52279000  1.0
  O  O121  1  0.07950000  0.20135000  0.97721000  1.0
  O  O122  1  0.42048000  0.70136000  0.47720000  1.0
  O  O123  1  0.92049000  0.79865000  0.02280000  1.0
  O  O124  1  0.01197000  0.22934000  0.28450000  1.0
  O  O125  1  0.51197000  0.27066000  0.21550000  1.0
  O  O126  1  0.98803000  0.77066000  0.71550000  1.0
  O  O127  1  0.48802000  0.72934000  0.78450000  1.0
  O  O128  1  0.23768000  0.20825000  0.35162000  1.0
  O  O129  1  0.73769000  0.29175000  0.14838000  1.0
  O  O130  1  0.76232000  0.79175000  0.64838000  1.0
  O  O131  1  0.26231000  0.70825000  0.85163000  1.0
  O  O132  1  0.01666000  0.19432000  0.42875000  1.0
  O  O133  1  0.51666000  0.30568000  0.07125000  1.0
  O  O134  1  0.98334000  0.80568000  0.57125000  1.0
  O  O135  1  0.48334000  0.69432000  0.92875000  1.0
