# generated using pymatgen
data_Zn2H30C22S2N8O15
_symmetry_space_group_name_H-M   'P 1'
_cell_length_a   8.02863000
_cell_length_b   10.35930000
_cell_length_c   20.52130000
_cell_angle_alpha   89.99990000
_cell_angle_beta   94.35980000
_cell_angle_gamma   89.99980000
_symmetry_Int_Tables_number   1
_chemical_formula_structural   Zn2H30C22S2N8O15
_chemical_formula_sum   'Zn4 H60 C44 S4 N16 O30'
_cell_volume   1701.83792967
_cell_formula_units_Z   2
loop_
 _symmetry_equiv_pos_site_id
 _symmetry_equiv_pos_as_xyz
  1  'x, y, z'
loop_
 _atom_site_type_symbol
 _atom_site_label
 _atom_site_symmetry_multiplicity
 _atom_site_fract_x
 _atom_site_fract_y
 _atom_site_fract_z
 _atom_site_occupancy
  Zn  Zn0  1  1.00000000  0.94367000  0.75000000  1.0
  Zn  Zn1  1  0.00001000  0.05634000  0.25000000  1.0
  Zn  Zn2  1  0.50000000  0.50000000  0.50000000  1.0
  Zn  Zn3  1  0.50000000  0.50000000  0.00000000  1.0
  H  H4  1  0.16511000  0.17580000  0.48097000  1.0
  H  H5  1  0.83489000  0.17580000  0.01903000  1.0
  H  H6  1  0.83490000  0.82420000  0.51903000  1.0
  H  H7  1  0.16511000  0.82420000  0.98098000  1.0
  H  H8  1  0.84978000  0.37153000  0.63336000  1.0
  H  H9  1  0.15019000  0.37153000  0.86663000  1.0
  H  H10  1  0.15022000  0.62847000  0.36663000  1.0
  H  H11  1  0.84980000  0.62848000  0.13337000  1.0
  H  H12  1  0.84118000  0.20555000  0.72218000  1.0
  H  H13  1  0.15879000  0.20555000  0.77780000  1.0
  H  H14  1  0.15882000  0.79446000  0.27781000  1.0
  H  H15  1  0.84119000  0.79447000  0.22220000  1.0
  H  H16  1  0.48364000  0.97483000  0.33993000  1.0
  H  H17  1  0.51637000  0.97483000  0.16007000  1.0
  H  H18  1  0.51637000  0.02515000  0.66006000  1.0
  H  H19  1  0.48364000  0.02517000  0.83994000  1.0
  H  H20  1  0.39540000  0.75832000  0.51359000  1.0
  H  H21  1  0.60460000  0.75831000  0.98641000  1.0
  H  H22  1  0.60461000  0.24168000  0.48641000  1.0
  H  H23  1  0.39539000  0.24169000  0.01359000  1.0
  H  H24  1  0.33200000  0.06863000  0.42086000  1.0
  H  H25  1  0.66801000  0.06862000  0.07914000  1.0
  H  H26  1  0.66802000  0.93136000  0.57913000  1.0
  H  H27  1  0.33199000  0.93138000  0.92087000  1.0
  H  H28  1  0.11795000  0.94663000  0.61955000  1.0
  H  H29  1  0.88206000  0.94662000  0.88045000  1.0
  H  H30  1  0.88207000  0.05338000  0.38045000  1.0
  H  H31  1  0.11794000  0.05338000  0.11955000  1.0
  H  H32  1  0.61584000  0.77792000  0.29742000  1.0
  H  H33  1  0.38416000  0.77793000  0.20259000  1.0
  H  H34  1  0.38416000  0.22205000  0.70258000  1.0
  H  H35  1  0.61585000  0.22207000  0.79742000  1.0
  H  H36  1  0.61599000  0.57231000  0.36350000  1.0
  H  H37  1  0.38400000  0.57232000  0.13651000  1.0
  H  H38  1  0.38399000  0.42766000  0.63651000  1.0
  H  H39  1  0.61601000  0.42768000  0.86350000  1.0
  H  H40  1  0.99281000  0.31673000  0.53326000  1.0
  H  H41  1  0.00719000  0.31673000  0.96673000  1.0
  H  H42  1  0.00720000  0.68327000  0.46673000  1.0
  H  H43  1  0.99281000  0.68327000  0.03327000  1.0
  H  H44  1  0.91831000  0.69515000  0.72287000  1.0
  H  H45  1  0.08169000  0.69515000  0.77713000  1.0
  H  H46  1  0.08170000  0.30486000  0.27713000  1.0
  H  H47  1  0.91831000  0.30486000  0.22287000  1.0
  H  H48  1  0.18724000  0.44533000  0.48067000  1.0
  H  H49  1  0.81276000  0.44533000  0.01933000  1.0
  H  H50  1  0.81276000  0.55467000  0.51933000  1.0
  H  H51  1  0.18724000  0.55467000  0.98067000  1.0
  H  H52  1  0.69242000  0.86808000  0.78532000  1.0
  H  H53  1  0.30758000  0.86808000  0.71468000  1.0
  H  H54  1  0.30759000  0.13193000  0.21468000  1.0
  H  H55  1  0.69243000  0.13193000  0.28532000  1.0
  H  H56  1  0.69667000  0.87343000  0.70850000  1.0
  H  H57  1  0.30332000  0.87344000  0.79150000  1.0
  H  H58  1  0.30333000  0.12657000  0.29150000  1.0
  H  H59  1  0.69668000  0.12657000  0.20850000  1.0
  H  H60  1  0.18259000  0.52456000  0.54763000  1.0
  H  H61  1  0.81741000  0.52457000  0.95237000  1.0
  H  H62  1  0.81740000  0.47544000  0.45237000  1.0
  H  H63  1  0.18259000  0.47544000  0.04763000  1.0
  C  C64  1  0.91161000  0.27853000  0.62884000  1.0
  C  C65  1  0.08838000  0.27853000  0.87115000  1.0
  C  C66  1  0.08840000  0.72148000  0.37115000  1.0
  C  C67  1  0.91161000  0.72148000  0.12885000  1.0
  C  C68  1  0.90602000  0.18734000  0.67842000  1.0
  C  C69  1  0.09395000  0.18734000  0.82157000  1.0
  C  C70  1  0.09397000  0.81267000  0.32157000  1.0
  C  C71  1  0.90603000  0.81267000  0.17843000  1.0
  C  C72  1  0.07474000  0.12872000  0.56942000  1.0
  C  C73  1  0.92526000  0.12872000  0.93057000  1.0
  C  C74  1  0.92527000  0.87127000  0.43057000  1.0
  C  C75  1  0.07474000  0.87128000  0.06943000  1.0
  C  C76  1  0.49029000  0.88647000  0.36865000  1.0
  C  C77  1  0.50971000  0.88647000  0.13135000  1.0
  C  C78  1  0.50971000  0.11352000  0.63134000  1.0
  C  C79  1  0.49030000  0.11353000  0.86866000  1.0
  C  C80  1  0.43980000  0.76613000  0.46527000  1.0
  C  C81  1  0.56019000  0.76612000  0.03473000  1.0
  C  C82  1  0.56020000  0.23387000  0.53473000  1.0
  C  C83  1  0.43980000  0.23388000  0.96527000  1.0
  C  C84  1  0.25181000  0.98983000  0.50743000  1.0
  C  C85  1  0.74819000  0.98984000  0.99257000  1.0
  C  C86  1  0.74817000  0.01015000  0.49257000  1.0
  C  C87  1  0.25181000  0.01017000  0.00743000  1.0
  C  C88  1  0.06149000  0.04136000  0.62129000  1.0
  C  C89  1  0.93851000  0.04136000  0.87871000  1.0
  C  C90  1  0.93852000  0.95864000  0.37871000  1.0
  C  C91  1  0.06149000  0.95865000  0.12129000  1.0
  C  C92  1  0.42114000  0.88164000  0.42952000  1.0
  C  C93  1  0.57886000  0.88164000  0.07048000  1.0
  C  C94  1  0.57886000  0.11835000  0.57048000  1.0
  C  C95  1  0.42114000  0.11836000  0.92952000  1.0
  C  C96  1  0.56343000  0.77614000  0.34483000  1.0
  C  C97  1  0.43657000  0.77615000  0.15517000  1.0
  C  C98  1  0.43656000  0.22383000  0.65517000  1.0
  C  C99  1  0.56344000  0.22384000  0.84483000  1.0
  C  C100  1  0.56805000  0.66289000  0.38144000  1.0
  C  C101  1  0.43195000  0.66289000  0.11856000  1.0
  C  C102  1  0.43195000  0.33709000  0.61856000  1.0
  C  C103  1  0.56805000  0.33711000  0.88144000  1.0
  C  C104  1  0.99427000  0.24874000  0.57371000  1.0
  C  C105  1  0.00572000  0.24874000  0.92628000  1.0
  C  C106  1  0.00573000  0.75126000  0.42628000  1.0
  C  C107  1  0.99428000  0.75127000  0.07373000  1.0
  S  S108  1  0.70852000  0.67580000  0.61850000  1.0
  S  S109  1  0.29148000  0.67581000  0.88150000  1.0
  S  S110  1  0.29148000  0.32419000  0.38150000  1.0
  S  S111  1  0.70852000  0.32419000  0.11850000  1.0
  N  N112  1  0.50922000  0.66067000  0.44110000  1.0
  N  N113  1  0.49078000  0.66067000  0.05890000  1.0
  N  N114  1  0.49078000  0.33932000  0.55890000  1.0
  N  N115  1  0.50922000  0.33933000  0.94110000  1.0
  N  N116  1  0.97944000  0.07105000  0.67389000  1.0
  N  N117  1  0.02054000  0.07105000  0.82611000  1.0
  N  N118  1  0.02057000  0.92896000  0.32611000  1.0
  N  N119  1  0.97944000  0.92896000  0.17389000  1.0
  N  N120  1  0.16155000  0.10190000  0.51518000  1.0
  N  N121  1  0.83845000  0.10190000  0.98482000  1.0
  N  N122  1  0.83846000  0.89809000  0.48482000  1.0
  N  N123  1  0.16155000  0.89810000  0.01518000  1.0
  N  N124  1  0.33596000  0.98799000  0.45128000  1.0
  N  N125  1  0.66405000  0.98799000  0.04872000  1.0
  N  N126  1  0.66405000  0.01200000  0.54872000  1.0
  N  N127  1  0.33595000  0.01201000  0.95128000  1.0
  O  O128  1  0.83181000  0.68274000  0.56662000  1.0
  O  O129  1  0.16819000  0.68274000  0.93338000  1.0
  O  O130  1  0.16819000  0.31726000  0.43338000  1.0
  O  O131  1  0.83181000  0.31726000  0.06662000  1.0
  O  O132  1  0.22370000  0.52732000  0.50429000  1.0
  O  O133  1  0.77630000  0.52733000  0.99572000  1.0
  O  O134  1  0.77630000  0.47268000  0.49572000  1.0
  O  O135  1  0.22370000  0.47268000  0.00428000  1.0
  O  O136  1  0.72435000  0.92412000  0.75022000  1.0
  O  O137  1  0.27564000  0.92412000  0.74978000  1.0
  O  O138  1  0.27565000  0.07589000  0.24978000  1.0
  O  O139  1  0.72436000  0.07589000  0.25022000  1.0
  O  O140  1  0.66608000  0.81228000  0.63666000  1.0
  O  O141  1  0.33391000  0.81229000  0.86334000  1.0
  O  O142  1  0.33392000  0.18772000  0.36334000  1.0
  O  O143  1  0.66608000  0.18771000  0.13666000  1.0
  O  O144  1  1.00000000  0.75077000  0.75000000  1.0
  O  O145  1  0.00001000  0.24924000  0.25000000  1.0
  O  O146  1  0.78312000  0.60772000  0.67696000  1.0
  O  O147  1  0.21688000  0.60772000  0.82304000  1.0
  O  O148  1  0.21689000  0.39228000  0.32304000  1.0
  O  O149  1  0.78312000  0.39228000  0.17696000  1.0
  O  O150  1  0.25562000  0.89977000  0.54724000  1.0
  O  O151  1  0.74436000  0.89977000  0.95276000  1.0
  O  O152  1  0.74433000  0.10021000  0.45275000  1.0
  O  O153  1  0.25562000  0.10023000  0.04724000  1.0
  O  O154  1  0.55426000  0.60967000  0.59115000  1.0
  O  O155  1  0.44574000  0.60968000  0.90886000  1.0
  O  O156  1  0.44574000  0.39032000  0.40886000  1.0
  O  O157  1  0.55426000  0.39033000  0.09114000  1.0
