# generated using pymatgen
data_TmH9(CO)6
_symmetry_space_group_name_H-M   'P 1'
_cell_length_a   7.99552000
_cell_length_b   7.99579000
_cell_length_c   8.31901000
_cell_angle_alpha   89.99980000
_cell_angle_beta   89.99990000
_cell_angle_gamma   62.03300000
_symmetry_Int_Tables_number   1
_chemical_formula_structural   TmH9(CO)6
_chemical_formula_sum   'Tm2 H18 C12 O12'
_cell_volume   469.72921666
_cell_formula_units_Z   2
loop_
 _symmetry_equiv_pos_site_id
 _symmetry_equiv_pos_as_xyz
  1  'x, y, z'
loop_
 _atom_site_type_symbol
 _atom_site_label
 _atom_site_symmetry_multiplicity
 _atom_site_fract_x
 _atom_site_fract_y
 _atom_site_fract_z
 _atom_site_occupancy
  Tm  Tm0  1  0.05466000  0.94533000  0.13845000  1.0
  Tm  Tm1  1  0.94539000  0.05462000  0.63848000  1.0
  H  H2  1  0.34557000  0.65451000  0.63546000  1.0
  H  H3  1  0.65437000  0.34558000  0.13548000  1.0
  H  H4  1  0.41562000  0.45669000  0.76734000  1.0
  H  H5  1  0.58437000  0.54336000  0.26741000  1.0
  H  H6  1  0.45663000  0.41548000  0.26740000  1.0
  H  H7  1  0.54332000  0.58455000  0.76737000  1.0
  H  H8  1  0.02605000  0.54033000  0.05047000  1.0
  H  H9  1  0.97394000  0.45965000  0.55047000  1.0
  H  H10  1  0.54039000  0.02604000  0.55045000  1.0
  H  H11  1  0.45966000  0.97392000  0.05045000  1.0
  H  H12  1  0.79101000  0.62338000  0.98389000  1.0
  H  H13  1  0.20897000  0.37660000  0.48390000  1.0
  H  H14  1  0.62341000  0.79101000  0.48388000  1.0
  H  H15  1  0.37660000  0.20897000  0.98392000  1.0
  H  H16  1  0.96759000  0.58878000  0.83913000  1.0
  H  H17  1  0.03239000  0.41122000  0.33914000  1.0
  H  H18  1  0.58882000  0.96758000  0.33912000  1.0
  H  H19  1  0.41119000  0.03243000  0.83913000  1.0
  C  C20  1  0.27607000  0.72393000  0.88552000  1.0
  C  C21  1  0.72394000  0.27604000  0.38549000  1.0
  C  C22  1  0.96789000  0.33493000  0.92850000  1.0
  C  C23  1  0.03211000  0.66506000  0.42851000  1.0
  C  C24  1  0.33496000  0.96790000  0.42850000  1.0
  C  C25  1  0.66505000  0.03210000  0.92852000  1.0
  C  C26  1  0.40017000  0.59988000  0.75481000  1.0
  C  C27  1  0.59978000  0.40018000  0.25483000  1.0
  C  C28  1  0.94021000  0.53303000  0.95075000  1.0
  C  C29  1  0.05977000  0.46696000  0.45077000  1.0
  C  C30  1  0.53306000  0.94021000  0.45074000  1.0
  C  C31  1  0.46696000  0.05979000  0.95075000  1.0
  O  O32  1  0.00679000  0.22898000  0.05230000  1.0
  O  O33  1  0.99319000  0.77102000  0.55231000  1.0
  O  O34  1  0.22898000  0.00686000  0.55229000  1.0
  O  O35  1  0.77101000  0.99319000  0.05231000  1.0
  O  O36  1  0.12156000  0.87846000  0.85393000  1.0
  O  O37  1  0.87847000  0.12151000  0.35391000  1.0
  O  O38  1  0.94554000  0.28498000  0.78825000  1.0
  O  O39  1  0.05450000  0.71499000  0.28826000  1.0
  O  O40  1  0.28502000  0.94548000  0.28826000  1.0
  O  O41  1  0.71502000  0.05448000  0.78826000  1.0
  O  O42  1  0.31863000  0.68135000  0.03182000  1.0
  O  O43  1  0.68136000  0.31864000  0.53180000  1.0
