# generated using pymatgen
data_Al2H17C30N3O13
_symmetry_space_group_name_H-M   'P 1'
_cell_length_a   6.60892000
_cell_length_b   20.54850000
_cell_length_c   21.67440000
_cell_angle_alpha   90.03080000
_cell_angle_beta   90.55860000
_cell_angle_gamma   98.00580000
_symmetry_Int_Tables_number   1
_chemical_formula_structural   Al2H17C30N3O13
_chemical_formula_sum   'Al4 H34 C60 N6 O26'
_cell_volume   2914.62618370
_cell_formula_units_Z   2
loop_
 _symmetry_equiv_pos_site_id
 _symmetry_equiv_pos_as_xyz
  1  'x, y, z'
loop_
 _atom_site_type_symbol
 _atom_site_label
 _atom_site_symmetry_multiplicity
 _atom_site_fract_x
 _atom_site_fract_y
 _atom_site_fract_z
 _atom_site_occupancy
  Al  Al0  1  0.10461000  0.31562000  0.50121000  1.0
  Al  Al1  1  0.90607000  0.68534000  0.00058000  1.0
  Al  Al2  1  0.60401000  0.31325000  0.50054000  1.0
  Al  Al3  1  0.40629000  0.68691000  0.99973000  1.0
  H  H4  1  0.79047000  0.50317000  0.09023000  1.0
  H  H5  1  0.22641000  0.49323000  0.59482000  1.0
  H  H6  1  0.87030000  0.36177000  0.25725000  1.0
  H  H7  1  0.14114000  0.63846000  0.75854000  1.0
  H  H8  1  0.74751000  0.41458000  0.17018000  1.0
  H  H9  1  0.26866000  0.58335000  0.67378000  1.0
  H  H10  1  0.69727000  0.49796000  0.42197000  1.0
  H  H11  1  0.31339000  0.50213000  0.91780000  1.0
  H  H12  1  0.53687000  0.59066000  0.25463000  1.0
  H  H13  1  0.47534000  0.40997000  0.75108000  1.0
  H  H14  1  0.75988000  0.58918000  0.34536000  1.0
  H  H15  1  0.25504000  0.41003000  0.84149000  1.0
  H  H16  1  0.10836000  0.35759000  0.34405000  1.0
  H  H17  1  0.89869000  0.64417000  0.84253000  1.0
  H  H18  1  0.58261000  0.18392000  0.35293000  1.0
  H  H19  1  0.42101000  0.81854000  0.85536000  1.0
  H  H20  1  0.54107000  0.97559000  0.14573000  1.0
  H  H21  1  0.47073000  0.02424000  0.64454000  1.0
  H  H22  1  0.51884000  0.87415000  0.07868000  1.0
  H  H23  1  0.49841000  0.12421000  0.57594000  1.0
  H  H24  1  0.97235000  0.12997000  0.42049000  1.0
  H  H25  1  0.03476000  0.87121000  0.92439000  1.0
  H  H26  1  0.95141000  0.90546000  0.22120000  1.0
  H  H27  1  0.05243000  0.09632000  0.72763000  1.0
  H  H28  1  0.93529000  0.02804000  0.35424000  1.0
  H  H29  1  0.07152000  0.97310000  0.85832000  1.0
  H  H30  1  0.92024000  0.80756000  0.14957000  1.0
  H  H31  1  0.08811000  0.19328000  0.65566000  1.0
  H  H32  1  0.39416000  0.61394000  0.13006000  1.0
  H  H33  1  0.59903000  0.39171000  0.62436000  1.0
  H  H34  1  0.86418000  0.34660000  0.42733000  1.0
  H  H35  1  0.14044000  0.65273000  0.92695000  1.0
  H  H36  1  0.33816000  0.28236000  0.57543000  1.0
  H  H37  1  0.65187000  0.65805000  0.07690000  1.0
  C  C38  1  0.90699000  0.40158000  0.57832000  1.0
  C  C39  1  0.10345000  0.59784000  0.07774000  1.0
  C  C40  1  0.81098000  0.22303000  0.57138000  1.0
  C  C41  1  0.20411000  0.77588000  0.07096000  1.0
  C  C42  1  0.30126000  0.22341000  0.42947000  1.0
  C  C43  1  0.70594000  0.77822000  0.93196000  1.0
  C  C44  1  0.40212000  0.40029000  0.42482000  1.0
  C  C45  1  0.60426000  0.60129000  0.92167000  1.0
  C  C46  1  0.88009000  0.45264000  0.17086000  1.0
  C  C47  1  0.13340000  0.54633000  0.67295000  1.0
  C  C48  1  0.08219000  0.54748000  0.12634000  1.0
  C  C49  1  0.92751000  0.45260000  0.62633000  1.0
  C  C50  1  0.59793000  0.49918000  0.38171000  1.0
  C  C51  1  0.41211000  0.50128000  0.87795000  1.0
  C  C52  1  0.63279000  0.54985000  0.33860000  1.0
  C  C53  1  0.37929000  0.45018000  0.83493000  1.0
  C  C54  1  0.50660000  0.55072000  0.28730000  1.0
  C  C55  1  0.50403000  0.44999000  0.78398000  1.0
  C  C56  1  0.33883000  0.50086000  0.27659000  1.0
  C  C57  1  0.66889000  0.50070000  0.77382000  1.0
  C  C58  1  0.29891000  0.44954000  0.32192000  1.0
  C  C59  1  0.70819000  0.55210000  0.81937000  1.0
  C  C60  1  0.20328000  0.50070000  0.22301000  1.0
  C  C61  1  0.80441000  0.50088000  0.72108000  1.0
  C  C62  1  0.02694000  0.45191000  0.21887000  1.0
  C  C63  1  0.98357000  0.54852000  0.71894000  1.0
  C  C64  1  0.99962000  0.40053000  0.26342000  1.0
  C  C65  1  0.01025000  0.60016000  0.76348000  1.0
  C  C66  1  0.13122000  0.39840000  0.31192000  1.0
  C  C67  1  0.87631000  0.60312000  0.81048000  1.0
  C  C68  1  0.23359000  0.54641000  0.17291000  1.0
  C  C69  1  0.77132000  0.45591000  0.67013000  1.0
  C  C70  1  0.90396000  0.50069000  0.12662000  1.0
  C  C71  1  0.10959000  0.49768000  0.62907000  1.0
  C  C72  1  0.43155000  0.45004000  0.37457000  1.0
  C  C73  1  0.57591000  0.55126000  0.87138000  1.0
  C  C74  1  0.21949000  0.83501000  0.11122000  1.0
  C  C75  1  0.79380000  0.16462000  0.61245000  1.0
  C  C76  1  0.05696000  0.84397000  0.15034000  1.0
  C  C77  1  0.95226000  0.15654000  0.65432000  1.0
  C  C78  1  0.07314000  0.89787000  0.18955000  1.0
  C  C79  1  0.93341000  0.10320000  0.69408000  1.0
  C  C80  1  0.25029000  0.94455000  0.18776000  1.0
  C  C81  1  0.75718000  0.05622000  0.69042000  1.0
  C  C82  1  0.40829000  0.93764000  0.14642000  1.0
  C  C83  1  0.60292000  0.06236000  0.64669000  1.0
  C  C84  1  0.39523000  0.88193000  0.10950000  1.0
  C  C85  1  0.61893000  0.11738000  0.60895000  1.0
  C  C86  1  0.41494000  0.09519000  0.31490000  1.0
  C  C87  1  0.58869000  0.90710000  0.81808000  1.0
  C  C88  1  0.43908000  0.15060000  0.35234000  1.0
  C  C89  1  0.56512000  0.85157000  0.85518000  1.0
  C  C90  1  0.23074000  0.05096000  0.31438000  1.0
  C  C91  1  0.77391000  0.95083000  0.81797000  1.0
  C  C92  1  0.27792000  0.16334000  0.38991000  1.0
  C  C93  1  0.72772000  0.83840000  0.89290000  1.0
  C  C94  1  0.09586000  0.11925000  0.39088000  1.0
  C  C95  1  0.91056000  0.88215000  0.89445000  1.0
  C  C96  1  0.07504000  0.06300000  0.35458000  1.0
  C  C97  1  0.93112000  0.93841000  0.85835000  1.0
  N  N98  1  0.28256000  0.00078000  0.22569000  1.0
  N  N99  1  0.72264000  0.00040000  0.72864000  1.0
  N  N100  1  0.18892000  0.99530000  0.27639000  1.0
  N  N101  1  0.81598000  0.00622000  0.77993000  1.0
  N  N102  1  0.59553000  0.08269000  0.27984000  1.0
  N  N103  1  0.40692000  0.92047000  0.78297000  1.0
  O  O104  1  0.64660000  0.23661000  0.54628000  1.0
  O  O105  1  0.36706000  0.76326000  0.04537000  1.0
  O  O106  1  0.06609000  0.39057000  0.54983000  1.0
  O  O107  1  0.94389000  0.60852000  0.04832000  1.0
  O  O108  1  0.22249000  0.37274000  0.43783000  1.0
  O  O109  1  0.78401000  0.62947000  0.93506000  1.0
  O  O110  1  0.98735000  0.25605000  0.56431000  1.0
  O  O111  1  0.02943000  0.74125000  0.06510000  1.0
  O  O112  1  0.13880000  0.23865000  0.45318000  1.0
  O  O113  1  0.86863000  0.76317000  0.95651000  1.0
  O  O114  1  0.72651000  0.36887000  0.56820000  1.0
  O  O115  1  0.28433000  0.63012000  0.06794000  1.0
  O  O116  1  0.85364000  0.31608000  0.46171000  1.0
  O  O117  1  0.15373000  0.68380000  0.96104000  1.0
  O  O118  1  0.48030000  0.25501000  0.43596000  1.0
  O  O119  1  0.52822000  0.74593000  0.93741000  1.0
  O  O120  1  0.56299000  0.38831000  0.45344000  1.0
  O  O121  1  0.44244000  0.61265000  0.94942000  1.0
  O  O122  1  0.35575000  0.31248000  0.54081000  1.0
  O  O123  1  0.65560000  0.68435000  0.03975000  1.0
  O  O124  1  0.68116000  0.12838000  0.24828000  1.0
  O  O125  1  0.65685000  0.02884000  0.28754000  1.0
  O  O126  1  0.31661000  0.87499000  0.75154000  1.0
  O  O127  1  0.34963000  0.97494000  0.79049000  1.0
  O  O128  1  0.40676000  0.58983000  0.17011000  1.0
  O  O129  1  0.59113000  0.41657000  0.66424000  1.0
