# generated using pymatgen
data_CdH20C12(N3O4)2
_symmetry_space_group_name_H-M   'P 1'
_cell_length_a   4.80401000
_cell_length_b   11.79192632
_cell_length_c   15.36200000
_cell_angle_alpha   85.17374592
_cell_angle_beta   89.98450000
_cell_angle_gamma   78.25606784
_symmetry_Int_Tables_number   1
_chemical_formula_structural   CdH20C12(N3O4)2
_chemical_formula_sum   'Cd2 H40 C24 N12 O16'
_cell_volume   848.87054775
_cell_formula_units_Z   2
loop_
 _symmetry_equiv_pos_site_id
 _symmetry_equiv_pos_as_xyz
  1  'x, y, z'
loop_
 _atom_site_type_symbol
 _atom_site_label
 _atom_site_symmetry_multiplicity
 _atom_site_fract_x
 _atom_site_fract_y
 _atom_site_fract_z
 _atom_site_occupancy
  Cd  Cd0  1  0.00000000  0.00000000  0.50000000  1.0
  Cd  Cd1  1  0.99999000  0.00000000  0.00000000  1.0
  H  H2  1  0.09432000  0.25294000  0.51442000  1.0
  H  H3  1  0.34645000  0.74666000  0.98593000  1.0
  H  H4  1  0.90568000  0.74706000  0.48558000  1.0
  H  H5  1  0.65355000  0.25334000  0.01407000  1.0
  H  H6  1  0.14286000  0.18153000  0.61981000  1.0
  H  H7  1  0.32479000  0.81814000  0.88059000  1.0
  H  H8  1  0.85714000  0.81846000  0.38019000  1.0
  H  H9  1  0.67521000  0.18186000  0.11941000  1.0
  H  H10  1  0.18493000  0.57662000  0.62021000  1.0
  H  H11  1  0.76133000  0.42363000  0.87916000  1.0
  H  H12  1  0.81506000  0.42338000  0.37979000  1.0
  H  H13  1  0.23869000  0.57637000  0.12084000  1.0
  H  H14  1  0.03909000  0.51033000  0.71226000  1.0
  H  H15  1  0.54755000  0.48993000  0.78751000  1.0
  H  H16  1  0.96090000  0.48967000  0.28773000  1.0
  H  H17  1  0.45247000  0.51007000  0.21249000  1.0
  H  H18  1  0.38867000  0.82917000  0.74260000  1.0
  H  H19  1  0.21837000  0.17041000  0.75750000  1.0
  H  H20  1  0.61133000  0.17083000  0.25739000  1.0
  H  H21  1  0.78162000  0.82960000  0.24250000  1.0
  H  H22  1  0.25245000  0.78619000  0.64757000  1.0
  H  H23  1  0.03915000  0.21343000  0.85256000  1.0
  H  H24  1  0.74755000  0.21381000  0.35243000  1.0
  H  H25  1  0.96084000  0.78658000  0.14744000  1.0
  H  H26  1  0.61682000  0.22160000  0.51372000  1.0
  H  H27  1  0.83780000  0.77840000  0.98639000  1.0
  H  H28  1  0.38317000  0.77841000  0.48628000  1.0
  H  H29  1  0.16220000  0.22160000  0.01361000  1.0
  H  H30  1  0.66523000  0.14621000  0.61039000  1.0
  H  H31  1  0.81158000  0.85367000  0.88970000  1.0
  H  H32  1  0.33476000  0.85379000  0.38961000  1.0
  H  H33  1  0.18843000  0.14632000  0.11030000  1.0
  H  H34  1  0.18463000  0.41649000  0.54750000  1.0
  H  H35  1  0.60092000  0.58339000  0.95230000  1.0
  H  H36  1  0.81536000  0.58351000  0.45250000  1.0
  H  H37  1  0.39909000  0.41661000  0.04770000  1.0
  H  H38  1  0.79173000  0.67836000  0.74394000  1.0
  H  H39  1  0.47102000  0.32120000  0.75619000  1.0
  H  H40  1  0.20826000  0.32164000  0.25606000  1.0
  H  H41  1  0.52898000  0.67880000  0.24380000  1.0
  C  C42  1  0.98302000  0.23690000  0.57500000  1.0
  C  C43  1  0.21958000  0.76285000  0.92529000  1.0
  C  C44  1  0.01697000  0.76310000  0.42501000  1.0
  C  C45  1  0.78043000  0.23715000  0.07472000  1.0
  C  C46  1  0.88009000  0.35008000  0.61616000  1.0
  C  C47  1  0.22950000  0.64978000  0.88404000  1.0
  C  C48  1  0.11990000  0.64992000  0.38384000  1.0
  C  C49  1  0.77051000  0.35022000  0.11596000  1.0
  C  C50  1  0.00993000  0.53401000  0.64165000  1.0
  C  C51  1  0.54330000  0.46605000  0.85813000  1.0
  C  C52  1  0.99006000  0.46599000  0.35835000  1.0
  C  C53  1  0.45672000  0.53395000  0.14187000  1.0
  C  C54  1  0.73389000  0.62362000  0.62456000  1.0
  C  C55  1  0.35758000  0.37616000  0.87545000  1.0
  C  C56  1  0.26610000  0.37638000  0.37544000  1.0
  C  C57  1  0.64244000  0.62383000  0.12455000  1.0
  C  C58  1  0.44899000  0.79875000  0.67835000  1.0
  C  C59  1  0.24827000  0.20080000  0.82176000  1.0
  C  C60  1  0.55102000  0.20125000  0.32165000  1.0
  C  C61  1  0.75172000  0.79921000  0.17824000  1.0
  C  C62  1  0.55350000  0.89751000  0.62410000  1.0
  C  C63  1  0.45152000  0.10209000  0.87595000  1.0
  C  C64  1  0.44649000  0.10249000  0.37590000  1.0
  C  C65  1  0.54846000  0.89792000  0.12405000  1.0
  N  N66  1  0.76747000  0.17079000  0.55587000  1.0
  N  N67  1  0.93802000  0.82915000  0.94428000  1.0
  N  N68  1  0.23253000  0.82921000  0.44413000  1.0
  N  N69  1  0.06199000  0.17084000  0.05572000  1.0
  N  N70  1  0.03329000  0.43147000  0.59491000  1.0
  N  N71  1  0.46422000  0.56839000  0.90505000  1.0
  N  N72  1  0.96671000  0.56853000  0.40509000  1.0
  N  N73  1  0.53579000  0.43161000  0.09495000  1.0
  N  N74  1  0.65774000  0.69116000  0.69009000  1.0
  N  N75  1  0.34980000  0.30837000  0.81005000  1.0
  N  N76  1  0.34226000  0.30884000  0.30991000  1.0
  N  N77  1  0.65020000  0.69164000  0.18995000  1.0
  O  O78  1  0.68088000  0.36407000  0.66909000  1.0
  O  O79  1  0.04391000  0.63589000  0.83122000  1.0
  O  O80  1  0.31912000  0.63593000  0.33091000  1.0
  O  O81  1  0.95611000  0.36411000  0.16878000  1.0
  O  O82  1  0.59903000  0.63562000  0.55309000  1.0
  O  O83  1  0.23467000  0.36424000  0.94692000  1.0
  O  O84  1  0.40096000  0.36438000  0.44691000  1.0
  O  O85  1  0.76537000  0.63575000  0.05308000  1.0
  O  O86  1  0.80874000  0.87619000  0.59871000  1.0
  O  O87  1  0.68548000  0.12347000  0.90120000  1.0
  O  O88  1  0.19125000  0.12381000  0.40128000  1.0
  O  O89  1  0.31451000  0.87653000  0.09880000  1.0
  O  O90  1  0.37557000  0.99280000  0.60900000  1.0
  O  O91  1  0.36901000  0.00677000  0.89115000  1.0
  O  O92  1  0.62441000  0.00720000  0.39100000  1.0
  O  O93  1  0.63097000  0.99324000  0.10885000  1.0
