# generated using pymatgen
data_BaH10C12(N2O5)2
_symmetry_space_group_name_H-M   'P 1'
_cell_length_a   7.29491000
_cell_length_b   15.47220000
_cell_length_c   16.12470000
_cell_angle_alpha   107.65600000
_cell_angle_beta   89.99910000
_cell_angle_gamma   89.99620000
_symmetry_Int_Tables_number   1
_chemical_formula_structural   BaH10C12(N2O5)2
_chemical_formula_sum   'Ba4 H40 C48 N16 O40'
_cell_volume   1734.23742321
_cell_formula_units_Z   4
loop_
 _symmetry_equiv_pos_site_id
 _symmetry_equiv_pos_as_xyz
  1  'x, y, z'
loop_
 _atom_site_type_symbol
 _atom_site_label
 _atom_site_symmetry_multiplicity
 _atom_site_fract_x
 _atom_site_fract_y
 _atom_site_fract_z
 _atom_site_occupancy
  Ba  Ba0  1  0.82759000  0.40620000  0.19407000  1.0
  Ba  Ba1  1  0.32756000  0.59380000  0.30593000  1.0
  Ba  Ba2  1  0.17241000  0.59380000  0.80594000  1.0
  Ba  Ba3  1  0.67243000  0.40620000  0.69406000  1.0
  H  H4  1  0.94481000  0.28452000  0.32541000  1.0
  H  H5  1  0.44473000  0.71547000  0.17458000  1.0
  H  H6  1  0.05521000  0.71548000  0.67458000  1.0
  H  H7  1  0.55523000  0.28453000  0.82542000  1.0
  H  H8  1  0.14337000  0.30450000  0.29972000  1.0
  H  H9  1  0.64331000  0.69549000  0.20026000  1.0
  H  H10  1  0.85664000  0.69550000  0.70028000  1.0
  H  H11  1  0.35667000  0.30451000  0.79972000  1.0
  H  H12  1  0.49436000  0.36042000  0.31776000  1.0
  H  H13  1  0.99431000  0.63959000  0.18225000  1.0
  H  H14  1  0.50565000  0.63958000  0.68225000  1.0
  H  H15  1  0.00567000  0.36042000  0.81776000  1.0
  H  H16  1  0.64835000  0.29061000  0.31894000  1.0
  H  H17  1  0.14829000  0.70940000  0.18107000  1.0
  H  H18  1  0.35166000  0.70938000  0.68106000  1.0
  H  H19  1  0.85168000  0.29062000  0.81894000  1.0
  H  H20  1  0.50964000  0.01221000  0.78317000  1.0
  H  H21  1  0.00961000  0.98780000  0.71683000  1.0
  H  H22  1  0.49037000  0.98780000  0.21683000  1.0
  H  H23  1  0.99040000  0.01219000  0.28317000  1.0
  H  H24  1  0.25151000  0.57512000  0.01385000  1.0
  H  H25  1  0.75154000  0.42488000  0.48616000  1.0
  H  H26  1  0.74846000  0.42489000  0.98617000  1.0
  H  H27  1  0.24845000  0.57512000  0.51384000  1.0
  H  H28  1  0.83044000  0.00194000  0.11434000  1.0
  H  H29  1  0.33051000  0.99807000  0.38567000  1.0
  H  H30  1  0.16957000  0.99807000  0.88566000  1.0
  H  H31  1  0.66950000  0.00192000  0.61432000  1.0
  H  H32  1  0.87902000  0.16777000  0.19640000  1.0
  H  H33  1  0.37903000  0.83223000  0.30360000  1.0
  H  H34  1  0.12101000  0.83223000  0.80359000  1.0
  H  H35  1  0.62097000  0.16776000  0.69640000  1.0
  H  H36  1  0.19342000  0.14213000  0.85112000  1.0
  H  H37  1  0.69336000  0.85787000  0.64885000  1.0
  H  H38  1  0.80659000  0.85788000  0.14886000  1.0
  H  H39  1  0.30666000  0.14212000  0.35115000  1.0
  H  H40  1  0.28855000  0.11849000  0.99536000  1.0
  H  H41  1  0.78844000  0.88148000  0.50459000  1.0
  H  H42  1  0.71150000  0.88150000  0.00461000  1.0
  H  H43  1  0.21156000  0.11851000  0.49540000  1.0
  C  C44  1  0.78128000  0.18322000  0.00330000  1.0
  C  C45  1  0.28126000  0.81678000  0.49670000  1.0
  C  C46  1  0.21872000  0.81679000  0.99671000  1.0
  C  C47  1  0.71874000  0.18321000  0.50330000  1.0
  C  C48  1  0.75855000  0.09081000  0.95735000  1.0
  C  C49  1  0.25857000  0.90920000  0.54265000  1.0
  C  C50  1  0.24145000  0.90920000  0.04265000  1.0
  C  C51  1  0.74144000  0.09080000  0.45735000  1.0
  C  C52  1  0.81629000  0.05390000  0.08175000  1.0
  C  C53  1  0.31633000  0.94611000  0.41826000  1.0
  C  C54  1  0.18372000  0.94611000  0.91825000  1.0
  C  C55  1  0.68368000  0.05388000  0.58174000  1.0
  C  C56  1  0.84188000  0.14524000  0.12768000  1.0
  C  C57  1  0.34189000  0.85477000  0.37233000  1.0
  C  C58  1  0.15813000  0.85477000  0.87233000  1.0
  C  C59  1  0.65811000  0.14523000  0.62767000  1.0
  C  C60  1  0.75804000  0.25692000  0.96022000  1.0
  C  C61  1  0.25801000  0.74310000  0.53978000  1.0
  C  C62  1  0.24195000  0.74310000  0.03979000  1.0
  C  C63  1  0.74199000  0.25690000  0.46022000  1.0
  C  C64  1  0.71975000  0.05410000  0.86072000  1.0
  C  C65  1  0.21974000  0.94591000  0.63928000  1.0
  C  C66  1  0.28023000  0.94592000  0.13929000  1.0
  C  C67  1  0.78027000  0.05409000  0.36072000  1.0
  C  C68  1  0.29705000  0.33985000  0.05032000  1.0
  C  C69  1  0.79703000  0.66013000  0.44967000  1.0
  C  C70  1  0.70296000  0.66015000  0.94967000  1.0
  C  C71  1  0.20298000  0.33986000  0.55033000  1.0
  C  C72  1  0.24567000  0.35300000  0.97082000  1.0
  C  C73  1  0.74566000  0.64699000  0.52918000  1.0
  C  C74  1  0.75431000  0.64700000  0.02918000  1.0
  C  C75  1  0.25435000  0.35300000  0.47082000  1.0
  C  C76  1  0.22371000  0.19902000  0.90880000  1.0
  C  C77  1  0.72367000  0.80097000  0.59118000  1.0
  C  C78  1  0.77628000  0.80098000  0.09119000  1.0
  C  C79  1  0.27634000  0.19902000  0.40882000  1.0
  C  C80  1  0.27626000  0.18605000  0.98769000  1.0
  C  C81  1  0.77619000  0.81394000  0.51229000  1.0
  C  C82  1  0.72376000  0.81395000  0.01229000  1.0
  C  C83  1  0.22381000  0.18606000  0.48771000  1.0
  C  C84  1  0.32605000  0.41558000  0.13391000  1.0
  C  C85  1  0.82603000  0.58440000  0.36609000  1.0
  C  C86  1  0.67395000  0.58441000  0.86609000  1.0
  C  C87  1  0.17396000  0.41559000  0.63391000  1.0
  C  C88  1  0.22281000  0.44447000  0.95736000  1.0
  C  C89  1  0.72282000  0.55553000  0.54265000  1.0
  C  C90  1  0.77715000  0.55554000  0.04265000  1.0
  C  C91  1  0.27718000  0.44447000  0.45735000  1.0
  N  N92  1  0.82325000  0.20924000  0.08835000  1.0
  N  N93  1  0.32323000  0.79077000  0.41165000  1.0
  N  N94  1  0.17676000  0.79077000  0.91166000  1.0
  N  N95  1  0.67677000  0.20923000  0.58835000  1.0
  N  N96  1  0.77456000  0.02640000  0.99703000  1.0
  N  N97  1  0.27462000  0.97361000  0.50298000  1.0
  N  N98  1  0.22544000  0.97361000  0.00297000  1.0
  N  N99  1  0.72540000  0.02639000  0.49702000  1.0
  N  N100  1  0.31406000  0.25595000  0.05791000  1.0
  N  N101  1  0.81400000  0.74403000  0.44207000  1.0
  N  N102  1  0.68597000  0.74405000  0.94207000  1.0
  N  N103  1  0.18601000  0.25596000  0.55793000  1.0
  N  N104  1  0.21075000  0.28194000  0.90051000  1.0
  N  N105  1  0.71072000  0.71806000  0.59949000  1.0
  N  N106  1  0.78924000  0.71807000  0.09949000  1.0
  N  N107  1  0.28930000  0.28193000  0.40051000  1.0
  O  O108  1  0.01476000  0.30452000  0.28208000  1.0
  O  O109  1  0.51471000  0.69545000  0.21791000  1.0
  O  O110  1  0.98525000  0.69547000  0.71792000  1.0
  O  O111  1  0.48527000  0.30453000  0.78207000  1.0
  O  O112  1  0.59703000  0.32628000  0.28330000  1.0
  O  O113  1  0.09700000  0.67371000  0.21670000  1.0
  O  O114  1  0.40297000  0.67371000  0.71670000  1.0
  O  O115  1  0.90300000  0.32629000  0.78331000  1.0
  O  O116  1  0.78817000  0.33788000  0.00745000  1.0
  O  O117  1  0.28813000  0.66213000  0.49255000  1.0
  O  O118  1  0.21184000  0.66213000  0.99256000  1.0
  O  O119  1  0.71186000  0.33787000  0.50745000  1.0
  O  O120  1  0.48534000  0.44492000  0.15548000  1.0
  O  O121  1  0.98532000  0.55505000  0.34451000  1.0
  O  O122  1  0.51466000  0.55507000  0.84452000  1.0
  O  O123  1  0.01467000  0.44493000  0.65549000  1.0
  O  O124  1  0.71143000  0.23095000  0.88086000  1.0
  O  O125  1  0.21140000  0.76907000  0.61914000  1.0
  O  O126  1  0.28854000  0.76906000  0.11914000  1.0
  O  O127  1  0.78860000  0.23093000  0.38086000  1.0
  O  O128  1  0.84171000  0.03160000  0.80574000  1.0
  O  O129  1  0.34171000  0.96839000  0.69427000  1.0
  O  O130  1  0.15829000  0.96842000  0.19426000  1.0
  O  O131  1  0.65829000  0.03161000  0.30573000  1.0
  O  O132  1  0.54091000  0.04060000  0.84543000  1.0
  O  O133  1  0.04091000  0.95941000  0.65456000  1.0
  O  O134  1  0.45909000  0.95940000  0.15457000  1.0
  O  O135  1  0.95910000  0.04059000  0.34544000  1.0
  O  O136  1  0.18237000  0.44243000  0.17852000  1.0
  O  O137  1  0.68233000  0.55756000  0.32149000  1.0
  O  O138  1  0.81764000  0.55756000  0.82149000  1.0
  O  O139  1  0.31765000  0.44244000  0.67851000  1.0
  O  O140  1  0.27564000  0.51266000  0.02390000  1.0
  O  O141  1  0.77567000  0.48734000  0.47611000  1.0
  O  O142  1  0.72431000  0.48735000  0.97612000  1.0
  O  O143  1  0.22433000  0.51266000  0.52388000  1.0
  O  O144  1  0.15698000  0.45184000  0.88887000  1.0
  O  O145  1  0.65698000  0.54816000  0.61113000  1.0
  O  O146  1  0.84300000  0.54817000  0.11114000  1.0
  O  O147  1  0.34302000  0.45183000  0.38887000  1.0
