# generated using pymatgen
data_Zr3H14C48(Br3O4)4
_symmetry_space_group_name_H-M   'P 1'
_cell_length_a   21.68123917
_cell_length_b   21.68117771
_cell_length_c   21.68127771
_cell_angle_alpha   89.99989649
_cell_angle_beta   120.00109376
_cell_angle_gamma   120.00033089
_symmetry_Int_Tables_number   1
_chemical_formula_structural   Zr3H14C48(Br3O4)4
_chemical_formula_sum   'Zr6 H28 C96 Br24 O32'
_cell_volume   7206.55795875
_cell_formula_units_Z   2
loop_
 _symmetry_equiv_pos_site_id
 _symmetry_equiv_pos_as_xyz
  1  'x, y, z'
loop_
 _atom_site_type_symbol
 _atom_site_label
 _atom_site_symmetry_multiplicity
 _atom_site_fract_x
 _atom_site_fract_y
 _atom_site_fract_z
 _atom_site_occupancy
  Zr  Zr0  1  0.00004000  0.08158000  0.08157000  1.0
  Zr  Zr1  1  0.00005000  0.91842000  0.91842000  1.0
  Zr  Zr2  1  0.00004000  0.08156000  0.91842000  1.0
  Zr  Zr3  1  0.00002000  0.91841000  0.08157000  1.0
  Zr  Zr4  1  0.83688000  0.91841000  0.91840000  1.0
  Zr  Zr5  1  0.16319000  0.08156000  0.08157000  1.0
  H  H6  1  0.87166000  0.06416000  0.93579000  1.0
  H  H7  1  0.87166000  0.80744000  0.93581000  1.0
  H  H8  1  0.12839000  0.06416000  0.93581000  1.0
  H  H9  1  0.12838000  0.06416000  0.19254000  1.0
  H  H10  1  0.81648000  0.09789000  0.10048000  1.0
  H  H11  1  0.61808000  0.89943000  0.90207000  1.0
  H  H12  1  0.38209000  0.09794000  0.10052000  1.0
  H  H13  1  0.18362000  0.89951000  0.90206000  1.0
  H  H14  1  0.18359000  0.28410000  0.28145000  1.0
  H  H15  1  0.38197000  0.28406000  0.28138000  1.0
  H  H16  1  0.61801000  0.71855000  0.71583000  1.0
  H  H17  1  0.81648000  0.71856000  0.71590000  1.0
  H  H18  1  0.61802000  0.71856000  0.90210000  1.0
  H  H19  1  0.81648000  0.71862000  0.10057000  1.0
  H  H20  1  0.18359000  0.28412000  0.90215000  1.0
  H  H21  1  0.38204000  0.28412000  0.10055000  1.0
  H  H22  1  0.38202000  0.09788000  0.28146000  1.0
  H  H23  1  0.18356000  0.89941000  0.28140000  1.0
  H  H24  1  0.81646000  0.09783000  0.71584000  1.0
  H  H25  1  0.61805000  0.89944000  0.71590000  1.0
  H  H26  1  0.00268000  0.28410000  0.90211000  1.0
  H  H27  1  0.00276000  0.28410000  0.10058000  1.0
  H  H28  1  0.00275000  0.71858000  0.90216000  1.0
  H  H29  1  0.00270000  0.71854000  0.10057000  1.0
  H  H30  1  0.99723000  0.09783000  0.28134000  1.0
  H  H31  1  0.99728000  0.89943000  0.28137000  1.0
  H  H32  1  0.99730000  0.09784000  0.71585000  1.0
  H  H33  1  0.99721000  0.89936000  0.71580000  1.0
  C  C34  1  0.79279000  0.99803000  0.00193000  1.0
  C  C35  1  0.79276000  0.79467000  0.79076000  1.0
  C  C36  1  0.20734000  0.99808000  0.00194000  1.0
  C  C37  1  0.20728000  0.20920000  0.20529000  1.0
  C  C38  1  0.00396000  0.20921000  0.00195000  1.0
  C  C39  1  0.99605000  0.99802000  0.20525000  1.0
  C  C40  1  0.00397000  0.79470000  0.00199000  1.0
  C  C41  1  0.99608000  0.99801000  0.79075000  1.0
  C  C42  1  0.79277000  0.99802000  0.79075000  1.0
  C  C43  1  0.20730000  0.20922000  0.00196000  1.0
  C  C44  1  0.20728000  0.99802000  0.20529000  1.0
  C  C45  1  0.79275000  0.79470000  0.00194000  1.0
  C  C46  1  0.72396000  0.99843000  0.00151000  1.0
  C  C47  1  0.74777000  0.05490000  0.05699000  1.0
  C  C48  1  0.68354000  0.05547000  0.05589000  1.0
  C  C49  1  0.59316000  0.00010000  0.99979000  1.0
  C  C50  1  0.57210000  0.94400000  0.94445000  1.0
  C  C51  1  0.63581000  0.94290000  0.94503000  1.0
  C  C52  1  0.52821000  0.00060000  0.99928000  1.0
  C  C53  1  0.47187000  0.00068000  0.99930000  1.0
  C  C54  1  0.40694000  0.00022000  0.99978000  1.0
  C  C55  1  0.42802000  0.05556000  0.05588000  1.0
  C  C56  1  0.36433000  0.05498000  0.05702000  1.0
  C  C57  1  0.27617000  0.99851000  0.00151000  1.0
  C  C58  1  0.25233000  0.94300000  0.94502000  1.0
  C  C59  1  0.31656000  0.94412000  0.94442000  1.0
  C  C60  1  0.27611000  0.27763000  0.27452000  1.0
  C  C61  1  0.25230000  0.30932000  0.30718000  1.0
  C  C62  1  0.31656000  0.37245000  0.37200000  1.0
  C  C63  1  0.40692000  0.40671000  0.40698000  1.0
  C  C64  1  0.42798000  0.37243000  0.37194000  1.0
  C  C65  1  0.36425000  0.30930000  0.30713000  1.0
  C  C66  1  0.47188000  0.47114000  0.47242000  1.0
  C  C67  1  0.52826000  0.52754000  0.52882000  1.0
  C  C68  1  0.59318000  0.59298000  0.59326000  1.0
  C  C69  1  0.57207000  0.62798000  0.62751000  1.0
  C  C70  1  0.63578000  0.69281000  0.69064000  1.0
  C  C71  1  0.72393000  0.72545000  0.72233000  1.0
  C  C72  1  0.74777000  0.69281000  0.69066000  1.0
  C  C73  1  0.68355000  0.62800000  0.62753000  1.0
  C  C74  1  0.72392000  0.72549000  0.00156000  1.0
  C  C75  1  0.63578000  0.69286000  0.94510000  1.0
  C  C76  1  0.57207000  0.62807000  0.94455000  1.0
  C  C77  1  0.59317000  0.59309000  0.99994000  1.0
  C  C78  1  0.68353000  0.62809000  0.05601000  1.0
  C  C79  1  0.74777000  0.69288000  0.05710000  1.0
  C  C80  1  0.52823000  0.52766000  0.99945000  1.0
  C  C81  1  0.47182000  0.47125000  0.99943000  1.0
  C  C82  1  0.40689000  0.40680000  0.99991000  1.0
  C  C83  1  0.31651000  0.37250000  0.94455000  1.0
  C  C84  1  0.25229000  0.30935000  0.94511000  1.0
  C  C85  1  0.27612000  0.27766000  0.00157000  1.0
  C  C86  1  0.36429000  0.30935000  0.05708000  1.0
  C  C87  1  0.42799000  0.37250000  0.05599000  1.0
  C  C88  1  0.27611000  0.99842000  0.27452000  1.0
  C  C89  1  0.36427000  0.05490000  0.30718000  1.0
  C  C90  1  0.42797000  0.05547000  0.37199000  1.0
  C  C91  1  0.40688000  0.00009000  0.40698000  1.0
  C  C92  1  0.31650000  0.94399000  0.37195000  1.0
  C  C93  1  0.25228000  0.94290000  0.30715000  1.0
  C  C94  1  0.47181000  0.00058000  0.47241000  1.0
  C  C95  1  0.52821000  0.00057000  0.52879000  1.0
  C  C96  1  0.59315000  0.00007000  0.59323000  1.0
  C  C97  1  0.68353000  0.05544000  0.62750000  1.0
  C  C98  1  0.74777000  0.05487000  0.69063000  1.0
  C  C99  1  0.72393000  0.99841000  0.72232000  1.0
  C  C100  1  0.63579000  0.94291000  0.69066000  1.0
  C  C101  1  0.57207000  0.94400000  0.62752000  1.0
  C  C102  1  0.00316000  0.27764000  0.00156000  1.0
  C  C103  1  0.00220000  0.30933000  0.94510000  1.0
  C  C104  1  0.00055000  0.37248000  0.94455000  1.0
  C  C105  1  0.99986000  0.40676000  0.99995000  1.0
  C  C106  1  0.00059000  0.37247000  0.05603000  1.0
  C  C107  1  0.00223000  0.30932000  0.05710000  1.0
  C  C108  1  0.99886000  0.47120000  0.99945000  1.0
  C  C109  1  0.99882000  0.52758000  0.99941000  1.0
  C  C110  1  0.99981000  0.59301000  0.99990000  1.0
  C  C111  1  0.00055000  0.62803000  0.94455000  1.0
  C  C112  1  0.00223000  0.69284000  0.94513000  1.0
  C  C113  1  0.00317000  0.72547000  0.00159000  1.0
  C  C114  1  0.00220000  0.69282000  0.05709000  1.0
  C  C115  1  0.00051000  0.62800000  0.05598000  1.0
  C  C116  1  0.99680000  0.99840000  0.27445000  1.0
  C  C117  1  0.99772000  0.05486000  0.30706000  1.0
  C  C118  1  0.99937000  0.05542000  0.37186000  1.0
  C  C119  1  0.00006000  0.00004000  0.40685000  1.0
  C  C120  1  0.99936000  0.94396000  0.37186000  1.0
  C  C121  1  0.99774000  0.94288000  0.30708000  1.0
  C  C122  1  0.00102000  0.00051000  0.47227000  1.0
  C  C123  1  0.00102000  0.00049000  0.52867000  1.0
  C  C124  1  0.00008000  0.00001000  0.59314000  1.0
  C  C125  1  0.99939000  0.05539000  0.62744000  1.0
  C  C126  1  0.99775000  0.05484000  0.69059000  1.0
  C  C127  1  0.99680000  0.99837000  0.72228000  1.0
  C  C128  1  0.99772000  0.94284000  0.69058000  1.0
  C  C129  1  0.99936000  0.94393000  0.62742000  1.0
  Br  Br130  1  0.45385000  0.86780000  0.86694000  1.0
  Br  Br131  1  0.71895000  0.13293000  0.13209000  1.0
  Br  Br132  1  0.28121000  0.86794000  0.86696000  1.0
  Br  Br133  1  0.54632000  0.13300000  0.13205000  1.0
  Br  Br134  1  0.54623000  0.41318000  0.41399000  1.0
  Br  Br135  1  0.28121000  0.41325000  0.41413000  1.0
  Br  Br136  1  0.71892000  0.58590000  0.58673000  1.0
  Br  Br137  1  0.45379000  0.58587000  0.58669000  1.0
  Br  Br138  1  0.71893000  0.58601000  0.13221000  1.0
  Br  Br139  1  0.45378000  0.58593000  0.86706000  1.0
  Br  Br140  1  0.54626000  0.41329000  0.13212000  1.0
  Br  Br141  1  0.28114000  0.41331000  0.86708000  1.0
  Br  Br142  1  0.28114000  0.86784000  0.41407000  1.0
  Br  Br143  1  0.54625000  0.13298000  0.41415000  1.0
  Br  Br144  1  0.45380000  0.86788000  0.58676000  1.0
  Br  Br145  1  0.71888000  0.13292000  0.58669000  1.0
  Br  Br146  1  0.99927000  0.41325000  0.13220000  1.0
  Br  Br147  1  0.99914000  0.41325000  0.86704000  1.0
  Br  Br148  1  0.99912000  0.58584000  0.13210000  1.0
  Br  Br149  1  0.99923000  0.58592000  0.86707000  1.0
  Br  Br150  1  0.00069000  0.86780000  0.41398000  1.0
  Br  Br151  1  0.00072000  0.13293000  0.41397000  1.0
  Br  Br152  1  0.00072000  0.86779000  0.58664000  1.0
  Br  Br153  1  0.00076000  0.13289000  0.58667000  1.0
  O  O154  1  0.87212000  0.05067000  0.05418000  1.0
  O  O155  1  0.87212000  0.82137000  0.81787000  1.0
  O  O156  1  0.12798000  0.94581000  0.94930000  1.0
  O  O157  1  0.12793000  0.18211000  0.17858000  1.0
  O  O158  1  0.00356000  0.18212000  0.94929000  1.0
  O  O159  1  0.99647000  0.94577000  0.17857000  1.0
  O  O160  1  0.00355000  0.82139000  0.05423000  1.0
  O  O161  1  0.99651000  0.05067000  0.81787000  1.0
  O  O162  1  0.76722000  0.94576000  0.81785000  1.0
  O  O163  1  0.23285000  0.18211000  0.05421000  1.0
  O  O164  1  0.23283000  0.05065000  0.17857000  1.0
  O  O165  1  0.76719000  0.82138000  0.94927000  1.0
  O  O166  1  0.12795000  0.18211000  0.94930000  1.0
  O  O167  1  0.12792000  0.94577000  0.17860000  1.0
  O  O168  1  0.87211000  0.82140000  0.05420000  1.0
  O  O169  1  0.87213000  0.05067000  0.81786000  1.0
  O  O170  1  0.00355000  0.18210000  0.05420000  1.0
  O  O171  1  0.99649000  0.94575000  0.81786000  1.0
  O  O172  1  0.00361000  0.82142000  0.94935000  1.0
  O  O173  1  0.99649000  0.05069000  0.17857000  1.0
  O  O174  1  0.23285000  0.18211000  0.17860000  1.0
  O  O175  1  0.76722000  0.94576000  0.94927000  1.0
  O  O176  1  0.76722000  0.82139000  0.81786000  1.0
  O  O177  1  0.23288000  0.05071000  0.05421000  1.0
  O  O178  1  0.09188000  0.04591000  0.13777000  1.0
  O  O179  1  0.09189000  0.04591000  0.95407000  1.0
  O  O180  1  0.90819000  0.86221000  0.95407000  1.0
  O  O181  1  0.90818000  0.04592000  0.95405000  1.0
  O  O182  1  0.93227000  0.96610000  0.89833000  1.0
  O  O183  1  0.93226000  0.96611000  0.03387000  1.0
  O  O184  1  0.06780000  0.96610000  0.03388000  1.0
  O  O185  1  0.06781000  0.10165000  0.03388000  1.0
