# generated using pymatgen
data_Zn2H21C46S(NO10)2
_symmetry_space_group_name_H-M   'P 1'
_cell_length_a   16.51870000
_cell_length_b   17.84930000
_cell_length_c   30.57470000
_cell_angle_alpha   90.24270000
_cell_angle_beta   90.09580000
_cell_angle_gamma   89.98580000
_symmetry_Int_Tables_number   1
_chemical_formula_structural   Zn2H21C46S(NO10)2
_chemical_formula_sum   'Zn4 H42 C92 S2 N4 O40'
_cell_volume   9014.77192244
_cell_formula_units_Z   2
loop_
 _symmetry_equiv_pos_site_id
 _symmetry_equiv_pos_as_xyz
  1  'x, y, z'
loop_
 _atom_site_type_symbol
 _atom_site_label
 _atom_site_symmetry_multiplicity
 _atom_site_fract_x
 _atom_site_fract_y
 _atom_site_fract_z
 _atom_site_occupancy
  Zn  Zn0  1  0.58496000  0.50189000  0.50213000  1.0
  Zn  Zn1  1  0.41571000  0.49974000  0.50195000  1.0
  Zn  Zn2  1  0.41502000  0.50414000  0.91754000  1.0
  Zn  Zn3  1  0.58428000  0.50202000  0.91766000  1.0
  H  H4  1  0.28514000  0.57194000  0.55431000  1.0
  H  H5  1  0.13341000  0.57508000  0.55451000  1.0
  H  H6  1  0.28897000  0.42004000  0.45121000  1.0
  H  H7  1  0.71333000  0.58731000  0.54926000  1.0
  H  H8  1  0.71495000  0.41471000  0.45802000  1.0
  H  H9  1  0.86704000  0.41268000  0.45633000  1.0
  H  H10  1  0.62793000  0.74222000  0.50418000  1.0
  H  H11  1  0.62347000  0.88183000  0.50170000  1.0
  H  H12  1  0.36820000  0.73542000  0.49669000  1.0
  H  H13  1  0.63421000  0.26369000  0.49775000  1.0
  H  H14  1  0.37438000  0.26256000  0.50500000  1.0
  H  H15  1  0.37537000  0.12284000  0.50160000  1.0
  H  H16  1  0.37217000  0.50717000  0.05792000  1.0
  H  H17  1  0.37535000  0.50542000  0.13958000  1.0
  H  H18  1  0.63193000  0.49492000  0.05549000  1.0
  H  H19  1  0.36796000  0.49219000  0.36406000  1.0
  H  H20  1  0.62767000  0.50483000  0.36175000  1.0
  H  H21  1  0.62450000  0.50443000  0.28008000  1.0
  H  H22  1  0.71477000  0.57384000  0.86546000  1.0
  H  H23  1  0.86650000  0.57684000  0.86518000  1.0
  H  H24  1  0.71105000  0.42286000  0.96827000  1.0
  H  H25  1  0.28672000  0.58929000  0.87049000  1.0
  H  H26  1  0.28492000  0.41755000  0.96144000  1.0
  H  H27  1  0.13284000  0.41560000  0.96304000  1.0
  H  H28  1  0.37216000  0.74441000  0.91461000  1.0
  H  H29  1  0.37656000  0.88410000  0.91655000  1.0
  H  H30  1  0.63188000  0.73776000  0.92203000  1.0
  H  H31  1  0.36612000  0.26616000  0.92152000  1.0
  H  H32  1  0.62591000  0.26465000  0.91410000  1.0
  H  H33  1  0.62477000  0.12491000  0.91687000  1.0
  H  H34  1  0.03198000  0.45062000  0.43851000  1.0
  H  H35  1  0.97339000  0.60101000  0.53440000  1.0
  H  H36  1  0.37980000  0.97669000  0.48445000  1.0
  H  H37  1  0.61639000  0.02239000  0.48616000  1.0
  H  H38  1  0.61818000  0.47717000  0.19619000  1.0
  H  H39  1  0.38169000  0.47647000  0.22323000  1.0
  H  H40  1  0.96803000  0.45377000  0.98099000  1.0
  H  H41  1  0.02665000  0.60319000  0.88534000  1.0
  H  H42  1  0.62020000  0.97922000  0.93364000  1.0
  H  H43  1  0.38364000  0.02494000  0.93219000  1.0
  H  H44  1  0.33142000  0.58121000  0.68735000  1.0
  H  H45  1  0.66829000  0.58140000  0.73256000  1.0
  C  C46  1  0.50038000  0.64621000  0.50091000  1.0
  C  C47  1  0.49813000  0.50116000  0.58683000  1.0
  C  C48  1  0.50414000  0.35564000  0.50253000  1.0
  C  C49  1  0.49953000  0.49741000  0.41695000  1.0
  C  C50  1  0.49965000  0.64849000  0.91836000  1.0
  C  C51  1  0.50166000  0.50224000  0.83283000  1.0
  C  C52  1  0.49623000  0.35789000  0.91696000  1.0
  C  C53  1  0.50039000  0.50045000  0.00266000  1.0
  C  C54  1  0.24971000  0.53933000  0.53092000  1.0
  C  C55  1  0.16586000  0.54065000  0.53086000  1.0
  C  C56  1  0.12335000  0.49664000  0.50008000  1.0
  C  C57  1  0.16800000  0.45091000  0.47076000  1.0
  C  C58  1  0.25238000  0.45386000  0.47345000  1.0
  C  C59  1  0.03765000  0.49917000  0.50016000  1.0
  C  C60  1  0.96376000  0.50298000  0.50190000  1.0
  C  C61  1  0.87807000  0.50408000  0.50327000  1.0
  C  C62  1  0.83387000  0.55397000  0.53042000  1.0
  C  C63  1  0.74941000  0.54985000  0.52885000  1.0
  C  C64  1  0.75102000  0.45345000  0.47767000  1.0
  C  C65  1  0.83488000  0.45274000  0.47690000  1.0
  C  C66  1  0.49837000  0.73020000  0.50021000  1.0
  C  C67  1  0.57035000  0.77174000  0.50188000  1.0
  C  C68  1  0.56766000  0.84930000  0.50050000  1.0
  C  C69  1  0.49280000  0.88751000  0.49779000  1.0
  C  C70  1  0.41954000  0.84560000  0.49673000  1.0
  C  C71  1  0.42423000  0.76751000  0.49778000  1.0
  C  C72  1  0.49507000  0.96676000  0.49682000  1.0
  C  C73  1  0.50190000  0.03522000  0.49669000  1.0
  C  C74  1  0.50584000  0.11442000  0.49771000  1.0
  C  C75  1  0.58017000  0.15474000  0.49660000  1.0
  C  C76  1  0.57738000  0.23287000  0.49844000  1.0
  C  C77  1  0.50424000  0.27168000  0.50126000  1.0
  C  C78  1  0.43118000  0.23179000  0.50255000  1.0
  C  C79  1  0.43196000  0.15418000  0.50066000  1.0
  C  C80  1  0.43069000  0.49459000  0.66331000  1.0
  C  C81  1  0.56898000  0.49499000  0.75636000  1.0
  C  C82  1  0.49652000  0.49505000  0.63511000  1.0
  C  C83  1  0.50316000  0.49572000  0.78455000  1.0
  C  C84  1  0.54228000  0.49446000  0.71209000  1.0
  C  C85  1  0.45740000  0.49444000  0.70759000  1.0
  C  C86  1  0.50174000  0.50015000  0.05170000  1.0
  C  C87  1  0.42942000  0.50367000  0.07555000  1.0
  C  C88  1  0.43140000  0.50280000  0.12086000  1.0
  C  C89  1  0.50597000  0.49894000  0.14356000  1.0
  C  C90  1  0.57958000  0.49652000  0.11948000  1.0
  C  C91  1  0.57557000  0.49690000  0.07386000  1.0
  C  C92  1  0.50316000  0.49821000  0.18981000  1.0
  C  C93  1  0.49667000  0.49787000  0.22978000  1.0
  C  C94  1  0.49389000  0.49782000  0.27604000  1.0
  C  C95  1  0.42029000  0.49488000  0.30009000  1.0
  C  C96  1  0.42431000  0.49451000  0.34571000  1.0
  C  C97  1  0.49813000  0.49753000  0.36790000  1.0
  C  C98  1  0.57044000  0.50152000  0.34408000  1.0
  C  C99  1  0.56846000  0.50138000  0.29877000  1.0
  C  C100  1  0.75023000  0.54140000  0.88876000  1.0
  C  C101  1  0.83408000  0.54265000  0.88878000  1.0
  C  C102  1  0.87663000  0.49892000  0.91947000  1.0
  C  C103  1  0.83202000  0.45353000  0.94875000  1.0
  C  C104  1  0.74764000  0.45646000  0.94610000  1.0
  C  C105  1  0.96233000  0.50145000  0.91935000  1.0
  C  C106  1  0.03619000  0.50539000  0.91756000  1.0
  C  C107  1  0.12189000  0.50654000  0.91624000  1.0
  C  C108  1  0.16614000  0.55619000  0.88922000  1.0
  C  C109  1  0.25061000  0.55204000  0.89081000  1.0
  C  C110  1  0.24889000  0.45612000  0.94183000  1.0
  C  C111  1  0.16504000  0.45545000  0.94255000  1.0
  C  C112  1  0.50169000  0.73248000  0.91861000  1.0
  C  C113  1  0.42971000  0.77399000  0.91677000  1.0
  C  C114  1  0.43238000  0.85158000  0.91786000  1.0
  C  C115  1  0.50725000  0.88981000  0.92043000  1.0
  C  C116  1  0.58053000  0.84791000  0.92161000  1.0
  C  C117  1  0.57584000  0.76980000  0.92084000  1.0
  C  C118  1  0.50494000  0.96907000  0.92130000  1.0
  C  C119  1  0.49815000  0.03754000  0.92152000  1.0
  C  C120  1  0.49428000  0.11672000  0.92077000  1.0
  C  C121  1  0.42002000  0.15715000  0.92213000  1.0
  C  C122  1  0.42290000  0.23526000  0.92062000  1.0
  C  C123  1  0.49608000  0.27395000  0.91792000  1.0
  C  C124  1  0.56910000  0.23395000  0.91643000  1.0
  C  C125  1  0.56822000  0.15635000  0.91796000  1.0
  C  C126  1  0.13397000  0.39698000  0.43742000  1.0
  C  C127  1  0.86819000  0.61118000  0.56181000  1.0
  C  C128  1  0.33518000  0.87786000  0.49501000  1.0
  C  C129  1  0.66374000  0.12104000  0.49351000  1.0
  C  C130  1  0.66372000  0.49451000  0.13872000  1.0
  C  C131  1  0.33616000  0.49317000  0.28084000  1.0
  C  C132  1  0.86616000  0.39996000  0.98199000  1.0
  C  C133  1  0.13185000  0.61321000  0.85798000  1.0
  C  C134  1  0.66487000  0.88022000  0.92318000  1.0
  C  C135  1  0.33641000  0.12360000  0.92522000  1.0
  C  C136  1  0.34342000  0.49374000  0.64997000  1.0
  C  C137  1  0.65625000  0.49421000  0.76971000  1.0
  S  S138  1  0.58925000  0.49326000  0.66176000  1.0
  S  S139  1  0.41042000  0.49373000  0.75792000  1.0
  N  N140  1  0.29186000  0.49735000  0.50220000  1.0
  N  N141  1  0.70931000  0.50176000  0.50303000  1.0
  N  N142  1  0.70813000  0.49970000  0.91742000  1.0
  N  N143  1  0.29066000  0.50416000  0.91657000  1.0
  O  O144  1  0.56825000  0.61530000  0.50932000  1.0
  O  O145  1  0.43413000  0.61256000  0.49290000  1.0
  O  O146  1  0.43271000  0.51942000  0.56789000  1.0
  O  O147  1  0.56641000  0.48843000  0.56885000  1.0
  O  O148  1  0.43717000  0.38761000  0.51122000  1.0
  O  O149  1  0.57108000  0.38831000  0.49464000  1.0
  O  O150  1  0.56697000  0.51187000  0.43540000  1.0
  O  O151  1  0.43300000  0.48306000  0.43612000  1.0
  O  O152  1  0.43175000  0.61741000  0.91012000  1.0
  O  O153  1  0.56588000  0.61502000  0.92654000  1.0
  O  O154  1  0.56712000  0.52069000  0.85176000  1.0
  O  O155  1  0.43346000  0.48963000  0.85084000  1.0
  O  O156  1  0.56322000  0.38972000  0.90839000  1.0
  O  O157  1  0.42928000  0.39065000  0.92495000  1.0
  O  O158  1  0.43293000  0.51481000  0.98427000  1.0
  O  O159  1  0.56699000  0.48635000  0.98342000  1.0
  O  O160  1  0.05673000  0.40761000  0.42356000  1.0
  O  O161  1  0.17441000  0.34564000  0.42308000  1.0
  O  O162  1  0.94717000  0.63024000  0.55775000  1.0
  O  O163  1  0.82609000  0.64029000  0.58970000  1.0
  O  O164  1  0.32656000  0.95224000  0.48717000  1.0
  O  O165  1  0.27535000  0.83897000  0.50018000  1.0
  O  O166  1  0.67038000  0.04595000  0.48724000  1.0
  O  O167  1  0.72467000  0.15934000  0.49609000  1.0
  O  O168  1  0.67174000  0.48185000  0.18229000  1.0
  O  O169  1  0.72377000  0.50339000  0.11626000  1.0
  O  O170  1  0.32814000  0.48096000  0.23717000  1.0
  O  O171  1  0.27612000  0.50186000  0.30339000  1.0
  O  O172  1  0.94339000  0.41085000  0.99587000  1.0
  O  O173  1  0.82585000  0.34867000  0.99623000  1.0
  O  O174  1  0.05286000  0.63231000  0.86208000  1.0
  O  O175  1  0.17396000  0.64215000  0.83018000  1.0
  O  O176  1  0.67347000  0.95475000  0.93092000  1.0
  O  O177  1  0.72470000  0.84122000  0.91802000  1.0
  O  O178  1  0.32968000  0.04857000  0.93129000  1.0
  O  O179  1  0.27554000  0.16200000  0.92286000  1.0
  O  O180  1  0.29727000  0.54832000  0.66951000  1.0
  O  O181  1  0.31208000  0.44880000  0.62545000  1.0
  O  O182  1  0.70242000  0.54864000  0.75033000  1.0
  O  O183  1  0.68757000  0.44942000  0.79412000  1.0
