# generated using pymatgen
data_ZnH10(C7O2)2
_symmetry_space_group_name_H-M   'P 1'
_cell_length_a   9.91142000
_cell_length_b   18.31310000
_cell_length_c   18.34640000
_cell_angle_alpha   90.59130000
_cell_angle_beta   89.98770000
_cell_angle_gamma   89.98590000
_symmetry_Int_Tables_number   1
_chemical_formula_structural   ZnH10(C7O2)2
_chemical_formula_sum   'Zn4 H40 C56 O16'
_cell_volume   3329.85600739
_cell_formula_units_Z   4
loop_
 _symmetry_equiv_pos_site_id
 _symmetry_equiv_pos_as_xyz
  1  'x, y, z'
loop_
 _atom_site_type_symbol
 _atom_site_label
 _atom_site_symmetry_multiplicity
 _atom_site_fract_x
 _atom_site_fract_y
 _atom_site_fract_z
 _atom_site_occupancy
  Zn  Zn0  1  0.39851000  0.99777000  0.50210000  1.0
  Zn  Zn1  1  0.66629000  0.00695000  0.49290000  1.0
  Zn  Zn2  1  0.60141000  0.50274000  0.99712000  1.0
  Zn  Zn3  1  0.33360000  0.49349000  0.00639000  1.0
  H  H4  1  0.63789000  0.34378000  0.84498000  1.0
  H  H5  1  0.20791000  0.32987000  0.83751000  1.0
  H  H6  1  0.36181000  0.15625000  0.65459000  1.0
  H  H7  1  0.79173000  0.17080000  0.66155000  1.0
  H  H8  1  0.63784000  0.65530000  0.15561000  1.0
  H  H9  1  0.20791000  0.66219000  0.17032000  1.0
  H  H10  1  0.36168000  0.84604000  0.34290000  1.0
  H  H11  1  0.79168000  0.83806000  0.32931000  1.0
  H  H12  1  0.68497000  0.66859000  0.83085000  1.0
  H  H13  1  0.25797000  0.64747000  0.85300000  1.0
  H  H14  1  0.31497000  0.83135000  0.66815000  1.0
  H  H15  1  0.74200000  0.85340000  0.64675000  1.0
  H  H16  1  0.33653000  0.33776000  0.16226000  1.0
  H  H17  1  0.76698000  0.34479000  0.15531000  1.0
  H  H18  1  0.66424000  0.16263000  0.33670000  1.0
  H  H19  1  0.23372000  0.15625000  0.34422000  1.0
  H  H20  1  0.87756000  0.22616000  0.79463000  1.0
  H  H21  1  0.81002000  0.31480000  0.80727000  1.0
  H  H22  1  0.88521000  0.28992000  0.72312000  1.0
  H  H23  1  0.11794000  0.20600000  0.77535000  1.0
  H  H24  1  0.18961000  0.18914000  0.68843000  1.0
  H  H25  1  0.11821000  0.27539000  0.70916000  1.0
  H  H26  1  0.88253000  0.77629000  0.20638000  1.0
  H  H27  1  0.81003000  0.68978000  0.18772000  1.0
  H  H28  1  0.88048000  0.70872000  0.27443000  1.0
  H  H29  1  0.12270000  0.79633000  0.22583000  1.0
  H  H30  1  0.18947000  0.80754000  0.31465000  1.0
  H  H31  1  0.11372000  0.72381000  0.28843000  1.0
  H  H32  1  0.87690000  0.73258000  0.69605000  1.0
  H  H33  1  0.83518000  0.71639000  0.78817000  1.0
  H  H34  1  0.88067000  0.80516000  0.76025000  1.0
  H  H35  1  0.12285000  0.69668000  0.73286000  1.0
  H  H36  1  0.16455000  0.78888000  0.71615000  1.0
  H  H37  1  0.11975000  0.76134000  0.80502000  1.0
  H  H38  1  0.11904000  0.20912000  0.22217000  1.0
  H  H39  1  0.17447000  0.29875000  0.20318000  1.0
  H  H40  1  0.11806000  0.27651000  0.29171000  1.0
  H  H41  1  0.87935000  0.21950000  0.20843000  1.0
  H  H42  1  0.82660000  0.20558000  0.29936000  1.0
  H  H43  1  0.88495000  0.29241000  0.27210000  1.0
  C  C44  1  0.46140000  0.09772000  0.40218000  1.0
  C  C45  1  0.58068000  0.10205000  0.59453000  1.0
  C  C46  1  0.50737000  0.90364000  0.59606000  1.0
  C  C47  1  0.58066000  0.90537000  0.39778000  1.0
  C  C48  1  0.49248000  0.59666000  0.90312000  1.0
  C  C49  1  0.41902000  0.39829000  0.90485000  1.0
  C  C50  1  0.53916000  0.40294000  0.09705000  1.0
  C  C51  1  0.41907000  0.59537000  0.10128000  1.0
  C  C52  1  0.54901000  0.31880000  0.82067000  1.0
  C  C53  1  0.30493000  0.31103000  0.81639000  1.0
  C  C54  1  0.30981000  0.25898000  0.76129000  1.0
  C  C55  1  0.43866000  0.23477000  0.73448000  1.0
  C  C56  1  0.45064000  0.18134000  0.67885000  1.0
  C  C57  1  0.69471000  0.18942000  0.68286000  1.0
  C  C58  1  0.68979000  0.24142000  0.73798000  1.0
  C  C59  1  0.56095000  0.26543000  0.76497000  1.0
  C  C60  1  0.42397000  0.34132000  0.84619000  1.0
  C  C61  1  0.57569000  0.15892000  0.65325000  1.0
  C  C62  1  0.54898000  0.67958000  0.18069000  1.0
  C  C63  1  0.30492000  0.68356000  0.18886000  1.0
  C  C64  1  0.30978000  0.73876000  0.24079000  1.0
  C  C65  1  0.43863000  0.76581000  0.26472000  1.0
  C  C66  1  0.45054000  0.82156000  0.31801000  1.0
  C  C67  1  0.69466000  0.81705000  0.31039000  1.0
  C  C68  1  0.68977000  0.76201000  0.25828000  1.0
  C  C69  1  0.56092000  0.73524000  0.23410000  1.0
  C  C70  1  0.42397000  0.65397000  0.15829000  1.0
  C  C71  1  0.57562000  0.84690000  0.34066000  1.0
  C  C72  1  0.58498000  0.68589000  0.81381000  1.0
  C  C73  1  0.34249000  0.67411000  0.82613000  1.0
  C  C74  1  0.31917000  0.72636000  0.77391000  1.0
  C  C75  1  0.43217000  0.76057000  0.73936000  1.0
  C  C76  1  0.41501000  0.81434000  0.68537000  1.0
  C  C77  1  0.65749000  0.82654000  0.67344000  1.0
  C  C78  1  0.68086000  0.77429000  0.72567000  1.0
  C  C79  1  0.56787000  0.73984000  0.76000000  1.0
  C  C80  1  0.47468000  0.65350000  0.84636000  1.0
  C  C81  1  0.52525000  0.84685000  0.65289000  1.0
  C  C82  1  0.43183000  0.31711000  0.18289000  1.0
  C  C83  1  0.67616000  0.32111000  0.17890000  1.0
  C  C84  1  0.68633000  0.26813000  0.23176000  1.0
  C  C85  1  0.56548000  0.23770000  0.26214000  1.0
  C  C86  1  0.56894000  0.18343000  0.31623000  1.0
  C  C87  1  0.32457000  0.17975000  0.32048000  1.0
  C  C88  1  0.31442000  0.23269000  0.26757000  1.0
  C  C89  1  0.43532000  0.26296000  0.23708000  1.0
  C  C90  1  0.54948000  0.34582000  0.15414000  1.0
  C  C91  1  0.45124000  0.15483000  0.34505000  1.0
  C  C92  1  0.82141000  0.27014000  0.76773000  1.0
  C  C93  1  0.17814000  0.23034000  0.73154000  1.0
  C  C94  1  0.82146000  0.73219000  0.22965000  1.0
  C  C95  1  0.17815000  0.76858000  0.26950000  1.0
  C  C96  1  0.82504000  0.75569000  0.74401000  1.0
  C  C97  1  0.17493000  0.74481000  0.75555000  1.0
  C  C98  1  0.17528000  0.25604000  0.24441000  1.0
  C  C99  1  0.82554000  0.24467000  0.25471000  1.0
  O  O100  1  0.35131000  0.07127000  0.42870000  1.0
  O  O101  1  0.57959000  0.07858000  0.42130000  1.0
  O  O102  1  0.69637000  0.08324000  0.56802000  1.0
  O  O103  1  0.46823000  0.07523000  0.57412000  1.0
  O  O104  1  0.61465000  0.93054000  0.56930000  1.0
  O  O105  1  0.38663000  0.92218000  0.57739000  1.0
  O  O106  1  0.46823000  0.92567000  0.42472000  1.0
  O  O107  1  0.69638000  0.93174000  0.41670000  1.0
  O  O108  1  0.61323000  0.57799000  0.92163000  1.0
  O  O109  1  0.38519000  0.56989000  0.93000000  1.0
  O  O110  1  0.30335000  0.41709000  0.93140000  1.0
  O  O111  1  0.53146000  0.42518000  0.92513000  1.0
  O  O112  1  0.42095000  0.42206000  0.07798000  1.0
  O  O113  1  0.64919000  0.42944000  0.07049000  1.0
  O  O114  1  0.53151000  0.57523000  0.07424000  1.0
  O  O115  1  0.30344000  0.56873000  0.08257000  1.0
