# generated using pymatgen
data_FeHC4N3ClO
_symmetry_space_group_name_H-M   'P 1'
_cell_length_a   7.95163000
_cell_length_b   14.03036919
_cell_length_c   14.03430000
_cell_angle_alpha   116.50525752
_cell_angle_beta   100.88000000
_cell_angle_gamma   100.90219631
_symmetry_Int_Tables_number   1
_chemical_formula_structural   FeHC4N3ClO
_chemical_formula_sum   'Fe6 H6 C24 N18 Cl6 O6'
_cell_volume   1307.70680560
_cell_formula_units_Z   6
loop_
 _symmetry_equiv_pos_site_id
 _symmetry_equiv_pos_as_xyz
  1  'x, y, z'
loop_
 _atom_site_type_symbol
 _atom_site_label
 _atom_site_symmetry_multiplicity
 _atom_site_fract_x
 _atom_site_fract_y
 _atom_site_fract_z
 _atom_site_occupancy
  Fe  Fe0  1  0.71809000  0.43607000  0.71806000  1.0
  Fe  Fe1  1  0.99998000  0.28200000  0.71807000  1.0
  Fe  Fe2  1  0.28204000  0.28204000  0.56408000  1.0
  Fe  Fe3  1  0.28192000  0.56394000  0.28194000  1.0
  Fe  Fe4  1  0.00002000  0.71800000  0.28194000  1.0
  Fe  Fe5  1  0.71796000  0.71796000  0.43592000  1.0
  H  H6  1  0.76276000  0.58007000  0.58007000  1.0
  H  H7  1  0.81731000  0.00000000  0.58007000  1.0
  H  H8  1  0.18269000  1.00000000  0.41993000  1.0
  H  H9  1  0.18267000  0.41983000  0.00000000  1.0
  H  H10  1  0.81733000  0.58016000  0.99999000  1.0
  H  H11  1  0.23724000  0.41993000  0.41993000  1.0
  C  C12  1  0.93320000  0.47318000  0.57126000  1.0
  C  C13  1  0.63806000  0.09808000  0.57126000  1.0
  C  C14  1  0.45999000  0.09810000  0.52691000  1.0
  C  C15  1  0.36193000  0.42875000  0.90195000  1.0
  C  C16  1  0.54002000  0.47319000  0.90194000  1.0
  C  C17  1  0.06691000  0.42880000  0.52690000  1.0
  C  C18  1  0.06680000  0.52682000  0.42875000  1.0
  C  C19  1  0.36195000  0.90193000  0.42875000  1.0
  C  C20  1  0.54001000  0.90190000  0.47309000  1.0
  C  C21  1  0.63809000  0.57125000  0.09806000  1.0
  C  C22  1  0.45997000  0.52680000  0.09805000  1.0
  C  C23  1  0.93308000  0.57119000  0.47309000  1.0
  C  C24  1  0.86371000  0.54639000  0.54638000  1.0
  C  C25  1  0.68267000  0.99999000  0.54638000  1.0
  C  C26  1  0.31732000  0.00001000  0.45362000  1.0
  C  C27  1  0.31732000  0.45355000  1.00000000  1.0
  C  C28  1  0.68268000  0.54644000  0.00000000  1.0
  C  C29  1  0.13629000  0.45360000  0.45361000  1.0
  C  C30  1  0.79186000  0.58338000  0.79156000  1.0
  C  C31  1  0.99969000  0.20818000  0.79156000  1.0
  C  C32  1  0.20842000  0.20841000  0.41682000  1.0
  C  C33  1  0.20814000  0.41662000  0.20844000  1.0
  C  C34  1  0.00030000  0.79182000  0.20844000  1.0
  C  C35  1  0.79158000  0.79159000  0.58318000  1.0
  N  N36  1  0.89547000  0.42887000  0.63739000  1.0
  N  N37  1  0.74192000  0.20852000  0.63739000  1.0
  N  N38  1  0.46657000  0.20854000  0.57128000  1.0
  N  N39  1  0.25808000  0.36266000  0.79154000  1.0
  N  N40  1  0.53346000  0.42888000  0.79154000  1.0
  N  N41  1  0.10470000  0.36274000  0.57128000  1.0
  N  N42  1  0.10453000  0.57113000  0.36261000  1.0
  N  N43  1  0.25808000  0.79148000  0.36261000  1.0
  N  N44  1  0.53343000  0.79147000  0.42873000  1.0
  N  N45  1  0.74192000  0.63734000  0.20846000  1.0
  N  N46  1  0.46654000  0.57112000  0.20846000  1.0
  N  N47  1  0.89530000  0.63726000  0.42873000  1.0
  N  N48  1  0.00010000  0.36482000  0.63535000  1.0
  N  N49  1  0.63525000  0.27053000  0.63534000  1.0
  N  N50  1  0.36478000  0.36478000  0.72956000  1.0
  N  N51  1  0.99990000  0.63518000  0.36465000  1.0
  N  N52  1  0.36474000  0.72947000  0.36465000  1.0
  N  N53  1  0.63522000  0.63522000  0.27044000  1.0
  Cl  Cl54  1  0.92233000  0.42233000  0.84466000  1.0
  Cl  Cl55  1  0.50010000  0.42238000  0.57777000  1.0
  Cl  Cl56  1  0.07767000  0.15539000  0.57777000  1.0
  Cl  Cl57  1  0.07767000  0.57767000  0.15534000  1.0
  Cl  Cl58  1  0.49990000  0.57762000  0.42223000  1.0
  Cl  Cl59  1  0.92233000  0.84461000  0.42223000  1.0
  O  O60  1  0.84069000  0.68080000  0.84005000  1.0
  O  O61  1  0.99937000  0.15926000  0.84006000  1.0
  O  O62  1  0.15973000  0.15970000  0.31942000  1.0
  O  O63  1  0.15932000  0.31921000  0.15995000  1.0
  O  O64  1  0.00064000  0.84074000  0.15994000  1.0
  O  O65  1  0.84029000  0.84030000  0.68058000  1.0
