# generated using pymatgen
data_AgH11C10NClO2
_symmetry_space_group_name_H-M   'P 1'
_cell_length_a   4.81868000
_cell_length_b   6.63684000
_cell_length_c   8.88210000
_cell_angle_alpha   85.59750000
_cell_angle_beta   86.12350000
_cell_angle_gamma   77.79660000
_symmetry_Int_Tables_number   1
_chemical_formula_structural   AgH11C10NClO2
_chemical_formula_sum   'Ag1 H11 C10 N1 Cl1 O2'
_cell_volume   276.43379898
_cell_formula_units_Z   1
loop_
 _symmetry_equiv_pos_site_id
 _symmetry_equiv_pos_as_xyz
  1  'x, y, z'
loop_
 _atom_site_type_symbol
 _atom_site_label
 _atom_site_symmetry_multiplicity
 _atom_site_fract_x
 _atom_site_fract_y
 _atom_site_fract_z
 _atom_site_occupancy
  Ag  Ag0  1  0.46434000  0.97277000  0.75499000  1.0
  H  H1  1  0.86776000  0.28935000  0.83601000  1.0
  H  H2  1  0.28932000  0.21761000  0.99203000  1.0
  H  H3  1  0.07150000  0.45901000  0.03826000  1.0
  H  H4  1  0.38273000  0.45641000  0.92017000  1.0
  H  H5  1  0.95595000  0.41670000  0.51153000  1.0
  H  H6  1  0.92185000  0.16059000  0.57864000  1.0
  H  H7  1  0.39377000  0.46606000  0.35318000  1.0
  H  H8  1  0.77368000  0.31621000  0.16392000  1.0
  H  H9  1  0.59766000  0.71340000  0.27932000  1.0
  H  H10  1  0.22241000  0.86194000  0.47260000  1.0
  H  H11  1  0.36489000  0.37223000  0.65626000  1.0
  C  C12  1  0.90094000  0.60197000  0.75922000  1.0
  C  C13  1  0.03626000  0.37748000  0.80963000  1.0
  C  C14  1  0.20608000  0.37674000  0.94849000  1.0
  C  C15  1  0.07342000  0.26159000  0.54825000  1.0
  C  C16  1  0.28553000  0.17341000  0.42612000  1.0
  C  C17  1  0.44074000  0.30025000  0.33841000  1.0
  C  C18  1  0.65301000  0.21808000  0.23230000  1.0
  C  C19  1  0.70737000  0.00635000  0.21285000  1.0
  C  C20  1  0.55391000  0.87747000  0.29823000  1.0
  C  C21  1  0.34430000  0.96114000  0.40513000  1.0
  N  N22  1  0.22646000  0.27569000  0.68685000  1.0
  Cl  Cl23  1  0.96423000  0.90182000  0.07836000  1.0
  O  O24  1  0.65900000  0.67028000  0.82779000  1.0
  O  O25  1  0.03050000  0.70023000  0.66257000  1.0
