# generated using pymatgen
data_Zn6H66C73(NO8)4
_symmetry_space_group_name_H-M   'P 1'
_cell_length_a   21.30990000
_cell_length_b   21.38200000
_cell_length_c   21.83756766
_cell_angle_alpha   118.96029467
_cell_angle_beta   119.06879242
_cell_angle_gamma   90.26760000
_symmetry_Int_Tables_number   1
_chemical_formula_structural   Zn6H66C73(NO8)4
_chemical_formula_sum   'Zn6 H66 C73 N4 O32'
_cell_volume   7225.19999851
_cell_formula_units_Z   1
loop_
 _symmetry_equiv_pos_site_id
 _symmetry_equiv_pos_as_xyz
  1  'x, y, z'
loop_
 _atom_site_type_symbol
 _atom_site_label
 _atom_site_symmetry_multiplicity
 _atom_site_fract_x
 _atom_site_fract_y
 _atom_site_fract_z
 _atom_site_occupancy
  Zn  Zn0  1  0.49602000  0.93468000  0.50182000  1.0
  Zn  Zn1  1  0.49526000  0.05988000  0.49914000  1.0
  Zn  Zn2  1  0.07478000  0.50348000  0.50371000  1.0
  Zn  Zn3  1  0.94924000  0.50185000  0.50534000  1.0
  Zn  Zn4  1  0.03415000  0.03904000  0.57909000  1.0
  Zn  Zn5  1  0.95050000  0.95665000  0.40895000  1.0
  H  H6  1  0.39925000  0.81428000  0.07791000  1.0
  H  H7  1  0.33918000  0.65606000  0.95696000  1.0
  H  H8  1  0.26718000  0.83138000  0.96900000  1.0
  H  H9  1  0.19970000  0.81858000  0.04869000  1.0
  H  H10  1  0.13894000  0.66057000  0.92797000  1.0
  H  H11  1  0.27083000  0.64222000  0.03562000  1.0
  H  H12  1  0.71136000  0.96589000  0.55665000  1.0
  H  H13  1  0.76228000  0.06145000  0.61253000  1.0
  H  H14  1  0.85493000  0.01679000  0.59155000  1.0
  H  H15  1  0.79266000  0.92370000  0.51410000  1.0
  H  H16  1  0.63612000  0.89046000  0.40088000  1.0
  H  H17  1  0.71948000  0.87642000  0.35690000  1.0
  H  H18  1  0.72773000  0.13093000  0.55126000  1.0
  H  H19  1  0.83344000  0.11352000  0.54836000  1.0
  H  H20  1  0.77900000  0.07938000  0.43994000  1.0
  H  H21  1  0.59761000  0.93169000  0.34291000  1.0
  H  H22  1  0.70108000  0.94536000  0.33346000  1.0
  H  H23  1  0.71107000  0.22121000  0.06970000  1.0
  H  H24  1  0.80761000  0.36171000  0.04500000  1.0
  H  H25  1  0.88721000  0.19333000  0.04715000  1.0
  H  H26  1  0.73847000  0.10031000  0.96091000  1.0
  H  H27  1  0.25482000  0.89394000  0.39551000  1.0
  H  H28  1  0.24077000  0.94852000  0.35252000  1.0
  H  H29  1  0.12749000  0.95762000  0.34397000  1.0
  H  H30  1  0.12940000  0.88327000  0.35792000  1.0
  H  H31  1  0.33216000  0.95555000  0.55252000  1.0
  H  H32  1  0.32199000  0.13497000  0.55934000  1.0
  H  H33  1  0.26459000  0.08892000  0.44899000  1.0
  H  H34  1  0.16165000  0.09109000  0.46204000  1.0
  H  H35  1  0.21809000  0.11482000  0.56675000  1.0
  H  H36  1  0.34678000  0.05208000  0.61918000  1.0
  H  H37  1  0.23137000  0.02015000  0.59757000  1.0
  H  H38  1  0.10480000  0.37486000  0.64653000  1.0
  H  H39  1  0.11385000  0.34460000  0.56113000  1.0
  H  H40  1  0.10664000  0.22292000  0.53307000  1.0
  H  H41  1  0.12184000  0.26162000  0.63314000  1.0
  H  H42  1  0.97212000  0.36975000  0.62110000  1.0
  H  H43  1  0.01607000  0.27867000  0.64763000  1.0
  H  H44  1  0.00205000  0.25678000  0.41747000  1.0
  H  H45  1  0.98569000  0.14703000  0.40686000  1.0
  H  H46  1  0.89417000  0.30110000  0.51879000  1.0
  H  H47  1  0.92198000  0.22008000  0.56468000  1.0
  H  H48  1  0.09635000  0.73498000  0.61086000  1.0
  H  H49  1  0.02671000  0.76052000  0.63158000  1.0
  H  H50  1  0.06983000  0.87476000  0.65187000  1.0
  H  H51  1  0.11626000  0.83659000  0.60028000  1.0
  H  H52  1  0.06443000  0.68748000  0.46906000  1.0
  H  H53  1  0.04355000  0.77983000  0.43825000  1.0
  H  H54  1  0.89496000  0.70551000  0.52167000  1.0
  H  H55  1  0.93425000  0.82749000  0.56988000  1.0
  H  H56  1  0.94495000  0.74311000  0.38076000  1.0
  H  H57  1  0.64276000  0.32413000  0.00341000  1.0
  H  H58  1  0.63239000  0.29095000  0.90579000  1.0
  H  H59  1  0.58857000  0.22915000  0.91641000  1.0
  H  H60  1  0.20068000  0.85846000  0.45937000  1.0
  H  H61  1  0.24381000  0.89556000  0.56776000  1.0
  H  H62  1  0.14750000  0.88756000  0.50500000  1.0
  H  H63  1  0.84351000  0.25165000  0.38264000  1.0
  H  H64  1  0.89310000  0.29804000  0.36276000  1.0
  H  H65  1  0.86370000  0.19853000  0.30571000  1.0
  H  H66  1  0.84203000  0.65266000  0.34111000  1.0
  H  H67  1  0.83279000  0.59448000  0.37461000  1.0
  H  H68  1  0.78650000  0.66391000  0.38266000  1.0
  H  H69  1  0.86630000  0.86711000  0.47574000  1.0
  H  H70  1  0.84179000  0.77871000  0.38519000  1.0
  H  H71  1  0.80437000  0.78698000  0.44485000  1.0
  C  C72  1  0.60808000  0.01745000  0.48935000  1.0
  C  C73  1  0.41584000  0.88846000  0.34237000  1.0
  C  C74  1  0.37653000  0.02012000  0.49804000  1.0
  C  C75  1  0.58192000  0.05349000  0.66064000  1.0
  C  C76  1  0.30848000  0.69229000  0.97819000  1.0
  C  C77  1  0.34121000  0.77945000  0.04338000  1.0
  C  C78  1  0.37381000  0.84201000  0.25215000  1.0
  C  C79  1  0.16677000  0.63106000  0.75332000  1.0
  C  C80  1  0.26981000  0.68398000  0.02023000  1.0
  C  C81  1  0.30359000  0.77188000  0.08787000  1.0
  C  C82  1  0.19712000  0.69481000  0.96200000  1.0
  C  C83  1  0.23477000  0.70169000  0.91740000  1.0
  C  C84  1  0.23007000  0.78198000  0.02729000  1.0
  C  C85  1  0.26855000  0.79005000  0.98505000  1.0
  C  C86  1  0.34054000  0.80912000  0.17589000  1.0
  C  C87  1  0.19892000  0.66487000  0.82957000  1.0
  C  C88  1  0.73750000  0.00651000  0.55231000  1.0
  C  C89  1  0.79790000  0.98270000  0.53463000  1.0
  C  C90  1  0.64938000  0.93659000  0.39555000  1.0
  C  C91  1  0.71197000  0.08060000  0.49099000  1.0
  C  C92  1  0.67426000  0.01104000  0.47981000  1.0
  C  C93  1  0.78784000  0.99108000  0.46421000  1.0
  C  C94  1  0.71356000  0.93303000  0.38077000  1.0
  C  C95  1  0.78227000  0.07077000  0.48693000  1.0
  C  C96  1  0.73809000  0.22508000  0.03948000  1.0
  C  C97  1  0.70902000  0.25259000  0.97850000  1.0
  C  C98  1  0.63189000  0.09759000  0.75134000  1.0
  C  C99  1  0.91285000  0.36738000  0.25473000  1.0
  C  C100  1  0.75380000  0.15868000  0.98041000  1.0
  C  C101  1  0.72334000  0.18374000  0.91673000  1.0
  C  C102  1  0.83585000  0.20951000  0.02792000  1.0
  C  C103  1  0.82142000  0.27728000  0.08943000  1.0
  C  C104  1  0.80704000  0.23768000  0.96846000  1.0
  C  C105  1  0.79140000  0.30370000  0.02632000  1.0
  C  C106  1  0.67462000  0.13736000  0.82794000  1.0
  C  C107  1  0.87149000  0.32573000  0.17815000  1.0
  C  C108  1  0.24020000  0.94474000  0.40073000  1.0
  C  C109  1  0.16157000  0.94100000  0.38721000  1.0
  C  C110  1  0.30739000  0.00105000  0.55573000  1.0
  C  C111  1  0.27603000  0.08389000  0.50091000  1.0
  C  C112  1  0.30143000  0.01420000  0.48983000  1.0
  C  C113  1  0.17142000  0.99451000  0.47219000  1.0
  C  C114  1  0.22873000  0.98095000  0.53973000  1.0
  C  C115  1  0.20472000  0.07643000  0.50275000  1.0
  C  C116  1  0.99451000  0.39236000  0.51992000  1.0
  C  C117  1  0.12031000  0.58677000  0.66295000  1.0
  C  C118  1  0.98173000  0.61607000  0.49696000  1.0
  C  C119  1  0.95703000  0.41646000  0.34517000  1.0
  C  C120  1  0.00446000  0.89232000  0.52147000  1.0
  C  C121  1  0.85738000  0.98497000  0.46065000  1.0
  C  C122  1  0.00845000  0.13433000  0.53194000  1.0
  C  C123  1  0.09767000  0.98839000  0.46708000  1.0
  C  C124  1  0.08079000  0.32930000  0.58045000  1.0
  C  C125  1  0.08444000  0.25341000  0.57153000  1.0
  C  C126  1  0.95515000  0.31574000  0.56299000  1.0
  C  C127  1  0.96184000  0.25364000  0.43453000  1.0
  C  C128  1  0.99774000  0.32444000  0.52607000  1.0
  C  C129  1  0.00421000  0.20452000  0.53012000  1.0
  C  C130  1  0.97263000  0.25414000  0.58068000  1.0
  C  C131  1  0.96031000  0.18248000  0.43820000  1.0
  C  C132  1  0.04578000  0.75272000  0.59049000  1.0
  C  C133  1  0.06306000  0.82594000  0.59566000  1.0
  C  C134  1  0.00575000  0.68854000  0.44300000  1.0
  C  C135  1  0.90708000  0.70820000  0.47930000  1.0
  C  C136  1  0.98131000  0.68814000  0.49845000  1.0
  C  C137  1  0.99785000  0.81856000  0.51620000  1.0
  C  C138  1  0.99761000  0.75806000  0.43924000  1.0
  C  C139  1  0.92252000  0.79242000  0.50608000  1.0
  C  C140  1  0.63936000  0.27534000  0.94936000  1.0
  C  C141  1  0.20347000  0.90110000  0.51625000  1.0
  C  C142  1  0.88610000  0.25027000  0.36783000  1.0
  C  C143  1  0.83857000  0.65177000  0.38925000  1.0
  C  C144  1  0.85506000  0.80672000  0.44941000  1.0
  N  N145  1  0.66051000  0.09899000  0.42762000  1.0
  N  N146  1  0.84038000  0.24017000  0.92430000  1.0
  N  N147  1  0.87946000  0.13074000  0.38339000  1.0
  N  N148  1  0.96529000  0.61731000  0.35324000  1.0
  O  O149  1  0.58310000  0.96736000  0.49431000  1.0
  O  O150  1  0.58147000  0.07199000  0.49194000  1.0
  O  O151  1  0.43551000  0.85541000  0.38214000  1.0
  O  O152  1  0.43110000  0.95916000  0.37637000  1.0
  O  O153  1  0.40675000  0.97032000  0.50311000  1.0
  O  O154  1  0.40498000  0.07364000  0.49824000  1.0
  O  O155  1  0.56148000  0.98126000  0.62308000  1.0
  O  O156  1  0.56229000  0.08912000  0.62526000  1.0
  O  O157  1  0.04292000  0.41560000  0.51159000  1.0
  O  O158  1  0.94120000  0.42054000  0.52010000  1.0
  O  O159  1  0.15360000  0.56620000  0.62340000  1.0
  O  O160  1  0.04924000  0.57031000  0.62854000  1.0
  O  O161  1  0.03726000  0.59258000  0.50099000  1.0
  O  O162  1  0.92965000  0.58719000  0.49830000  1.0
  O  O163  1  0.02955000  0.43909000  0.38328000  1.0
  O  O164  1  0.92129000  0.43303000  0.38065000  1.0
  O  O165  1  0.03831000  0.95499000  0.59432000  1.0
  O  O166  1  0.97438000  0.88689000  0.45195000  1.0
  O  O167  1  0.92069000  0.01830000  0.53137000  1.0
  O  O168  1  0.84950000  0.94829000  0.38881000  1.0
  O  O169  1  0.04403000  0.14217000  0.60380000  1.0
  O  O170  1  0.97639000  0.07177000  0.46117000  1.0
  O  O171  1  0.10367000  0.02124000  0.53716000  1.0
  O  O172  1  0.03451000  0.95243000  0.39430000  1.0
  O  O173  1  0.62138000  0.04747000  0.35185000  1.0
  O  O174  1  0.66378000  0.16580000  0.45660000  1.0
  O  O175  1  0.84133000  0.29378000  0.91651000  1.0
  O  O176  1  0.86242000  0.18624000  0.89520000  1.0
  O  O177  1  0.84020000  0.14469000  0.41267000  1.0
  O  O178  1  0.85686000  0.07904000  0.31071000  1.0
  O  O179  1  0.97348000  0.62278000  0.30353000  1.0
  O  O180  1  0.92984000  0.55926000  0.33636000  1.0
