# generated using pymatgen
data_AgH9C6N5O2
_symmetry_space_group_name_H-M   'P 1'
_cell_length_a   9.23163000
_cell_length_b   9.76087000
_cell_length_c   11.21380000
_cell_angle_alpha   89.99990000
_cell_angle_beta   68.76900000
_cell_angle_gamma   89.99920000
_symmetry_Int_Tables_number   1
_chemical_formula_structural   AgH9C6N5O2
_chemical_formula_sum   'Ag4 H36 C24 N20 O8'
_cell_volume   941.87936359
_cell_formula_units_Z   4
loop_
 _symmetry_equiv_pos_site_id
 _symmetry_equiv_pos_as_xyz
  1  'x, y, z'
loop_
 _atom_site_type_symbol
 _atom_site_label
 _atom_site_symmetry_multiplicity
 _atom_site_fract_x
 _atom_site_fract_y
 _atom_site_fract_z
 _atom_site_occupancy
  Ag  Ag0  1  0.25000000  0.80366000  0.75000000  1.0
  Ag  Ag1  1  0.75001000  0.19634000  0.25000000  1.0
  Ag  Ag2  1  0.75000000  0.50306000  0.25000000  1.0
  Ag  Ag3  1  0.25000000  0.49694000  0.75000000  1.0
  H  H4  1  0.07842000  0.03006000  0.76581000  1.0
  H  H5  1  0.42157000  0.03006000  0.73418000  1.0
  H  H6  1  0.92159000  0.96995000  0.23421000  1.0
  H  H7  1  0.57842000  0.96995000  0.26579000  1.0
  H  H8  1  0.93964000  0.95682000  0.70868000  1.0
  H  H9  1  0.56034000  0.95682000  0.79131000  1.0
  H  H10  1  0.06037000  0.04319000  0.29133000  1.0
  H  H11  1  0.43964000  0.04319000  0.20868000  1.0
  H  H12  1  0.88056000  0.08764000  0.82709000  1.0
  H  H13  1  0.61943000  0.08764000  0.67291000  1.0
  H  H14  1  0.11945000  0.91237000  0.17293000  1.0
  H  H15  1  0.38056000  0.91236000  0.32707000  1.0
  H  H16  1  0.78909000  0.68400000  0.63058000  1.0
  H  H17  1  0.71091000  0.68399000  0.86943000  1.0
  H  H18  1  0.21091000  0.31602000  0.36943000  1.0
  H  H19  1  0.28909000  0.31601000  0.13058000  1.0
  H  H20  1  0.79662000  0.50284000  0.62938000  1.0
  H  H21  1  0.70338000  0.50283000  0.87061000  1.0
  H  H22  1  0.20338000  0.49717000  0.37061000  1.0
  H  H23  1  0.29662000  0.49717000  0.12939000  1.0
  H  H24  1  0.07157000  0.58421000  0.10321000  1.0
  H  H25  1  0.42843000  0.58421000  0.39679000  1.0
  H  H26  1  0.92843000  0.41578000  0.89679000  1.0
  H  H27  1  0.57157000  0.41578000  0.60321000  1.0
  H  H28  1  0.21753000  0.66793000  0.97441000  1.0
  H  H29  1  0.28247000  0.66793000  0.52559000  1.0
  H  H30  1  0.78247000  0.33206000  0.02559000  1.0
  H  H31  1  0.71754000  0.33207000  0.47441000  1.0
  H  H32  1  0.55206000  0.65707000  0.16855000  1.0
  H  H33  1  0.94794000  0.65707000  0.33145000  1.0
  H  H34  1  0.44794000  0.34293000  0.83144000  1.0
  H  H35  1  0.05206000  0.34293000  0.66856000  1.0
  H  H36  1  0.50861000  0.78132000  0.07392000  1.0
  H  H37  1  0.99138000  0.78132000  0.42607000  1.0
  H  H38  1  0.49139000  0.21868000  0.92608000  1.0
  H  H39  1  0.00862000  0.21869000  0.57392000  1.0
  C  C40  1  0.98980000  0.72335000  0.00755000  1.0
  C  C41  1  0.51019000  0.72334000  0.49245000  1.0
  C  C42  1  0.01020000  0.27665000  0.99245000  1.0
  C  C43  1  0.48980000  0.27665000  0.50755000  1.0
  C  C44  1  0.73340000  0.77452000  0.05548000  1.0
  C  C45  1  0.76660000  0.77451000  0.44452000  1.0
  C  C46  1  0.26661000  0.22548000  0.94452000  1.0
  C  C47  1  0.23340000  0.22548000  0.55548000  1.0
  C  C48  1  0.91572000  0.89241000  0.89643000  1.0
  C  C49  1  0.58427000  0.89241000  0.60357000  1.0
  C  C50  1  0.08429000  0.10760000  0.10357000  1.0
  C  C51  1  0.41572000  0.10759000  0.39643000  1.0
  C  C52  1  0.95669000  0.99846000  0.79395000  1.0
  C  C53  1  0.54330000  0.99846000  0.70604000  1.0
  C  C54  1  0.04333000  0.00155000  0.20606000  1.0
  C  C55  1  0.45669000  0.00155000  0.29394000  1.0
  C  C56  1  0.97680000  0.60043000  0.67326000  1.0
  C  C57  1  0.52320000  0.60043000  0.82674000  1.0
  C  C58  1  0.02320000  0.39957000  0.32674000  1.0
  C  C59  1  0.47680000  0.39957000  0.17326000  1.0
  C  C60  1  0.80897000  0.59501000  0.68155000  1.0
  C  C61  1  0.69103000  0.59501000  0.81845000  1.0
  C  C62  1  0.19103000  0.40500000  0.31846000  1.0
  C  C63  1  0.30897000  0.40499000  0.18155000  1.0
  N  N64  1  0.10173000  0.65408000  0.02988000  1.0
  N  N65  1  0.39828000  0.65407000  0.47012000  1.0
  N  N66  1  0.89827000  0.34591000  0.97012000  1.0
  N  N67  1  0.60173000  0.34591000  0.52988000  1.0
  N  N68  1  0.58226000  0.74480000  0.11532000  1.0
  N  N69  1  0.91773000  0.74479000  0.38468000  1.0
  N  N70  1  0.41774000  0.25520000  0.88468000  1.0
  N  N71  1  0.08227000  0.25520000  0.61532000  1.0
  N  N72  1  0.84054000  0.70082000  0.08310000  1.0
  N  N73  1  0.65946000  0.70081000  0.41690000  1.0
  N  N74  1  0.15946000  0.29917000  0.91690000  1.0
  N  N75  1  0.34055000  0.29917000  0.58310000  1.0
  N  N76  1  0.03184000  0.81444000  0.90710000  1.0
  N  N77  1  0.46815000  0.81444000  0.59290000  1.0
  N  N78  1  0.96816000  0.18556000  0.09290000  1.0
  N  N79  1  0.53185000  0.18555000  0.40710000  1.0
  N  N80  1  0.76654000  0.87873000  0.96885000  1.0
  N  N81  1  0.73345000  0.87872000  0.53115000  1.0
  N  N82  1  0.23346000  0.12128000  0.03116000  1.0
  N  N83  1  0.26655000  0.12128000  0.46884000  1.0
  O  O84  1  0.01180000  0.51778000  0.74931000  1.0
  O  O85  1  0.48819000  0.51778000  0.75070000  1.0
  O  O86  1  0.98820000  0.48222000  0.25069000  1.0
  O  O87  1  0.51181000  0.48221000  0.24930000  1.0
  O  O88  1  0.07122000  0.67973000  0.59470000  1.0
  O  O89  1  0.42878000  0.67973000  0.90531000  1.0
  O  O90  1  0.92879000  0.32027000  0.40531000  1.0
  O  O91  1  0.57122000  0.32027000  0.09469000  1.0
