# generated using pymatgen
data_AlH12C24NO12
_symmetry_space_group_name_H-M   'P 1'
_cell_length_a   4.11427000
_cell_length_b   23.37775669
_cell_length_c   23.37690000
_cell_angle_alpha   59.99963675
_cell_angle_beta   89.99960000
_cell_angle_gamma   90.00030000
_symmetry_Int_Tables_number   1
_chemical_formula_structural   AlH12C24NO12
_chemical_formula_sum   'Al3 H36 C72 N3 O36'
_cell_volume   1947.20458820
_cell_formula_units_Z   3
loop_
 _symmetry_equiv_pos_site_id
 _symmetry_equiv_pos_as_xyz
  1  'x, y, z'
loop_
 _atom_site_type_symbol
 _atom_site_label
 _atom_site_symmetry_multiplicity
 _atom_site_fract_x
 _atom_site_fract_y
 _atom_site_fract_z
 _atom_site_occupancy
  Al  Al0  1  0.01769000  0.49867000  0.49960000  1.0
  Al  Al1  1  0.01768000  0.83293000  0.83507000  1.0
  Al  Al2  1  0.01772000  0.16842000  0.16534000  1.0
  H  H3  1  0.81415000  0.07984000  0.05837000  1.0
  H  H4  1  0.91704000  0.07525000  0.95832000  1.0
  H  H5  1  0.37068000  0.25603000  0.84801000  1.0
  H  H6  1  0.37066000  0.06262000  0.92271000  1.0
  H  H7  1  0.81412000  0.02847000  0.74651000  1.0
  H  H8  1  0.91705000  0.13311000  0.74192000  1.0
  H  H9  1  0.37060000  0.18134000  0.72930000  1.0
  H  H10  1  0.81420000  0.39168000  0.69514000  1.0
  H  H11  1  0.91711000  0.29163000  0.79977000  1.0
  H  H12  1  0.20726000  0.64045000  0.94177000  1.0
  H  H13  1  0.09920000  0.53552000  0.04119000  1.0
  H  H14  1  0.64440000  0.60343000  0.15389000  1.0
  H  H15  1  0.64434000  0.48723000  0.07600000  1.0
  H  H16  1  0.20731000  0.27511000  0.25113000  1.0
  H  H17  1  0.09921000  0.37454000  0.25662000  1.0
  H  H18  1  0.64431000  0.40934000  0.27011000  1.0
  H  H19  1  0.20733000  0.58446000  0.30711000  1.0
  H  H20  1  0.09927000  0.58997000  0.20218000  1.0
  H  H21  1  0.23360000  0.91638000  0.63907000  1.0
  H  H22  1  0.17936000  0.92195000  0.53267000  1.0
  H  H23  1  0.71474000  0.73902000  0.61023000  1.0
  H  H24  1  0.71475000  0.94355000  0.48409000  1.0
  H  H25  1  0.23369000  0.97242000  0.27787000  1.0
  H  H26  1  0.17948000  0.86602000  0.37868000  1.0
  H  H27  1  0.71488000  0.81742000  0.40569000  1.0
  H  H28  1  0.23360000  0.61122000  0.58303000  1.0
  H  H29  1  0.17936000  0.71204000  0.58861000  1.0
  H  H30  1  0.00329000  0.24215000  0.02039000  1.0
  H  H31  1  0.00319000  0.90415000  0.90880000  1.0
  H  H32  1  0.00319000  0.35372000  0.57082000  1.0
  H  H33  1  0.01850000  0.76214000  0.98184000  1.0
  H  H34  1  0.01848000  0.31518000  0.08937000  1.0
  H  H35  1  0.01849000  0.42270000  0.42880000  1.0
  H  H36  1  0.02090000  0.75055000  0.77414000  1.0
  H  H37  1  0.02095000  0.10748000  0.30866000  1.0
  H  H38  1  0.02097000  0.64197000  0.41720000  1.0
  C  C39  1  0.52282000  0.59067000  0.49389000  1.0
  C  C40  1  0.51032000  0.40950000  0.58883000  1.0
  C  C41  1  0.52006000  0.49466000  0.41248000  1.0
  C  C42  1  0.51032000  0.92216000  0.83501000  1.0
  C  C43  1  0.52277000  0.82723000  0.74877000  1.0
  C  C44  1  0.52005000  0.74582000  0.92619000  1.0
  C  C45  1  0.51039000  0.16835000  0.07618000  1.0
  C  C46  1  0.52281000  0.08212000  0.25733000  1.0
  C  C47  1  0.52008000  0.25954000  0.16133000  1.0
  C  C48  1  0.71281000  0.11858000  0.01193000  1.0
  C  C49  1  0.77678000  0.11652000  0.95456000  1.0
  C  C50  1  0.65359000  0.16631000  0.89376000  1.0
  C  C51  1  0.47002000  0.21627000  0.89363000  1.0
  C  C52  1  0.40897000  0.22018000  0.95019000  1.0
  C  C53  1  0.52942000  0.16977000  0.01127000  1.0
  C  C54  1  0.47000000  0.05676000  0.88295000  1.0
  C  C55  1  0.40891000  0.99630000  0.88685000  1.0
  C  C56  1  0.52937000  0.98563000  0.83644000  1.0
  C  C57  1  0.71278000  0.03617000  0.78524000  1.0
  C  C58  1  0.77677000  0.09559000  0.78320000  1.0
  C  C59  1  0.65359000  0.10660000  0.83299000  1.0
  C  C60  1  0.46998000  0.22696000  0.72345000  1.0
  C  C61  1  0.40887000  0.28351000  0.66299000  1.0
  C  C62  1  0.52938000  0.34460000  0.65230000  1.0
  C  C63  1  0.71283000  0.34525000  0.70284000  1.0
  C  C64  1  0.77681000  0.28788000  0.76226000  1.0
  C  C65  1  0.65361000  0.22708000  0.77327000  1.0
  C  C66  1  0.30607000  0.63223000  0.98859000  1.0
  C  C67  1  0.23985000  0.57260000  0.04561000  1.0
  C  C68  1  0.36196000  0.56066000  0.10682000  1.0
  C  C69  1  0.54615000  0.60994000  0.10794000  1.0
  C  C70  1  0.60977000  0.67053000  0.05176000  1.0
  C  C71  1  0.49069000  0.68202000  0.99036000  1.0
  C  C72  1  0.54611000  0.44128000  0.11545000  1.0
  C  C73  1  0.60973000  0.38510000  0.11104000  1.0
  C  C74  1  0.49069000  0.32370000  0.16096000  1.0
  C  C75  1  0.30609000  0.32193000  0.21253000  1.0
  C  C76  1  0.23985000  0.37896000  0.21513000  1.0
  C  C77  1  0.36195000  0.44017000  0.16585000  1.0
  C  C78  1  0.54610000  0.44879000  0.27661000  1.0
  C  C79  1  0.60973000  0.44438000  0.33720000  1.0
  C  C80  1  0.49068000  0.49429000  0.34869000  1.0
  C  C81  1  0.30611000  0.54586000  0.29889000  1.0
  C  C82  1  0.23988000  0.54847000  0.23925000  1.0
  C  C83  1  0.36198000  0.49919000  0.22732000  1.0
  C  C84  1  0.34442000  0.87764000  0.63254000  1.0
  C  C85  1  0.31054000  0.88049000  0.57199000  1.0
  C  C86  1  0.44916000  0.83128000  0.56173000  1.0
  C  C87  1  0.61171000  0.77942000  0.61466000  1.0
  C  C88  1  0.64091000  0.77474000  0.67644000  1.0
  C  C89  1  0.51084000  0.82546000  0.68545000  1.0
  C  C90  1  0.61176000  0.94799000  0.43925000  1.0
  C  C91  1  0.64094000  0.00976000  0.38216000  1.0
  C  C92  1  0.51089000  0.01878000  0.32243000  1.0
  C  C93  1  0.34449000  0.96588000  0.32314000  1.0
  C  C94  1  0.31060000  0.90533000  0.38084000  1.0
  C  C95  1  0.44920000  0.89506000  0.44032000  1.0
  C  C96  1  0.61182000  0.77259000  0.44609000  1.0
  C  C97  1  0.64103000  0.71550000  0.44140000  1.0
  C  C98  1  0.51091000  0.65576000  0.49212000  1.0
  C  C99  1  0.34445000  0.65648000  0.54430000  1.0
  C  C100  1  0.31054000  0.71419000  0.54714000  1.0
  C  C101  1  0.44922000  0.77366000  0.49794000  1.0
  C  C102  1  0.22751000  0.28255000  0.93448000  1.0
  C  C103  1  0.22739000  0.94965000  0.94922000  1.0
  C  C104  1  0.22732000  0.26780000  0.61633000  1.0
  C  C105  1  0.79197000  0.71688000  0.06763000  1.0
  C  C106  1  0.79191000  0.40097000  0.04882000  1.0
  C  C107  1  0.79189000  0.38215000  0.38356000  1.0
  C  C108  1  0.78971000  0.71056000  0.72871000  1.0
  C  C109  1  0.78976000  0.06204000  0.39408000  1.0
  C  C110  1  0.78991000  0.72741000  0.37722000  1.0
  N  N111  1  0.70329000  0.16666000  0.83334000  1.0
  N  N112  1  0.31107000  0.50001000  0.16665667  1.0
  N  N113  1  0.42543000  0.83333000  0.50000333  1.0
  O  O114  1  0.28556000  0.46792000  0.45382000  1.0
  O  O115  1  0.28393000  0.57662000  0.46777000  1.0
  O  O116  1  0.27699000  0.44938000  0.57823000  1.0
  O  O117  1  0.75986000  0.52326000  0.42196000  1.0
  O  O118  1  0.75047000  0.42281000  0.54910000  1.0
  O  O119  1  0.75688000  0.55144000  0.52378000  1.0
  O  O120  1  0.75984000  0.75530000  0.88811000  1.0
  O  O121  1  0.75046000  0.88243000  0.86143000  1.0
  O  O122  1  0.75684000  0.85712000  0.75811000  1.0
  O  O123  1  0.28555000  0.78716000  0.91159000  1.0
  O  O124  1  0.28389000  0.80111000  0.78894000  1.0
  O  O125  1  0.27698000  0.91156000  0.80573000  1.0
  O  O126  1  0.75988000  0.22146000  0.18994000  1.0
  O  O127  1  0.75053000  0.19477000  0.08948000  1.0
  O  O128  1  0.75689000  0.09146000  0.21811000  1.0
  O  O129  1  0.28557000  0.24494000  0.13459000  1.0
  O  O130  1  0.28395000  0.12229000  0.24329000  1.0
  O  O131  1  0.27706000  0.13907000  0.11606000  1.0
  O  O132  1  0.06393000  0.28537000  0.98246000  1.0
  O  O133  1  0.22999000  0.32995000  0.87850000  1.0
  O  O134  1  0.06377000  0.89886000  0.95203000  1.0
  O  O135  1  0.22987000  0.95822000  0.99661000  1.0
  O  O136  1  0.06373000  0.31578000  0.56553000  1.0
  O  O137  1  0.22970000  0.21183000  0.62491000  1.0
  O  O138  1  0.95644000  0.76770000  0.01948000  1.0
  O  O139  1  0.78910000  0.70859000  0.12344000  1.0
  O  O140  1  0.95640000  0.35281000  0.04616000  1.0
  O  O141  1  0.78898000  0.45678000  0.00129000  1.0
  O  O142  1  0.95642000  0.37949000  0.43437000  1.0
  O  O143  1  0.78894000  0.33463000  0.37527000  1.0
  O  O144  1  0.92802000  0.70802000  0.78232000  1.0
  O  O145  1  0.77528000  0.66145000  0.72330000  1.0
  O  O146  1  0.92808000  0.11565000  0.34302000  1.0
  O  O147  1  0.77533000  0.05660000  0.44861000  1.0
  O  O148  1  0.92814000  0.67634000  0.37467000  1.0
  O  O149  1  0.77561000  0.78194000  0.32813000  1.0
