# generated using pymatgen
data_UH6PbC14(NO5)2
_symmetry_space_group_name_H-M   'P 1'
_cell_length_a   8.83226000
_cell_length_b   10.69940000
_cell_length_c   10.70060000
_cell_angle_alpha   97.98580000
_cell_angle_beta   107.48700000
_cell_angle_gamma   107.49000000
_symmetry_Int_Tables_number   1
_chemical_formula_structural   UH6PbC14(NO5)2
_chemical_formula_sum   'U2 H12 Pb2 C28 N4 O20'
_cell_volume   890.19886054
_cell_formula_units_Z   2
loop_
 _symmetry_equiv_pos_site_id
 _symmetry_equiv_pos_as_xyz
  1  'x, y, z'
loop_
 _atom_site_type_symbol
 _atom_site_label
 _atom_site_symmetry_multiplicity
 _atom_site_fract_x
 _atom_site_fract_y
 _atom_site_fract_z
 _atom_site_occupancy
  U  U0  1  0.00008000  0.00005000  0.50003000  1.0
  U  U1  1  0.50003000  0.49997000  0.99997000  1.0
  H  H2  1  0.28268000  0.82190000  0.34050000  1.0
  H  H3  1  0.21736000  0.65951000  0.17810000  1.0
  H  H4  1  0.71738000  0.17811000  0.65951000  1.0
  H  H5  1  0.78262000  0.34042000  0.82190000  1.0
  H  H6  1  0.52793000  0.80084000  0.74937000  1.0
  H  H7  1  0.97205000  0.25063000  0.19916000  1.0
  H  H8  1  0.47205000  0.19922000  0.25069000  1.0
  H  H9  1  0.02789000  0.74928000  0.80076000  1.0
  H  H10  1  0.25823000  0.77523000  0.55928000  1.0
  H  H11  1  0.24172000  0.44068000  0.22476000  1.0
  H  H12  1  0.74177000  0.22480000  0.44072000  1.0
  H  H13  1  0.75822000  0.55924000  0.77520000  1.0
  Pb  Pb14  1  0.24953000  0.06317000  0.93659000  1.0
  Pb  Pb15  1  0.74973000  0.93680000  0.06322000  1.0
  C  C16  1  0.68406000  0.86304000  0.63360000  1.0
  C  C17  1  0.81593000  0.36641000  0.13698000  1.0
  C  C18  1  0.31593000  0.13703000  0.36647000  1.0
  C  C19  1  0.18402000  0.63351000  0.86298000  1.0
  C  C20  1  0.39307000  0.82773000  0.42476000  1.0
  C  C21  1  0.10693000  0.57524000  0.17226000  1.0
  C  C22  1  0.60698000  0.17230000  0.57525000  1.0
  C  C23  1  0.89303000  0.42469000  0.82772000  1.0
  C  C24  1  0.52903000  0.81898000  0.65227000  1.0
  C  C25  1  0.97093000  0.34772000  0.18103000  1.0
  C  C26  1  0.47097000  0.18109000  0.34778000  1.0
  C  C27  1  0.02901000  0.65220000  0.81891000  1.0
  C  C28  1  0.38100000  0.80326000  0.54670000  1.0
  C  C29  1  0.11899000  0.45330000  0.19674000  1.0
  C  C30  1  0.61901000  0.19679000  0.45331000  1.0
  C  C31  1  0.88096000  0.54663000  0.80322000  1.0
  C  C32  1  0.85020000  0.89119000  0.74307000  1.0
  C  C33  1  0.64978000  0.25694000  0.10888000  1.0
  C  C34  1  0.14978000  0.10891000  0.25700000  1.0
  C  C35  1  0.35017000  0.74302000  0.89115000  1.0
  C  C36  1  0.55263000  0.86437000  0.41242000  1.0
  C  C37  1  0.94739000  0.58760000  0.13559000  1.0
  C  C38  1  0.44744000  0.13568000  0.58763000  1.0
  C  C39  1  0.05255000  0.41233000  0.86434000  1.0
  C  C40  1  0.57834000  0.88367000  0.28354000  1.0
  C  C41  1  0.92176000  0.71652000  0.11628000  1.0
  C  C42  1  0.42189000  0.11637000  0.71654000  1.0
  C  C43  1  0.07819000  0.28343000  0.88361000  1.0
  N  N44  1  0.69623000  0.88485000  0.51583000  1.0
  N  N45  1  0.80377000  0.48417000  0.11512000  1.0
  N  N46  1  0.30381000  0.11521000  0.48425000  1.0
  N  N47  1  0.19619000  0.51575000  0.88481000  1.0
  O  O48  1  0.98132000  0.93194000  0.70785000  1.0
  O  O49  1  0.51864000  0.29210000  0.06801000  1.0
  O  O50  1  0.01863000  0.06810000  0.29216000  1.0
  O  O51  1  0.48132000  0.70786000  0.93191000  1.0
  O  O52  1  0.73848000  0.92493000  0.29579000  1.0
  O  O53  1  0.76162000  0.70431000  0.07505000  1.0
  O  O54  1  0.26174000  0.07506000  0.70434000  1.0
  O  O55  1  0.23833000  0.29568000  0.92486000  1.0
  O  O56  1  0.02266000  0.84111000  0.44639000  1.0
  O  O57  1  0.47750000  0.55364000  0.15891000  1.0
  O  O58  1  0.97759000  0.15903000  0.55374000  1.0
  O  O59  1  0.52252000  0.44627000  0.84101000  1.0
  O  O60  1  0.85994000  0.87398000  0.85792000  1.0
  O  O61  1  0.64015000  0.14217000  0.12630000  1.0
  O  O62  1  0.14012000  0.12621000  0.14220000  1.0
  O  O63  1  0.35983000  0.85786000  0.87394000  1.0
  O  O64  1  0.45801000  0.86046000  0.17658000  1.0
  O  O65  1  0.04218000  0.82343000  0.13949000  1.0
  O  O66  1  0.54234000  0.13961000  0.82343000  1.0
  O  O67  1  0.95782000  0.17645000  0.86035000  1.0
