# generated using pymatgen
data_CuH8C16N2(O2F3)2
_symmetry_space_group_name_H-M   'P 1'
_cell_length_a   7.65043000
_cell_length_b   11.07890000
_cell_length_c   11.07890000
_cell_angle_alpha   61.48750000
_cell_angle_beta   78.15940000
_cell_angle_gamma   78.15950000
_symmetry_Int_Tables_number   1
_chemical_formula_structural   CuH8C16N2(O2F3)2
_chemical_formula_sum   'Cu2 H16 C32 N4 O8 F12'
_cell_volume   801.27697828
_cell_formula_units_Z   2
loop_
 _symmetry_equiv_pos_site_id
 _symmetry_equiv_pos_as_xyz
  1  'x, y, z'
loop_
 _atom_site_type_symbol
 _atom_site_label
 _atom_site_symmetry_multiplicity
 _atom_site_fract_x
 _atom_site_fract_y
 _atom_site_fract_z
 _atom_site_occupancy
  Cu  Cu0  1  0.25000000  0.63167000  0.36833000  1.0
  Cu  Cu1  1  0.75000000  0.36833000  0.63167000  1.0
  H  H2  1  0.99762000  0.82645000  0.47928000  1.0
  H  H3  1  0.50237000  0.52072000  0.17355000  1.0
  H  H4  1  0.00238000  0.17355000  0.52072000  1.0
  H  H5  1  0.49762000  0.47928000  0.82645000  1.0
  H  H6  1  0.87263000  0.07881000  0.36696000  1.0
  H  H7  1  0.62737000  0.63304000  0.92119000  1.0
  H  H8  1  0.12737000  0.92119000  0.63304000  1.0
  H  H9  1  0.37263000  0.36696000  0.07881000  1.0
  H  H10  1  0.96136000  0.22338000  0.11354000  1.0
  H  H11  1  0.53864000  0.88646000  0.77662000  1.0
  H  H12  1  0.03864000  0.77663000  0.88646000  1.0
  H  H13  1  0.46136000  0.11354000  0.22338000  1.0
  H  H14  1  0.14284000  0.23257000  0.88541000  1.0
  H  H15  1  0.35716000  0.11459000  0.76743000  1.0
  H  H16  1  0.85717000  0.76742000  0.11460000  1.0
  H  H17  1  0.64283000  0.88541000  0.23258000  1.0
  C  C18  1  0.03166000  0.89282000  0.36935000  1.0
  C  C19  1  0.46834000  0.63065000  0.10718000  1.0
  C  C20  1  0.96834000  0.10718000  0.63066000  1.0
  C  C21  1  0.53166000  0.36934000  0.89282000  1.0
  C  C22  1  0.96351000  0.03407000  0.30519000  1.0
  C  C23  1  0.53649000  0.69480000  0.96593000  1.0
  C  C24  1  0.03648000  0.96593000  0.69481000  1.0
  C  C25  1  0.46351000  0.30519000  0.03407000  1.0
  C  C26  1  0.01244000  0.11377000  0.16515000  1.0
  C  C27  1  0.48756000  0.83485000  0.88623000  1.0
  C  C28  1  0.98755000  0.88623000  0.83485000  1.0
  C  C29  1  0.51244000  0.16515000  0.11377000  1.0
  C  C30  1  0.13029000  0.05184000  0.08835000  1.0
  C  C31  1  0.36972000  0.91165000  0.94816000  1.0
  C  C32  1  0.86971000  0.94815000  0.91166000  1.0
  C  C33  1  0.63029000  0.08834000  0.05185000  1.0
  C  C34  1  0.19157000  0.12337000  0.94342000  1.0
  C  C35  1  0.30843000  0.05658000  0.87663000  1.0
  C  C36  1  0.80842000  0.87663000  0.05659000  1.0
  C  C37  1  0.69158000  0.94342000  0.12337000  1.0
  C  C38  1  0.19120000  0.90908000  0.16155000  1.0
  C  C39  1  0.30881000  0.83846000  0.09092000  1.0
  C  C40  1  0.80881000  0.09092000  0.83846000  1.0
  C  C41  1  0.69119000  0.16154000  0.90908000  1.0
  C  C42  1  0.42186000  0.34489000  0.49231000  1.0
  C  C43  1  0.07815000  0.50769000  0.65511000  1.0
  C  C44  1  0.57814000  0.65511000  0.50768000  1.0
  C  C45  1  0.92185000  0.49232000  0.34489000  1.0
  C  C46  1  0.48881000  0.21808000  0.46113000  1.0
  C  C47  1  0.01119000  0.53887000  0.78192000  1.0
  C  C48  1  0.51120000  0.78192000  0.53886000  1.0
  C  C49  1  0.98880000  0.46114000  0.21808000  1.0
  N  N50  1  0.14281000  0.83265000  0.29899000  1.0
  N  N51  1  0.35720000  0.70101000  0.16735000  1.0
  N  N52  1  0.85719000  0.16734000  0.70102000  1.0
  N  N53  1  0.64280000  0.29898000  0.83266000  1.0
  O  O54  1  0.33659000  0.44175000  0.39540000  1.0
  O  O55  1  0.16343000  0.60459000  0.55825000  1.0
  O  O56  1  0.66343000  0.55825000  0.60459000  1.0
  O  O57  1  0.83657000  0.39541000  0.44175000  1.0
  O  O58  1  0.45614000  0.33653000  0.60056000  1.0
  O  O59  1  0.04386000  0.39944000  0.66347000  1.0
  O  O60  1  0.54385000  0.66348000  0.39943000  1.0
  O  O61  1  0.95614000  0.60057000  0.33652000  1.0
  F  F62  1  0.59670000  0.11771000  0.55410000  1.0
  F  F63  1  0.90330000  0.44590000  0.88229000  1.0
  F  F64  1  0.40331000  0.88229000  0.44589000  1.0
  F  F65  1  0.09670000  0.55411000  0.11771000  1.0
  F  F66  1  0.34794000  0.15677000  0.46522000  1.0
  F  F67  1  0.15207000  0.53478000  0.84322000  1.0
  F  F68  1  0.65207000  0.84323000  0.53477000  1.0
  F  F69  1  0.84793000  0.46523000  0.15677000  1.0
  F  F70  1  0.58501000  0.25544000  0.33270000  1.0
  F  F71  1  0.91499000  0.66730000  0.74456000  1.0
  F  F72  1  0.41499000  0.74457000  0.66729000  1.0
  F  F73  1  0.08501000  0.33271000  0.25543000  1.0
