# generated using pymatgen
data_ZnH12C16N3O5
_symmetry_space_group_name_H-M   'P 1'
_cell_length_a   7.36606000
_cell_length_b   11.03000000
_cell_length_c   13.66700000
_cell_angle_alpha   66.29400000
_cell_angle_beta   77.78750000
_cell_angle_gamma   71.30920000
_symmetry_Int_Tables_number   1
_chemical_formula_structural   ZnH12C16N3O5
_chemical_formula_sum   'Zn2 H24 C32 N6 O10'
_cell_volume   958.70784342
_cell_formula_units_Z   2
loop_
 _symmetry_equiv_pos_site_id
 _symmetry_equiv_pos_as_xyz
  1  'x, y, z'
loop_
 _atom_site_type_symbol
 _atom_site_label
 _atom_site_symmetry_multiplicity
 _atom_site_fract_x
 _atom_site_fract_y
 _atom_site_fract_z
 _atom_site_occupancy
  Zn  Zn0  1  0.00000000  0.50000000  0.00000000  1.0
  Zn  Zn1  1  0.50000000  0.00000000  0.00000000  1.0
  H  H2  1  0.93968000  0.28747000  0.22993000  1.0
  H  H3  1  0.99728000  0.68557000  0.11286000  1.0
  H  H4  1  0.95211000  0.26142000  0.41860000  1.0
  H  H5  1  0.00787000  0.67782000  0.29460000  1.0
  H  H6  1  0.90457000  0.91682000  0.97718000  1.0
  H  H7  1  0.82051000  0.04999000  0.01275000  1.0
  H  H8  1  0.98211000  0.35137000  0.54479000  1.0
  H  H9  1  0.37611000  0.73390000  0.12586000  1.0
  H  H10  1  0.60367000  0.96825000  0.21502000  1.0
  H  H11  1  0.38319000  0.55518000  0.30874000  1.0
  H  H12  1  0.60384000  0.80548000  0.40581000  1.0
  H  H13  1  0.53231000  0.60106000  0.54226000  1.0
  H  H14  1  0.06033000  0.71252000  0.77007000  1.0
  H  H15  1  0.00273000  0.31442000  0.88714000  1.0
  H  H16  1  0.04789000  0.73857000  0.58140000  1.0
  H  H17  1  0.99213000  0.32218000  0.70540000  1.0
  H  H18  1  0.09542000  0.08318000  0.02282000  1.0
  H  H19  1  0.17949000  0.95001000  0.98724000  1.0
  H  H20  1  0.01789000  0.64863000  0.45521000  1.0
  H  H21  1  0.62389000  0.26610000  0.87414000  1.0
  H  H22  1  0.39633000  0.03176000  0.78498000  1.0
  H  H23  1  0.61680000  0.44482000  0.69126000  1.0
  H  H24  1  0.39616000  0.19453000  0.59419000  1.0
  H  H25  1  0.46769000  0.39895000  0.45775000  1.0
  C  C26  1  0.65730000  0.72608000  0.95212000  1.0
  C  C27  1  0.61861000  0.37139000  0.04258000  1.0
  C  C28  1  0.57400000  0.60750000  0.97331000  1.0
  C  C29  1  0.95655000  0.37088000  0.24806000  1.0
  C  C30  1  0.98612000  0.59376000  0.18307000  1.0
  C  C31  1  0.75339000  0.23063000  0.09284000  1.0
  C  C32  1  0.96277000  0.35747000  0.35306000  1.0
  C  C33  1  0.99353000  0.58778000  0.28545000  1.0
  C  C34  1  0.98335000  0.46687000  0.37430000  1.0
  C  C35  1  0.99140000  0.45137000  0.48432000  1.0
  C  C36  1  0.43130000  0.74301000  0.18996000  1.0
  C  C37  1  0.55471000  0.87575000  0.23988000  1.0
  C  C38  1  0.43380000  0.64457000  0.29262000  1.0
  C  C39  1  0.55543000  0.78419000  0.34567000  1.0
  C  C40  1  0.49782000  0.66348000  0.37418000  1.0
  C  C41  1  0.50790000  0.56477000  0.48376000  1.0
  C  C42  1  0.34270000  0.27392000  0.04788000  1.0
  C  C43  1  0.38139000  0.62860000  0.95742000  1.0
  C  C44  1  0.42600000  0.39249000  0.02669000  1.0
  C  C45  1  0.04345000  0.62912000  0.75194000  1.0
  C  C46  1  0.01389000  0.40623000  0.81693000  1.0
  C  C47  1  0.24661000  0.76937000  0.90716000  1.0
  C  C48  1  0.03723000  0.64253000  0.64694000  1.0
  C  C49  1  0.00647000  0.41221000  0.71455000  1.0
  C  C50  1  0.01666000  0.53312000  0.62570000  1.0
  C  C51  1  0.00860000  0.54863000  0.51568000  1.0
  C  C52  1  0.56870000  0.25699000  0.81005000  1.0
  C  C53  1  0.44529000  0.12426000  0.76012000  1.0
  C  C54  1  0.56620000  0.35544000  0.70738000  1.0
  C  C55  1  0.44457000  0.21582000  0.65433000  1.0
  C  C56  1  0.50217000  0.33653000  0.62582000  1.0
  C  C57  1  0.49210000  0.43524000  0.51624000  1.0
  N  N58  1  0.68940000  0.48067000  0.01416000  1.0
  N  N59  1  0.96946000  0.48691000  0.16408000  1.0
  N  N60  1  0.49353000  0.85548000  0.16310000  1.0
  N  N61  1  0.31059000  0.51933000  0.98584000  1.0
  N  N62  1  0.03055000  0.51308000  0.83592000  1.0
  N  N63  1  0.50647000  0.14452000  0.83690000  1.0
  O  O64  1  0.83711000  0.70114000  0.95484000  1.0
  O  O65  1  0.53695000  0.84148000  0.93704000  1.0
  O  O66  1  0.86311000  0.18148000  0.02396000  1.0
  O  O67  1  0.74817000  0.18230000  0.19260000  1.0
  O  O68  1  0.78754000  0.97339000  0.00536000  1.0
  O  O69  1  0.16288000  0.29886000  0.04516000  1.0
  O  O70  1  0.46304000  0.15852000  0.06296000  1.0
  O  O71  1  0.13688000  0.81853000  0.97604000  1.0
  O  O72  1  0.25184000  0.81770000  0.80740000  1.0
  O  O73  1  0.21246000  0.02660000  0.99464000  1.0
