# generated using pymatgen
data_Zn2H13C18N15O
_symmetry_space_group_name_H-M   'P 1'
_cell_length_a   10.03910000
_cell_length_b   10.49010000
_cell_length_c   11.84740000
_cell_angle_alpha   71.25470000
_cell_angle_beta   66.94090000
_cell_angle_gamma   79.39890000
_symmetry_Int_Tables_number   1
_chemical_formula_structural   Zn2H13C18N15O
_chemical_formula_sum   'Zn4 H26 C36 N30 O2'
_cell_volume   1084.66461065
_cell_formula_units_Z   2
loop_
 _symmetry_equiv_pos_site_id
 _symmetry_equiv_pos_as_xyz
  1  'x, y, z'
loop_
 _atom_site_type_symbol
 _atom_site_label
 _atom_site_symmetry_multiplicity
 _atom_site_fract_x
 _atom_site_fract_y
 _atom_site_fract_z
 _atom_site_occupancy
  Zn  Zn0  1  0.21535000  0.02667000  0.33479000  1.0
  Zn  Zn1  1  0.78465000  0.97333000  0.66521000  1.0
  Zn  Zn2  1  0.00786000  0.30914000  0.28679000  1.0
  Zn  Zn3  1  0.99214000  0.69086000  0.71321000  1.0
  H  H4  1  0.18331000  0.86977000  0.72739000  1.0
  H  H5  1  0.81669000  0.13023000  0.27261000  1.0
  H  H6  1  0.21701000  0.93536000  0.89885000  1.0
  H  H7  1  0.78299000  0.06464000  0.10115000  1.0
  H  H8  1  0.86224000  0.69407000  0.17225000  1.0
  H  H9  1  0.13776000  0.30593000  0.82775000  1.0
  H  H10  1  0.84332000  0.63351000  0.99109000  1.0
  H  H11  1  0.15668000  0.36649000  0.00891000  1.0
  H  H12  1  0.74385000  0.41605000  0.21916000  1.0
  H  H13  1  0.25615000  0.58396000  0.78084000  1.0
  H  H14  1  0.54250000  0.59233000  0.26858000  1.0
  H  H15  1  0.45751000  0.40767000  0.73142000  1.0
  H  H16  1  0.70440000  0.62905000  0.54499000  1.0
  H  H17  1  0.29560000  0.37095000  0.45501000  1.0
  H  H18  1  0.88972000  0.44678000  0.49253000  1.0
  H  H19  1  0.11028000  0.55322000  0.50747000  1.0
  H  H20  1  0.35378000  0.08034000  0.04293000  1.0
  H  H21  1  0.64622000  0.91966000  0.95707000  1.0
  H  H22  1  0.54311000  0.22837000  0.86541000  1.0
  H  H23  1  0.45688000  0.77163000  0.13459000  1.0
  H  H24  1  0.58705000  0.37441000  0.15075000  1.0
  H  H25  1  0.41295000  0.62559000  0.84926000  1.0
  H  H26  1  0.40795000  0.21462000  0.31583000  1.0
  H  H27  1  0.59205000  0.78538000  0.68417000  1.0
  H  H28  1  0.04576000  0.15856000  0.49017000  1.0
  H  H29  1  0.95424000  0.84145000  0.50983000  1.0
  C  C30  1  0.11452000  0.83240000  0.82752000  1.0
  C  C31  1  0.88548000  0.16759000  0.17248000  1.0
  C  C32  1  0.13295000  0.86850000  0.92313000  1.0
  C  C33  1  0.86705000  0.13150000  0.07687000  1.0
  C  C34  1  0.04261000  0.81786000  0.05030000  1.0
  C  C35  1  0.95739000  0.18214000  0.94970000  1.0
  C  C36  1  0.93507000  0.73375000  0.07499000  1.0
  C  C37  1  0.06493000  0.26625000  0.92501000  1.0
  C  C38  1  0.92374000  0.70088000  0.97523000  1.0
  C  C39  1  0.07626000  0.29912000  0.02477000  1.0
  C  C40  1  0.05648000  0.84898000  0.15605000  1.0
  C  C41  1  0.94352000  0.15102000  0.84395000  1.0
  C  C42  1  0.72979000  0.46546000  0.29148000  1.0
  C  C43  1  0.27021000  0.53454000  0.70852000  1.0
  C  C44  1  0.62028000  0.56528000  0.31713000  1.0
  C  C45  1  0.37972000  0.43472000  0.68287000  1.0
  C  C46  1  0.60956000  0.62902000  0.40850000  1.0
  C  C47  1  0.39044000  0.37098000  0.59149000  1.0
  C  C48  1  0.70738000  0.58444000  0.47302000  1.0
  C  C49  1  0.29262000  0.41556000  0.52698000  1.0
  C  C50  1  0.81238000  0.48231000  0.44355000  1.0
  C  C51  1  0.18762000  0.51769000  0.55645000  1.0
  C  C52  1  0.49950000  0.73746000  0.43615000  1.0
  C  C53  1  0.50050000  0.26254000  0.56385000  1.0
  C  C54  1  0.40925000  0.14724000  0.06163000  1.0
  C  C55  1  0.59075000  0.85276000  0.93837000  1.0
  C  C56  1  0.51252000  0.23067000  0.96384000  1.0
  C  C57  1  0.48748000  0.76933000  0.03616000  1.0
  C  C58  1  0.57776000  0.31689000  0.99366000  1.0
  C  C59  1  0.42223000  0.68311000  0.00634000  1.0
  C  C60  1  0.53882000  0.31077000  0.12252000  1.0
  C  C61  1  0.46118000  0.68923000  0.87748000  1.0
  C  C62  1  0.43683000  0.22284000  0.21501000  1.0
  C  C63  1  0.56317000  0.77716000  0.78499000  1.0
  C  C64  1  0.68240000  0.40918000  0.89277000  1.0
  C  C65  1  0.31760000  0.59082000  0.10723000  1.0
  N  N66  1  0.15550000  0.92712000  0.14611000  1.0
  N  N67  1  0.84450000  0.07288000  0.85389000  1.0
  N  N68  1  0.12500000  0.92676000  0.26603000  1.0
  N  N69  1  0.87500000  0.07324000  0.73397000  1.0
  N  N70  1  0.01243000  0.85205000  0.34581000  1.0
  N  N71  1  0.98757000  0.14795000  0.65419000  1.0
  N  N72  1  0.96761000  0.80205000  0.27896000  1.0
  N  N73  1  0.03239000  0.19795000  0.72103000  1.0
  N  N74  1  0.01233000  0.74884000  0.85294000  1.0
  N  N75  1  0.98767000  0.25115000  0.14706000  1.0
  N  N76  1  0.42325000  0.80456000  0.36094000  1.0
  N  N77  1  0.57675000  0.19544000  0.63906000  1.0
  N  N78  1  0.33461000  0.89132000  0.42305000  1.0
  N  N79  1  0.66539000  0.10868000  0.57695000  1.0
  N  N80  1  0.35506000  0.87890000  0.53145000  1.0
  N  N81  1  0.64495000  0.12110000  0.46855000  1.0
  N  N82  1  0.45903000  0.78256000  0.54121000  1.0
  N  N83  1  0.54097000  0.21744000  0.45879000  1.0
  N  N84  1  0.82585000  0.42480000  0.35239000  1.0
  N  N85  1  0.17415000  0.57520000  0.64761000  1.0
  N  N86  1  0.76163000  0.48730000  0.91026000  1.0
  N  N87  1  0.23837000  0.51270000  0.08974000  1.0
  N  N88  1  0.83875000  0.55387000  0.79131000  1.0
  N  N89  1  0.16125000  0.44613000  0.20869000  1.0
  N  N90  1  0.80864000  0.51861000  0.70516000  1.0
  N  N91  1  0.19136000  0.48139000  0.29484000  1.0
  N  N92  1  0.71044000  0.42778000  0.76703000  1.0
  N  N93  1  0.28956000  0.57222000  0.23297000  1.0
  N  N94  1  0.37104000  0.14350000  0.18542000  1.0
  N  N95  1  0.62896000  0.85650000  0.81458000  1.0
  O  O96  1  0.06486000  0.15418000  0.40238000  1.0
  O  O97  1  0.93514000  0.84582000  0.59762000  1.0
