# generated using pymatgen
data_ZnH12C18(NO2)2
_symmetry_space_group_name_H-M   'P 1'
_cell_length_a   8.63133000
_cell_length_b   10.15300000
_cell_length_c   10.19980000
_cell_angle_alpha   78.02180000
_cell_angle_beta   79.44950000
_cell_angle_gamma   74.16280000
_symmetry_Int_Tables_number   1
_chemical_formula_structural   ZnH12C18(NO2)2
_chemical_formula_sum   'Zn2 H24 C36 N4 O8'
_cell_volume   833.56562879
_cell_formula_units_Z   2
loop_
 _symmetry_equiv_pos_site_id
 _symmetry_equiv_pos_as_xyz
  1  'x, y, z'
loop_
 _atom_site_type_symbol
 _atom_site_label
 _atom_site_symmetry_multiplicity
 _atom_site_fract_x
 _atom_site_fract_y
 _atom_site_fract_z
 _atom_site_occupancy
  Zn  Zn0  1  0.56886000  0.10391000  0.62865000  1.0
  Zn  Zn1  1  0.43114000  0.89609000  0.37135000  1.0
  H  H2  1  0.25738000  0.60273000  0.44454000  1.0
  H  H3  1  0.74262000  0.39728000  0.55546000  1.0
  H  H4  1  0.60779000  0.06665000  0.08666000  1.0
  H  H5  1  0.39222000  0.93334000  0.91334000  1.0
  H  H6  1  0.46909000  0.38277000  0.44904000  1.0
  H  H7  1  0.53091000  0.61723000  0.55096000  1.0
  H  H8  1  0.67636000  0.84246000  0.83419000  1.0
  H  H9  1  0.32364000  0.15754000  0.16580000  1.0
  H  H10  1  0.87477000  0.61221000  0.84025000  1.0
  H  H11  1  0.12523000  0.38779000  0.15975000  1.0
  H  H12  1  0.86316000  0.97755000  0.44186000  1.0
  H  H13  1  0.13684000  0.02245000  0.55814000  1.0
  H  H14  1  0.06757000  0.75660000  0.42794000  1.0
  H  H15  1  0.93243000  0.24341000  0.57206000  1.0
  H  H16  1  0.00762000  0.40694000  0.81098000  1.0
  H  H17  1  0.99238000  0.59305000  0.18901000  1.0
  H  H18  1  0.71329000  0.43364000  0.83110000  1.0
  H  H19  1  0.28670000  0.56636000  0.16890000  1.0
  H  H20  1  0.73252000  0.52663000  0.03647000  1.0
  H  H21  1  0.26747000  0.47338000  0.96353000  1.0
  H  H22  1  0.23615000  0.19701000  0.79942000  1.0
  H  H23  1  0.76385000  0.80298000  0.20058000  1.0
  H  H24  1  0.69567000  0.38402000  0.26442000  1.0
  H  H25  1  0.30433000  0.61599000  0.73558000  1.0
  C  C26  1  0.24344000  0.51613000  0.52539000  1.0
  C  C27  1  0.75656000  0.48386000  0.47461000  1.0
  C  C28  1  0.11132000  0.52700000  0.62916000  1.0
  C  C29  1  0.88869000  0.47299000  0.37084000  1.0
  C  C30  1  0.66144000  0.24440000  0.94703000  1.0
  C  C31  1  0.33855000  0.75560000  0.05297000  1.0
  C  C32  1  0.63875000  0.16592000  0.07588000  1.0
  C  C33  1  0.36126000  0.83408000  0.92412000  1.0
  C  C34  1  0.36422000  0.39364000  0.52716000  1.0
  C  C35  1  0.63580000  0.60635000  0.47283000  1.0
  C  C36  1  0.98768000  0.66039000  0.63272000  1.0
  C  C37  1  0.01232000  0.33961000  0.36728000  1.0
  C  C38  1  0.65364000  0.21547000  0.19014000  1.0
  C  C39  1  0.34636000  0.78454000  0.80986000  1.0
  C  C40  1  0.63009000  0.13066000  0.32840000  1.0
  C  C41  1  0.36991000  0.86934000  0.67160000  1.0
  C  C42  1  0.76445000  0.81723000  0.74624000  1.0
  C  C43  1  0.23555000  0.18276000  0.25376000  1.0
  C  C44  1  0.87528000  0.68867000  0.74797000  1.0
  C  C45  1  0.12472000  0.31132000  0.25203000  1.0
  C  C46  1  0.64154000  0.19226000  0.82564000  1.0
  C  C47  1  0.35846000  0.80774000  0.17436000  1.0
  C  C48  1  0.86871000  0.89297000  0.52723000  1.0
  C  C49  1  0.13129000  0.10702000  0.47277000  1.0
  C  C50  1  0.98290000  0.76761000  0.52061000  1.0
  C  C51  1  0.01711000  0.23238000  0.47939000  1.0
  C  C52  1  0.10767000  0.40870000  0.72874000  1.0
  C  C53  1  0.89233000  0.59129000  0.27126000  1.0
  C  C54  1  0.69821000  0.37343000  0.93239000  1.0
  C  C55  1  0.30178000  0.62658000  0.06761000  1.0
  C  C56  1  0.70958000  0.42432000  0.04635000  1.0
  C  C57  1  0.29041000  0.57569000  0.95365000  1.0
  C  C58  1  0.23438000  0.28994000  0.72305000  1.0
  C  C59  1  0.76562000  0.71006000  0.27695000  1.0
  C  C60  1  0.68759000  0.34565000  0.17461000  1.0
  C  C61  1  0.31240000  0.65435000  0.82539000  1.0
  N  N62  1  0.75971000  0.91827000  0.63695000  1.0
  N  N63  1  0.24029000  0.08172000  0.36305000  1.0
  N  N64  1  0.36228000  0.28219000  0.62464000  1.0
  N  N65  1  0.63773000  0.71781000  0.37536000  1.0
  O  O66  1  0.64432000  0.18180000  0.42909000  1.0
  O  O67  1  0.35568000  0.81820000  0.57091000  1.0
  O  O68  1  0.55854000  0.10176000  0.84299000  1.0
  O  O69  1  0.44146000  0.89824000  0.15701000  1.0
  O  O70  1  0.60249000  0.01267000  0.33800000  1.0
  O  O71  1  0.39752000  0.98733000  0.66200000  1.0
  O  O72  1  0.70418000  0.24056000  0.70874000  1.0
  O  O73  1  0.29581000  0.75946000  0.29126000  1.0
