# generated using pymatgen
data_Cd3H22(C15O8)2
_symmetry_space_group_name_H-M   'P 1'
_cell_length_a   7.23340000
_cell_length_b   13.94010000
_cell_length_c   18.50600000
_cell_angle_alpha   90.00010000
_cell_angle_beta   90.00130000
_cell_angle_gamma   88.95530000
_symmetry_Int_Tables_number   1
_chemical_formula_structural   Cd3H22(C15O8)2
_chemical_formula_sum   'Cd6 H44 C60 O32'
_cell_volume   1865.72973106
_cell_formula_units_Z   2
loop_
 _symmetry_equiv_pos_site_id
 _symmetry_equiv_pos_as_xyz
  1  'x, y, z'
loop_
 _atom_site_type_symbol
 _atom_site_label
 _atom_site_symmetry_multiplicity
 _atom_site_fract_x
 _atom_site_fract_y
 _atom_site_fract_z
 _atom_site_occupancy
  Cd  Cd0  1  0.68036000  0.82844000  0.55144000  1.0
  Cd  Cd1  1  0.81966000  0.17157000  0.05144000  1.0
  Cd  Cd2  1  0.31967000  0.17156000  0.44856000  1.0
  Cd  Cd3  1  0.18033000  0.82843000  0.94855000  1.0
  Cd  Cd4  1  0.00003000  0.99999000  0.50000000  1.0
  Cd  Cd5  1  0.50000000  0.00000000  0.00000000  1.0
  H  H6  1  0.81343000  0.00866000  0.27762000  1.0
  H  H7  1  0.68656000  0.99135000  0.77760000  1.0
  H  H8  1  0.18655000  0.99134000  0.72238000  1.0
  H  H9  1  0.31345000  0.00866000  0.22238000  1.0
  H  H10  1  0.73880000  0.81021000  0.10228000  1.0
  H  H11  1  0.76118000  0.18981000  0.60227000  1.0
  H  H12  1  0.26116000  0.18979000  0.89772000  1.0
  H  H13  1  0.23883000  0.81019000  0.39771000  1.0
  H  H14  1  0.71756000  0.71110000  0.32246000  1.0
  H  H15  1  0.78241000  0.28890000  0.82246000  1.0
  H  H16  1  0.28244000  0.28890000  0.67754000  1.0
  H  H17  1  0.21756000  0.71110000  0.17753000  1.0
  H  H18  1  0.50813000  0.69099000  0.09667000  1.0
  H  H19  1  0.99186000  0.30901000  0.59668000  1.0
  H  H20  1  0.49185000  0.30900000  0.90334000  1.0
  H  H21  1  0.00813000  0.69099000  0.40332000  1.0
  H  H22  1  0.46590000  0.52469000  0.05397000  1.0
  H  H23  1  0.03406000  0.47532000  0.55397000  1.0
  H  H24  1  0.53409000  0.47530000  0.94603000  1.0
  H  H25  1  0.96594000  0.52470000  0.44603000  1.0
  H  H26  1  0.85886000  0.42161000  0.21177000  1.0
  H  H27  1  0.64115000  0.57840000  0.71178000  1.0
  H  H28  1  0.14116000  0.57839000  0.78823000  1.0
  H  H29  1  0.35886000  0.42161000  0.28823000  1.0
  H  H30  1  0.88519000  0.58629000  0.26094000  1.0
  H  H31  1  0.61483000  0.41372000  0.76095000  1.0
  H  H32  1  0.11482000  0.41371000  0.73906000  1.0
  H  H33  1  0.38516000  0.58628000  0.23905000  1.0
  H  H34  1  0.36412000  0.89212000  0.48004000  1.0
  H  H35  1  0.13589000  0.10788000  0.98004000  1.0
  H  H36  1  0.63591000  0.10788000  0.51997000  1.0
  H  H37  1  0.86410000  0.89212000  0.01996000  1.0
  H  H38  1  0.27413000  0.82930000  0.54042000  1.0
  H  H39  1  0.22588000  0.17070000  0.04042000  1.0
  H  H40  1  0.72589000  0.17071000  0.45959000  1.0
  H  H41  1  0.77409000  0.82930000  0.95957000  1.0
  H  H42  1  0.01980000  0.75687000  0.56535000  1.0
  H  H43  1  0.48020000  0.24312000  0.06534000  1.0
  H  H44  1  0.98022000  0.24313000  0.43465000  1.0
  H  H45  1  0.51978000  0.75687000  0.93466000  1.0
  H  H46  1  0.04434000  0.85687000  0.61560000  1.0
  H  H47  1  0.45566000  0.14313000  0.11560000  1.0
  H  H48  1  0.95569000  0.14312000  0.38441000  1.0
  H  H49  1  0.54432000  0.85688000  0.88441000  1.0
  C  C50  1  0.76874000  0.86143000  0.30799000  1.0
  C  C51  1  0.73124000  0.13857000  0.80798000  1.0
  C  C52  1  0.23126000  0.13857000  0.69201000  1.0
  C  C53  1  0.26875000  0.86143000  0.19201000  1.0
  C  C54  1  0.78758000  0.93634000  0.25865000  1.0
  C  C55  1  0.71243000  0.06365000  0.75864000  1.0
  C  C56  1  0.21243000  0.06366000  0.74135000  1.0
  C  C57  1  0.28757000  0.93634000  0.24135000  1.0
  C  C58  1  0.77271000  0.91884000  0.18452000  1.0
  C  C59  1  0.72728000  0.08116000  0.68451000  1.0
  C  C60  1  0.22726000  0.08116000  0.81548000  1.0
  C  C61  1  0.27273000  0.91884000  0.31548000  1.0
  C  C62  1  0.74303000  0.82538000  0.15998000  1.0
  C  C63  1  0.75696000  0.17463000  0.65998000  1.0
  C  C64  1  0.25694000  0.17462000  0.84003000  1.0
  C  C65  1  0.24304000  0.82537000  0.34002000  1.0
  C  C66  1  0.72504000  0.74928000  0.20890000  1.0
  C  C67  1  0.77495000  0.25073000  0.70891000  1.0
  C  C68  1  0.27495000  0.25072000  0.79110000  1.0
  C  C69  1  0.22504000  0.74928000  0.29109000  1.0
  C  C70  1  0.73506000  0.76853000  0.28321000  1.0
  C  C71  1  0.76492000  0.23148000  0.78321000  1.0
  C  C72  1  0.26494000  0.23147000  0.71680000  1.0
  C  C73  1  0.23506000  0.76852000  0.21678000  1.0
  C  C74  1  0.79141000  0.88145000  0.38694000  1.0
  C  C75  1  0.70857000  0.11854000  0.88694000  1.0
  C  C76  1  0.20861000  0.11855000  0.61306000  1.0
  C  C77  1  0.29141000  0.88145000  0.11306000  1.0
  C  C78  1  0.78922000  0.00121000  0.13410000  1.0
  C  C79  1  0.71079000  0.99881000  0.63410000  1.0
  C  C80  1  0.21076000  0.99879000  0.86590000  1.0
  C  C81  1  0.28925000  0.00120000  0.36589000  1.0
  C  C82  1  0.70020000  0.65060000  0.18198000  1.0
  C  C83  1  0.79980000  0.34940000  0.68199000  1.0
  C  C84  1  0.29980000  0.34939000  0.81802000  1.0
  C  C85  1  0.20019000  0.65060000  0.31801000  1.0
  C  C86  1  0.58415000  0.63227000  0.12279000  1.0
  C  C87  1  0.91584000  0.36773000  0.62279000  1.0
  C  C88  1  0.41584000  0.36772000  0.87722000  1.0
  C  C89  1  0.08415000  0.63227000  0.37721000  1.0
  C  C90  1  0.56050000  0.53889000  0.09828000  1.0
  C  C91  1  0.93947000  0.46112000  0.59828000  1.0
  C  C92  1  0.43950000  0.46111000  0.90172000  1.0
  C  C93  1  0.06051000  0.53889000  0.40172000  1.0
  C  C94  1  0.66111000  0.46280000  0.12967000  1.0
  C  C95  1  0.83888000  0.53721000  0.62967000  1.0
  C  C96  1  0.33890000  0.53720000  0.87033000  1.0
  C  C97  1  0.16111000  0.46280000  0.37033000  1.0
  C  C98  1  0.77933000  0.48080000  0.18801000  1.0
  C  C99  1  0.72066000  0.51921000  0.68801000  1.0
  C  C100  1  0.22068000  0.51920000  0.81199000  1.0
  C  C101  1  0.27934000  0.48080000  0.31199000  1.0
  C  C102  1  0.79464000  0.57328000  0.21509000  1.0
  C  C103  1  0.70536000  0.42673000  0.71509000  1.0
  C  C104  1  0.20537000  0.42672000  0.78492000  1.0
  C  C105  1  0.29463000  0.57328000  0.28491000  1.0
  C  C106  1  0.64923000  0.36346000  0.10025000  1.0
  C  C107  1  0.85076000  0.63655000  0.60025000  1.0
  C  C108  1  0.35077000  0.63654000  0.89976000  1.0
  C  C109  1  0.14924000  0.36346000  0.39975000  1.0
  O  O110  1  0.75543000  0.81592000  0.43206000  1.0
  O  O111  1  0.74456000  0.18407000  0.93207000  1.0
  O  O112  1  0.24459000  0.18409000  0.56794000  1.0
  O  O113  1  0.25541000  0.81592000  0.06793000  1.0
  O  O114  1  0.38899000  0.83504000  0.51151000  1.0
  O  O115  1  0.11102000  0.16496000  0.01151000  1.0
  O  O116  1  0.61103000  0.16497000  0.48850000  1.0
  O  O117  1  0.88896000  0.83504000  0.98848000  1.0
  O  O118  1  0.03705000  0.83712000  0.56507000  1.0
  O  O119  1  0.46295000  0.16287000  0.06507000  1.0
  O  O120  1  0.96300000  0.16287000  0.43493000  1.0
  O  O121  1  0.53702000  0.83712000  0.93494000  1.0
  O  O122  1  0.85016000  0.96536000  0.40267000  1.0
  O  O123  1  0.64983000  0.03463000  0.90265000  1.0
  O  O124  1  0.14991000  0.03464000  0.59733000  1.0
  O  O125  1  0.35014000  0.96536000  0.09733000  1.0
  O  O126  1  0.80805000  0.08489000  0.15886000  1.0
  O  O127  1  0.69194000  0.91513000  0.65886000  1.0
  O  O128  1  0.19192000  0.91511000  0.84114000  1.0
  O  O129  1  0.30810000  0.08488000  0.34113000  1.0
  O  O130  1  0.78277000  0.98706000  0.06433000  1.0
  O  O131  1  0.71728000  0.01293000  0.56433000  1.0
  O  O132  1  0.21724000  0.01294000  0.93567000  1.0
  O  O133  1  0.28279000  0.98706000  0.43566000  1.0
  O  O134  1  0.49862000  0.33816000  0.06986000  1.0
  O  O135  1  0.00137000  0.66185000  0.56987000  1.0
  O  O136  1  0.50138000  0.66184000  0.93014000  1.0
  O  O137  1  0.99861000  0.33816000  0.43013000  1.0
  O  O138  1  0.79329000  0.30989000  0.10743000  1.0
  O  O139  1  0.70671000  0.69013000  0.60744000  1.0
  O  O140  1  0.20671000  0.69011000  0.89257000  1.0
  O  O141  1  0.29329000  0.30989000  0.39257000  1.0
