# generated using pymatgen
data_ZnH21C20N4O5
_symmetry_space_group_name_H-M   'P 1'
_cell_length_a   8.12693000
_cell_length_b   17.32130000
_cell_length_c   17.42350000
_cell_angle_alpha   90.00000000
_cell_angle_beta   89.99990000
_cell_angle_gamma   97.79740000
_symmetry_Int_Tables_number   1
_chemical_formula_structural   ZnH21C20N4O5
_chemical_formula_sum   'Zn4 H84 C80 N16 O20'
_cell_volume   2430.01097962
_cell_formula_units_Z   4
loop_
 _symmetry_equiv_pos_site_id
 _symmetry_equiv_pos_as_xyz
  1  'x, y, z'
loop_
 _atom_site_type_symbol
 _atom_site_label
 _atom_site_symmetry_multiplicity
 _atom_site_fract_x
 _atom_site_fract_y
 _atom_site_fract_z
 _atom_site_occupancy
  Zn  Zn0  1  0.39010000  0.26666000  0.19054000  1.0
  Zn  Zn1  1  0.10989000  0.23334000  0.69054000  1.0
  Zn  Zn2  1  0.60990000  0.73334000  0.80946000  1.0
  Zn  Zn3  1  0.89011000  0.76666000  0.30946000  1.0
  H  H4  1  0.66219000  0.49033000  0.21705000  1.0
  H  H5  1  0.83780000  0.00967000  0.71705000  1.0
  H  H6  1  0.33781000  0.50967000  0.78295000  1.0
  H  H7  1  0.16220000  0.99033000  0.28295000  1.0
  H  H8  1  0.14289000  0.61419000  0.16256000  1.0
  H  H9  1  0.35711000  0.88581000  0.66256000  1.0
  H  H10  1  0.85711000  0.38582000  0.83744000  1.0
  H  H11  1  0.64289000  0.11419000  0.33744000  1.0
  H  H12  1  0.99861000  0.38041000  0.07698000  1.0
  H  H13  1  0.50139000  0.11959000  0.57698000  1.0
  H  H14  1  0.00139000  0.61959000  0.92302000  1.0
  H  H15  1  0.49861000  0.88041000  0.42302000  1.0
  H  H16  1  0.03503000  0.45695000  0.32954000  1.0
  H  H17  1  0.46496000  0.04305000  0.82954000  1.0
  H  H18  1  0.96497000  0.54305000  0.67046000  1.0
  H  H19  1  0.53503000  0.95695000  0.17046000  1.0
  H  H20  1  0.33960000  0.43382000  0.26501000  1.0
  H  H21  1  0.16039000  0.06618000  0.76501000  1.0
  H  H22  1  0.66040000  0.56618000  0.73499000  1.0
  H  H23  1  0.83961000  0.93382000  0.23499000  1.0
  H  H24  1  0.00944000  0.22434000  0.25048000  1.0
  H  H25  1  0.49056000  0.27566000  0.75048000  1.0
  H  H26  1  0.99056000  0.77566000  0.74952000  1.0
  H  H27  1  0.50944000  0.72434000  0.24952000  1.0
  H  H28  1  0.75071000  0.37460000  0.32632000  1.0
  H  H29  1  0.74928000  0.12540000  0.82632000  1.0
  H  H30  1  0.24928000  0.62540000  0.67368000  1.0
  H  H31  1  0.25072000  0.87460000  0.17368000  1.0
  H  H32  1  0.72977000  0.28115000  0.28404000  1.0
  H  H33  1  0.77023000  0.21885000  0.78404000  1.0
  H  H34  1  0.27023000  0.71885000  0.71596000  1.0
  H  H35  1  0.22977000  0.78115000  0.21596000  1.0
  H  H36  1  0.87325000  0.31817000  0.44535000  1.0
  H  H37  1  0.62675000  0.18182000  0.94535000  1.0
  H  H38  1  0.12675000  0.68182000  0.55465000  1.0
  H  H39  1  0.37325000  0.81817000  0.05465000  1.0
  H  H40  1  0.85456000  0.22666000  0.39954000  1.0
  H  H41  1  0.64544000  0.27334000  0.89954000  1.0
  H  H42  1  0.14544000  0.77334000  0.60046000  1.0
  H  H43  1  0.35456000  0.72666000  0.10046000  1.0
  H  H44  1  0.54595000  0.22000000  0.39639000  1.0
  H  H45  1  0.95405000  0.28000000  0.89639000  1.0
  H  H46  1  0.45405000  0.78000000  0.60361000  1.0
  H  H47  1  0.04595000  0.72000000  0.10361000  1.0
  H  H48  1  0.63254000  0.22613000  0.49063000  1.0
  H  H49  1  0.86746000  0.27387000  0.99063000  1.0
  H  H50  1  0.36746000  0.77387000  0.50936000  1.0
  H  H51  1  0.13254000  0.72613000  0.00936000  1.0
  H  H52  1  0.99311000  0.22236000  0.51758000  1.0
  H  H53  1  0.50688000  0.27764000  0.01758000  1.0
  H  H54  1  0.00689000  0.77764000  0.48242000  1.0
  H  H55  1  0.49312000  0.72236000  0.98242000  1.0
  H  H56  1  0.44844000  0.32290000  0.61221000  1.0
  H  H57  1  0.05156000  0.17710000  0.11222000  1.0
  H  H58  1  0.55156000  0.67710000  0.38779000  1.0
  H  H59  1  0.94844000  0.82290000  0.88778000  1.0
  H  H60  1  0.50596000  0.36034000  0.40227000  1.0
  H  H61  1  0.99404000  0.13966000  0.90227000  1.0
  H  H62  1  0.49404000  0.63966000  0.59773000  1.0
  H  H63  1  0.00596000  0.86034000  0.09773000  1.0
  H  H64  1  0.60984000  0.37016000  0.49235000  1.0
  H  H65  1  0.89016000  0.12984000  0.99235000  1.0
  H  H66  1  0.39016000  0.62984000  0.50765000  1.0
  H  H67  1  0.10984000  0.87016000  0.00765000  1.0
  H  H68  1  0.21863000  0.26695000  0.39744000  1.0
  H  H69  1  0.28137000  0.23305000  0.89744000  1.0
  H  H70  1  0.78137000  0.73304000  0.60256000  1.0
  H  H71  1  0.71863000  0.76695000  0.10256000  1.0
  H  H72  1  0.22165000  0.43438000  0.98731000  1.0
  H  H73  1  0.27835000  0.06562000  0.48731000  1.0
  H  H74  1  0.77835000  0.56562000  0.01269000  1.0
  H  H75  1  0.72165000  0.93438000  0.51269000  1.0
  H  H76  1  0.27131000  0.39084000  0.07617000  1.0
  H  H77  1  0.22869000  0.10916000  0.57617000  1.0
  H  H78  1  0.72868000  0.60916000  0.92383000  1.0
  H  H79  1  0.77131000  0.89084000  0.42383000  1.0
  H  H80  1  0.54345000  0.47243000  0.08040000  1.0
  H  H81  1  0.95655000  0.02757000  0.58040000  1.0
  H  H82  1  0.45655000  0.52757000  0.91960000  1.0
  H  H83  1  0.04345000  0.97243000  0.41960000  1.0
  H  H84  1  0.52226000  0.41345000  0.99742000  1.0
  H  H85  1  0.97773000  0.08655000  0.49742000  1.0
  H  H86  1  0.47773000  0.58655000  0.00258000  1.0
  H  H87  1  0.02227000  0.91345000  0.50258000  1.0
  C  C88  1  0.85289000  0.62873000  0.23734000  1.0
  C  C89  1  0.64710000  0.87127000  0.73734000  1.0
  C  C90  1  0.14711000  0.37127000  0.76266000  1.0
  C  C91  1  0.35290000  0.12873000  0.26266000  1.0
  C  C92  1  0.89692000  0.55987000  0.19349000  1.0
  C  C93  1  0.60308000  0.94013000  0.69349000  1.0
  C  C94  1  0.10308000  0.44013000  0.80651000  1.0
  C  C95  1  0.39692000  0.05987000  0.30651000  1.0
  C  C96  1  0.78191000  0.49214000  0.18877000  1.0
  C  C97  1  0.71808000  0.00785000  0.68877000  1.0
  C  C98  1  0.21808000  0.50786000  0.81122000  1.0
  C  C99  1  0.28192000  0.99215000  0.31123000  1.0
  C  C100  1  0.82066000  0.42794000  0.14743000  1.0
  C  C101  1  0.67934000  0.07206000  0.64743000  1.0
  C  C102  1  0.17934000  0.57207000  0.85257000  1.0
  C  C103  1  0.32067000  0.92794000  0.35257000  1.0
  C  C104  1  0.08925000  0.49878000  0.11482000  1.0
  C  C105  1  0.41075000  0.00122000  0.61482000  1.0
  C  C106  1  0.91076000  0.50122000  0.88518000  1.0
  C  C107  1  0.58925000  0.99878000  0.38518000  1.0
  C  C108  1  0.05079000  0.56267000  0.15742000  1.0
  C  C109  1  0.44920000  0.93733000  0.65742000  1.0
  C  C110  1  0.94921000  0.43733000  0.84258000  1.0
  C  C111  1  0.55080000  0.06267000  0.34259000  1.0
  C  C112  1  0.97360000  0.43125000  0.10937000  1.0
  C  C113  1  0.52640000  0.06875000  0.60937000  1.0
  C  C114  1  0.02640000  0.56875000  0.89063000  1.0
  C  C115  1  0.47360000  0.93125000  0.39063000  1.0
  C  C116  1  0.69786000  0.35457000  0.14357000  1.0
  C  C117  1  0.80214000  0.14543000  0.64357000  1.0
  C  C118  1  0.30214000  0.64543000  0.85643000  1.0
  C  C119  1  0.19786000  0.85457000  0.35643000  1.0
  C  C120  1  0.07739000  0.40563000  0.30508000  1.0
  C  C121  1  0.42261000  0.09437000  0.80508000  1.0
  C  C122  1  0.92261000  0.59437000  0.69492000  1.0
  C  C123  1  0.57739000  0.90563000  0.19492000  1.0
  C  C124  1  0.22651000  0.39363000  0.27316000  1.0
  C  C125  1  0.27349000  0.10637000  0.77316000  1.0
  C  C126  1  0.77349000  0.60637000  0.72684000  1.0
  C  C127  1  0.72651000  0.89363000  0.22684000  1.0
  C  C128  1  0.05886000  0.28446000  0.26262000  1.0
  C  C129  1  0.44114000  0.21554000  0.76262000  1.0
  C  C130  1  0.94114000  0.71554000  0.73738000  1.0
  C  C131  1  0.55886000  0.78446000  0.23738000  1.0
  C  C132  1  0.80218000  0.31921000  0.32577000  1.0
  C  C133  1  0.69782000  0.18079000  0.82577000  1.0
  C  C134  1  0.19782000  0.68079000  0.67423000  1.0
  C  C135  1  0.30218000  0.81921000  0.17423000  1.0
  C  C136  1  0.79660000  0.28032000  0.40456000  1.0
  C  C137  1  0.70339000  0.21968000  0.90456000  1.0
  C  C138  1  0.20339000  0.71968000  0.59544000  1.0
  C  C139  1  0.29661000  0.78032000  0.09544000  1.0
  C  C140  1  0.62201000  0.25843000  0.43684000  1.0
  C  C141  1  0.87799000  0.24157000  0.93684000  1.0
  C  C142  1  0.37799000  0.74157000  0.56316000  1.0
  C  C143  1  0.12201000  0.75843000  0.06316000  1.0
  C  C144  1  0.12166000  0.24891000  0.51805000  1.0
  C  C145  1  0.37834000  0.25109000  0.01805000  1.0
  C  C146  1  0.87834000  0.75108000  0.48195000  1.0
  C  C147  1  0.62166000  0.74891000  0.98195000  1.0
  C  C148  1  0.35421000  0.30078000  0.57080000  1.0
  C  C149  1  0.14579000  0.19922000  0.07080000  1.0
  C  C150  1  0.64579000  0.69922000  0.42920000  1.0
  C  C151  1  0.85421000  0.80078000  0.92920000  1.0
  C  C152  1  0.53367000  0.32887000  0.45449000  1.0
  C  C153  1  0.96632000  0.17113000  0.95449000  1.0
  C  C154  1  0.46633000  0.67113000  0.54551000  1.0
  C  C155  1  0.03367000  0.82887000  0.04551000  1.0
  C  C156  1  0.23025000  0.27145000  0.45931000  1.0
  C  C157  1  0.26975000  0.22855000  0.95931000  1.0
  C  C158  1  0.76975000  0.72855000  0.54069000  1.0
  C  C159  1  0.73025000  0.77145000  0.04069000  1.0
  C  C160  1  0.29470000  0.44385000  0.04078000  1.0
  C  C161  1  0.20530000  0.05615000  0.54078000  1.0
  C  C162  1  0.70530000  0.55615000  0.95922000  1.0
  C  C163  1  0.79471000  0.94385000  0.45922000  1.0
  C  C164  1  0.47873000  0.46401000  0.02509000  1.0
  C  C165  1  0.02127000  0.03599000  0.52509000  1.0
  C  C166  1  0.52126000  0.53599000  0.97491000  1.0
  C  C167  1  0.97874000  0.96401000  0.47491000  1.0
  N  N168  1  0.21329000  0.31765000  0.24711000  1.0
  N  N169  1  0.28671000  0.18235000  0.74711000  1.0
  N  N170  1  0.78671000  0.68235000  0.75289000  1.0
  N  N171  1  0.71329000  0.81765000  0.25289000  1.0
  N  N172  1  0.97284000  0.33624000  0.29751000  1.0
  N  N173  1  0.52715000  0.16376000  0.79751000  1.0
  N  N174  1  0.02715000  0.66376000  0.70249000  1.0
  N  N175  1  0.47285000  0.83624000  0.20249000  1.0
  N  N176  1  0.20055000  0.26749000  0.58706000  1.0
  N  N177  1  0.29944000  0.23251000  0.08706000  1.0
  N  N178  1  0.79944000  0.73251000  0.41294000  1.0
  N  N179  1  0.70055000  0.76749000  0.91294000  1.0
  N  N180  1  0.37642000  0.30445000  0.49379000  1.0
  N  N181  1  0.12358000  0.19555000  0.99379000  1.0
  N  N182  1  0.62358000  0.69555000  0.50621000  1.0
  N  N183  1  0.87642000  0.80445000  0.00621000  1.0
  O  O184  1  0.56241000  0.35757000  0.18280000  1.0
  O  O185  1  0.93759000  0.14243000  0.68280000  1.0
  O  O186  1  0.43759000  0.64243000  0.81720000  1.0
  O  O187  1  0.06241000  0.85757000  0.31720000  1.0
  O  O188  1  0.72910000  0.29700000  0.10558000  1.0
  O  O189  1  0.77090000  0.20300000  0.60558000  1.0
  O  O190  1  0.27091000  0.70300000  0.89442000  1.0
  O  O191  1  0.22910000  0.79700000  0.39442000  1.0
  O  O192  1  0.24287000  0.50832000  0.08223000  1.0
  O  O193  1  0.25713000  0.99168000  0.58223000  1.0
  O  O194  1  0.75713000  0.49168000  0.91777000  1.0
  O  O195  1  0.74288000  0.00832000  0.41777000  1.0
  O  O196  1  0.71034000  0.62815000  0.26505000  1.0
  O  O197  1  0.78965000  0.87184000  0.76505000  1.0
  O  O198  1  0.28966000  0.37185000  0.73495000  1.0
  O  O199  1  0.21034000  0.12816000  0.23495000  1.0
  O  O200  1  0.97123000  0.68732000  0.24370000  1.0
  O  O201  1  0.52877000  0.81268000  0.74370000  1.0
  O  O202  1  0.02877000  0.31268000  0.75630000  1.0
  O  O203  1  0.47123000  0.18732000  0.25630000  1.0
