# generated using pymatgen
data_Zn3H16C38(NO10)2
_symmetry_space_group_name_H-M   'P 1'
_cell_length_a   18.13140000
_cell_length_b   18.41520000
_cell_length_c   18.80480000
_cell_angle_alpha   108.53600000
_cell_angle_beta   108.77700000
_cell_angle_gamma   108.42800000
_symmetry_Int_Tables_number   1
_chemical_formula_structural   Zn3H16C38(NO10)2
_chemical_formula_sum   'Zn6 H32 C76 N4 O40'
_cell_volume   4986.43914588
_cell_formula_units_Z   2
loop_
 _symmetry_equiv_pos_site_id
 _symmetry_equiv_pos_as_xyz
  1  'x, y, z'
loop_
 _atom_site_type_symbol
 _atom_site_label
 _atom_site_symmetry_multiplicity
 _atom_site_fract_x
 _atom_site_fract_y
 _atom_site_fract_z
 _atom_site_occupancy
  Zn  Zn0  1  0.51033000  0.43500000  0.46115000  1.0
  Zn  Zn1  1  0.49655000  0.56686000  0.56465000  1.0
  Zn  Zn2  1  0.94963000  0.43868000  0.01924000  1.0
  Zn  Zn3  1  0.06755000  0.54832000  0.99578000  1.0
  Zn  Zn4  1  0.92416000  0.99401000  0.42181000  1.0
  Zn  Zn5  1  0.05736000  0.99877000  0.54449000  1.0
  H  H6  1  0.21048000  0.36505000  0.29918000  1.0
  H  H7  1  0.77573000  0.50514000  0.66014000  1.0
  H  H8  1  0.48017000  0.54303000  0.32034000  1.0
  H  H9  1  0.51274000  0.43368000  0.68532000  1.0
  H  H10  1  0.52351000  0.61525000  0.23830000  1.0
  H  H11  1  0.46603000  0.40141000  0.78741000  1.0
  H  H12  1  0.09506000  0.37157000  0.18911000  1.0
  H  H13  1  0.88402000  0.51150000  0.78693000  1.0
  H  H14  1  0.59327000  0.74385000  0.45850000  1.0
  H  H15  1  0.36500000  0.29619000  0.57058000  1.0
  H  H16  1  0.74317000  0.60446000  0.57484000  1.0
  H  H17  1  0.25163000  0.46469000  0.46713000  1.0
  H  H18  1  0.88821000  0.60905000  0.60811000  1.0
  H  H19  1  0.10274000  0.44677000  0.39002000  1.0
  H  H20  1  0.99100000  0.69973000  0.57197000  1.0
  H  H21  1  0.96989000  0.31808000  0.35591000  1.0
  H  H22  1  0.95083000  0.78752000  0.50938000  1.0
  H  H23  1  0.98642000  0.20763000  0.39770000  1.0
  H  H24  1  0.69705000  0.83798000  0.42664000  1.0
  H  H25  1  0.23455000  0.17598000  0.54894000  1.0
  H  H26  1  0.08344000  0.66541000  0.28662000  1.0
  H  H27  1  0.00882000  0.36795000  0.73326000  1.0
  H  H28  1  0.99764000  0.71442000  0.04546000  1.0
  H  H29  1  0.02758000  0.29430000  0.95989000  1.0
  H  H30  1  0.96850000  0.82752000  0.01731000  1.0
  H  H31  1  0.02813000  0.17028000  0.98210000  1.0
  H  H32  1  0.01189000  0.96628000  0.14094000  1.0
  H  H33  1  0.99236000  0.03464000  0.86069000  1.0
  H  H34  1  0.17799000  0.09399000  0.40992000  1.0
  H  H35  1  0.94394000  0.89303000  0.66538000  1.0
  H  H36  1  0.19134000  0.51188000  0.94114000  1.0
  H  H37  1  0.85780000  0.57370000  0.07808000  1.0
  C  C38  1  0.61394000  0.63257000  0.51737000  1.0
  C  C39  1  0.37194000  0.42113000  0.53113000  1.0
  C  C40  1  0.38670000  0.45554000  0.36183000  1.0
  C  C41  1  0.61337000  0.48154000  0.62286000  1.0
  C  C42  1  0.42984000  0.53728000  0.26485000  1.0
  C  C43  1  0.56023000  0.43968000  0.74276000  1.0
  C  C44  1  0.45467000  0.57635000  0.21950000  1.0
  C  C45  1  0.53405000  0.42295000  0.79915000  1.0
  C  C46  1  0.38844000  0.55948000  0.14294000  1.0
  C  C47  1  0.59822000  0.43838000  0.87617000  1.0
  C  C48  1  0.29917000  0.51278000  0.11527000  1.0
  C  C49  1  0.68592000  0.46426000  0.89626000  1.0
  C  C50  1  0.27195000  0.48198000  0.16841000  1.0
  C  C51  1  0.71198000  0.47166000  0.83328000  1.0
  C  C52  1  0.33942000  0.48836000  0.23983000  1.0
  C  C53  1  0.64857000  0.46454000  0.75790000  1.0
  C  C54  1  0.31531000  0.44504000  0.28558000  1.0
  C  C55  1  0.67410000  0.47925000  0.69734000  1.0
  C  C56  1  0.22828000  0.39856000  0.26415000  1.0
  C  C57  1  0.75755000  0.49558000  0.70760000  1.0
  C  C58  1  0.16305000  0.40067000  0.20094000  1.0
  C  C59  1  0.81840000  0.49946000  0.77902000  1.0
  C  C60  1  0.18278000  0.44313000  0.15518000  1.0
  C  C61  1  0.79728000  0.48694000  0.84037000  1.0
  C  C62  1  0.78892000  0.64580000  0.56156000  1.0
  C  C63  1  0.19361000  0.40807000  0.45113000  1.0
  C  C64  1  0.86976000  0.64800000  0.57978000  1.0
  C  C65  1  0.11047000  0.39802000  0.40843000  1.0
  C  C66  1  0.92797000  0.69954000  0.56022000  1.0
  C  C67  1  0.03546000  0.32532000  0.38919000  1.0
  C  C68  1  0.90552000  0.74948000  0.52491000  1.0
  C  C69  1  0.04414000  0.26341000  0.41245000  1.0
  C  C70  1  0.82359000  0.75081000  0.50694000  1.0
  C  C71  1  0.12847000  0.27102000  0.45612000  1.0
  C  C72  1  0.76319000  0.69567000  0.52428000  1.0
  C  C73  1  0.20509000  0.34563000  0.47621000  1.0
  C  C74  1  0.67968000  0.69423000  0.50562000  1.0
  C  C75  1  0.29019000  0.35284000  0.51766000  1.0
  C  C76  1  0.65684000  0.74500000  0.47144000  1.0
  C  C77  1  0.29984000  0.29104000  0.54095000  1.0
  C  C78  1  0.71511000  0.79768000  0.45296000  1.0
  C  C79  1  0.22608000  0.22172000  0.52619000  1.0
  C  C80  1  0.79733000  0.80229000  0.47082000  1.0
  C  C81  1  0.14127000  0.20956000  0.48305000  1.0
  C  C82  1  0.04579000  0.63778000  0.12711000  1.0
  C  C83  1  0.01476000  0.38830000  0.88130000  1.0
  C  C84  1  0.11077000  0.45584000  0.10367000  1.0
  C  C85  1  0.86774000  0.48524000  0.90732000  1.0
  C  C86  1  0.99841000  0.09925000  0.62060000  1.0
  C  C87  1  0.04456000  0.90795000  0.39214000  1.0
  C  C88  1  0.85944000  0.86858000  0.46000000  1.0
  C  C89  1  0.06997000  0.13058000  0.47064000  1.0
  C  C90  1  0.00821000  0.77141000  0.09704000  1.0
  C  C91  1  0.01759000  0.23788000  0.90858000  1.0
  C  C92  1  0.99296000  0.83477000  0.08152000  1.0
  C  C93  1  0.01709000  0.16796000  0.92072000  1.0
  C  C94  1  0.01472000  0.91149000  0.15011000  1.0
  C  C95  1  0.99885000  0.09223000  0.85309000  1.0
  C  C96  1  0.04479000  0.92210000  0.23228000  1.0
  C  C97  1  0.98468000  0.08819000  0.77477000  1.0
  C  C98  1  0.04814000  0.85196000  0.24860000  1.0
  C  C99  1  0.99477000  0.16343000  0.76304000  1.0
  C  C100  1  0.03730000  0.77893000  0.18007000  1.0
  C  C101  1  0.00636000  0.23804000  0.83029000  1.0
  C  C102  1  0.05276000  0.71292000  0.19583000  1.0
  C  C103  1  0.01025000  0.31178000  0.81766000  1.0
  C  C104  1  0.07216000  0.71579000  0.27410000  1.0
  C  C105  1  0.00606000  0.31238000  0.74346000  1.0
  C  C106  1  0.07250000  0.78242000  0.33692000  1.0
  C  C107  1  0.00092000  0.24140000  0.68161000  1.0
  C  C108  1  0.05916000  0.84938000  0.32688000  1.0
  C  C109  1  0.99659000  0.16788000  0.68897000  1.0
  C  C110  1  0.08432000  0.01316000  0.29884000  1.0
  C  C111  1  0.94349000  0.00112000  0.70102000  1.0
  C  C112  1  0.23454000  0.48077000  0.02536000  1.0
  C  C113  1  0.74856000  0.48525000  0.98389000  1.0
  N  N114  1  0.08128000  0.77180000  0.41356000  1.0
  N  N115  1  0.00783000  0.25327000  0.60973000  1.0
  N  N116  1  0.42047000  0.58926000  0.08911000  1.0
  N  N117  1  0.56716000  0.42940000  0.93829000  1.0
  O  O118  1  0.59352000  0.55305000  0.47868000  1.0
  O  O119  1  0.39462000  0.50182000  0.57333000  1.0
  O  O120  1  0.58136000  0.66243000  0.56412000  1.0
  O  O121  1  0.41605000  0.39337000  0.49990000  1.0
  O  O122  1  0.42045000  0.40377000  0.35025000  1.0
  O  O123  1  0.58528000  0.53666000  0.63820000  1.0
  O  O124  1  0.40856000  0.51602000  0.43227000  1.0
  O  O125  1  0.59710000  0.42892000  0.54894000  1.0
  O  O126  1  0.99166000  0.56277000  0.10985000  1.0
  O  O127  1  0.06280000  0.46512000  0.89394000  1.0
  O  O128  1  0.09357000  0.65437000  0.09134000  1.0
  O  O129  1  0.96915000  0.37451000  0.91858000  1.0
  O  O130  1  0.03167000  0.41127000  0.08945000  1.0
  O  O131  1  0.94663000  0.53707000  0.93048000  1.0
  O  O132  1  0.13161000  0.51346000  0.08016000  1.0
  O  O133  1  0.84548000  0.42984000  0.93400000  1.0
  O  O134  1  0.94484000  0.07375000  0.54480000  1.0
  O  O135  1  0.09408000  0.93259000  0.47059000  1.0
  O  O136  1  0.05731000  0.07532000  0.64535000  1.0
  O  O137  1  0.98122000  0.92381000  0.36390000  1.0
  O  O138  1  0.82773000  0.89506000  0.40750000  1.0
  O  O139  1  0.09681000  0.09619000  0.51551000  1.0
  O  O140  1  0.94158000  0.89806000  0.50575000  1.0
  O  O141  1  0.98869000  0.09863000  0.41680000  1.0
  O  O142  1  0.06356000  0.06736000  0.28842000  1.0
  O  O143  1  0.15369000  0.03225000  0.37071000  1.0
  O  O144  1  0.88058000  0.97703000  0.63355000  1.0
  O  O145  1  0.97763000  0.94898000  0.71739000  1.0
  O  O146  1  0.01475000  0.75056000  0.42321000  1.0
  O  O147  1  0.15306000  0.78017000  0.45919000  1.0
  O  O148  1  0.07420000  0.25603000  0.60294000  1.0
  O  O149  1  0.94987000  0.26410000  0.56481000  1.0
  O  O150  1  0.47407000  0.66673000  0.12336000  1.0
  O  O151  1  0.39393000  0.53459000  0.01591000  1.0
  O  O152  1  0.50416000  0.35903000  0.91259000  1.0
  O  O153  1  0.60403000  0.49298000  0.00884000  1.0
  O  O154  1  0.18521000  0.40356000  0.97815000  1.0
  O  O155  1  0.23821000  0.54272000  0.00078000  1.0
  O  O156  1  0.73827000  0.43796000  0.01649000  1.0
  O  O157  1  0.81724000  0.56623000  0.02369000  1.0
