# generated using pymatgen
data_HgH8C5(IN)2
_symmetry_space_group_name_H-M   'P 1'
_cell_length_a   8.45704000
_cell_length_b   15.71760000
_cell_length_c   15.76400000
_cell_angle_alpha   90.00000000
_cell_angle_beta   89.99990000
_cell_angle_gamma   99.52300000
_symmetry_Int_Tables_number   1
_chemical_formula_structural   HgH8C5(IN)2
_chemical_formula_sum   'Hg8 H64 C40 I16 N16'
_cell_volume   2066.54337943
_cell_formula_units_Z   8
loop_
 _symmetry_equiv_pos_site_id
 _symmetry_equiv_pos_as_xyz
  1  'x, y, z'
loop_
 _atom_site_type_symbol
 _atom_site_label
 _atom_site_symmetry_multiplicity
 _atom_site_fract_x
 _atom_site_fract_y
 _atom_site_fract_z
 _atom_site_occupancy
  Hg  Hg0  1  0.10154000  0.44726000  0.70293000  1.0
  Hg  Hg1  1  0.89847000  0.05274000  0.20293000  1.0
  Hg  Hg2  1  0.89847000  0.55274000  0.29707000  1.0
  Hg  Hg3  1  0.10153000  0.94726000  0.79707000  1.0
  Hg  Hg4  1  0.49847000  0.21782000  0.74155000  1.0
  Hg  Hg5  1  0.50153000  0.28218000  0.24155000  1.0
  Hg  Hg6  1  0.50153000  0.78218000  0.25845000  1.0
  Hg  Hg7  1  0.49847000  0.71782000  0.75845000  1.0
  H  H8  1  0.91292000  0.60908000  0.72606000  1.0
  H  H9  1  0.08708000  0.89092000  0.22606000  1.0
  H  H10  1  0.08708000  0.39092000  0.27394000  1.0
  H  H11  1  0.91292000  0.10908000  0.77394000  1.0
  H  H12  1  0.79703000  0.62197000  0.81814000  1.0
  H  H13  1  0.20296000  0.87803000  0.31814000  1.0
  H  H14  1  0.20297000  0.37803000  0.18186000  1.0
  H  H15  1  0.79703000  0.12197000  0.68186000  1.0
  H  H16  1  0.78549000  0.51725000  0.77237000  1.0
  H  H17  1  0.21452000  0.98275000  0.27237000  1.0
  H  H18  1  0.21451000  0.48275000  0.22763000  1.0
  H  H19  1  0.78548000  0.01725000  0.72763000  1.0
  H  H20  1  0.95901000  0.64366000  0.94606000  1.0
  H  H21  1  0.04099000  0.85634000  0.44606000  1.0
  H  H22  1  0.04099000  0.35634000  0.05394000  1.0
  H  H23  1  0.95901000  0.14366000  0.55394000  1.0
  H  H24  1  0.23382000  0.58484000  0.00503000  1.0
  H  H25  1  0.76618000  0.91516000  0.50503000  1.0
  H  H26  1  0.76618000  0.41516000  0.99497000  1.0
  H  H27  1  0.23382000  0.08484000  0.49498000  1.0
  H  H28  1  0.30713000  0.40722000  0.92045000  1.0
  H  H29  1  0.69287000  0.09278000  0.42045000  1.0
  H  H30  1  0.69287000  0.59278000  0.07955000  1.0
  H  H31  1  0.30713000  0.90722000  0.57956000  1.0
  H  H32  1  0.43678000  0.50975000  0.93054000  1.0
  H  H33  1  0.56322000  0.99025000  0.43054000  1.0
  H  H34  1  0.56322000  0.49025000  0.06946000  1.0
  H  H35  1  0.43678000  0.00975000  0.56946000  1.0
  H  H36  1  0.39398000  0.46312000  0.82848000  1.0
  H  H37  1  0.60602000  0.03688000  0.32849000  1.0
  H  H38  1  0.60602000  0.53688000  0.17151000  1.0
  H  H39  1  0.39397000  0.96312000  0.67152000  1.0
  H  H40  1  0.72119000  0.40186000  0.63085000  1.0
  H  H41  1  0.27882000  0.09814000  0.13085000  1.0
  H  H42  1  0.27882000  0.59814000  0.36914000  1.0
  H  H43  1  0.72118000  0.90186000  0.86915000  1.0
  H  H44  1  0.68309000  0.44079000  0.52738000  1.0
  H  H45  1  0.31692000  0.05921000  0.02738000  1.0
  H  H46  1  0.31692000  0.55921000  0.47262000  1.0
  H  H47  1  0.68308000  0.94079000  0.97262000  1.0
  H  H48  1  0.81881000  0.50631000  0.59687000  1.0
  H  H49  1  0.18120000  0.99369000  0.09687000  1.0
  H  H50  1  0.18119000  0.49369000  0.40313000  1.0
  H  H51  1  0.81881000  0.00631000  0.90313000  1.0
  H  H52  1  0.79635000  0.35464000  0.42243000  1.0
  H  H53  1  0.20366000  0.14536000  0.92242000  1.0
  H  H54  1  0.20366000  0.64536000  0.57757000  1.0
  H  H55  1  0.79634000  0.85464000  0.07757000  1.0
  H  H56  1  0.08868000  0.29405000  0.40511000  1.0
  H  H57  1  0.91132000  0.20595000  0.90511000  1.0
  H  H58  1  0.91132000  0.70595000  0.59489000  1.0
  H  H59  1  0.08868000  0.79405000  0.09489000  1.0
  H  H60  1  0.36047000  0.34584000  0.48378000  1.0
  H  H61  1  0.63953000  0.15416000  0.98378000  1.0
  H  H62  1  0.63953000  0.65416000  0.51622000  1.0
  H  H63  1  0.36047000  0.84584000  0.01622000  1.0
  H  H64  1  0.28185000  0.26726000  0.56166000  1.0
  H  H65  1  0.71816000  0.23274000  0.06166000  1.0
  H  H66  1  0.71815000  0.73274000  0.43834000  1.0
  H  H67  1  0.28185000  0.76726000  0.93834000  1.0
  H  H68  1  0.34952000  0.37639000  0.59273000  1.0
  H  H69  1  0.65048000  0.12361000  0.09273000  1.0
  H  H70  1  0.65048000  0.62361000  0.40727000  1.0
  H  H71  1  0.34951000  0.87639000  0.90727000  1.0
  C  C72  1  0.10537000  0.51235000  0.81882000  1.0
  C  C73  1  0.89463000  0.98765000  0.31882000  1.0
  C  C74  1  0.89463000  0.48765000  0.18118000  1.0
  C  C75  1  0.10537000  0.01235000  0.68118000  1.0
  C  C76  1  0.86495000  0.57845000  0.78522000  1.0
  C  C77  1  0.13505000  0.92155000  0.28522000  1.0
  C  C78  1  0.13505000  0.42155000  0.21478000  1.0
  C  C79  1  0.86495000  0.07845000  0.71478000  1.0
  C  C80  1  0.03178000  0.60021000  0.91833000  1.0
  C  C81  1  0.96822000  0.89979000  0.41833000  1.0
  C  C82  1  0.96822000  0.39979000  0.08167000  1.0
  C  C83  1  0.03178000  0.10021000  0.58167000  1.0
  C  C84  1  0.16561000  0.57091000  0.94695000  1.0
  C  C85  1  0.83439000  0.92909000  0.44695000  1.0
  C  C86  1  0.83439000  0.42909000  0.05305000  1.0
  C  C87  1  0.16561000  0.07091000  0.55305000  1.0
  C  C88  1  0.34465000  0.47088000  0.89169000  1.0
  C  C89  1  0.65535000  0.02912000  0.39169000  1.0
  C  C90  1  0.65535000  0.52912000  0.10831000  1.0
  C  C91  1  0.34465000  0.97088000  0.60832000  1.0
  C  C92  1  0.04642000  0.39847000  0.58082000  1.0
  C  C93  1  0.95358000  0.10153000  0.08082000  1.0
  C  C94  1  0.95359000  0.60153000  0.41918000  1.0
  C  C95  1  0.04641000  0.89847000  0.91918000  1.0
  C  C96  1  0.77414000  0.44005000  0.57656000  1.0
  C  C97  1  0.22586000  0.05995000  0.07656000  1.0
  C  C98  1  0.22586000  0.55995000  0.42344000  1.0
  C  C99  1  0.77414000  0.94005000  0.92344000  1.0
  C  C100  1  0.89992000  0.35999000  0.46378000  1.0
  C  C101  1  0.10008000  0.14001000  0.96377000  1.0
  C  C102  1  0.10008000  0.64001000  0.53622000  1.0
  C  C103  1  0.89991000  0.85999000  0.03622000  1.0
  C  C104  1  0.04272000  0.33083000  0.45508000  1.0
  C  C105  1  0.95728000  0.16916000  0.95507000  1.0
  C  C106  1  0.95728000  0.66917000  0.54493000  1.0
  C  C107  1  0.04272000  0.83083000  0.04493000  1.0
  C  C108  1  0.29046000  0.33483000  0.54243000  1.0
  C  C109  1  0.70954000  0.16517000  0.04243000  1.0
  C  C110  1  0.70954000  0.66517000  0.45757000  1.0
  C  C111  1  0.29046000  0.83483000  0.95757000  1.0
  I  I112  1  0.19339000  0.26640000  0.76491000  1.0
  I  I113  1  0.80661000  0.23360000  0.26491000  1.0
  I  I114  1  0.80661000  0.73360000  0.23509000  1.0
  I  I115  1  0.19339000  0.76640000  0.73509000  1.0
  I  I116  1  0.46699000  0.05772000  0.83885000  1.0
  I  I117  1  0.53300000  0.44228000  0.33885000  1.0
  I  I118  1  0.53300000  0.94228000  0.16115000  1.0
  I  I119  1  0.46700000  0.55772000  0.66115000  1.0
  I  I120  1  0.59761000  0.19902000  0.57329000  1.0
  I  I121  1  0.40240000  0.30098000  0.07329000  1.0
  I  I122  1  0.40239000  0.80098000  0.42671000  1.0
  I  I123  1  0.59760000  0.69902000  0.92671000  1.0
  I  I124  1  0.73905000  0.33480000  0.82562000  1.0
  I  I125  1  0.26095000  0.16520000  0.32562000  1.0
  I  I126  1  0.26095000  0.66520000  0.17438000  1.0
  I  I127  1  0.73905000  0.83480000  0.67438000  1.0
  N  N128  1  0.99671000  0.56319000  0.83966000  1.0
  N  N129  1  0.00329000  0.93681000  0.33966000  1.0
  N  N130  1  0.00329000  0.43681000  0.16034000  1.0
  N  N131  1  0.99671000  0.06319000  0.66034000  1.0
  N  N132  1  0.20892000  0.51697000  0.88488000  1.0
  N  N133  1  0.79109000  0.98303000  0.38488000  1.0
  N  N134  1  0.79108000  0.48303000  0.11512000  1.0
  N  N135  1  0.20891000  0.01697000  0.61513000  1.0
  N  N136  1  0.90518000  0.40162000  0.54106000  1.0
  N  N137  1  0.09483000  0.09838000  0.04105000  1.0
  N  N138  1  0.09483000  0.59838000  0.45894000  1.0
  N  N139  1  0.90517000  0.90162000  0.95895000  1.0
  N  N140  1  0.13095000  0.35542000  0.52754000  1.0
  N  N141  1  0.86906000  0.14458000  0.02754000  1.0
  N  N142  1  0.86906000  0.64458000  0.47246000  1.0
  N  N143  1  0.13094000  0.85542000  0.97246000  1.0
