# generated using pymatgen
data_MnH16(C11O4)2
_symmetry_space_group_name_H-M   'P 1'
_cell_length_a   13.05890000
_cell_length_b   16.08200000
_cell_length_c   16.43440000
_cell_angle_alpha   108.84300000
_cell_angle_beta   102.09700000
_cell_angle_gamma   106.29200000
_symmetry_Int_Tables_number   1
_chemical_formula_structural   MnH16(C11O4)2
_chemical_formula_sum   'Mn3 H48 C66 O24'
_cell_volume   2959.18292782
_cell_formula_units_Z   3
loop_
 _symmetry_equiv_pos_site_id
 _symmetry_equiv_pos_as_xyz
  1  'x, y, z'
loop_
 _atom_site_type_symbol
 _atom_site_label
 _atom_site_symmetry_multiplicity
 _atom_site_fract_x
 _atom_site_fract_y
 _atom_site_fract_z
 _atom_site_occupancy
  Mn  Mn0  1  0.19751000  0.37237000  0.40687000  1.0
  Mn  Mn1  1  0.80249000  0.62763000  0.59313000  1.0
  Mn  Mn2  1  0.50000000  0.50001000  0.50001000  1.0
  H  H3  1  0.31795000  0.11744000  0.87410000  1.0
  H  H4  1  0.45279000  0.20218000  0.95334000  1.0
  H  H5  1  0.54554000  0.34659000  0.25564000  1.0
  H  H6  1  0.55605000  0.23827000  0.11165000  1.0
  H  H7  1  0.20108000  0.07220000  0.02948000  1.0
  H  H8  1  0.55595000  0.23287000  0.71922000  1.0
  H  H9  1  0.17822000  0.62832000  0.62708000  1.0
  H  H10  1  0.53576000  0.33075000  0.63187000  1.0
  H  H11  1  0.61603000  0.04864000  0.87948000  1.0
  H  H12  1  0.55520000  0.05292000  0.96798000  1.0
  H  H13  1  0.52975000  0.09227000  0.75345000  1.0
  H  H14  1  0.53322000  0.20027000  0.83407000  1.0
  H  H15  1  0.24912000  0.79743000  0.73312000  1.0
  H  H16  1  0.72111000  0.06788000  0.03184000  1.0
  H  H17  1  0.45860000  0.68638000  0.52751000  1.0
  H  H18  1  0.53114000  0.85720000  0.63399000  1.0
  H  H19  1  0.88681000  0.12777000  0.17017000  1.0
  H  H20  1  0.30290000  0.96083000  0.76503000  1.0
  H  H21  1  0.37746000  0.93477000  0.85216000  1.0
  H  H22  1  0.19185000  0.18098000  0.17512000  1.0
  H  H23  1  0.76998000  0.35660000  0.06847000  1.0
  H  H24  1  0.94189000  0.41513000  0.20488000  1.0
  H  H25  1  0.19252000  0.10474000  0.63989000  1.0
  H  H26  1  0.17393000  0.20313000  0.55045000  1.0
  H  H27  1  0.68206000  0.88257000  0.12591000  1.0
  H  H28  1  0.54722000  0.79782000  0.04666000  1.0
  H  H29  1  0.45447000  0.65342000  0.74437000  1.0
  H  H30  1  0.44397000  0.76173000  0.88836000  1.0
  H  H31  1  0.79893000  0.92780000  0.97053000  1.0
  H  H32  1  0.44405000  0.76712000  0.28077000  1.0
  H  H33  1  0.82178000  0.37167000  0.37292000  1.0
  H  H34  1  0.46424000  0.66924000  0.36813000  1.0
  H  H35  1  0.38398000  0.95136000  0.12052000  1.0
  H  H36  1  0.44481000  0.94708000  0.03201000  1.0
  H  H37  1  0.47025000  0.90773000  0.24655000  1.0
  H  H38  1  0.46678000  0.79972000  0.16593000  1.0
  H  H39  1  0.75088000  0.20257000  0.26689000  1.0
  H  H40  1  0.27889000  0.93212000  0.96816000  1.0
  H  H41  1  0.54139000  0.31362000  0.47248000  1.0
  H  H42  1  0.46885000  0.14280000  0.36601000  1.0
  H  H43  1  0.11318000  0.87223000  0.82984000  1.0
  H  H44  1  0.69710000  0.03917000  0.23497000  1.0
  H  H45  1  0.62254000  0.06523000  0.14784000  1.0
  H  H46  1  0.80816000  0.81903000  0.82488000  1.0
  H  H47  1  0.23003000  0.64340000  0.93152000  1.0
  H  H48  1  0.05812000  0.58488000  0.79511000  1.0
  H  H49  1  0.80747000  0.89525000  0.36010000  1.0
  H  H50  1  0.82606000  0.79686000  0.44954000  1.0
  C  C51  1  0.36326000  0.33469000  0.31061000  1.0
  C  C52  1  0.40020000  0.12605000  0.91751000  1.0
  C  C53  1  0.47032000  0.28696000  0.20535000  1.0
  C  C54  1  0.47613000  0.22665000  0.12526000  1.0
  C  C55  1  0.37844000  0.14956000  0.06253000  1.0
  C  C56  1  0.27589000  0.13238000  0.07983000  1.0
  C  C57  1  0.47204000  0.22641000  0.68338000  1.0
  C  C58  1  0.37449000  0.16409000  0.68634000  1.0
  C  C59  1  0.73494000  0.20950000  0.04217000  1.0
  C  C60  1  0.31447000  0.64656000  0.57142000  1.0
  C  C61  1  0.25552000  0.67869000  0.62894000  1.0
  C  C62  1  0.46033000  0.07617000  0.85925000  1.0
  C  C63  1  0.46090000  0.28097000  0.63382000  1.0
  C  C64  1  0.57257000  0.08535000  0.92028000  1.0
  C  C65  1  0.48297000  0.12408000  0.79437000  1.0
  C  C66  1  0.29551000  0.77383000  0.68849000  1.0
  C  C67  1  0.76776000  0.14391000  0.06919000  1.0
  C  C68  1  0.39558000  0.83726000  0.69011000  1.0
  C  C69  1  0.41357000  0.71164000  0.57272000  1.0
  C  C70  1  0.45396000  0.80610000  0.63145000  1.0
  C  C71  1  0.86115000  0.17732000  0.14673000  1.0
  C  C72  1  0.02159000  0.30634000  0.27817000  1.0
  C  C73  1  0.92420000  0.27459000  0.19596000  1.0
  C  C74  1  0.36793000  0.27054000  0.22358000  1.0
  C  C75  1  0.27742000  0.54625000  0.51098000  1.0
  C  C76  1  0.34482000  0.33392000  0.53591000  1.0
  C  C77  1  0.35395000  0.27366000  0.58650000  1.0
  C  C78  1  0.38728000  0.97038000  0.80559000  1.0
  C  C79  1  0.27097000  0.19280000  0.16038000  1.0
  C  C80  1  0.79759000  0.30736000  0.09107000  1.0
  C  C81  1  0.89241000  0.33944000  0.16667000  1.0
  C  C82  1  0.26675000  0.15463000  0.63734000  1.0
  C  C83  1  0.25686000  0.20910000  0.58804000  1.0
  C  C84  1  0.63674000  0.66531000  0.68939000  1.0
  C  C85  1  0.59981000  0.87395000  0.08250000  1.0
  C  C86  1  0.52969000  0.71304000  0.79466000  1.0
  C  C87  1  0.52389000  0.77335000  0.87475000  1.0
  C  C88  1  0.62157000  0.85044000  0.93747000  1.0
  C  C89  1  0.72412000  0.86763000  0.92018000  1.0
  C  C90  1  0.52795000  0.77358000  0.31661000  1.0
  C  C91  1  0.62551000  0.83590000  0.31365000  1.0
  C  C92  1  0.26507000  0.79050000  0.95782000  1.0
  C  C93  1  0.68552000  0.35344000  0.42858000  1.0
  C  C94  1  0.74447000  0.32131000  0.37106000  1.0
  C  C95  1  0.53967000  0.92383000  0.14075000  1.0
  C  C96  1  0.53909000  0.71902000  0.36617000  1.0
  C  C97  1  0.42743000  0.91465000  0.07972000  1.0
  C  C98  1  0.51703000  0.87592000  0.20563000  1.0
  C  C99  1  0.70449000  0.22616000  0.31152000  1.0
  C  C100  1  0.23224000  0.85609000  0.93080000  1.0
  C  C101  1  0.60441000  0.16274000  0.30990000  1.0
  C  C102  1  0.58642000  0.28836000  0.42728000  1.0
  C  C103  1  0.54604000  0.19389000  0.36855000  1.0
  C  C104  1  0.13885000  0.82268000  0.85327000  1.0
  C  C105  1  0.97840000  0.69367000  0.72183000  1.0
  C  C106  1  0.07580000  0.72541000  0.80404000  1.0
  C  C107  1  0.63208000  0.72946000  0.77642000  1.0
  C  C108  1  0.72256000  0.45375000  0.48902000  1.0
  C  C109  1  0.65517000  0.66608000  0.46409000  1.0
  C  C110  1  0.64606000  0.72634000  0.41349000  1.0
  C  C111  1  0.61272000  0.02962000  0.19441000  1.0
  C  C112  1  0.72905000  0.80720000  0.83963000  1.0
  C  C113  1  0.20242000  0.69264000  0.90892000  1.0
  C  C114  1  0.10759000  0.66056000  0.83332000  1.0
  C  C115  1  0.73325000  0.84536000  0.36265000  1.0
  C  C116  1  0.74314000  0.79089000  0.41195000  1.0
  O  O117  1  0.45033000  0.40783000  0.36257000  1.0
  O  O118  1  0.64204000  0.18439000  0.96962000  1.0
  O  O119  1  0.38210000  0.08667000  0.98316000  1.0
  O  O120  1  0.44401000  0.93116000  0.74675000  1.0
  O  O121  1  0.37582000  0.11041000  0.73576000  1.0
  O  O122  1  0.18335000  0.48372000  0.50095000  1.0
  O  O123  1  0.26897000  0.30831000  0.32583000  1.0
  O  O124  1  0.33932000  0.51794000  0.46522000  1.0
  O  O125  1  0.43448000  0.38809000  0.53365000  1.0
  O  O126  1  0.02965000  0.25459000  0.32153000  1.0
  O  O127  1  0.10244000  0.38904000  0.30694000  1.0
  O  O128  1  0.24400000  0.32666000  0.49683000  1.0
  O  O129  1  0.54966000  0.59219000  0.63744000  1.0
  O  O130  1  0.35797000  0.81561000  0.03038000  1.0
  O  O131  1  0.61792000  0.91334000  0.01685000  1.0
  O  O132  1  0.55599000  0.06884000  0.25325000  1.0
  O  O133  1  0.62418000  0.88959000  0.26423000  1.0
  O  O134  1  0.81664000  0.51628000  0.49905000  1.0
  O  O135  1  0.73103000  0.69168000  0.67416000  1.0
  O  O136  1  0.66067000  0.48206000  0.53477000  1.0
  O  O137  1  0.56552000  0.61192000  0.46636000  1.0
  O  O138  1  0.97033000  0.74542000  0.67847000  1.0
  O  O139  1  0.89757000  0.61096000  0.69305000  1.0
  O  O140  1  0.75600000  0.67333000  0.50317000  1.0
