# generated using pymatgen
data_MnH8C4O7
_symmetry_space_group_name_H-M   'P 1'
_cell_length_a   8.49199000
_cell_length_b   9.11146000
_cell_length_c   10.23530000
_cell_angle_alpha   90.13250000
_cell_angle_beta   90.17010000
_cell_angle_gamma   92.71630000
_symmetry_Int_Tables_number   1
_chemical_formula_structural   MnH8C4O7
_chemical_formula_sum   'Mn4 H32 C16 O28'
_cell_volume   791.05479361
_cell_formula_units_Z   4
loop_
 _symmetry_equiv_pos_site_id
 _symmetry_equiv_pos_as_xyz
  1  'x, y, z'
loop_
 _atom_site_type_symbol
 _atom_site_label
 _atom_site_symmetry_multiplicity
 _atom_site_fract_x
 _atom_site_fract_y
 _atom_site_fract_z
 _atom_site_occupancy
  Mn  Mn0  1  0.30693000  0.22492000  0.59413000  1.0
  Mn  Mn1  1  0.66420000  0.25761000  0.10376000  1.0
  Mn  Mn2  1  0.80355000  0.76582000  0.90981000  1.0
  Mn  Mn3  1  0.19389000  0.72619000  0.40450000  1.0
  H  H4  1  0.49295000  0.21365000  0.82610000  1.0
  H  H5  1  0.50829000  0.28374000  0.32643000  1.0
  H  H6  1  0.99247000  0.78438000  0.67773000  1.0
  H  H7  1  0.00488000  0.71879000  0.17504000  1.0
  H  H8  1  0.69372000  0.33869000  0.72413000  1.0
  H  H9  1  0.30213000  0.16375000  0.23091000  1.0
  H  H10  1  0.18450000  0.66624000  0.78213000  1.0
  H  H11  1  0.80324000  0.81762000  0.27638000  1.0
  H  H12  1  0.75147000  0.01160000  0.67870000  1.0
  H  H13  1  0.26126000  0.49213000  0.18155000  1.0
  H  H14  1  0.25259000  0.99829000  0.81721000  1.0
  H  H15  1  0.76436000  0.48492000  0.31874000  1.0
  H  H16  1  0.89532000  0.15903000  0.69773000  1.0
  H  H17  1  0.10599000  0.35282000  0.17958000  1.0
  H  H18  1  0.39554000  0.86058000  0.82064000  1.0
  H  H19  1  0.61081000  0.61024000  0.32804000  1.0
  H  H20  1  0.20531000  0.27811000  0.83959000  1.0
  H  H21  1  0.81671000  0.25626000  0.32650000  1.0
  H  H22  1  0.71932000  0.68868000  0.66559000  1.0
  H  H23  1  0.29741000  0.80115000  0.15885000  1.0
  H  H24  1  0.09056000  0.37924000  0.75866000  1.0
  H  H25  1  0.91768000  0.16418000  0.22679000  1.0
  H  H26  1  0.59789000  0.59091000  0.75210000  1.0
  H  H27  1  0.40994000  0.90330000  0.25227000  1.0
  H  H28  1  0.34642000  0.47265000  0.73792000  1.0
  H  H29  1  0.69064000  0.00940000  0.21293000  1.0
  H  H30  1  0.86110000  0.51046000  0.78344000  1.0
  H  H31  1  0.11892000  0.98112000  0.25372000  1.0
  H  H32  1  0.38842000  0.61300000  0.64920000  1.0
  H  H33  1  0.64214000  0.98953000  0.06535000  1.0
  H  H34  1  0.88919000  0.37965000  0.88026000  1.0
  H  H35  1  0.08820000  0.10652000  0.35359000  1.0
  C  C36  1  0.65484000  0.24803000  0.53565000  1.0
  C  C37  1  0.34191000  0.24293000  0.03881000  1.0
  C  C38  1  0.15167000  0.76014000  0.96867000  1.0
  C  C39  1  0.85022000  0.73866000  0.46646000  1.0
  C  C40  1  0.65747000  0.22999000  0.68420000  1.0
  C  C41  1  0.33901000  0.26912000  0.18548000  1.0
  C  C42  1  0.15510000  0.77458000  0.82043000  1.0
  C  C43  1  0.84250000  0.71454000  0.31891000  1.0
  C  C44  1  0.77724000  0.11752000  0.72732000  1.0
  C  C45  1  0.22195000  0.38494000  0.22159000  1.0
  C  C46  1  0.28210000  0.89048000  0.77892000  1.0
  C  C47  1  0.72414000  0.58915000  0.28128000  1.0
  C  C48  1  0.76632000  0.09898000  0.87364000  1.0
  C  C49  1  0.20872000  0.39170000  0.36852000  1.0
  C  C50  1  0.29142000  0.89252000  0.63164000  1.0
  C  C51  1  0.70167000  0.58279000  0.13419000  1.0
  O  O52  1  0.51829000  0.24506000  0.47901000  1.0
  O  O53  1  0.47912000  0.24649000  0.98436000  1.0
  O  O54  1  0.01755000  0.76802000  0.02545000  1.0
  O  O55  1  0.98714000  0.74139000  0.52179000  1.0
  O  O56  1  0.78468000  0.26691000  0.47952000  1.0
  O  O57  1  0.21388000  0.21786000  0.97973000  1.0
  O  O58  1  0.28047000  0.74106000  0.02560000  1.0
  O  O59  1  0.72308000  0.75521000  0.52561000  1.0
  O  O60  1  0.78847000  0.21218000  0.94641000  1.0
  O  O61  1  0.17715000  0.27028000  0.42858000  1.0
  O  O62  1  0.32501000  0.77288000  0.57393000  1.0
  O  O63  1  0.68913000  0.70737000  0.07659000  1.0
  O  O64  1  0.71648000  0.97324000  0.92079000  1.0
  O  O65  1  0.23793000  0.51072000  0.43011000  1.0
  O  O66  1  0.25540000  0.00496000  0.56706000  1.0
  O  O67  1  0.69996000  0.46312000  0.06977000  1.0
  O  O68  1  0.50159000  0.19008000  0.72987000  1.0
  O  O69  1  0.49568000  0.31255000  0.23101000  1.0
  O  O70  1  0.00226000  0.81019000  0.77392000  1.0
  O  O71  1  0.99727000  0.68874000  0.27035000  1.0
  O  O72  1  0.19356000  0.32746000  0.75057000  1.0
  O  O73  1  0.84413000  0.24642000  0.23070000  1.0
  O  O74  1  0.70925000  0.63779000  0.75438000  1.0
  O  O75  1  0.30645000  0.85125000  0.25063000  1.0
  O  O76  1  0.43440000  0.53194000  0.69899000  1.0
  O  O77  1  0.60862000  0.03538000  0.15114000  1.0
  O  O78  1  0.94479000  0.45482000  0.82536000  1.0
  O  O79  1  0.03403000  0.03538000  0.29306000  1.0
