# generated using pymatgen
data_UCuH6(C5O6)2
_symmetry_space_group_name_H-M   'P 1'
_cell_length_a   7.06515000
_cell_length_b   7.15386000
_cell_length_c   9.32299000
_cell_angle_alpha   91.63480000
_cell_angle_beta   95.89690000
_cell_angle_gamma   114.28200000
_symmetry_Int_Tables_number   1
_chemical_formula_structural   UCuH6(C5O6)2
_chemical_formula_sum   'U1 Cu1 H6 C10 O12'
_cell_volume   425.94916633
_cell_formula_units_Z   1
loop_
 _symmetry_equiv_pos_site_id
 _symmetry_equiv_pos_as_xyz
  1  'x, y, z'
loop_
 _atom_site_type_symbol
 _atom_site_label
 _atom_site_symmetry_multiplicity
 _atom_site_fract_x
 _atom_site_fract_y
 _atom_site_fract_z
 _atom_site_occupancy
  U  U0  1  0.99999000  0.50000000  0.50000000  1.0
  Cu  Cu1  1  0.50001000  0.00001000  0.50000000  1.0
  H  H2  1  0.58393000  0.82149000  0.29952000  1.0
  H  H3  1  0.41606000  0.17851000  0.70047000  1.0
  H  H4  1  0.80119000  0.97405000  0.38645000  1.0
  H  H5  1  0.19881000  0.02595000  0.61354000  1.0
  H  H6  1  0.05667000  0.68085000  0.02455000  1.0
  H  H7  1  0.94333000  0.31915000  0.97545000  1.0
  C  C8  1  0.95003000  0.73120000  0.74813000  1.0
  C  C9  1  0.04997000  0.26879000  0.25187000  1.0
  C  C10  1  0.96824000  0.86718000  0.87767000  1.0
  C  C11  1  0.03176000  0.13283000  0.12234000  1.0
  C  C12  1  0.03006000  0.81989000  0.01414000  1.0
  C  C13  1  0.96994000  0.18011000  0.98585000  1.0
  C  C14  1  0.93727000  0.04832000  0.86372000  1.0
  C  C15  1  0.06273000  0.95168000  0.13628000  1.0
  C  C16  1  0.85837000  0.10197000  0.72172000  1.0
  C  C17  1  0.14165000  0.89804000  0.27828000  1.0
  O  O18  1  0.27890000  0.63662000  0.55443000  1.0
  O  O19  1  0.72107000  0.36337000  0.44558000  1.0
  O  O20  1  0.98981000  0.23818000  0.65578000  1.0
  O  O21  1  0.01022000  0.76183000  0.34423000  1.0
  O  O22  1  0.98320000  0.81003000  0.62562000  1.0
  O  O23  1  0.01679000  0.18997000  0.37439000  1.0
  O  O24  1  0.91292000  0.54322000  0.75688000  1.0
  O  O25  1  0.08709000  0.45677000  0.24312000  1.0
  O  O26  1  0.65563000  0.87204000  0.39697000  1.0
  O  O27  1  0.34437000  0.12795000  0.60302000  1.0
  O  O28  1  0.66160000  0.00868000  0.68596000  1.0
  O  O29  1  0.33841000  0.99133000  0.31403000  1.0
