# generated using pymatgen
data_Zn3H24C30(NO6)2
_symmetry_space_group_name_H-M   'P 1'
_cell_length_a   9.79307000
_cell_length_b   11.29470000
_cell_length_c   19.15770000
_cell_angle_alpha   90.00040000
_cell_angle_beta   90.00050000
_cell_angle_gamma   115.34100000
_symmetry_Int_Tables_number   1
_chemical_formula_structural   Zn3H24C30(NO6)2
_chemical_formula_sum   'Zn6 H48 C60 N4 O24'
_cell_volume   1915.12874620
_cell_formula_units_Z   2
loop_
 _symmetry_equiv_pos_site_id
 _symmetry_equiv_pos_as_xyz
  1  'x, y, z'
loop_
 _atom_site_type_symbol
 _atom_site_label
 _atom_site_symmetry_multiplicity
 _atom_site_fract_x
 _atom_site_fract_y
 _atom_site_fract_z
 _atom_site_occupancy
  Zn  Zn0  1  0.00000000  0.50001000  0.00000000  1.0
  Zn  Zn1  1  0.50000000  0.00000000  0.50000000  1.0
  Zn  Zn2  1  0.63149000  0.45067000  0.00902000  1.0
  Zn  Zn3  1  0.86850000  0.04932000  0.50902000  1.0
  Zn  Zn4  1  0.36850000  0.54932000  0.99098000  1.0
  Zn  Zn5  1  0.13149000  0.95068000  0.49098000  1.0
  H  H6  1  0.49597000  0.19889000  0.82265000  1.0
  H  H7  1  0.00404000  0.30112000  0.32266000  1.0
  H  H8  1  0.50403000  0.80110000  0.17736000  1.0
  H  H9  1  0.99598000  0.69889000  0.67735000  1.0
  H  H10  1  0.49038000  0.10517000  0.70286000  1.0
  H  H11  1  0.00959000  0.39483000  0.20286000  1.0
  H  H12  1  0.50962000  0.89482000  0.29715000  1.0
  H  H13  1  0.99042000  0.60520000  0.79714000  1.0
  H  H14  1  0.97309000  0.24917000  0.70724000  1.0
  H  H15  1  0.52688000  0.25080000  0.20723000  1.0
  H  H16  1  0.02690000  0.75081000  0.29276000  1.0
  H  H17  1  0.47309000  0.74920000  0.79276000  1.0
  H  H18  1  0.97815000  0.34183000  0.82759000  1.0
  H  H19  1  0.52188000  0.15817000  0.32757000  1.0
  H  H20  1  0.02189000  0.65817000  0.17242000  1.0
  H  H21  1  0.47812000  0.84182000  0.67242000  1.0
  H  H22  1  0.09543000  0.78696000  0.93377000  1.0
  H  H23  1  0.40455000  0.71304000  0.43377000  1.0
  H  H24  1  0.90459000  0.21305000  0.06624000  1.0
  H  H25  1  0.59545000  0.28697000  0.56622000  1.0
  H  H26  1  0.08585000  0.99515000  0.89324000  1.0
  H  H27  1  0.41413000  0.50485000  0.39323000  1.0
  H  H28  1  0.91415000  0.00487000  0.10677000  1.0
  H  H29  1  0.58587000  0.49516000  0.60676000  1.0
  H  H30  1  0.97187000  0.11203000  0.86908000  1.0
  H  H31  1  0.52812000  0.38798000  0.36905000  1.0
  H  H32  1  0.02810000  0.88797000  0.13093000  1.0
  H  H33  1  0.47189000  0.61203000  0.63093000  1.0
  H  H34  1  0.85229000  0.11901000  0.93685000  1.0
  H  H35  1  0.64770000  0.38099000  0.43683000  1.0
  H  H36  1  0.14770000  0.88098000  0.06316000  1.0
  H  H37  1  0.35228000  0.61901000  0.56316000  1.0
  H  H38  1  0.77243000  0.03443000  0.85750000  1.0
  H  H39  1  0.72756000  0.46557000  0.35748000  1.0
  H  H40  1  0.22756000  0.96557000  0.14251000  1.0
  H  H41  1  0.27243000  0.53443000  0.64251000  1.0
  H  H42  1  0.63819000  0.97698000  0.98156000  1.0
  H  H43  1  0.86180000  0.52300000  0.48154000  1.0
  H  H44  1  0.36179000  0.02300000  0.01845000  1.0
  H  H45  1  0.13819000  0.47700000  0.51846000  1.0
  H  H46  1  0.52247000  0.80960000  0.00045000  1.0
  H  H47  1  0.97753000  0.69039000  0.50044000  1.0
  H  H48  1  0.47752000  0.19038000  0.99955000  1.0
  H  H49  1  0.02246000  0.30960000  0.49956000  1.0
  H  H50  1  0.53686000  0.86746000  0.91358000  1.0
  H  H51  1  0.96315000  0.63254000  0.41356000  1.0
  H  H52  1  0.46312000  0.13252000  0.08642000  1.0
  H  H53  1  0.03685000  0.36746000  0.58644000  1.0
  C  C54  1  0.73982000  0.32433000  0.90474000  1.0
  C  C55  1  0.76018000  0.17567000  0.40475000  1.0
  C  C56  1  0.26020000  0.67565000  0.09525000  1.0
  C  C57  1  0.23982000  0.82435000  0.59525000  1.0
  C  C58  1  0.73720000  0.27371000  0.83217000  1.0
  C  C59  1  0.76277000  0.22626000  0.33216000  1.0
  C  C60  1  0.26281000  0.72627000  0.16784000  1.0
  C  C61  1  0.23720000  0.77372000  0.66786000  1.0
  C  C62  1  0.59954000  0.20854000  0.79697000  1.0
  C  C63  1  0.90045000  0.29149000  0.29696000  1.0
  C  C64  1  0.40048000  0.79146000  0.20304000  1.0
  C  C65  1  0.09952000  0.70853000  0.70305000  1.0
  C  C66  1  0.59645000  0.15701000  0.73075000  1.0
  C  C67  1  0.90358000  0.34301000  0.23074000  1.0
  C  C68  1  0.40358000  0.84297000  0.26925000  1.0
  C  C69  1  0.09643000  0.65702000  0.76925000  1.0
  C  C70  1  0.73122000  0.17110000  0.69839000  1.0
  C  C71  1  0.76882000  0.32890000  0.19841000  1.0
  C  C72  1  0.26879000  0.82887000  0.30159000  1.0
  C  C73  1  0.23121000  0.67112000  0.80158000  1.0
  C  C74  1  0.86925000  0.23861000  0.73305000  1.0
  C  C75  1  0.63075000  0.26138000  0.23306000  1.0
  C  C76  1  0.13073000  0.76137000  0.26694000  1.0
  C  C77  1  0.36929000  0.73864000  0.76694000  1.0
  C  C78  1  0.87223000  0.28958000  0.79956000  1.0
  C  C79  1  0.62776000  0.21041000  0.29957000  1.0
  C  C80  1  0.12778000  0.71042000  0.20044000  1.0
  C  C81  1  0.37224000  0.78959000  0.70044000  1.0
  C  C82  1  0.72422000  0.11484000  0.62670000  1.0
  C  C83  1  0.77578000  0.38515000  0.12669000  1.0
  C  C84  1  0.27579000  0.88515000  0.37331000  1.0
  C  C85  1  0.22423000  0.61485000  0.87331000  1.0
  C  C86  1  0.72584000  0.72089000  0.97099000  1.0
  C  C87  1  0.77416000  0.77910000  0.47098000  1.0
  C  C88  1  0.27417000  0.27911000  0.02901000  1.0
  C  C89  1  0.22584000  0.22090000  0.52901000  1.0
  C  C90  1  0.86179000  0.70048000  0.96669000  1.0
  C  C91  1  0.63822000  0.79952000  0.46668000  1.0
  C  C92  1  0.13821000  0.29953000  0.03332000  1.0
  C  C93  1  0.36177000  0.20047000  0.53331000  1.0
  C  C94  1  0.99307000  0.80131000  0.93906000  1.0
  C  C95  1  0.50693000  0.69870000  0.43905000  1.0
  C  C96  1  0.00693000  0.19869000  0.06096000  1.0
  C  C97  1  0.49306000  0.30130000  0.56094000  1.0
  C  C98  1  0.98897000  0.91567000  0.91687000  1.0
  C  C99  1  0.51103000  0.58433000  0.41686000  1.0
  C  C100  1  0.01102000  0.08432000  0.08314000  1.0
  C  C101  1  0.48896000  0.41567000  0.58313000  1.0
  C  C102  1  0.73116000  0.84248000  0.95195000  1.0
  C  C103  1  0.76884000  0.65752000  0.45194000  1.0
  C  C104  1  0.26883000  0.15750000  0.04805000  1.0
  C  C105  1  0.23116000  0.34249000  0.54805000  1.0
  C  C106  1  0.86403000  0.05713000  0.89541000  1.0
  C  C107  1  0.63596000  0.44288000  0.39539000  1.0
  C  C108  1  0.13595000  0.94287000  0.10460000  1.0
  C  C109  1  0.36403000  0.55713000  0.60460000  1.0
  C  C110  1  0.60066000  0.87641000  0.96212000  1.0
  C  C111  1  0.89932000  0.62358000  0.46211000  1.0
  C  C112  1  0.39933000  0.12357000  0.03788000  1.0
  C  C113  1  0.10067000  0.37641000  0.53789000  1.0
  N  N114  1  0.86257000  0.93561000  0.92308000  1.0
  N  N115  1  0.63743000  0.56440000  0.42306000  1.0
  N  N116  1  0.13741000  0.06439000  0.07693000  1.0
  N  N117  1  0.36256000  0.43561000  0.57692000  1.0
  O  O118  1  0.62980000  0.35158000  0.92122000  1.0
  O  O119  1  0.87022000  0.14842000  0.42122000  1.0
  O  O120  1  0.37024000  0.64841000  0.07879000  1.0
  O  O121  1  0.12977000  0.85159000  0.57878000  1.0
  O  O122  1  0.84739000  0.33376000  0.94460000  1.0
  O  O123  1  0.65261000  0.16626000  0.44460000  1.0
  O  O124  1  0.15261000  0.66626000  0.05540000  1.0
  O  O125  1  0.34740000  0.83375000  0.55539000  1.0
  O  O126  1  0.84673000  0.11531000  0.60252000  1.0
  O  O127  1  0.65325000  0.38468000  0.10252000  1.0
  O  O128  1  0.15325000  0.88468000  0.39748000  1.0
  O  O129  1  0.34677000  0.61531000  0.89748000  1.0
  O  O130  1  0.59774000  0.07255000  0.59623000  1.0
  O  O131  1  0.90228000  0.42747000  0.09622000  1.0
  O  O132  1  0.40228000  0.92747000  0.40378000  1.0
  O  O133  1  0.09772000  0.57255000  0.90378000  1.0
  O  O134  1  0.60370000  0.62165000  0.99490000  1.0
  O  O135  1  0.89629000  0.87834000  0.49489000  1.0
  O  O136  1  0.39631000  0.37834000  0.00510000  1.0
  O  O137  1  0.10371000  0.12166000  0.50511000  1.0
  O  O138  1  0.85311000  0.58855000  0.98881000  1.0
  O  O139  1  0.64689000  0.91145000  0.48880000  1.0
  O  O140  1  0.14690000  0.41146000  0.01119000  1.0
  O  O141  1  0.35312000  0.08855000  0.51119000  1.0
