# generated using pymatgen
data_MnH3C3N3ClO
_symmetry_space_group_name_H-M   'P 1'
_cell_length_a   8.27667000
_cell_length_b   14.14829743
_cell_length_c   14.28050000
_cell_angle_alpha   116.21829517
_cell_angle_beta   101.47200000
_cell_angle_gamma   100.57860470
_symmetry_Int_Tables_number   1
_chemical_formula_structural   MnH3C3N3ClO
_chemical_formula_sum   'Mn6 H18 C18 N18 Cl6 O6'
_cell_volume   1398.40879337
_cell_formula_units_Z   6
loop_
 _symmetry_equiv_pos_site_id
 _symmetry_equiv_pos_as_xyz
  1  'x, y, z'
loop_
 _atom_site_type_symbol
 _atom_site_label
 _atom_site_symmetry_multiplicity
 _atom_site_fract_x
 _atom_site_fract_y
 _atom_site_fract_z
 _atom_site_occupancy
  Mn  Mn0  1  0.99399000  0.70768000  0.27413000  1.0
  Mn  Mn1  1  0.71086000  0.70500000  0.42253000  1.0
  Mn  Mn2  1  0.28571000  0.56652000  0.28861000  1.0
  Mn  Mn3  1  0.99695000  0.27765000  0.71115000  1.0
  Mn  Mn4  1  0.28820000  0.28231000  0.57723000  1.0
  Mn  Mn5  1  0.71959000  0.43320000  0.72551000  1.0
  H  H6  1  0.11919000  0.87537000  0.22799000  1.0
  H  H7  1  0.92134000  0.85486000  0.60991000  1.0
  H  H8  1  0.26101000  0.35846000  0.15405000  1.0
  H  H9  1  0.74371000  0.85200000  0.63024000  1.0
  H  H10  1  0.93162000  0.87164000  0.23031000  1.0
  H  H11  1  0.08104000  0.37838000  0.14644000  1.0
  H  H12  1  0.93435000  0.23151000  0.85320000  1.0
  H  H13  1  0.11349000  0.22173000  0.36943000  1.0
  H  H14  1  0.70340000  0.64276000  0.77283000  1.0
  H  H15  1  0.31147000  0.24494000  0.38987000  1.0
  H  H16  1  0.10671000  0.20395000  0.84563000  1.0
  H  H17  1  0.89284000  0.64783000  0.77441000  1.0
  H  H18  1  0.19280000  0.99190000  0.42897000  1.0
  H  H19  1  0.76421000  0.56318000  0.57123000  1.0
  H  H20  1  0.17992000  0.41434000  0.99993000  1.0
  H  H21  1  0.81221000  0.99203000  0.56603000  1.0
  H  H22  1  0.78520000  0.57361000  0.99980000  1.0
  H  H23  1  0.24601000  0.42593000  0.43374000  1.0
  C  C24  1  0.36991000  0.89399000  0.42569000  1.0
  C  C25  1  0.93665000  0.56305000  0.47394000  1.0
  C  C26  1  0.44778000  0.51672000  0.09771000  1.0
  C  C27  1  0.54242000  0.89272000  0.46647000  1.0
  C  C28  1  0.61631000  0.56232000  0.09639000  1.0
  C  C29  1  0.07134000  0.52350000  0.43530000  1.0
  C  C30  1  0.63596000  0.08802000  0.56444000  1.0
  C  C31  1  0.07587000  0.42619000  0.53337000  1.0
  C  C32  1  0.51976000  0.46573000  0.90335000  1.0
  C  C33  1  0.46260000  0.08896000  0.52587000  1.0
  C  C34  1  0.34994000  0.41883000  0.90209000  1.0
  C  C35  1  0.94425000  0.46829000  0.57422000  1.0
  C  C36  1  0.32523000  0.99138000  0.45467000  1.0
  C  C37  1  0.87064000  0.53675000  0.54526000  1.0
  C  C38  1  0.31077000  0.44315000  0.99992000  1.0
  C  C39  1  0.67960000  0.99024000  0.53696000  1.0
  C  C40  1  0.65673000  0.53866000  0.99985000  1.0
  C  C41  1  0.14249000  0.45321000  0.46282000  1.0
  N  N42  1  0.26757000  0.78624000  0.35832000  1.0
  N  N43  1  0.89553000  0.62614000  0.42784000  1.0
  N  N44  1  0.45688000  0.56073000  0.20728000  1.0
  N  N45  1  0.53577000  0.78282000  0.42303000  1.0
  N  N46  1  0.72024000  0.63050000  0.20292000  1.0
  N  N47  1  0.10675000  0.56649000  0.36943000  1.0
  N  N48  1  0.73723000  0.19683000  0.63026000  1.0
  N  N49  1  0.11262000  0.35967000  0.57677000  1.0
  N  N50  1  0.51714000  0.42730000  0.79680000  1.0
  N  N51  1  0.46756000  0.19810000  0.57193000  1.0
  N  N52  1  0.24948000  0.35320000  0.79253000  1.0
  N  N53  1  0.90930000  0.42788000  0.64161000  1.0
  N  N54  1  0.36707000  0.72139000  0.35998000  1.0
  N  N55  1  0.99971000  0.62607000  0.36731000  1.0
  N  N56  1  0.62475000  0.62700000  0.26785000  1.0
  N  N57  1  0.63229000  0.25853000  0.63241000  1.0
  N  N58  1  0.00704000  0.36129000  0.63987000  1.0
  N  N59  1  0.35675000  0.35887000  0.73192000  1.0
  Cl  Cl60  1  0.06663000  0.54625000  0.14307000  1.0
  Cl  Cl61  1  0.92144000  0.84870000  0.43422000  1.0
  Cl  Cl62  1  0.50220000  0.57455000  0.42098000  1.0
  Cl  Cl63  1  0.92316000  0.40259000  0.85668000  1.0
  Cl  Cl64  1  0.08106000  0.15343000  0.57877000  1.0
  Cl  Cl65  1  0.48717000  0.41435000  0.56557000  1.0
  O  O66  1  0.00154000  0.82492000  0.19926000  1.0
  O  O67  1  0.81940000  0.80623000  0.60933000  1.0
  O  O68  1  0.18134000  0.37792000  0.19628000  1.0
  O  O69  1  0.98482000  0.18121000  0.80339000  1.0
  O  O70  1  0.21009000  0.19691000  0.39045000  1.0
  O  O71  1  0.80342000  0.62540000  0.80245000  1.0
