# generated using pymatgen
data_Zn3P2H12C14(NO5)2
_symmetry_space_group_name_H-M   'P 1'
_cell_length_a   5.64281000
_cell_length_b   11.32030000
_cell_length_c   16.26840000
_cell_angle_alpha   72.19920000
_cell_angle_beta   80.01130000
_cell_angle_gamma   75.56070000
_symmetry_Int_Tables_number   1
_chemical_formula_structural   Zn3P2H12C14(NO5)2
_chemical_formula_sum   'Zn6 P4 H24 C28 N4 O20'
_cell_volume   952.85037890
_cell_formula_units_Z   2
loop_
 _symmetry_equiv_pos_site_id
 _symmetry_equiv_pos_as_xyz
  1  'x, y, z'
loop_
 _atom_site_type_symbol
 _atom_site_label
 _atom_site_symmetry_multiplicity
 _atom_site_fract_x
 _atom_site_fract_y
 _atom_site_fract_z
 _atom_site_occupancy
  Zn  Zn0  1  0.13219000  0.51250000  0.52293000  1.0
  Zn  Zn1  1  0.83233000  0.01266000  0.02290000  1.0
  Zn  Zn2  1  0.81505000  0.89638000  0.64806000  1.0
  Zn  Zn3  1  0.64013000  0.39628000  0.14809000  1.0
  Zn  Zn4  1  0.29818000  0.12773000  0.38879000  1.0
  Zn  Zn5  1  0.18518000  0.62762000  0.88883000  1.0
  P  P6  1  0.31184000  0.94324000  0.57340000  1.0
  P  P7  1  0.17112000  0.44310000  0.07342000  1.0
  P  P8  1  0.76815000  0.21273000  0.32894000  1.0
  P  P9  1  0.69017000  0.71283000  0.82895000  1.0
  H  H10  1  0.84070000  0.55029000  0.69121000  1.0
  H  H11  1  0.91780000  0.05017000  0.19122000  1.0
  H  H12  1  0.53861000  0.44987000  0.79918000  1.0
  H  H13  1  0.21260000  0.94982000  0.29911000  1.0
  H  H14  1  0.68247000  0.15664000  0.66534000  1.0
  H  H15  1  0.49645000  0.65683000  0.16505000  1.0
  H  H16  1  0.99416000  0.26408000  0.56744000  1.0
  H  H17  1  0.17499000  0.76421000  0.06722000  1.0
  H  H18  1  0.18569000  0.39820000  0.84658000  1.0
  H  H19  1  0.56959000  0.89820000  0.34657000  1.0
  H  H20  1  0.89805000  0.28352000  0.95366000  1.0
  H  H21  1  0.86397000  0.78333000  0.45393000  1.0
  H  H22  1  0.19470000  0.95162000  0.88043000  1.0
  H  H23  1  0.97372000  0.45162000  0.38030000  1.0
  H  H24  1  0.51085000  0.04618000  0.77664000  1.0
  H  H25  1  0.66703000  0.54629000  0.27644000  1.0
  H  H26  1  0.56960000  0.73364000  0.59106000  1.0
  H  H27  1  0.10509000  0.23348000  0.09118000  1.0
  H  H28  1  0.36736000  0.74627000  0.68594000  1.0
  H  H29  1  0.20021000  0.24610000  0.18596000  1.0
  H  H30  1  0.71703000  0.13170000  0.48428000  1.0
  H  H31  1  0.66723000  0.63187000  0.98431000  1.0
  H  H32  1  0.83907000  0.27231000  0.45169000  1.0
  H  H33  1  0.43706000  0.77246000  0.95161000  1.0
  C  C34  1  0.79938000  0.46320000  0.68754000  1.0
  C  C35  1  0.04997000  0.96310000  0.18751000  1.0
  C  C36  1  0.62698000  0.40569000  0.74783000  1.0
  C  C37  1  0.21972000  0.90566000  0.24775000  1.0
  C  C38  1  0.57327000  0.29440000  0.74131000  1.0
  C  C39  1  0.39144000  0.79443000  0.24119000  1.0
  C  C40  1  0.71019000  0.24289000  0.67505000  1.0
  C  C41  1  0.37259000  0.74300000  0.17486000  1.0
  C  C42  1  0.88363000  0.30385000  0.61829000  1.0
  C  C43  1  0.19478000  0.80391000  0.11811000  1.0
  C  C44  1  0.38368000  0.23279000  0.80212000  1.0
  C  C45  1  0.58179000  0.73280000  0.30206000  1.0
  C  C46  1  0.20215000  0.29829000  0.85256000  1.0
  C  C47  1  0.64702000  0.79829000  0.35259000  1.0
  C  C48  1  0.03605000  0.23529000  0.91232000  1.0
  C  C49  1  0.81595000  0.73514000  0.41249000  1.0
  C  C50  1  0.20356000  0.04973000  0.87193000  1.0
  C  C51  1  0.87503000  0.54970000  0.37189000  1.0
  C  C52  1  0.37830000  0.10577000  0.81214000  1.0
  C  C53  1  0.70431000  0.60581000  0.31203000  1.0
  C  C54  1  0.38002000  0.77063000  0.61447000  1.0
  C  C55  1  0.23434000  0.27050000  0.11450000  1.0
  C  C56  1  0.20977000  0.70752000  0.58957000  1.0
  C  C57  1  0.49262000  0.20749000  0.08951000  1.0
  C  C58  1  0.70188000  0.22805000  0.43962000  1.0
  C  C59  1  0.63062000  0.72820000  0.93961000  1.0
  C  C60  1  0.44793000  0.30336000  0.45739000  1.0
  C  C61  1  0.79137000  0.80363000  0.95725000  1.0
  N  N62  1  0.92450000  0.41431000  0.62259000  1.0
  N  N63  1  0.03883000  0.91429000  0.12249000  1.0
  N  N64  1  0.03747000  0.11201000  0.92301000  1.0
  N  N65  1  0.92737000  0.61186000  0.42312000  1.0
  O  O66  1  0.07067000  0.99438000  0.62436000  1.0
  O  O67  1  0.31015000  0.49424000  0.12439000  1.0
  O  O68  1  0.52868000  0.99238000  0.58727000  1.0
  O  O69  1  0.89125000  0.49228000  0.08725000  1.0
  O  O70  1  0.28459000  0.96954000  0.47639000  1.0
  O  O71  1  0.26909000  0.46934000  0.97642000  1.0
  O  O72  1  0.97595000  0.74395000  0.60185000  1.0
  O  O73  1  0.67774000  0.24395000  0.10175000  1.0
  O  O74  1  0.31047000  0.61584000  0.55653000  1.0
  O  O75  1  0.51681000  0.11587000  0.05640000  1.0
  O  O76  1  0.43136000  0.39716000  0.48709000  1.0
  O  O77  1  0.68440000  0.89768000  0.98671000  1.0
  O  O78  1  0.25955000  0.27164000  0.44291000  1.0
  O  O79  1  0.02595000  0.77176000  0.94289000  1.0
  O  O80  1  0.68870000  0.34773000  0.27000000  1.0
  O  O81  1  0.69383000  0.84779000  0.77000000  1.0
  O  O82  1  0.62122000  0.11941000  0.32094000  1.0
  O  O83  1  0.93828000  0.61935000  0.82094000  1.0
  O  O84  1  0.04607000  0.16022000  0.31352000  1.0
  O  O85  1  0.47984000  0.66054000  0.81357000  1.0
