# generated using pymatgen
data_CdH14C15(SN2)2
_symmetry_space_group_name_H-M   'P 1'
_cell_length_a   9.63431000
_cell_length_b   11.75220000
_cell_length_c   17.75290000
_cell_angle_alpha   105.20100000
_cell_angle_beta   90.02380000
_cell_angle_gamma   114.17700000
_symmetry_Int_Tables_number   1
_chemical_formula_structural   CdH14C15(SN2)2
_chemical_formula_sum   'Cd4 H56 C60 S8 N16'
_cell_volume   1756.27037301
_cell_formula_units_Z   4
loop_
 _symmetry_equiv_pos_site_id
 _symmetry_equiv_pos_as_xyz
  1  'x, y, z'
loop_
 _atom_site_type_symbol
 _atom_site_label
 _atom_site_symmetry_multiplicity
 _atom_site_fract_x
 _atom_site_fract_y
 _atom_site_fract_z
 _atom_site_occupancy
  Cd  Cd0  1  0.01428000  0.24797000  0.47996000  1.0
  Cd  Cd1  1  0.23360000  0.24797000  0.97998000  1.0
  Cd  Cd2  1  0.98572000  0.75203000  0.52004000  1.0
  Cd  Cd3  1  0.76640000  0.75203000  0.02002000  1.0
  H  H4  1  0.66571000  0.18926000  0.47797000  1.0
  H  H5  1  0.52323000  0.18908000  0.97782000  1.0
  H  H6  1  0.33430000  0.81074000  0.52202000  1.0
  H  H7  1  0.47677000  0.81092000  0.02218000  1.0
  H  H8  1  0.40394000  0.01145000  0.42564000  1.0
  H  H9  1  0.60725000  0.01129000  0.92549000  1.0
  H  H10  1  0.59607000  0.98855000  0.57436000  1.0
  H  H11  1  0.39274000  0.98871000  0.07451000  1.0
  H  H12  1  0.61895000  0.80144000  0.26956000  1.0
  H  H13  1  0.18211000  0.80123000  0.76947000  1.0
  H  H14  1  0.38105000  0.19855000  0.73044000  1.0
  H  H15  1  0.81789000  0.19877000  0.23053000  1.0
  H  H16  1  0.87160000  0.98827000  0.32872000  1.0
  H  H17  1  0.11613000  0.98801000  0.82869000  1.0
  H  H18  1  0.12840000  0.01173000  0.67128000  1.0
  H  H19  1  0.88387000  0.01200000  0.17132000  1.0
  H  H20  1  0.20987000  0.51880000  0.98818000  1.0
  H  H21  1  0.30921000  0.51866000  0.48819000  1.0
  H  H22  1  0.79013000  0.48119000  0.01182000  1.0
  H  H23  1  0.69079000  0.48134000  0.51180000  1.0
  H  H24  1  0.16568000  0.69493000  0.08333000  1.0
  H  H25  1  0.52972000  0.69450000  0.58334000  1.0
  H  H26  1  0.83431000  0.30506000  0.91667000  1.0
  H  H27  1  0.47028000  0.30550000  0.41666000  1.0
  H  H28  1  0.02927000  0.44859000  0.23769000  1.0
  H  H29  1  0.41887000  0.44842000  0.73789000  1.0
  H  H30  1  0.97072000  0.55141000  0.76231000  1.0
  H  H31  1  0.58114000  0.55159000  0.26211000  1.0
  H  H32  1  0.08213000  0.28352000  0.13631000  1.0
  H  H33  1  0.20068000  0.28372000  0.63654000  1.0
  H  H34  1  0.91787000  0.71648000  0.86370000  1.0
  H  H35  1  0.79933000  0.71628000  0.36346000  1.0
  H  H36  1  0.35038000  0.69176000  0.27843000  1.0
  H  H37  1  0.34120000  0.69164000  0.77817000  1.0
  H  H38  1  0.64963000  0.30824000  0.72157000  1.0
  H  H39  1  0.65880000  0.30836000  0.22183000  1.0
  H  H40  1  0.27404000  0.75050000  0.36281000  1.0
  H  H41  1  0.47601000  0.75016000  0.86266000  1.0
  H  H42  1  0.72596000  0.24950000  0.63719000  1.0
  H  H43  1  0.52399000  0.24984000  0.13734000  1.0
  H  H44  1  0.29626000  0.84146000  0.21433000  1.0
  H  H45  1  0.54525000  0.84126000  0.71427000  1.0
  H  H46  1  0.70375000  0.15854000  0.78567000  1.0
  H  H47  1  0.45475000  0.15874000  0.28573000  1.0
  H  H48  1  0.21863000  0.89522000  0.29880000  1.0
  H  H49  1  0.67639000  0.89500000  0.79888000  1.0
  H  H50  1  0.78138000  0.10478000  0.70120000  1.0
  H  H51  1  0.32362000  0.10500000  0.20112000  1.0
  H  H52  1  0.02402000  0.66052000  0.27973000  1.0
  H  H53  1  0.63643000  0.66037000  0.77994000  1.0
  H  H54  1  0.97598000  0.33948000  0.72027000  1.0
  H  H55  1  0.36358000  0.33963000  0.22006000  1.0
  H  H56  1  0.00505000  0.72957000  0.20516000  1.0
  H  H57  1  0.72448000  0.72929000  0.70535000  1.0
  H  H58  1  0.99495000  0.27043000  0.79484000  1.0
  H  H59  1  0.27552000  0.27072000  0.29464000  1.0
  C  C60  1  0.08084000  0.51504000  0.41348000  1.0
  C  C61  1  0.43425000  0.51474000  0.91333000  1.0
  C  C62  1  0.91916000  0.48496000  0.58652000  1.0
  C  C63  1  0.56575000  0.48526000  0.08667000  1.0
  C  C64  1  0.09520000  0.97911000  0.41878000  1.0
  C  C65  1  0.88378000  0.97904000  0.91880000  1.0
  C  C66  1  0.90480000  0.02088000  0.58121000  1.0
  C  C67  1  0.11622000  0.02096000  0.08120000  1.0
  C  C68  1  0.64925000  0.10110000  0.43169000  1.0
  C  C69  1  0.45148000  0.10090000  0.93158000  1.0
  C  C70  1  0.35076000  0.89890000  0.56830000  1.0
  C  C71  1  0.54852000  0.89910000  0.06843000  1.0
  C  C72  1  0.50444000  0.00157000  0.40242000  1.0
  C  C73  1  0.49681000  0.00137000  0.90229000  1.0
  C  C74  1  0.49556000  0.99843000  0.59758000  1.0
  C  C75  1  0.50319000  0.99863000  0.09772000  1.0
  C  C76  1  0.48933000  0.88863000  0.34437000  1.0
  C  C77  1  0.39897000  0.88843000  0.84424000  1.0
  C  C78  1  0.51067000  0.11137000  0.65563000  1.0
  C  C79  1  0.60103000  0.11157000  0.15576000  1.0
  C  C80  1  0.62376000  0.88516000  0.31630000  1.0
  C  C81  1  0.26100000  0.88494000  0.81622000  1.0
  C  C82  1  0.37624000  0.11484000  0.68370000  1.0
  C  C83  1  0.73900000  0.11506000  0.18379000  1.0
  C  C84  1  0.76463000  0.98884000  0.34855000  1.0
  C  C85  1  0.22372000  0.98859000  0.84851000  1.0
  C  C86  1  0.23537000  0.01116000  0.65144000  1.0
  C  C87  1  0.77628000  0.01142000  0.15150000  1.0
  C  C88  1  0.17078000  0.50773000  0.04453000  1.0
  C  C89  1  0.33706000  0.50756000  0.54458000  1.0
  C  C90  1  0.82921000  0.49227000  0.95547000  1.0
  C  C91  1  0.66294000  0.49244000  0.45542000  1.0
  C  C92  1  0.14551000  0.60518000  0.09781000  1.0
  C  C93  1  0.45991000  0.60486000  0.59785000  1.0
  C  C94  1  0.85448000  0.39482000  0.90220000  1.0
  C  C95  1  0.54010000  0.39515000  0.40215000  1.0
  C  C96  1  0.09507000  0.58773000  0.16980000  1.0
  C  C97  1  0.49268000  0.58747000  0.66992000  1.0
  C  C98  1  0.90492000  0.41226000  0.83020000  1.0
  C  C99  1  0.50733000  0.41254000  0.33008000  1.0
  C  C100  1  0.06856000  0.46863000  0.18298000  1.0
  C  C101  1  0.39977000  0.46849000  0.68315000  1.0
  C  C102  1  0.93143000  0.53137000  0.81702000  1.0
  C  C103  1  0.60023000  0.53151000  0.31685000  1.0
  C  C104  1  0.09782000  0.37604000  0.12704000  1.0
  C  C105  1  0.27779000  0.37607000  0.62722000  1.0
  C  C106  1  0.90217000  0.62396000  0.87297000  1.0
  C  C107  1  0.72221000  0.62393000  0.37278000  1.0
  C  C108  1  0.33537000  0.77748000  0.31331000  1.0
  C  C109  1  0.44183000  0.77729000  0.81316000  1.0
  C  C110  1  0.66463000  0.22252000  0.68669000  1.0
  C  C111  1  0.55817000  0.22271000  0.18683000  1.0
  C  C112  1  0.23609000  0.81137000  0.26336000  1.0
  C  C113  1  0.57516000  0.81115000  0.76335000  1.0
  C  C114  1  0.76391000  0.18863000  0.73664000  1.0
  C  C115  1  0.42484000  0.18885000  0.23665000  1.0
  C  C116  1  0.07940000  0.69593000  0.23109000  1.0
  C  C117  1  0.61650000  0.69570000  0.73123000  1.0
  C  C118  1  0.92060000  0.30407000  0.76891000  1.0
  C  C119  1  0.38350000  0.30431000  0.26876000  1.0
  S  S120  1  0.06333000  0.37102000  0.36315000  1.0
  S  S121  1  0.30758000  0.37076000  0.86308000  1.0
  S  S122  1  0.93667000  0.62898000  0.63685000  1.0
  S  S123  1  0.69241000  0.62924000  0.13692000  1.0
  S  S124  1  0.17212000  0.11453000  0.39453000  1.0
  S  S125  1  0.94209000  0.11449000  0.89461000  1.0
  S  S126  1  0.82788000  0.88547000  0.60547000  1.0
  S  S127  1  0.05791000  0.88551000  0.10539000  1.0
  N  N128  1  0.09853000  0.62122000  0.44953000  1.0
  N  N129  1  0.52288000  0.62092000  0.94935000  1.0
  N  N130  1  0.90147000  0.37877000  0.55047000  1.0
  N  N131  1  0.47712000  0.37908000  0.05066000  1.0
  N  N132  1  0.04003000  0.87838000  0.43354000  1.0
  N  N133  1  0.83834000  0.87827000  0.93351000  1.0
  N  N134  1  0.95997000  0.12161000  0.56646000  1.0
  N  N135  1  0.16166000  0.12173000  0.06650000  1.0
  N  N136  1  0.77808000  0.09446000  0.40622000  1.0
  N  N137  1  0.31593000  0.09423000  0.90615000  1.0
  N  N138  1  0.22193000  0.90554000  0.59378000  1.0
  N  N139  1  0.68407000  0.90577000  0.09385000  1.0
  N  N140  1  0.14962000  0.39530000  0.05904000  1.0
  N  N141  1  0.24544000  0.39533000  0.55917000  1.0
  N  N142  1  0.85037000  0.60470000  0.94096000  1.0
  N  N143  1  0.75457000  0.60467000  0.44083000  1.0
