# generated using pymatgen
data_K2Pr2H2C8O17
_symmetry_space_group_name_H-M   'P 1'
_cell_length_a   8.51998000
_cell_length_b   12.20640000
_cell_length_c   15.77600000
_cell_angle_alpha   93.19620000
_cell_angle_beta   90.00000000
_cell_angle_gamma   90.00000000
_symmetry_Int_Tables_number   1
_chemical_formula_structural   K2Pr2H2C8O17
_chemical_formula_sum   'K8 Pr8 H8 C32 O68'
_cell_volume   1638.12479468
_cell_formula_units_Z   4
loop_
 _symmetry_equiv_pos_site_id
 _symmetry_equiv_pos_as_xyz
  1  'x, y, z'
loop_
 _atom_site_type_symbol
 _atom_site_label
 _atom_site_symmetry_multiplicity
 _atom_site_fract_x
 _atom_site_fract_y
 _atom_site_fract_z
 _atom_site_occupancy
  K  K0  1  0.15344000  0.24867000  0.14590000  1.0
  K  K1  1  0.65344000  0.25133000  0.35411000  1.0
  K  K2  1  0.84656000  0.75134000  0.85410000  1.0
  K  K3  1  0.34656000  0.74867000  0.64589000  1.0
  K  K4  1  0.25331000  0.25605000  0.73514000  1.0
  K  K5  1  0.75331000  0.24395000  0.76486000  1.0
  K  K6  1  0.74669000  0.74395000  0.26486000  1.0
  K  K7  1  0.24669000  0.75605000  0.23514000  1.0
  Pr  Pr8  1  0.32545000  0.54721000  0.90849000  1.0
  Pr  Pr9  1  0.82545000  0.95279000  0.59151000  1.0
  Pr  Pr10  1  0.67455000  0.45279000  0.09151000  1.0
  Pr  Pr11  1  0.17455000  0.04721000  0.40849000  1.0
  Pr  Pr12  1  0.83152000  0.48244000  0.60089000  1.0
  Pr  Pr13  1  0.33152000  0.01756000  0.89911000  1.0
  Pr  Pr14  1  0.16848000  0.51756000  0.39911000  1.0
  Pr  Pr15  1  0.66848000  0.98244000  0.10089000  1.0
  H  H16  1  0.40720000  0.23591000  0.53546000  1.0
  H  H17  1  0.90720000  0.26409000  0.96454000  1.0
  H  H18  1  0.59280000  0.76409000  0.46454000  1.0
  H  H19  1  0.09280000  0.73591000  0.03546000  1.0
  H  H20  1  0.48038000  0.31021000  0.60979000  1.0
  H  H21  1  0.98039000  0.18979000  0.89021000  1.0
  H  H22  1  0.51961000  0.68979000  0.39021000  1.0
  H  H23  1  0.01962000  0.81021000  0.10979000  1.0
  C  C24  1  0.63336000  0.56130000  0.77615000  1.0
  C  C25  1  0.13337000  0.93870000  0.72386000  1.0
  C  C26  1  0.36664000  0.43870000  0.22385000  1.0
  C  C27  1  0.86663000  0.06130000  0.27614000  1.0
  C  C28  1  0.54808000  0.45560000  0.74336000  1.0
  C  C29  1  0.04808000  0.04440000  0.75664000  1.0
  C  C30  1  0.45192000  0.54440000  0.25664000  1.0
  C  C31  1  0.95192000  0.95560000  0.24336000  1.0
  C  C32  1  0.46368000  0.28296000  0.95466000  1.0
  C  C33  1  0.96368000  0.21704000  0.54534000  1.0
  C  C34  1  0.53632000  0.71704000  0.04534000  1.0
  C  C35  1  0.03632000  0.78296000  0.45466000  1.0
  C  C36  1  0.56810000  0.20774000  0.00702000  1.0
  C  C37  1  0.06810000  0.29226000  0.49298000  1.0
  C  C38  1  0.43189000  0.79226000  0.99298000  1.0
  C  C39  1  0.93190000  0.70773000  0.50702000  1.0
  C  C40  1  0.03800000  0.44955000  0.01960000  1.0
  C  C41  1  0.53801000  0.05045000  0.48040000  1.0
  C  C42  1  0.96199000  0.55045000  0.98040000  1.0
  C  C43  1  0.46200000  0.94955000  0.51960000  1.0
  C  C44  1  0.05992000  0.45793000  0.76788000  1.0
  C  C45  1  0.55992000  0.04207000  0.73212000  1.0
  C  C46  1  0.94008000  0.54207000  0.23212000  1.0
  C  C47  1  0.44008000  0.95793000  0.26788000  1.0
  C  C48  1  0.11768000  0.56652000  0.73156000  1.0
  C  C49  1  0.61767000  0.93349000  0.76844000  1.0
  C  C50  1  0.88233000  0.43348000  0.26844000  1.0
  C  C51  1  0.38233000  0.06651000  0.23156000  1.0
  C  C52  1  0.52485000  0.45019000  0.47081000  1.0
  C  C53  1  0.02485000  0.04981000  0.02919000  1.0
  C  C54  1  0.47515000  0.54981000  0.52919000  1.0
  C  C55  1  0.97515000  0.95019000  0.97081000  1.0
  O  O56  1  0.42487000  0.42979000  0.78169000  1.0
  O  O57  1  0.92487000  0.07021000  0.71832000  1.0
  O  O58  1  0.57512000  0.57021000  0.21831000  1.0
  O  O59  1  0.07513000  0.92979000  0.28169000  1.0
  O  O60  1  0.57316000  0.61350000  0.83954000  1.0
  O  O61  1  0.07316000  0.88650000  0.66046000  1.0
  O  O62  1  0.42684000  0.38650000  0.16046000  1.0
  O  O63  1  0.92684000  0.11350000  0.33954000  1.0
  O  O64  1  0.61093000  0.39880000  0.68221000  1.0
  O  O65  1  0.11093000  0.10120000  0.81779000  1.0
  O  O66  1  0.38907000  0.60120000  0.31779000  1.0
  O  O67  1  0.88907000  0.89880000  0.18221000  1.0
  O  O68  1  0.75857000  0.58574000  0.73837000  1.0
  O  O69  1  0.25856000  0.91426000  0.76163000  1.0
  O  O70  1  0.24143000  0.41426000  0.26163000  1.0
  O  O71  1  0.74144000  0.08574000  0.23837000  1.0
  O  O72  1  0.49665000  0.38594000  0.96210000  1.0
  O  O73  1  0.99665000  0.11406000  0.53790000  1.0
  O  O74  1  0.50335000  0.61406000  0.03790000  1.0
  O  O75  1  0.00335000  0.88594000  0.46210000  1.0
  O  O76  1  0.18568000  0.44376000  0.02000000  1.0
  O  O77  1  0.68569000  0.05624000  0.48000000  1.0
  O  O78  1  0.81431000  0.55624000  0.98000000  1.0
  O  O79  1  0.31432000  0.94376000  0.52000000  1.0
  O  O80  1  0.11431000  0.43162000  0.83828000  1.0
  O  O81  1  0.61432000  0.06838000  0.66172000  1.0
  O  O82  1  0.88569000  0.56838000  0.16172000  1.0
  O  O83  1  0.38568000  0.93162000  0.33828000  1.0
  O  O84  1  0.21665000  0.62231000  0.77603000  1.0
  O  O85  1  0.71665000  0.87769000  0.72397000  1.0
  O  O86  1  0.78335000  0.37769000  0.22397000  1.0
  O  O87  1  0.28335000  0.12231000  0.27603000  1.0
  O  O88  1  0.96804000  0.39815000  0.72163000  1.0
  O  O89  1  0.46804000  0.10185000  0.77836000  1.0
  O  O90  1  0.03196000  0.60185000  0.27837000  1.0
  O  O91  1  0.53196000  0.89815000  0.22164000  1.0
  O  O92  1  0.06556000  0.58960000  0.65984000  1.0
  O  O93  1  0.56556000  0.91040000  0.84016000  1.0
  O  O94  1  0.93444000  0.41040000  0.34016000  1.0
  O  O95  1  0.43444000  0.08960000  0.15984000  1.0
  O  O96  1  0.35709000  0.23794000  0.91044000  1.0
  O  O97  1  0.85709000  0.26206000  0.58956000  1.0
  O  O98  1  0.64291000  0.76206000  0.08956000  1.0
  O  O99  1  0.14291000  0.73794000  0.41044000  1.0
  O  O100  1  0.65652000  0.25062000  0.06305000  1.0
  O  O101  1  0.15652000  0.24938000  0.43695000  1.0
  O  O102  1  0.34348000  0.74938000  0.93694000  1.0
  O  O103  1  0.84348000  0.75062000  0.56305000  1.0
  O  O104  1  0.55423000  0.10435000  0.99008000  1.0
  O  O105  1  0.05423000  0.39565000  0.50992000  1.0
  O  O106  1  0.44577000  0.89565000  0.00992000  1.0
  O  O107  1  0.94577000  0.60435000  0.49008000  1.0
  O  O108  1  0.94471000  0.37921000  0.04902000  1.0
  O  O109  1  0.44472000  0.12079000  0.45098000  1.0
  O  O110  1  0.05528000  0.62079000  0.95098000  1.0
  O  O111  1  0.55529000  0.87922000  0.54902000  1.0
  O  O112  1  0.66000000  0.40989000  0.48352000  1.0
  O  O113  1  0.16000000  0.09011000  0.01648000  1.0
  O  O114  1  0.34000000  0.59011000  0.51648000  1.0
  O  O115  1  0.84000000  0.90989000  0.98352000  1.0
  O  O116  1  0.42871000  0.41569000  0.41449000  1.0
  O  O117  1  0.92871000  0.08431000  0.08551000  1.0
  O  O118  1  0.57129000  0.58431000  0.58551000  1.0
  O  O119  1  0.07128000  0.91569000  0.91449000  1.0
  O  O120  1  0.38069000  0.28148000  0.58661000  1.0
  O  O121  1  0.88069000  0.21852000  0.91339000  1.0
  O  O122  1  0.61931000  0.71852000  0.41339000  1.0
  O  O123  1  0.11931000  0.78148000  0.08661000  1.0
