# generated using pymatgen
data_Zn4H20C48O29
_symmetry_space_group_name_H-M   'P 1'
_cell_length_a   23.78902251
_cell_length_b   23.78850000
_cell_length_c   23.78710000
_cell_angle_alpha   113.63670000
_cell_angle_beta   107.43327761
_cell_angle_gamma   107.42922941
_symmetry_Int_Tables_number   1
_chemical_formula_structural   Zn4H20C48O29
_chemical_formula_sum   'Zn8 H40 C96 O58'
_cell_volume   10320.64757347
_cell_formula_units_Z   2
loop_
 _symmetry_equiv_pos_site_id
 _symmetry_equiv_pos_as_xyz
  1  'x, y, z'
loop_
 _atom_site_type_symbol
 _atom_site_label
 _atom_site_symmetry_multiplicity
 _atom_site_fract_x
 _atom_site_fract_y
 _atom_site_fract_z
 _atom_site_occupancy
  Zn  Zn0  1  0.94328000  0.89931000  0.45603000  1.0
  Zn  Zn1  1  0.94328000  0.04396000  0.48723000  1.0
  Zn  Zn2  1  0.05673000  0.04397000  0.60071000  1.0
  Zn  Zn3  1  0.05671000  0.01275000  0.45602000  1.0
  Zn  Zn4  1  0.05673000  0.60069000  0.04398000  1.0
  Zn  Zn5  1  0.94326000  0.45601000  0.89929000  1.0
  Zn  Zn6  1  0.05673000  0.45604000  0.01276000  1.0
  Zn  Zn7  1  0.94328000  0.48724000  0.04397000  1.0
  H  H8  1  0.07641000  0.87457000  0.29821000  1.0
  H  H9  1  0.92365000  0.62542000  0.20185000  1.0
  H  H10  1  0.07637000  0.77821000  0.20180000  1.0
  H  H11  1  0.92356000  0.72178000  0.29813000  1.0
  H  H12  1  0.07643000  0.20187000  0.77823000  1.0
  H  H13  1  0.92363000  0.29820000  0.72175000  1.0
  H  H14  1  0.07636000  0.29817000  0.87459000  1.0
  H  H15  1  0.92358000  0.20177000  0.62541000  1.0
  H  H16  1  0.08024000  0.72784000  0.96336000  1.0
  H  H17  1  0.91973000  0.53661000  0.77211000  1.0
  H  H18  1  0.07298000  0.96530000  0.72984000  1.0
  H  H19  1  0.92706000  0.77019000  0.53468000  1.0
  H  H20  1  0.91975000  0.38309000  0.14759000  1.0
  H  H21  1  0.08025000  0.35238000  0.11687000  1.0
  H  H22  1  0.92705000  0.15688000  0.39236000  1.0
  H  H23  1  0.07298000  0.10768000  0.34318000  1.0
  H  H24  1  0.26451000  0.72981000  0.15685000  1.0
  H  H25  1  0.26452000  0.53469000  0.10766000  1.0
  H  H26  1  0.73551000  0.96337000  0.38314000  1.0
  H  H27  1  0.73550000  0.77215000  0.35242000  1.0
  H  H28  1  0.73548000  0.34312000  0.77017000  1.0
  H  H29  1  0.73549000  0.39234000  0.96532000  1.0
  H  H30  1  0.26448000  0.11686000  0.53662000  1.0
  H  H31  1  0.26451000  0.14761000  0.72787000  1.0
  H  H32  1  0.87870000  0.65877000  0.70454000  1.0
  H  H33  1  0.12131000  0.79542000  0.84123000  1.0
  H  H34  1  0.98923000  0.67502000  0.63004000  1.0
  H  H35  1  0.01081000  0.86993000  0.82498000  1.0
  H  H36  1  0.12131000  0.32588000  0.28008000  1.0
  H  H37  1  0.87872000  0.21991000  0.17412000  1.0
  H  H38  1  0.01080000  0.14085000  0.18583000  1.0
  H  H39  1  0.98923000  0.31420000  0.35915000  1.0
  H  H40  1  0.45504000  0.63007000  0.14086000  1.0
  H  H41  1  0.45503000  0.82497000  0.31420000  1.0
  H  H42  1  0.54579000  0.70459000  0.32590000  1.0
  H  H43  1  0.54580000  0.84122000  0.21993000  1.0
  H  H44  1  0.54497000  0.35914000  0.86994000  1.0
  H  H45  1  0.54496000  0.18579000  0.67502000  1.0
  H  H46  1  0.45421000  0.17412000  0.79543000  1.0
  H  H47  1  0.45419000  0.28005000  0.65876000  1.0
  C  C48  1  0.81871000  0.90937000  0.40937000  1.0
  C  C49  1  0.00001000  0.13915000  0.63916000  1.0
  C  C50  1  0.00002000  0.90936000  0.59067000  1.0
  C  C51  1  0.18129000  0.09064000  0.59064000  1.0
  C  C52  1  0.99998000  0.86085000  0.36083000  1.0
  C  C53  1  0.00001000  0.09067000  0.40936000  1.0
  C  C54  1  0.99999000  0.59063000  0.90935000  1.0
  C  C55  1  0.99999000  0.36085000  0.86083000  1.0
  C  C56  1  0.18131000  0.59065000  0.09066000  1.0
  C  C57  1  0.00001000  0.40935000  0.09064000  1.0
  C  C58  1  0.00003000  0.63916000  0.13918000  1.0
  C  C59  1  0.81869000  0.40934000  0.90935000  1.0
  C  C60  1  0.99998000  0.80354000  0.30353000  1.0
  C  C61  1  0.00002000  0.69646000  0.19648000  1.0
  C  C62  1  0.04321000  0.81990000  0.27669000  1.0
  C  C63  1  0.95680000  0.68010000  0.22332000  1.0
  C  C64  1  0.04321000  0.76653000  0.22332000  1.0
  C  C65  1  0.95677000  0.73347000  0.27666000  1.0
  C  C66  1  0.00001000  0.19646000  0.69646000  1.0
  C  C67  1  0.00000000  0.30355000  0.80353000  1.0
  C  C68  1  0.04322000  0.22333000  0.76653000  1.0
  C  C69  1  0.95679000  0.27668000  0.73345000  1.0
  C  C70  1  0.04321000  0.27670000  0.81991000  1.0
  C  C71  1  0.95679000  0.22330000  0.68009000  1.0
  C  C72  1  0.99999000  0.62822000  0.87174000  1.0
  C  C73  1  0.04535000  0.69940000  0.90770000  1.0
  C  C74  1  0.04731000  0.73460000  0.87294000  1.0
  C  C75  1  0.00000000  0.69900000  0.80096000  1.0
  C  C76  1  0.95268000  0.62703000  0.76535000  1.0
  C  C77  1  0.95463000  0.59226000  0.80055000  1.0
  C  C78  1  0.00001000  0.73459000  0.76536000  1.0
  C  C79  1  0.00002000  0.76536000  0.73459000  1.0
  C  C80  1  0.00002000  0.80096000  0.69900000  1.0
  C  C81  1  0.03959000  0.87499000  0.73668000  1.0
  C  C82  1  0.04062000  0.90897000  0.70070000  1.0
  C  C83  1  0.00002000  0.87175000  0.62825000  1.0
  C  C84  1  0.95941000  0.79930000  0.59101000  1.0
  C  C85  1  0.96044000  0.76330000  0.62497000  1.0
  C  C86  1  0.00000000  0.37174000  0.12823000  1.0
  C  C87  1  0.95464000  0.36233000  0.15404000  1.0
  C  C88  1  0.95269000  0.32562000  0.18729000  1.0
  C  C89  1  0.00000000  0.30096000  0.19900000  1.0
  C  C90  1  0.04731000  0.31267000  0.17434000  1.0
  C  C91  1  0.04535000  0.34591000  0.13762000  1.0
  C  C92  1  0.00000000  0.26536000  0.23460000  1.0
  C  C93  1  0.00001000  0.23462000  0.26538000  1.0
  C  C94  1  0.00002000  0.19904000  0.30100000  1.0
  C  C95  1  0.96045000  0.19714000  0.33546000  1.0
  C  C96  1  0.95941000  0.16012000  0.36839000  1.0
  C  C97  1  0.00002000  0.12828000  0.37178000  1.0
  C  C98  1  0.04063000  0.13166000  0.33995000  1.0
  C  C99  1  0.03960000  0.16460000  0.30293000  1.0
  C  C100  1  0.25650000  0.62824000  0.12825000  1.0
  C  C101  1  0.29172000  0.70069000  0.16009000  1.0
  C  C102  1  0.36167000  0.73668000  0.19711000  1.0
  C  C103  1  0.39804000  0.69902000  0.19904000  1.0
  C  C104  1  0.36168000  0.62500000  0.16458000  1.0
  C  C105  1  0.29173000  0.59103000  0.13164000  1.0
  C  C106  1  0.46924000  0.73464000  0.23466000  1.0
  C  C107  1  0.53077000  0.76540000  0.26543000  1.0
  C  C108  1  0.60196000  0.80099000  0.30101000  1.0
  C  C109  1  0.63833000  0.87296000  0.32567000  1.0
  C  C110  1  0.70829000  0.90772000  0.36238000  1.0
  C  C111  1  0.74352000  0.87177000  0.37179000  1.0
  C  C112  1  0.70829000  0.80059000  0.34596000  1.0
  C  C113  1  0.63834000  0.76540000  0.31273000  1.0
  C  C114  1  0.74350000  0.37174000  0.87175000  1.0
  C  C115  1  0.70827000  0.33989000  0.79929000  1.0
  C  C116  1  0.63832000  0.30287000  0.76331000  1.0
  C  C117  1  0.60196000  0.30095000  0.80097000  1.0
  C  C118  1  0.63833000  0.33542000  0.87501000  1.0
  C  C119  1  0.70828000  0.36836000  0.90898000  1.0
  C  C120  1  0.53077000  0.26535000  0.76537000  1.0
  C  C121  1  0.46924000  0.23458000  0.73461000  1.0
  C  C122  1  0.39804000  0.19899000  0.69901000  1.0
  C  C123  1  0.36166000  0.17433000  0.62703000  1.0
  C  C124  1  0.29170000  0.13762000  0.59227000  1.0
  C  C125  1  0.25649000  0.12823000  0.62824000  1.0
  C  C126  1  0.29171000  0.15405000  0.69942000  1.0
  C  C127  1  0.36167000  0.18729000  0.73462000  1.0
  C  C128  1  0.89993000  0.58341000  0.68947000  1.0
  C  C129  1  0.10006000  0.81048000  0.91658000  1.0
  C  C130  1  0.91673000  0.68503000  0.57887000  1.0
  C  C131  1  0.08330000  0.92109000  0.81497000  1.0
  C  C132  1  0.10007000  0.28956000  0.18348000  1.0
  C  C133  1  0.89993000  0.31649000  0.21040000  1.0
  C  C134  1  0.08330000  0.16220000  0.26835000  1.0
  C  C135  1  0.91673000  0.23170000  0.33783000  1.0
  C  C136  1  0.39386000  0.57890000  0.16218000  1.0
  C  C137  1  0.39385000  0.81497000  0.23169000  1.0
  C  C138  1  0.60609000  0.68952000  0.28962000  1.0
  C  C139  1  0.60608000  0.91658000  0.31653000  1.0
  C  C140  1  0.60615000  0.33781000  0.92111000  1.0
  C  C141  1  0.60613000  0.26829000  0.68502000  1.0
  C  C142  1  0.39392000  0.21042000  0.81050000  1.0
  C  C143  1  0.39390000  0.18345000  0.58340000  1.0
  O  O144  1  0.00001000  0.00000000  0.50001000  1.0
  O  O145  1  0.84732000  0.87266000  0.41387000  1.0
  O  O146  1  0.95962000  0.11694000  0.57645000  1.0
  O  O147  1  0.04038000  0.97490000  0.62763000  1.0
  O  O148  1  0.84731000  0.97466000  0.43345000  1.0
  O  O149  1  0.95965000  0.87241000  0.52512000  1.0
  O  O150  1  0.04040000  0.11684000  0.65735000  1.0
  O  O151  1  0.15269000  0.08615000  0.62735000  1.0
  O  O152  1  0.04035000  0.92354000  0.38302000  1.0
  O  O153  1  0.15268000  0.06652000  0.52532000  1.0
  O  O154  1  0.95960000  0.84266000  0.38315000  1.0
  O  O155  1  0.95963000  0.08723000  0.43452000  1.0
  O  O156  1  0.04037000  0.06549000  0.41277000  1.0
  O  O157  1  0.00000000  0.50000000  0.00000000  1.0
  O  O158  1  0.04121000  0.62734000  0.97467000  1.0
  O  O159  1  0.95947000  0.38303000  0.84263000  1.0
  O  O160  1  0.15272000  0.52511000  0.06548000  1.0
  O  O161  1  0.95878000  0.52532000  0.87264000  1.0
  O  O162  1  0.15272000  0.62760000  0.08726000  1.0
  O  O163  1  0.04050000  0.38318000  0.92353000  1.0
  O  O164  1  0.04121000  0.41385000  0.06654000  1.0
  O  O165  1  0.95953000  0.57645000  0.11686000  1.0
  O  O166  1  0.95881000  0.43347000  0.08616000  1.0
  O  O167  1  0.04052000  0.65734000  0.11697000  1.0
  O  O168  1  0.84728000  0.41276000  0.87240000  1.0
  O  O169  1  0.84729000  0.43453000  0.97491000  1.0
  O  O170  1  0.86297000  0.61122000  0.66687000  1.0
  O  O171  1  0.88872000  0.52468000  0.65047000  1.0
  O  O172  1  0.13703000  0.83308000  0.88878000  1.0
  O  O173  1  0.11125000  0.84946000  0.97529000  1.0
  O  O174  1  0.94409000  0.64527000  0.58981000  1.0
  O  O175  1  0.86036000  0.65810000  0.53181000  1.0
  O  O176  1  0.05596000  0.91014000  0.85474000  1.0
  O  O177  1  0.13967000  0.96815000  0.84190000  1.0
  O  O178  1  0.13705000  0.30395000  0.24826000  1.0
  O  O179  1  0.11127000  0.26177000  0.13596000  1.0
  O  O180  1  0.86298000  0.25173000  0.19605000  1.0
  O  O181  1  0.88872000  0.36400000  0.23818000  1.0
  O  O182  1  0.05594000  0.14578000  0.20123000  1.0
  O  O183  1  0.13967000  0.17152000  0.29780000  1.0
  O  O184  1  0.94409000  0.29881000  0.35422000  1.0
  O  O185  1  0.86037000  0.20227000  0.32852000  1.0
  O  O186  1  0.44458000  0.58986000  0.14580000  1.0
  O  O187  1  0.37373000  0.53184000  0.17150000  1.0
  O  O188  1  0.44456000  0.85472000  0.29881000  1.0
  O  O189  1  0.37371000  0.84188000  0.20224000  1.0
  O  O190  1  0.55569000  0.66693000  0.30398000  1.0
  O  O191  1  0.62584000  0.65054000  0.26186000  1.0
  O  O192  1  0.55568000  0.88877000  0.25175000  1.0
  O  O193  1  0.62580000  0.97530000  0.36405000  1.0
  O  O194  1  0.55544000  0.35420000  0.91016000  1.0
  O  O195  1  0.62628000  0.32849000  0.96816000  1.0
  O  O196  1  0.55542000  0.20119000  0.64527000  1.0
  O  O197  1  0.62625000  0.29772000  0.65809000  1.0
  O  O198  1  0.44433000  0.19606000  0.83311000  1.0
  O  O199  1  0.37419000  0.23821000  0.84949000  1.0
  O  O200  1  0.44430000  0.24822000  0.61120000  1.0
  O  O201  1  0.37417000  0.13594000  0.52468000  1.0
