# generated using pymatgen
data_Cu2H8C13N2O5
_symmetry_space_group_name_H-M   'P 1'
_cell_length_a   8.02604000
_cell_length_b   8.02599000
_cell_length_c   12.29170000
_cell_angle_alpha   83.82700000
_cell_angle_beta   83.82740000
_cell_angle_gamma   61.65230000
_symmetry_Int_Tables_number   1
_chemical_formula_structural   Cu2H8C13N2O5
_chemical_formula_sum   'Cu4 H16 C26 N4 O10'
_cell_volume   691.35879770
_cell_formula_units_Z   2
loop_
 _symmetry_equiv_pos_site_id
 _symmetry_equiv_pos_as_xyz
  1  'x, y, z'
loop_
 _atom_site_type_symbol
 _atom_site_label
 _atom_site_symmetry_multiplicity
 _atom_site_fract_x
 _atom_site_fract_y
 _atom_site_fract_z
 _atom_site_occupancy
  Cu  Cu0  1  0.99176000  0.88451000  0.32659000  1.0
  Cu  Cu1  1  0.11550000  0.00823000  0.17340000  1.0
  Cu  Cu2  1  0.00824000  0.11551000  0.67341000  1.0
  Cu  Cu3  1  0.88451000  0.99176000  0.82659000  1.0
  H  H4  1  0.61852000  0.94291000  0.29677000  1.0
  H  H5  1  0.05709000  0.38147000  0.20323000  1.0
  H  H6  1  0.38148000  0.05709000  0.70323000  1.0
  H  H7  1  0.94290000  0.61853000  0.79678000  1.0
  H  H8  1  0.46670000  0.64481000  0.56714000  1.0
  H  H9  1  0.35519000  0.53331000  0.93286000  1.0
  H  H10  1  0.53332000  0.35517000  0.43286000  1.0
  H  H11  1  0.64480000  0.46670000  0.06715000  1.0
  H  H12  1  0.76446000  0.58244000  0.65317000  1.0
  H  H13  1  0.41755000  0.23555000  0.84683000  1.0
  H  H14  1  0.23555000  0.41755000  0.34683000  1.0
  H  H15  1  0.58243000  0.76447000  0.15317000  1.0
  H  H16  1  0.97265000  0.71208000  0.55433000  1.0
  H  H17  1  0.28792000  0.02735000  0.94566000  1.0
  H  H18  1  0.02735000  0.28794000  0.44567000  1.0
  H  H19  1  0.71207000  0.97266000  0.05433000  1.0
  C  C20  1  0.35086000  0.84080000  0.36576000  1.0
  C  C21  1  0.15920000  0.64914000  0.13424000  1.0
  C  C22  1  0.64915000  0.15918000  0.63424000  1.0
  C  C23  1  0.84078000  0.35086000  0.86577000  1.0
  C  C24  1  0.64763000  0.86244000  0.37572000  1.0
  C  C25  1  0.13756000  0.35237000  0.12427000  1.0
  C  C26  1  0.35238000  0.13756000  0.62428000  1.0
  C  C27  1  0.86243000  0.64763000  0.87573000  1.0
  C  C28  1  0.52252000  0.79706000  0.42465000  1.0
  C  C29  1  0.20294000  0.47747000  0.07534000  1.0
  C  C30  1  0.47748000  0.20293000  0.57534000  1.0
  C  C31  1  0.79705000  0.52253000  0.92466000  1.0
  C  C32  1  0.56274000  0.69599000  0.52665000  1.0
  C  C33  1  0.30401000  0.43726000  0.97335000  1.0
  C  C34  1  0.43727000  0.30400000  0.47335000  1.0
  C  C35  1  0.69598000  0.56275000  0.02665000  1.0
  C  C36  1  0.72571000  0.66420000  0.57487000  1.0
  C  C37  1  0.33579000  0.27429000  0.92512000  1.0
  C  C38  1  0.27430000  0.33580000  0.42512000  1.0
  C  C39  1  0.66420000  0.72572000  0.07488000  1.0
  C  C40  1  0.84314000  0.73411000  0.52036000  1.0
  C  C41  1  0.26588000  0.15686000  0.97963000  1.0
  C  C42  1  0.15686000  0.26589000  0.47964000  1.0
  C  C43  1  0.73411000  0.84315000  0.02037000  1.0
  C  C44  1  0.87542000  0.12458000  0.25000000  1.0
  C  C45  1  0.12460000  0.87542000  0.75001000  1.0
  N  N46  1  0.80511000  0.83179000  0.42170000  1.0
  N  N47  1  0.16821000  0.19489000  0.07829000  1.0
  N  N48  1  0.19489000  0.16822000  0.57830000  1.0
  N  N49  1  0.83179000  0.80511000  0.92171000  1.0
  O  O50  1  0.34665000  0.91411000  0.26804000  1.0
  O  O51  1  0.08589000  0.65334000  0.23196000  1.0
  O  O52  1  0.65337000  0.08584000  0.73195000  1.0
  O  O53  1  0.91409000  0.34666000  0.76805000  1.0
  O  O54  1  0.22347000  0.80492000  0.41630000  1.0
  O  O55  1  0.19510000  0.77653000  0.08370000  1.0
  O  O56  1  0.77653000  0.19509000  0.58371000  1.0
  O  O57  1  0.80489000  0.22347000  0.91630000  1.0
  O  O58  1  0.73193000  0.26808000  0.25000000  1.0
  O  O59  1  0.26809000  0.73194000  0.75001000  1.0
