# generated using pymatgen
data_Zn4H32C48N4O21
_symmetry_space_group_name_H-M   'P 1'
_cell_length_a   23.61496166
_cell_length_b   23.61440000
_cell_length_c   23.61870000
_cell_angle_alpha   107.20100000
_cell_angle_beta   107.19245672
_cell_angle_gamma   114.12335223
_symmetry_Int_Tables_number   1
_chemical_formula_structural   Zn4H32C48N4O21
_chemical_formula_sum   'Zn8 H64 C96 N8 O42'
_cell_volume   10088.45211090
_cell_formula_units_Z   2
loop_
 _symmetry_equiv_pos_site_id
 _symmetry_equiv_pos_as_xyz
  1  'x, y, z'
loop_
 _atom_site_type_symbol
 _atom_site_label
 _atom_site_symmetry_multiplicity
 _atom_site_fract_x
 _atom_site_fract_y
 _atom_site_fract_z
 _atom_site_occupancy
  Zn  Zn0  1  0.48266000  0.54137000  0.44180000  1.0
  Zn  Zn1  1  0.45863000  0.51733000  0.55822000  1.0
  Zn  Zn2  1  0.45911000  0.40039000  0.44179000  1.0
  Zn  Zn3  1  0.59959000  0.54088000  0.55820000  1.0
  Zn  Zn4  1  0.01753000  0.95927000  0.55880000  1.0
  Zn  Zn5  1  0.04126000  0.09957000  0.55881000  1.0
  Zn  Zn6  1  0.04073000  0.98246000  0.44121000  1.0
  Zn  Zn7  1  0.90045000  0.95875000  0.44119000  1.0
  H  H8  1  0.19171000  0.10251000  0.88933000  1.0
  H  H9  1  0.19786000  0.28702000  0.88935000  1.0
  H  H10  1  0.26950000  0.20554000  0.11033000  1.0
  H  H11  1  0.34108000  0.40487000  0.11043000  1.0
  H  H12  1  0.71309000  0.80233000  0.11069000  1.0
  H  H13  1  0.89752000  0.80836000  0.11063000  1.0
  H  H14  1  0.59513000  0.65900000  0.88959000  1.0
  H  H15  1  0.79446000  0.73056000  0.88968000  1.0
  H  H16  1  0.15936000  0.76964000  0.56413000  1.0
  H  H17  1  0.23029000  0.84059000  0.43581000  1.0
  H  H18  1  0.30244000  0.69169000  0.58926000  1.0
  H  H19  1  0.30814000  0.69736000  0.41065000  1.0
  H  H20  1  0.90477000  0.29451000  0.56410000  1.0
  H  H21  1  0.70549000  0.09523000  0.43576000  1.0
  H  H22  1  0.78681000  0.39759000  0.58926000  1.0
  H  H23  1  0.60250000  0.21324000  0.41066000  1.0
  H  H24  1  0.15169000  0.00640000  0.79493000  1.0
  H  H25  1  0.13942000  0.00785000  0.71740000  1.0
  H  H26  1  0.06734000  0.97925000  0.73367000  1.0
  H  H27  1  0.14329000  0.28864000  0.79499000  1.0
  H  H28  1  0.07800000  0.20964000  0.71747000  1.0
  H  H29  1  0.16633000  0.25453000  0.73368000  1.0
  H  H30  1  0.28763000  0.19576000  0.20490000  1.0
  H  H31  1  0.31473000  0.26610000  0.28237000  1.0
  H  H32  1  0.37862000  0.25537000  0.26590000  1.0
  H  H33  1  0.41735000  0.50918000  0.20502000  1.0
  H  H34  1  0.46774000  0.51631000  0.28246000  1.0
  H  H35  1  0.38736000  0.51052000  0.26602000  1.0
  H  H36  1  0.71148000  0.85684000  0.20510000  1.0
  H  H37  1  0.79048000  0.92209000  0.28263000  1.0
  H  H38  1  0.74554000  0.83372000  0.26634000  1.0
  H  H39  1  0.99360000  0.84829000  0.20500000  1.0
  H  H40  1  0.99213000  0.86052000  0.28252000  1.0
  H  H41  1  0.02079000  0.93264000  0.26631000  1.0
  H  H42  1  0.49082000  0.58267000  0.79500000  1.0
  H  H43  1  0.48371000  0.53228000  0.71755000  1.0
  H  H44  1  0.48948000  0.61265000  0.73399000  1.0
  H  H45  1  0.80422000  0.71234000  0.79510000  1.0
  H  H46  1  0.73390000  0.68524000  0.71763000  1.0
  H  H47  1  0.74461000  0.62134000  0.73411000  1.0
  H  H48  1  0.08247000  0.78756000  0.59165000  1.0
  H  H49  1  0.03318000  0.81624000  0.54964000  1.0
  H  H50  1  0.11398000  0.87898000  0.62407000  1.0
  H  H51  1  0.21239000  0.91751000  0.40832000  1.0
  H  H52  1  0.18380000  0.96686000  0.45042000  1.0
  H  H53  1  0.12100000  0.88606000  0.37598000  1.0
  H  H54  1  0.35708000  0.65185000  0.64544000  1.0
  H  H55  1  0.42227000  0.63952000  0.63159000  1.0
  H  H56  1  0.33393000  0.56745000  0.58831000  1.0
  H  H57  1  0.34808000  0.64280000  0.35454000  1.0
  H  H58  1  0.36046000  0.57764000  0.36841000  1.0
  H  H59  1  0.43249000  0.66602000  0.41169000  1.0
  H  H60  1  0.00918000  0.30411000  0.59169000  1.0
  H  H61  1  0.01644000  0.23344000  0.54957000  1.0
  H  H62  1  0.01008000  0.24504000  0.62400000  1.0
  H  H63  1  0.69589000  0.99080000  0.40832000  1.0
  H  H64  1  0.76659000  0.98355000  0.45037000  1.0
  H  H65  1  0.75489000  0.98988000  0.37592000  1.0
  H  H66  1  0.78831000  0.49362000  0.64543000  1.0
  H  H67  1  0.70926000  0.49208000  0.63155000  1.0
  H  H68  1  0.75435000  0.52087000  0.58828000  1.0
  H  H69  1  0.50640000  0.21164000  0.35453000  1.0
  H  H70  1  0.50790000  0.29068000  0.36841000  1.0
  H  H71  1  0.47916000  0.24561000  0.41169000  1.0
  C  C72  1  0.40968000  0.59029000  0.50001000  1.0
  C  C73  1  0.36443000  0.36442000  0.50003000  1.0
  C  C74  1  0.40945000  0.40940000  0.31890000  1.0
  C  C75  1  0.59029000  0.40967000  0.49998000  1.0
  C  C76  1  0.63556000  0.63557000  0.49998000  1.0
  C  C77  1  0.59059000  0.59055000  0.68111000  1.0
  C  C78  1  0.09037000  0.09040000  0.68074000  1.0
  C  C79  1  0.13542000  0.13540000  0.50006000  1.0
  C  C80  1  0.09059000  0.90942000  0.50002000  1.0
  C  C81  1  0.90965000  0.90964000  0.31927000  1.0
  C  C82  1  0.86459000  0.86458000  0.49994000  1.0
  C  C83  1  0.90939000  0.09059000  0.49998000  1.0
  C  C84  1  0.69444000  0.69444000  0.49996000  1.0
  C  C85  1  0.80571000  0.80569000  0.49995000  1.0
  C  C86  1  0.76553000  0.72180000  0.54133000  1.0
  C  C87  1  0.73461000  0.77624000  0.45647000  1.0
  C  C88  1  0.81974000  0.77809000  0.54344000  1.0
  C  C89  1  0.68043000  0.72416000  0.45858000  1.0
  C  C90  1  0.30557000  0.30555000  0.50005000  1.0
  C  C91  1  0.19432000  0.19428000  0.50007000  1.0
  C  C92  1  0.27820000  0.23444000  0.45867000  1.0
  C  C93  1  0.22377000  0.26538000  0.54354000  1.0
  C  C94  1  0.22191000  0.18024000  0.45656000  1.0
  C  C95  1  0.27586000  0.31956000  0.54143000  1.0
  C  C96  1  0.12786000  0.12788000  0.75567000  1.0
  C  C97  1  0.14317000  0.09231000  0.79115000  1.0
  C  C98  1  0.17891000  0.12882000  0.86147000  1.0
  C  C99  1  0.19897000  0.19893000  0.89766000  1.0
  C  C100  1  0.18278000  0.23283000  0.86149000  1.0
  C  C101  1  0.14808000  0.19896000  0.79117000  1.0
  C  C102  1  0.23471000  0.23462000  0.96906000  1.0
  C  C103  1  0.26551000  0.26539000  0.03069000  1.0
  C  C104  1  0.30116000  0.30105000  0.10207000  1.0
  C  C105  1  0.29930000  0.26302000  0.13819000  1.0
  C  C106  1  0.33436000  0.29696000  0.20850000  1.0
  C  C107  1  0.37203000  0.37199000  0.24401000  1.0
  C  C108  1  0.37426000  0.41155000  0.20857000  1.0
  C  C109  1  0.33911000  0.37522000  0.13826000  1.0
  C  C110  1  0.87218000  0.87219000  0.24434000  1.0
  C  C111  1  0.80112000  0.85203000  0.20887000  1.0
  C  C112  1  0.76727000  0.81739000  0.13855000  1.0
  C  C113  1  0.80114000  0.80119000  0.10234000  1.0
  C  C114  1  0.87122000  0.82117000  0.13851000  1.0
  C  C115  1  0.90774000  0.85688000  0.20883000  1.0
  C  C116  1  0.76542000  0.76547000  0.03094000  1.0
  C  C117  1  0.73461000  0.73462000  0.96932000  1.0
  C  C118  1  0.69894000  0.69892000  0.89794000  1.0
  C  C119  1  0.62478000  0.66095000  0.86176000  1.0
  C  C120  1  0.58845000  0.62577000  0.79144000  1.0
  C  C121  1  0.62801000  0.62797000  0.75600000  1.0
  C  C122  1  0.70302000  0.66563000  0.79150000  1.0
  C  C123  1  0.73696000  0.70073000  0.86180000  1.0
  C  C124  1  0.12803000  0.87196000  0.50000000  1.0
  C  C125  1  0.12603000  0.83450000  0.53752000  1.0
  C  C126  1  0.16118000  0.79932000  0.53632000  1.0
  C  C127  1  0.19896000  0.80095000  0.49995000  1.0
  C  C128  1  0.20062000  0.83877000  0.46362000  1.0
  C  C129  1  0.16548000  0.87396000  0.46247000  1.0
  C  C130  1  0.23462000  0.76521000  0.49992000  1.0
  C  C131  1  0.26540000  0.73436000  0.49992000  1.0
  C  C132  1  0.30112000  0.69867000  0.49995000  1.0
  C  C133  1  0.31742000  0.67879000  0.55010000  1.0
  C  C134  1  0.35207000  0.64311000  0.55090000  1.0
  C  C135  1  0.37219000  0.62774000  0.50000000  1.0
  C  C136  1  0.35679000  0.64781000  0.44906000  1.0
  C  C137  1  0.32106000  0.68241000  0.44983000  1.0
  C  C138  1  0.87195000  0.12804000  0.49999000  1.0
  C  C139  1  0.91148000  0.20304000  0.53751000  1.0
  C  C140  1  0.87514000  0.23702000  0.53630000  1.0
  C  C141  1  0.80099000  0.19902000  0.49991000  1.0
  C  C142  1  0.76298000  0.12486000  0.46358000  1.0
  C  C143  1  0.79696000  0.08852000  0.46244000  1.0
  C  C144  1  0.76531000  0.23473000  0.49990000  1.0
  C  C145  1  0.73452000  0.26557000  0.49992000  1.0
  C  C146  1  0.69881000  0.30127000  0.49994000  1.0
  C  C147  1  0.73266000  0.37132000  0.55009000  1.0
  C  C148  1  0.69880000  0.40779000  0.55088000  1.0
  C  C149  1  0.62778000  0.37223000  0.49998000  1.0
  C  C150  1  0.59223000  0.30119000  0.44905000  1.0
  C  C151  1  0.62874000  0.26738000  0.44982000  1.0
  C  C152  1  0.12444000  0.01746000  0.75742000  1.0
  C  C153  1  0.13302000  0.24006000  0.75746000  1.0
  C  C154  1  0.32846000  0.25119000  0.24224000  1.0
  C  C155  1  0.41387000  0.49107000  0.24235000  1.0
  C  C156  1  0.76003000  0.86706000  0.24260000  1.0
  C  C157  1  0.98255000  0.87554000  0.24253000  1.0
  C  C158  1  0.50893000  0.58614000  0.75766000  1.0
  C  C159  1  0.74879000  0.67151000  0.75775000  1.0
  C  C160  1  0.08671000  0.82894000  0.57770000  1.0
  C  C161  1  0.17105000  0.91331000  0.42233000  1.0
  C  C162  1  0.36725000  0.62453000  0.60709000  1.0
  C  C163  1  0.37541000  0.63266000  0.39289000  1.0
  C  C164  1  0.99098000  0.24876000  0.57767000  1.0
  C  C165  1  0.75123000  0.00901000  0.42229000  1.0
  C  C166  1  0.73980000  0.48258000  0.60707000  1.0
  C  C167  1  0.51744000  0.26016000  0.39289000  1.0
  N  N168  1  0.78550000  0.69043000  0.58369000  1.0
  N  N169  1  0.71463000  0.79889000  0.40536000  1.0
  N  N170  1  0.89350000  0.80923000  0.59455000  1.0
  N  N171  1  0.60669000  0.70177000  0.41625000  1.0
  N  N172  1  0.30957000  0.21447000  0.41630000  1.0
  N  N173  1  0.20112000  0.28537000  0.59465000  1.0
  N  N174  1  0.19077000  0.10648000  0.40544000  1.0
  N  N175  1  0.29825000  0.39331000  0.58377000  1.0
  O  O176  1  0.50000000  0.50000000  0.50000000  1.0
  O  O177  1  0.45430000  0.60460000  0.47764000  1.0
  O  O178  1  0.40159000  0.42347000  0.55325000  1.0
  O  O179  1  0.43492000  0.38163000  0.34908000  1.0
  O  O180  1  0.39540000  0.54569000  0.52240000  1.0
  O  O181  1  0.41417000  0.46736000  0.34912000  1.0
  O  O182  1  0.37023000  0.34834000  0.44680000  1.0
  O  O183  1  0.52331000  0.37300000  0.47764000  1.0
  O  O184  1  0.65165000  0.62976000  0.55319000  1.0
  O  O185  1  0.62696000  0.47667000  0.52232000  1.0
  O  O186  1  0.57651000  0.59843000  0.44677000  1.0
  O  O187  1  0.53264000  0.58584000  0.65090000  1.0
  O  O188  1  0.61835000  0.56507000  0.65091000  1.0
  O  O189  1  0.99999000  0.00001000  0.50001000  1.0
  O  O190  1  0.04582000  0.02338000  0.65041000  1.0
  O  O191  1  0.09825000  0.15149000  0.52190000  1.0
  O  O192  1  0.06475000  0.91381000  0.44666000  1.0
  O  O193  1  0.10457000  0.12708000  0.65041000  1.0
  O  O194  1  0.08620000  0.93525000  0.55339000  1.0
  O  O195  1  0.12963000  0.07636000  0.47819000  1.0
  O  O196  1  0.97666000  0.95417000  0.34960000  1.0
  O  O197  1  0.84850000  0.90174000  0.47807000  1.0
  O  O198  1  0.87296000  0.89542000  0.34959000  1.0
  O  O199  1  0.92363000  0.87039000  0.52184000  1.0
  O  O200  1  0.96715000  0.11813000  0.55335000  1.0
  O  O201  1  0.88185000  0.03282000  0.44659000  1.0
  O  O202  1  0.77338000  0.63117000  0.55311000  1.0
  O  O203  1  0.81441000  0.72773000  0.64525000  1.0
  O  O204  1  0.72637000  0.78031000  0.35798000  1.0
  O  O205  1  0.68610000  0.83187000  0.41420000  1.0
  O  O206  1  0.92230000  0.86836000  0.64194000  1.0
  O  O207  1  0.91767000  0.77188000  0.58574000  1.0
  O  O208  1  0.57804000  0.72025000  0.44685000  1.0
  O  O209  1  0.58239000  0.66909000  0.35469000  1.0
  O  O210  1  0.36883000  0.22660000  0.44687000  1.0
  O  O211  1  0.27227000  0.18556000  0.35475000  1.0
  O  O212  1  0.21967000  0.27361000  0.64201000  1.0
  O  O213  1  0.16816000  0.31392000  0.58582000  1.0
  O  O214  1  0.13164000  0.07768000  0.35806000  1.0
  O  O215  1  0.22811000  0.08230000  0.41423000  1.0
  O  O216  1  0.27977000  0.42196000  0.55318000  1.0
  O  O217  1  0.33093000  0.41761000  0.64533000  1.0
