# generated using pymatgen
data_Zn5H20C26(N9O5)2
_symmetry_space_group_name_H-M   'P 1'
_cell_length_a   12.59050000
_cell_length_b   14.62570000
_cell_length_c   20.31770000
_cell_angle_alpha   90.00010000
_cell_angle_beta   90.00010000
_cell_angle_gamma   89.99990000
_symmetry_Int_Tables_number   1
_chemical_formula_structural   Zn5H20C26(N9O5)2
_chemical_formula_sum   'Zn10 H40 C52 N36 O20'
_cell_volume   3741.40034404
_cell_formula_units_Z   2
loop_
 _symmetry_equiv_pos_site_id
 _symmetry_equiv_pos_as_xyz
  1  'x, y, z'
loop_
 _atom_site_type_symbol
 _atom_site_label
 _atom_site_symmetry_multiplicity
 _atom_site_fract_x
 _atom_site_fract_y
 _atom_site_fract_z
 _atom_site_occupancy
  Zn  Zn0  1  0.70380000  0.33907000  0.23192000  1.0
  Zn  Zn1  1  0.29620000  0.33906000  0.76808000  1.0
  Zn  Zn2  1  0.20380000  0.66094000  0.26808000  1.0
  Zn  Zn3  1  0.79620000  0.66094000  0.73192000  1.0
  Zn  Zn4  1  0.53493000  0.18315000  0.26279000  1.0
  Zn  Zn5  1  0.46507000  0.18315000  0.73722000  1.0
  Zn  Zn6  1  0.03493000  0.81685000  0.23722000  1.0
  Zn  Zn7  1  0.96507000  0.81685000  0.76278000  1.0
  Zn  Zn8  1  0.50000000  0.99257000  0.00000000  1.0
  Zn  Zn9  1  0.00000000  0.00743000  0.50000000  1.0
  H  H10  1  0.16833000  0.94494000  0.12168000  1.0
  H  H11  1  0.83167000  0.94494000  0.87831000  1.0
  H  H12  1  0.66833000  0.05506000  0.37833000  1.0
  H  H13  1  0.33167000  0.05507000  0.62167000  1.0
  H  H14  1  0.54897000  0.51491000  0.24148000  1.0
  H  H15  1  0.45104000  0.51491000  0.75852000  1.0
  H  H16  1  0.04897000  0.48509000  0.25853000  1.0
  H  H17  1  0.95104000  0.48509000  0.74147000  1.0
  H  H18  1  0.39684000  0.73482000  0.17390000  1.0
  H  H19  1  0.60316000  0.73481000  0.82611000  1.0
  H  H20  1  0.89684000  0.26519000  0.32610000  1.0
  H  H21  1  0.10316000  0.26520000  0.67389000  1.0
  H  H22  1  0.46102000  0.03939000  0.14779000  1.0
  H  H23  1  0.53898000  0.03939000  0.85222000  1.0
  H  H24  1  0.96099000  0.96059000  0.35222000  1.0
  H  H25  1  0.03900000  0.96060000  0.64778000  1.0
  H  H26  1  0.78283000  0.17010000  0.93277000  1.0
  H  H27  1  0.21717000  0.17011000  0.06723000  1.0
  H  H28  1  0.28283000  0.82989000  0.56723000  1.0
  H  H29  1  0.71716000  0.82989000  0.43277000  1.0
  H  H30  1  0.69739000  0.07776000  0.95190000  1.0
  H  H31  1  0.30261000  0.07777000  0.04810000  1.0
  H  H32  1  0.19739000  0.92223000  0.54810000  1.0
  H  H33  1  0.80261000  0.92223000  0.45190000  1.0
  H  H34  1  0.80807000  0.35799000  0.10198000  1.0
  H  H35  1  0.19193000  0.35799000  0.89801000  1.0
  H  H36  1  0.30807000  0.64200000  0.39801000  1.0
  H  H37  1  0.69194000  0.64200000  0.60199000  1.0
  H  H38  1  0.31782000  0.31215000  0.30248000  1.0
  H  H39  1  0.68217000  0.31214000  0.69752000  1.0
  H  H40  1  0.81781000  0.68785000  0.19753000  1.0
  H  H41  1  0.18217000  0.68787000  0.80247000  1.0
  H  H42  1  0.39404000  0.03754000  0.26766000  1.0
  H  H43  1  0.60596000  0.03754000  0.73235000  1.0
  H  H44  1  0.89403000  0.96247000  0.23235000  1.0
  H  H45  1  0.10596000  0.96247000  0.76766000  1.0
  H  H46  1  0.37555000  0.09646000  0.33078000  1.0
  H  H47  1  0.62444000  0.09646000  0.66923000  1.0
  H  H48  1  0.87555000  0.90354000  0.16923000  1.0
  H  H49  1  0.12444000  0.90354000  0.83077000  1.0
  C  C50  1  0.63598000  0.15221000  0.06780000  1.0
  C  C51  1  0.36402000  0.15221000  0.93221000  1.0
  C  C52  1  0.13597000  0.84778000  0.43221000  1.0
  C  C53  1  0.86403000  0.84778000  0.56779000  1.0
  C  C54  1  0.21175000  0.88766000  0.14247000  1.0
  C  C55  1  0.78824000  0.88766000  0.85753000  1.0
  C  C56  1  0.71174000  0.11235000  0.35754000  1.0
  C  C57  1  0.28825000  0.11235000  0.64246000  1.0
  C  C58  1  0.50553000  0.45410000  0.25597000  1.0
  C  C59  1  0.49448000  0.45410000  0.74403000  1.0
  C  C60  1  0.00553000  0.54590000  0.24403000  1.0
  C  C61  1  0.99448000  0.54590000  0.75596000  1.0
  C  C62  1  0.39933000  0.44330000  0.27562000  1.0
  C  C63  1  0.60067000  0.44329000  0.72437000  1.0
  C  C64  1  0.89933000  0.55670000  0.22439000  1.0
  C  C65  1  0.10068000  0.55671000  0.77561000  1.0
  C  C66  1  0.63506000  0.19751000  0.12888000  1.0
  C  C67  1  0.36494000  0.19752000  0.87113000  1.0
  C  C68  1  0.13506000  0.80248000  0.37113000  1.0
  C  C69  1  0.86495000  0.80248000  0.62887000  1.0
  C  C70  1  0.32912000  0.78031000  0.16918000  1.0
  C  C71  1  0.67088000  0.78031000  0.83083000  1.0
  C  C72  1  0.82912000  0.21969000  0.33083000  1.0
  C  C73  1  0.17087000  0.21970000  0.66916000  1.0
  C  C74  1  0.39179000  0.89952000  0.08352000  1.0
  C  C75  1  0.60821000  0.89952000  0.91648000  1.0
  C  C76  1  0.89179000  0.10048000  0.41648000  1.0
  C  C77  1  0.10821000  0.10048000  0.58351000  1.0
  C  C78  1  0.52185000  0.08640000  0.13074000  1.0
  C  C79  1  0.47816000  0.08641000  0.86927000  1.0
  C  C80  1  0.02183000  0.91358000  0.36927000  1.0
  C  C81  1  0.97817000  0.91359000  0.63073000  1.0
  C  C82  1  0.31574000  0.85822000  0.12938000  1.0
  C  C83  1  0.68426000  0.85822000  0.87062000  1.0
  C  C84  1  0.81574000  0.14178000  0.37062000  1.0
  C  C85  1  0.18426000  0.14179000  0.62937000  1.0
  C  C86  1  0.75918000  0.29767000  0.09270000  1.0
  C  C87  1  0.24081000  0.29767000  0.90730000  1.0
  C  C88  1  0.25919000  0.70233000  0.40730000  1.0
  C  C89  1  0.74082000  0.70233000  0.59269000  1.0
  C  C90  1  0.38804000  0.34939000  0.28695000  1.0
  C  C91  1  0.61195000  0.34939000  0.71305000  1.0
  C  C92  1  0.88804000  0.65061000  0.21305000  1.0
  C  C93  1  0.11195000  0.65062000  0.78695000  1.0
  C  C94  1  0.70924000  0.18331000  0.01971000  1.0
  C  C95  1  0.29076000  0.18332000  0.98029000  1.0
  C  C96  1  0.20924000  0.81668000  0.48029000  1.0
  C  C97  1  0.79077000  0.81668000  0.51970000  1.0
  C  C98  1  0.31581000  0.51304000  0.28107000  1.0
  C  C99  1  0.68420000  0.51303000  0.71892000  1.0
  C  C100  1  0.81581000  0.48696000  0.21894000  1.0
  C  C101  1  0.18421000  0.48699000  0.78107000  1.0
  N  N102  1  0.56241000  0.15423000  0.16893000  1.0
  N  N103  1  0.43759000  0.15423000  0.83108000  1.0
  N  N104  1  0.06240000  0.84576000  0.33108000  1.0
  N  N105  1  0.93761000  0.84577000  0.66892000  1.0
  N  N106  1  0.48106000  0.30739000  0.27509000  1.0
  N  N107  1  0.51894000  0.30738000  0.72491000  1.0
  N  N108  1  0.98106000  0.69261000  0.22491000  1.0
  N  N109  1  0.01893000  0.69262000  0.77509000  1.0
  N  N110  1  0.16745000  0.83144000  0.18694000  1.0
  N  N111  1  0.83254000  0.83144000  0.81305000  1.0
  N  N112  1  0.66745000  0.16857000  0.31306000  1.0
  N  N113  1  0.33254000  0.16857000  0.68694000  1.0
  N  N114  1  0.56226000  0.08192000  0.07012000  1.0
  N  N115  1  0.43774000  0.08193000  0.92988000  1.0
  N  N116  1  0.06225000  0.91806000  0.42988000  1.0
  N  N117  1  0.93776000  0.91807000  0.57012000  1.0
  N  N118  1  0.55399000  0.37247000  0.25603000  1.0
  N  N119  1  0.44601000  0.37248000  0.74397000  1.0
  N  N120  1  0.05399000  0.62753000  0.24397000  1.0
  N  N121  1  0.94601000  0.62752000  0.75603000  1.0
  N  N122  1  0.23975000  0.76488000  0.20316000  1.0
  N  N123  1  0.76024000  0.76488000  0.79684000  1.0
  N  N124  1  0.73975000  0.23512000  0.29685000  1.0
  N  N125  1  0.26024000  0.23512000  0.70315000  1.0
  N  N126  1  0.69649000  0.27105000  0.14304000  1.0
  N  N127  1  0.30350000  0.27105000  0.85696000  1.0
  N  N128  1  0.19649000  0.72895000  0.35696000  1.0
  N  N129  1  0.80351000  0.72895000  0.64304000  1.0
  N  N130  1  0.72395000  0.14327000  0.96077000  1.0
  N  N131  1  0.27605000  0.14328000  0.03923000  1.0
  N  N132  1  0.22395000  0.85672000  0.53923000  1.0
  N  N133  1  0.77605000  0.85672000  0.46077000  1.0
  N  N134  1  0.76843000  0.25819000  0.03406000  1.0
  N  N135  1  0.23156000  0.25820000  0.96594000  1.0
  N  N136  1  0.26844000  0.74180000  0.46594000  1.0
  N  N137  1  0.73157000  0.74180000  0.53405000  1.0
  O  O138  1  0.35644000  0.96528000  0.04583000  1.0
  O  O139  1  0.64357000  0.96528000  0.95418000  1.0
  O  O140  1  0.85643000  0.03472000  0.45418000  1.0
  O  O141  1  0.14357000  0.03473000  0.54582000  1.0
  O  O142  1  0.34087000  0.59562000  0.26214000  1.0
  O  O143  1  0.65912000  0.59561000  0.73785000  1.0
  O  O144  1  0.84088000  0.40437000  0.23785000  1.0
  O  O145  1  0.15915000  0.40439000  0.76216000  1.0
  O  O146  1  0.22486000  0.49309000  0.30215000  1.0
  O  O147  1  0.77514000  0.49308000  0.69785000  1.0
  O  O148  1  0.72486000  0.50691000  0.19787000  1.0
  O  O149  1  0.27516000  0.50695000  0.80213000  1.0
  O  O150  1  0.48742000  0.87490000  0.08129000  1.0
  O  O151  1  0.51259000  0.87490000  0.91872000  1.0
  O  O152  1  0.98742000  0.12510000  0.41872000  1.0
  O  O153  1  0.01258000  0.12510000  0.58128000  1.0
  O  O154  1  0.42808000  0.08064000  0.29750000  1.0
  O  O155  1  0.57191000  0.08063000  0.70251000  1.0
  O  O156  1  0.92808000  0.91937000  0.20251000  1.0
  O  O157  1  0.07191000  0.91937000  0.79749000  1.0
