# generated using pymatgen
data_CuH8C12(NO2)2
_symmetry_space_group_name_H-M   'P 1'
_cell_length_a   7.74493000
_cell_length_b   10.35130000
_cell_length_c   19.17990000
_cell_angle_alpha   90.00090000
_cell_angle_beta   89.99840000
_cell_angle_gamma   89.99960000
_symmetry_Int_Tables_number   1
_chemical_formula_structural   CuH8C12(NO2)2
_chemical_formula_sum   'Cu4 H32 C48 N8 O16'
_cell_volume   1537.65438334
_cell_formula_units_Z   4
loop_
 _symmetry_equiv_pos_site_id
 _symmetry_equiv_pos_as_xyz
  1  'x, y, z'
loop_
 _atom_site_type_symbol
 _atom_site_label
 _atom_site_symmetry_multiplicity
 _atom_site_fract_x
 _atom_site_fract_y
 _atom_site_fract_z
 _atom_site_occupancy
  Cu  Cu0  1  0.25003000  0.42132000  0.12257000  1.0
  Cu  Cu1  1  0.24998000  0.57867000  0.62257000  1.0
  Cu  Cu2  1  0.74998000  0.92135000  0.37743000  1.0
  Cu  Cu3  1  0.75005000  0.07867000  0.87742000  1.0
  H  H4  1  0.87210000  0.51825000  0.06254000  1.0
  H  H5  1  0.28237000  0.52328000  0.34464000  1.0
  H  H6  1  0.00591000  0.80339000  0.46708000  1.0
  H  H7  1  0.61359000  0.38185000  0.09310000  1.0
  H  H8  1  0.29516000  0.70236000  0.10515000  1.0
  H  H9  1  0.90552000  0.78094000  0.25438000  1.0
  H  H10  1  0.83353000  0.75731000  0.05286000  1.0
  H  H11  1  0.54092000  0.85236000  0.07197000  1.0
  H  H12  1  0.62791000  0.48174000  0.56253000  1.0
  H  H13  1  0.21762000  0.47668000  0.84464000  1.0
  H  H14  1  0.49410000  0.19658000  0.96707000  1.0
  H  H15  1  0.88643000  0.61813000  0.59309000  1.0
  H  H16  1  0.20482000  0.29762000  0.60515000  1.0
  H  H17  1  0.59451000  0.21905000  0.75438000  1.0
  H  H18  1  0.66645000  0.24267000  0.55287000  1.0
  H  H19  1  0.95906000  0.14763000  0.57198000  1.0
  H  H20  1  0.12790000  0.01827000  0.43748000  1.0
  H  H21  1  0.71762000  0.02330000  0.15536000  1.0
  H  H22  1  0.99411000  0.30338000  0.03291000  1.0
  H  H23  1  0.38642000  0.88187000  0.40691000  1.0
  H  H24  1  0.70482000  0.20239000  0.39487000  1.0
  H  H25  1  0.09450000  0.28095000  0.24561000  1.0
  H  H26  1  0.16644000  0.25733000  0.44715000  1.0
  H  H27  1  0.45904000  0.35238000  0.42805000  1.0
  H  H28  1  0.37209000  0.98173000  0.93746000  1.0
  H  H29  1  0.78237000  0.97672000  0.65535000  1.0
  H  H30  1  0.50589000  0.69661000  0.53293000  1.0
  H  H31  1  0.11358000  0.11814000  0.90688000  1.0
  H  H32  1  0.79516000  0.79765000  0.89484000  1.0
  H  H33  1  0.40550000  0.71909000  0.74562000  1.0
  H  H34  1  0.33350000  0.74267000  0.94714000  1.0
  H  H35  1  0.04090000  0.64764000  0.92803000  1.0
  C  C36  1  0.24183000  0.61285000  0.47989000  1.0
  C  C37  1  0.12820000  0.58867000  0.21941000  1.0
  C  C38  1  0.15587000  0.65830000  0.41393000  1.0
  C  C39  1  0.74648000  0.56226000  0.07163000  1.0
  C  C40  1  0.18879000  0.60130000  0.34935000  1.0
  C  C41  1  0.09913000  0.64539000  0.29077000  1.0
  C  C42  1  0.03320000  0.75653000  0.41760000  1.0
  C  C43  1  0.60472000  0.48664000  0.08910000  1.0
  C  C44  1  0.42560000  0.66702000  0.09539000  1.0
  C  C45  1  0.97782000  0.74424000  0.29891000  1.0
  C  C46  1  0.72436000  0.69563000  0.06607000  1.0
  C  C47  1  0.56140000  0.74875000  0.07762000  1.0
  C  C48  1  0.25818000  0.38714000  0.97988000  1.0
  C  C49  1  0.37182000  0.41130000  0.71941000  1.0
  C  C50  1  0.34414000  0.34167000  0.91392000  1.0
  C  C51  1  0.75353000  0.43772000  0.57162000  1.0
  C  C52  1  0.31122000  0.39866000  0.84934000  1.0
  C  C53  1  0.40088000  0.35459000  0.79076000  1.0
  C  C54  1  0.46681000  0.24344000  0.91760000  1.0
  C  C55  1  0.89529000  0.51334000  0.58909000  1.0
  C  C56  1  0.07441000  0.33296000  0.59539000  1.0
  C  C57  1  0.52220000  0.25573000  0.79890000  1.0
  C  C58  1  0.77563000  0.30435000  0.56607000  1.0
  C  C59  1  0.93859000  0.25123000  0.57762000  1.0
  C  C60  1  0.75818000  0.11285000  0.02011000  1.0
  C  C61  1  0.87182000  0.08871000  0.28058000  1.0
  C  C62  1  0.84414000  0.15831000  0.08607000  1.0
  C  C63  1  0.25350000  0.06230000  0.42839000  1.0
  C  C64  1  0.81122000  0.10132000  0.15065000  1.0
  C  C65  1  0.90088000  0.14540000  0.20923000  1.0
  C  C66  1  0.96682000  0.25653000  0.08239000  1.0
  C  C67  1  0.39528000  0.98667000  0.41091000  1.0
  C  C68  1  0.57439000  0.16705000  0.40462000  1.0
  C  C69  1  0.02219000  0.24426000  0.20108000  1.0
  C  C70  1  0.27561000  0.19566000  0.43395000  1.0
  C  C71  1  0.43857000  0.24878000  0.42240000  1.0
  C  C72  1  0.74183000  0.88715000  0.52012000  1.0
  C  C73  1  0.62822000  0.91136000  0.78058000  1.0
  C  C74  1  0.65586000  0.84170000  0.58607000  1.0
  C  C75  1  0.24646000  0.93772000  0.92837000  1.0
  C  C76  1  0.68878000  0.89870000  0.65066000  1.0
  C  C77  1  0.59912000  0.85462000  0.70924000  1.0
  C  C78  1  0.53318000  0.74347000  0.58240000  1.0
  C  C79  1  0.10471000  0.01335000  0.91089000  1.0
  C  C80  1  0.92558000  0.83298000  0.90460000  1.0
  C  C81  1  0.47780000  0.75577000  0.70110000  1.0
  C  C82  1  0.22434000  0.80436000  0.93393000  1.0
  C  C83  1  0.06138000  0.75124000  0.92238000  1.0
  N  N84  1  0.44771000  0.53840000  0.10125000  1.0
  N  N85  1  0.94491000  0.79775000  0.36146000  1.0
  N  N86  1  0.05229000  0.46158000  0.60125000  1.0
  N  N87  1  0.55511000  0.20224000  0.86145000  1.0
  N  N88  1  0.55230000  0.03842000  0.39876000  1.0
  N  N89  1  0.05511000  0.29775000  0.13854000  1.0
  N  N90  1  0.94771000  0.96159000  0.89874000  1.0
  N  N91  1  0.44489000  0.70226000  0.63855000  1.0
  O  O92  1  0.22846000  0.48815000  0.21853000  1.0
  O  O93  1  0.18896000  0.67157000  0.53576000  1.0
  O  O94  1  0.05859000  0.63858000  0.16726000  1.0
  O  O95  1  0.35243000  0.52523000  0.47815000  1.0
  O  O96  1  0.27157000  0.51183000  0.71853000  1.0
  O  O97  1  0.31105000  0.32842000  0.03575000  1.0
  O  O98  1  0.44140000  0.36137000  0.66725000  1.0
  O  O99  1  0.14758000  0.47476000  0.97815000  1.0
  O  O100  1  0.77156000  0.98817000  0.28147000  1.0
  O  O101  1  0.81104000  0.17157000  0.96424000  1.0
  O  O102  1  0.94140000  0.13863000  0.33275000  1.0
  O  O103  1  0.64758000  0.02522000  0.02185000  1.0
  O  O104  1  0.72848000  0.01188000  0.78145000  1.0
  O  O105  1  0.68897000  0.82844000  0.46424000  1.0
  O  O106  1  0.55862000  0.86147000  0.83275000  1.0
  O  O107  1  0.85243000  0.97478000  0.52186000  1.0
