# generated using pymatgen
data_CoH16C18S3(NO)4
_symmetry_space_group_name_H-M   'P 1'
_cell_length_a   9.15735000
_cell_length_b   10.10600000
_cell_length_c   11.40570000
_cell_angle_alpha   101.83700000
_cell_angle_beta   92.35540000
_cell_angle_gamma   101.15400000
_symmetry_Int_Tables_number   1
_chemical_formula_structural   CoH16C18S3(NO)4
_chemical_formula_sum   'Co2 H32 C36 S6 N8 O8'
_cell_volume   1009.97847149
_cell_formula_units_Z   2
loop_
 _symmetry_equiv_pos_site_id
 _symmetry_equiv_pos_as_xyz
  1  'x, y, z'
loop_
 _atom_site_type_symbol
 _atom_site_label
 _atom_site_symmetry_multiplicity
 _atom_site_fract_x
 _atom_site_fract_y
 _atom_site_fract_z
 _atom_site_occupancy
  Co  Co0  1  0.86230000  0.37833000  0.11635000  1.0
  Co  Co1  1  0.13769000  0.62166000  0.88365000  1.0
  H  H2  1  0.52729000  0.02549000  0.19805000  1.0
  H  H3  1  0.47270000  0.97451000  0.80195000  1.0
  H  H4  1  0.46508000  0.16259000  0.28885000  1.0
  H  H5  1  0.53492000  0.83742000  0.71115000  1.0
  H  H6  1  0.62117000  0.65554000  0.93254000  1.0
  H  H7  1  0.37882000  0.34446000  0.06746000  1.0
  H  H8  1  0.56811000  0.47257000  0.89362000  1.0
  H  H9  1  0.43188000  0.52744000  0.10638000  1.0
  H  H10  1  0.95336000  0.34133000  0.86595000  1.0
  H  H11  1  0.04663000  0.65867000  0.13405000  1.0
  H  H12  1  0.98423000  0.15596000  0.69590000  1.0
  H  H13  1  0.01578000  0.84403000  0.30410000  1.0
  H  H14  1  0.81069000  0.86112000  0.90632000  1.0
  H  H15  1  0.18932000  0.13887000  0.09367000  1.0
  H  H16  1  0.78842000  0.05927000  0.06937000  1.0
  H  H17  1  0.21158000  0.94072000  0.93062000  1.0
  H  H18  1  0.89662000  0.77730000  0.71528000  1.0
  H  H19  1  0.10338000  0.22271000  0.28472000  1.0
  H  H20  1  0.03676000  0.89297000  0.66527000  1.0
  H  H21  1  0.96324000  0.10703000  0.33473000  1.0
  H  H22  1  0.84214000  0.96248000  0.54136000  1.0
  H  H23  1  0.15786000  0.03752000  0.45864000  1.0
  H  H24  1  0.70081000  0.85093000  0.59116000  1.0
  H  H25  1  0.29919000  0.14908000  0.40884000  1.0
  H  H26  1  0.02599000  0.68967000  0.54221000  1.0
  H  H27  1  0.97400000  0.31033000  0.45780000  1.0
  H  H28  1  0.03665000  0.50869000  0.35998000  1.0
  H  H29  1  0.96335000  0.49132000  0.64002000  1.0
  H  H30  1  0.67247000  0.59180000  0.18496000  1.0
  H  H31  1  0.32754000  0.40820000  0.81504000  1.0
  H  H32  1  0.64242000  0.77464000  0.36000000  1.0
  H  H33  1  0.35758000  0.22536000  0.64000000  1.0
  C  C34  1  0.67330000  0.22284000  0.21205000  1.0
  C  C35  1  0.32672000  0.77716000  0.78796000  1.0
  C  C36  1  0.56560000  0.12169000  0.26655000  1.0
  C  C37  1  0.43439000  0.87831000  0.73345000  1.0
  C  C38  1  0.64678000  0.20892000  0.51030000  1.0
  C  C39  1  0.35321000  0.79108000  0.48970000  1.0
  C  C40  1  0.64277000  0.41856000  0.65156000  1.0
  C  C41  1  0.35722000  0.58144000  0.34844000  1.0
  C  C42  1  0.64828000  0.56166000  0.87792000  1.0
  C  C43  1  0.35172000  0.43834000  0.12208000  1.0
  C  C44  1  0.80580000  0.54717000  0.91486000  1.0
  C  C45  1  0.19418000  0.45282000  0.08514000  1.0
  C  C46  1  0.92179000  0.23366000  0.87144000  1.0
  C  C47  1  0.07821000  0.76634000  0.12856000  1.0
  C  C48  1  0.93913000  0.12888000  0.77669000  1.0
  C  C49  1  0.06087000  0.87111000  0.22331000  1.0
  C  C50  1  0.89899000  0.99070000  0.78554000  1.0
  C  C51  1  0.10101000  0.00930000  0.21446000  1.0
  C  C52  1  0.84143000  0.96622000  0.89265000  1.0
  C  C53  1  0.15857000  0.03378000  0.10734000  1.0
  C  C54  1  0.82833000  0.07671000  0.98410000  1.0
  C  C55  1  0.17166000  0.92329000  0.01589000  1.0
  C  C56  1  0.91887000  0.87529000  0.68529000  1.0
  C  C57  1  0.08113000  0.12471000  0.31470000  1.0
  C  C58  1  0.81877000  0.86398000  0.57137000  1.0
  C  C59  1  0.18123000  0.13603000  0.42863000  1.0
  C  C60  1  0.83249000  0.74955000  0.46738000  1.0
  C  C61  1  0.16751000  0.25045000  0.53263000  1.0
  C  C62  1  0.94398000  0.67187000  0.46558000  1.0
  C  C63  1  0.05603000  0.32814000  0.53442000  1.0
  C  C64  1  0.95081000  0.57021000  0.36404000  1.0
  C  C65  1  0.04920000  0.42980000  0.63596000  1.0
  C  C66  1  0.74729000  0.61624000  0.26666000  1.0
  C  C67  1  0.25271000  0.38376000  0.73334000  1.0
  C  C68  1  0.73214000  0.71850000  0.36448000  1.0
  C  C69  1  0.26786000  0.28150000  0.63552000  1.0
  S  S70  1  0.64169000  0.06770000  0.39327000  1.0
  S  S71  1  0.35831000  0.93230000  0.60673000  1.0
  S  S72  1  0.63243000  0.37524000  0.49513000  1.0
  S  S73  1  0.36757000  0.62476000  0.50487000  1.0
  S  S74  1  0.61938000  0.57964000  0.72549000  1.0
  S  S75  1  0.38060000  0.42036000  0.27451000  1.0
  N  N76  1  0.66214000  0.19760000  0.62273000  1.0
  N  N77  1  0.33785000  0.80240000  0.37727000  1.0
  N  N78  1  0.66099000  0.31719000  0.70365000  1.0
  N  N79  1  0.33901000  0.68281000  0.29635000  1.0
  N  N80  1  0.86772000  0.20948000  0.97498000  1.0
  N  N81  1  0.13228000  0.79052000  0.02502000  1.0
  N  N82  1  0.85500000  0.54220000  0.26522000  1.0
  N  N83  1  0.14501000  0.45780000  0.73479000  1.0
  O  O84  1  0.62070000  0.27193000  0.12967000  1.0
  O  O85  1  0.37933000  0.72807000  0.87033000  1.0
  O  O86  1  0.81209000  0.25201000  0.24669000  1.0
  O  O87  1  0.18792000  0.74798000  0.75333000  1.0
  O  O88  1  0.81733000  0.50025000  0.00868000  1.0
  O  O89  1  0.18267000  0.49975000  0.99132000  1.0
  O  O90  1  0.91110000  0.58478000  0.85227000  1.0
  O  O91  1  0.08889000  0.41520000  0.14772000  1.0
