# generated using pymatgen
data_NiH10C8S2(N2O3)2
_symmetry_space_group_name_H-M   'P 1'
_cell_length_a   6.89681000
_cell_length_b   6.95001000
_cell_length_c   7.23551000
_cell_angle_alpha   103.91700000
_cell_angle_beta   90.45360000
_cell_angle_gamma   114.51000000
_symmetry_Int_Tables_number   1
_chemical_formula_structural   NiH10C8S2(N2O3)2
_chemical_formula_sum   'Ni1 H10 C8 S2 N4 O6'
_cell_volume   304.01749552
_cell_formula_units_Z   1
loop_
 _symmetry_equiv_pos_site_id
 _symmetry_equiv_pos_as_xyz
  1  'x, y, z'
loop_
 _atom_site_type_symbol
 _atom_site_label
 _atom_site_symmetry_multiplicity
 _atom_site_fract_x
 _atom_site_fract_y
 _atom_site_fract_z
 _atom_site_occupancy
  Ni  Ni0  1  0.00000000  0.00000000  0.00000000  1.0
  H  H1  1  0.96910000  0.08493000  0.40894000  1.0
  H  H2  1  0.03090000  0.91507000  0.59106000  1.0
  H  H3  1  0.61865000  0.43727000  0.39840000  1.0
  H  H4  1  0.38136000  0.56274000  0.60160000  1.0
  H  H5  1  0.60133000  0.16713000  0.86588000  1.0
  H  H6  1  0.39867000  0.83287000  0.13412000  1.0
  H  H7  1  0.33713000  0.29680000  0.87817000  1.0
  H  H8  1  0.66287000  0.70319000  0.12183000  1.0
  H  H9  1  0.36491000  0.35681000  0.10695000  1.0
  H  H10  1  0.63508000  0.64318000  0.89304000  1.0
  C  C11  1  0.80055000  0.25916000  0.37937000  1.0
  C  C12  1  0.19944000  0.74086000  0.62064000  1.0
  C  C13  1  0.59463000  0.31661000  0.63875000  1.0
  C  C14  1  0.40538000  0.68340000  0.36125000  1.0
  C  C15  1  0.65709000  0.19181000  0.73008000  1.0
  C  C16  1  0.34293000  0.80819000  0.26992000  1.0
  C  C17  1  0.80289000  0.11281000  0.65234000  1.0
  C  C18  1  0.19710000  0.88722000  0.34767000  1.0
  S  S19  1  0.88291000  0.29325000  0.16573000  1.0
  S  S20  1  0.11709000  0.70675000  0.83426000  1.0
  N  N21  1  0.86528000  0.14858000  0.47667000  1.0
  N  N22  1  0.13473000  0.85141000  0.52332000  1.0
  N  N23  1  0.66956000  0.34585000  0.46526000  1.0
  N  N24  1  0.33045000  0.65414000  0.53475000  1.0
  O  O25  1  0.47162000  0.40868000  0.70471000  1.0
  O  O26  1  0.52837000  0.59132000  0.29529000  1.0
  O  O27  1  0.88494000  0.00710000  0.72383000  1.0
  O  O28  1  0.11506000  0.99290000  0.27617000  1.0
  O  O29  1  0.29606000  0.23403000  0.99014000  1.0
  O  O30  1  0.70393000  0.76596000  0.00985000  1.0
