# generated using pymatgen
data_ZnH8C7N3
_symmetry_space_group_name_H-M   'P 1'
_cell_length_a   7.38688000
_cell_length_b   12.16210000
_cell_length_c   12.16180000
_cell_angle_alpha   60.95760000
_cell_angle_beta   81.46340000
_cell_angle_gamma   81.46060000
_symmetry_Int_Tables_number   1
_chemical_formula_structural   ZnH8C7N3
_chemical_formula_sum   'Zn4 H32 C28 N12'
_cell_volume   940.95009180
_cell_formula_units_Z   4
loop_
 _symmetry_equiv_pos_site_id
 _symmetry_equiv_pos_as_xyz
  1  'x, y, z'
loop_
 _atom_site_type_symbol
 _atom_site_label
 _atom_site_symmetry_multiplicity
 _atom_site_fract_x
 _atom_site_fract_y
 _atom_site_fract_z
 _atom_site_occupancy
  Zn  Zn0  1  0.08542000  0.92391000  0.21261000  1.0
  Zn  Zn1  1  0.41460000  0.78740000  0.07609000  1.0
  Zn  Zn2  1  0.91460000  0.07611000  0.78738000  1.0
  Zn  Zn3  1  0.58540000  0.21262000  0.92388000  1.0
  H  H4  1  0.77900000  0.97062000  0.38359000  1.0
  H  H5  1  0.72099000  0.61641000  0.02938000  1.0
  H  H6  1  0.22108000  0.02937000  0.61641000  1.0
  H  H7  1  0.27895000  0.38359000  0.97061000  1.0
  H  H8  1  0.60950000  0.08466000  0.49685000  1.0
  H  H9  1  0.89049000  0.50315000  0.91534000  1.0
  H  H10  1  0.39059000  0.91529000  0.50318000  1.0
  H  H11  1  0.10946000  0.49684000  0.08467000  1.0
  H  H12  1  0.52036000  0.31622000  0.37737000  1.0
  H  H13  1  0.97961000  0.62262000  0.68377000  1.0
  H  H14  1  0.47963000  0.68372000  0.62268000  1.0
  H  H15  1  0.02039000  0.37736000  0.31624000  1.0
  H  H16  1  0.60106000  0.43114000  0.14593000  1.0
  H  H17  1  0.89893000  0.85407000  0.56885000  1.0
  H  H18  1  0.39884000  0.56882000  0.85411000  1.0
  H  H19  1  0.10114000  0.14593000  0.43116000  1.0
  H  H20  1  0.77594000  0.31837000  0.03402000  1.0
  H  H21  1  0.72407000  0.96598000  0.68164000  1.0
  H  H22  1  0.22397000  0.68164000  0.96599000  1.0
  H  H23  1  0.27599000  0.03403000  0.31836000  1.0
  H  H24  1  0.12767000  0.82366000  0.44779000  1.0
  H  H25  1  0.37235000  0.55222000  0.17638000  1.0
  H  H26  1  0.87233000  0.17636000  0.55219000  1.0
  H  H27  1  0.62766000  0.44779000  0.82362000  1.0
  H  H28  1  0.27575000  0.74205000  0.37703000  1.0
  H  H29  1  0.22426000  0.62301000  0.25796000  1.0
  H  H30  1  0.72424000  0.25796000  0.62296000  1.0
  H  H31  1  0.77575000  0.37703000  0.74201000  1.0
  H  H32  1  0.03938000  0.71487000  0.41563000  1.0
  H  H33  1  0.46063000  0.58439000  0.28517000  1.0
  H  H34  1  0.96060000  0.28516000  0.58435000  1.0
  H  H35  1  0.53937000  0.41564000  0.71481000  1.0
  C  C36  1  0.78553000  0.13709000  0.20178000  1.0
  C  C37  1  0.71446000  0.79821000  0.86292000  1.0
  C  C38  1  0.21446000  0.86292000  0.79822000  1.0
  C  C39  1  0.28554000  0.20179000  0.13707000  1.0
  C  C40  1  0.74065000  0.07194000  0.33279000  1.0
  C  C41  1  0.75934000  0.66721000  0.92806000  1.0
  C  C42  1  0.25939000  0.92805000  0.66722000  1.0
  C  C43  1  0.24062000  0.33278000  0.07194000  1.0
  C  C44  1  0.64578000  0.13623000  0.39540000  1.0
  C  C45  1  0.85421000  0.60459000  0.86377000  1.0
  C  C46  1  0.35427000  0.86374000  0.60462000  1.0
  C  C47  1  0.14577000  0.39540000  0.13623000  1.0
  C  C48  1  0.59480000  0.26569000  0.32864000  1.0
  C  C49  1  0.90518000  0.67135000  0.73431000  1.0
  C  C50  1  0.40520000  0.73426000  0.67140000  1.0
  C  C51  1  0.09482000  0.32863000  0.26570000  1.0
  C  C52  1  0.64012000  0.33024000  0.19846000  1.0
  C  C53  1  0.85988000  0.80153000  0.66976000  1.0
  C  C54  1  0.35983000  0.66974000  0.80156000  1.0
  C  C55  1  0.14016000  0.19847000  0.33024000  1.0
  C  C56  1  0.73603000  0.26724000  0.13490000  1.0
  C  C57  1  0.76396000  0.86510000  0.73277000  1.0
  C  C58  1  0.26392000  0.73275000  0.86512000  1.0
  C  C59  1  0.23606000  0.13490000  0.26723000  1.0
  C  C60  1  0.13643000  0.78760000  0.37985000  1.0
  C  C61  1  0.36359000  0.62017000  0.21242000  1.0
  C  C62  1  0.86357000  0.21241000  0.62014000  1.0
  C  C63  1  0.63642000  0.37985000  0.78756000  1.0
  N  N64  1  0.88321000  0.06812000  0.14302000  1.0
  N  N65  1  0.61679000  0.85698000  0.93188000  1.0
  N  N66  1  0.11680000  0.93189000  0.85697000  1.0
  N  N67  1  0.38321000  0.14303000  0.06811000  1.0
  N  N68  1  0.85091000  0.10907000  0.02603000  1.0
  N  N69  1  0.64910000  0.97395000  0.89094000  1.0
  N  N70  1  0.14909000  0.89095000  0.97395000  1.0
  N  N71  1  0.35091000  0.02606000  0.10905000  1.0
  N  N72  1  0.94176000  0.05102000  0.96562000  1.0
  N  N73  1  0.55825000  0.03437000  0.94899000  1.0
  N  N74  1  0.05825000  0.94900000  0.03436000  1.0
  N  N75  1  0.44175000  0.96564000  0.05100000  1.0
