# generated using pymatgen
data_Zn2H18C44Br3(NO7)2
_symmetry_space_group_name_H-M   'P 1'
_cell_length_a   13.22170000
_cell_length_b   13.85960000
_cell_length_c   28.49410000
_cell_angle_alpha   90.29210000
_cell_angle_beta   89.82380000
_cell_angle_gamma   89.91330000
_symmetry_Int_Tables_number   1
_chemical_formula_structural   Zn2H18C44Br3(NO7)2
_chemical_formula_sum   'Zn4 H36 C88 Br6 N4 O28'
_cell_volume   5221.37318208
_cell_formula_units_Z   2
loop_
 _symmetry_equiv_pos_site_id
 _symmetry_equiv_pos_as_xyz
  1  'x, y, z'
loop_
 _atom_site_type_symbol
 _atom_site_label
 _atom_site_symmetry_multiplicity
 _atom_site_fract_x
 _atom_site_fract_y
 _atom_site_fract_z
 _atom_site_occupancy
  Zn  Zn0  1  0.50382000  0.40837000  0.49588000  1.0
  Zn  Zn1  1  0.48274000  0.60904000  0.50061000  1.0
  Zn  Zn2  1  0.50448000  0.59214000  0.03796000  1.0
  Zn  Zn3  1  0.48413000  0.39150000  0.03321000  1.0
  H  H4  1  0.39652000  0.26202000  0.54881000  1.0
  H  H5  1  0.31922000  0.10929000  0.58306000  1.0
  H  H6  1  0.61998000  0.25072000  0.44723000  1.0
  H  H7  1  0.59238000  0.75461000  0.44766000  1.0
  H  H8  1  0.67238000  0.90807000  0.41434000  1.0
  H  H9  1  0.37514000  0.76676000  0.55202000  1.0
  H  H10  1  0.50555000  0.62118000  0.18884000  1.0
  H  H11  1  0.50450000  0.31212000  0.17850000  1.0
  H  H12  1  0.50604000  0.37828000  0.34487000  1.0
  H  H13  1  0.50389000  0.68735000  0.35520000  1.0
  H  H14  1  0.49006000  0.66811000  0.65251000  1.0
  H  H15  1  0.49429000  0.75018000  0.73064000  1.0
  H  H16  1  0.49203000  0.36060000  0.64265000  1.0
  H  H17  1  0.49062000  0.33234000  0.88131000  1.0
  H  H18  1  0.49331000  0.25036000  0.80324000  1.0
  H  H19  1  0.49392000  0.63981000  0.89128000  1.0
  H  H20  1  0.83036000  0.36985000  0.49851000  1.0
  H  H21  1  0.79769000  0.67762000  0.50383000  1.0
  H  H22  1  0.15843000  0.62378000  0.50104000  1.0
  H  H23  1  0.19165000  0.31588000  0.49661000  1.0
  H  H24  1  0.39712000  0.73890000  0.98526000  1.0
  H  H25  1  0.32025000  0.89196000  0.95110000  1.0
  H  H26  1  0.62015000  0.74935000  0.08639000  1.0
  H  H27  1  0.59363000  0.24552000  0.08578000  1.0
  H  H28  1  0.67312000  0.09181000  0.11903000  1.0
  H  H29  1  0.37657000  0.23430000  0.98197000  1.0
  H  H30  1  0.83096000  0.63104000  0.03565000  1.0
  H  H31  1  0.79942000  0.32323000  0.03132000  1.0
  H  H32  1  0.15996000  0.37717000  0.03402000  1.0
  H  H33  1  0.19201000  0.68514000  0.03733000  1.0
  H  H34  1  0.40443000  0.86003000  0.62618000  1.0
  H  H35  1  0.77384000  0.16221000  0.45692000  1.0
  H  H36  1  0.62105000  0.71429000  0.85627000  1.0
  H  H37  1  0.61932000  0.28461000  0.67720000  1.0
  H  H38  1  0.40575000  0.14125000  0.90785000  1.0
  H  H39  1  0.77370000  0.83644000  0.07649000  1.0
  C  C40  1  0.48911000  0.51884000  0.59068000  1.0
  C  C41  1  0.29766000  0.48290000  0.49819000  1.0
  C  C42  1  0.50022000  0.52453000  0.40701000  1.0
  C  C43  1  0.69146000  0.51148000  0.50041000  1.0
  C  C44  1  0.49082000  0.48147000  0.94319000  1.0
  C  C45  1  0.29867000  0.51816000  0.03593000  1.0
  C  C46  1  0.50034000  0.47507000  0.12672000  1.0
  C  C47  1  0.69260000  0.48940000  0.03380000  1.0
  C  C48  1  0.44498000  0.21512000  0.52764000  1.0
  C  C49  1  0.43894000  0.11441000  0.53038000  1.0
  C  C50  1  0.36952000  0.06629000  0.56087000  1.0
  C  C51  1  0.57164000  0.20837000  0.47038000  1.0
  C  C52  1  0.57340000  0.10697000  0.47017000  1.0
  C  C53  1  0.63638000  0.04927000  0.43935000  1.0
  C  C54  1  0.54864000  0.80174000  0.47086000  1.0
  C  C55  1  0.55893000  0.90238000  0.46995000  1.0
  C  C56  1  0.62700000  0.95067000  0.43891000  1.0
  C  C57  1  0.42582000  0.80890000  0.52990000  1.0
  C  C58  1  0.42942000  0.91003000  0.53234000  1.0
  C  C59  1  0.36556000  0.96757000  0.56276000  1.0
  C  C60  1  0.50425000  0.05938000  0.50083000  1.0
  C  C61  1  0.49789000  0.95747000  0.50138000  1.0
  C  C62  1  0.50611000  0.55136000  0.20611000  1.0
  C  C63  1  0.50570000  0.37641000  0.20052000  1.0
  C  C64  1  0.50820000  0.36973000  0.24860000  1.0
  C  C65  1  0.50757000  0.45316000  0.27817000  1.0
  C  C66  1  0.50636000  0.44809000  0.32759000  1.0
  C  C67  1  0.50531000  0.62307000  0.33315000  1.0
  C  C68  1  0.50772000  0.62973000  0.28507000  1.0
  C  C69  1  0.50737000  0.54628000  0.25553000  1.0
  C  C70  1  0.50434000  0.46839000  0.17908000  1.0
  C  C71  1  0.50429000  0.53112000  0.35461000  1.0
  C  C72  1  0.49222000  0.59870000  0.67024000  1.0
  C  C73  1  0.49498000  0.59449000  0.71941000  1.0
  C  C74  1  0.49609000  0.67993000  0.74773000  1.0
  C  C75  1  0.49480000  0.42426000  0.66518000  1.0
  C  C76  1  0.49899000  0.41603000  0.71422000  1.0
  C  C77  1  0.50022000  0.32416000  0.73810000  1.0
  C  C78  1  0.49291000  0.40177000  0.86359000  1.0
  C  C79  1  0.49512000  0.40602000  0.81442000  1.0
  C  C80  1  0.49537000  0.32056000  0.78611000  1.0
  C  C81  1  0.49628000  0.57618000  0.86870000  1.0
  C  C82  1  0.50004000  0.58440000  0.81963000  1.0
  C  C83  1  0.50154000  0.67622000  0.79572000  1.0
  C  C84  1  0.49194000  0.51429000  0.64334000  1.0
  C  C85  1  0.49797000  0.50255000  0.74201000  1.0
  C  C86  1  0.49326000  0.48613000  0.89052000  1.0
  C  C87  1  0.49827000  0.49794000  0.79183000  1.0
  C  C88  1  0.86533000  0.44080000  0.49960000  1.0
  C  C89  1  0.84753000  0.61515000  0.50248000  1.0
  C  C90  1  0.95091000  0.62517000  0.50248000  1.0
  C  C91  1  0.01735000  0.54399000  0.50082000  1.0
  C  C92  1  0.12363000  0.55274000  0.50031000  1.0
  C  C93  1  0.14187000  0.37841000  0.49789000  1.0
  C  C94  1  0.03851000  0.36838000  0.49857000  1.0
  C  C95  1  0.97166000  0.44926000  0.49968000  1.0
  C  C96  1  0.80428000  0.52186000  0.50082000  1.0
  C  C97  1  0.18487000  0.47197000  0.49874000  1.0
  C  C98  1  0.44559000  0.78560000  0.00632000  1.0
  C  C99  1  0.43968000  0.88634000  0.00357000  1.0
  C  C100  1  0.37056000  0.93475000  0.97317000  1.0
  C  C101  1  0.57200000  0.79192000  0.06334000  1.0
  C  C102  1  0.57387000  0.89330000  0.06352000  1.0
  C  C103  1  0.63684000  0.95076000  0.09419000  1.0
  C  C104  1  0.54986000  0.19858000  0.06269000  1.0
  C  C105  1  0.55992000  0.09793000  0.06364000  1.0
  C  C106  1  0.62772000  0.04940000  0.09458000  1.0
  C  C107  1  0.42716000  0.19194000  0.00396000  1.0
  C  C108  1  0.43056000  0.09079000  0.00153000  1.0
  C  C109  1  0.36678000  0.03348000  0.97122000  1.0
  C  C110  1  0.50487000  0.94114000  0.03301000  1.0
  C  C111  1  0.49877000  0.04308000  0.03240000  1.0
  C  C112  1  0.86618000  0.56009000  0.03483000  1.0
  C  C113  1  0.84901000  0.38571000  0.03254000  1.0
  C  C114  1  0.95243000  0.37570000  0.03268000  1.0
  C  C115  1  0.01860000  0.45693000  0.03408000  1.0
  C  C116  1  0.12494000  0.44823000  0.03453000  1.0
  C  C117  1  0.14249000  0.62257000  0.03629000  1.0
  C  C118  1  0.03910000  0.63256000  0.03570000  1.0
  C  C119  1  0.97255000  0.55166000  0.03488000  1.0
  C  C120  1  0.80545000  0.47900000  0.03380000  1.0
  C  C121  1  0.18588000  0.52905000  0.03567000  1.0
  C  C122  1  0.29094000  0.92145000  0.59569000  1.0
  C  C123  1  0.70967000  0.09342000  0.40510000  1.0
  C  C124  1  0.50985000  0.77031000  0.82172000  1.0
  C  C125  1  0.50759000  0.22992000  0.71210000  1.0
  C  C126  1  0.29225000  0.07972000  0.93841000  1.0
  C  C127  1  0.70995000  0.90644000  0.12832000  1.0
  Br  Br128  1  0.51245000  0.75532000  0.25801000  1.0
  Br  Br129  1  0.51345000  0.24407000  0.27559000  1.0
  Br  Br130  1  0.98553000  0.23994000  0.49843000  1.0
  Br  Br131  1  0.00522000  0.75252000  0.50533000  1.0
  Br  Br132  1  0.98570000  0.76098000  0.03565000  1.0
  Br  Br133  1  0.00719000  0.24829000  0.03021000  1.0
  N  N134  1  0.50913000  0.25935000  0.49831000  1.0
  N  N135  1  0.48403000  0.75788000  0.50011000  1.0
  N  N136  1  0.50955000  0.74116000  0.03554000  1.0
  N  N137  1  0.48540000  0.24271000  0.03359000  1.0
  O  O138  1  0.49693000  0.43938000  0.56841000  1.0
  O  O139  1  0.47980000  0.60217000  0.57251000  1.0
  O  O140  1  0.33326000  0.56816000  0.49905000  1.0
  O  O141  1  0.34925000  0.40516000  0.49702000  1.0
  O  O142  1  0.49270000  0.60420000  0.42934000  1.0
  O  O143  1  0.50413000  0.44104000  0.42540000  1.0
  O  O144  1  0.65637000  0.42594000  0.49792000  1.0
  O  O145  1  0.63936000  0.58866000  0.50261000  1.0
  O  O146  1  0.49884000  0.56085000  0.96549000  1.0
  O  O147  1  0.48162000  0.39814000  0.96137000  1.0
  O  O148  1  0.33460000  0.43293000  0.03512000  1.0
  O  O149  1  0.34998000  0.59595000  0.03677000  1.0
  O  O150  1  0.49334000  0.39542000  0.10440000  1.0
  O  O151  1  0.50381000  0.55859000  0.10835000  1.0
  O  O152  1  0.65717000  0.57494000  0.03621000  1.0
  O  O153  1  0.64075000  0.41227000  0.03135000  1.0
  O  O154  1  0.33057000  0.85909000  0.62775000  1.0
  O  O155  1  0.20084000  0.93751000  0.59463000  1.0
  O  O156  1  0.77791000  0.15776000  0.42269000  1.0
  O  O157  1  0.71005000  0.07280000  0.36369000  1.0
  O  O158  1  0.58403000  0.77542000  0.85523000  1.0
  O  O159  1  0.45788000  0.84077000  0.81394000  1.0
  O  O160  1  0.58173000  0.22391000  0.67838000  1.0
  O  O161  1  0.45505000  0.16003000  0.72008000  1.0
  O  O162  1  0.33189000  0.14233000  0.90641000  1.0
  O  O163  1  0.20223000  0.06353000  0.93954000  1.0
  O  O164  1  0.77774000  0.84129000  0.11069000  1.0
  O  O165  1  0.71061000  0.92757000  0.16967000  1.0
