# generated using pymatgen
data_CdH12C22S2(NO)4
_symmetry_space_group_name_H-M   'P 1'
_cell_length_a   13.91070000
_cell_length_b   17.54490000
_cell_length_c   21.40210000
_cell_angle_alpha   101.86200000
_cell_angle_beta   89.99960000
_cell_angle_gamma   89.99910000
_symmetry_Int_Tables_number   1
_chemical_formula_structural   CdH12C22S2(NO)4
_chemical_formula_sum   'Cd8 H96 C176 S16 N32 O32'
_cell_volume   5111.89220694
_cell_formula_units_Z   8
loop_
 _symmetry_equiv_pos_site_id
 _symmetry_equiv_pos_as_xyz
  1  'x, y, z'
loop_
 _atom_site_type_symbol
 _atom_site_label
 _atom_site_symmetry_multiplicity
 _atom_site_fract_x
 _atom_site_fract_y
 _atom_site_fract_z
 _atom_site_occupancy
  Cd  Cd0  1  0.60140000  0.47819000  0.42439000  1.0
  Cd  Cd1  1  0.10140000  0.52182000  0.07562000  1.0
  Cd  Cd2  1  0.39859000  0.52182000  0.57561000  1.0
  Cd  Cd3  1  0.89859000  0.47818000  0.92439000  1.0
  Cd  Cd4  1  0.89672000  0.98469000  0.42579000  1.0
  Cd  Cd5  1  0.39671000  0.01530000  0.07420000  1.0
  Cd  Cd6  1  0.10328000  0.01531000  0.57421000  1.0
  Cd  Cd7  1  0.60327000  0.98469000  0.92579000  1.0
  H  H8  1  0.60482000  0.43426000  0.18727000  1.0
  H  H9  1  0.10481000  0.56575000  0.31272000  1.0
  H  H10  1  0.39518000  0.56574000  0.81273000  1.0
  H  H11  1  0.89518000  0.43426000  0.68728000  1.0
  H  H12  1  0.68010000  0.44730000  0.08371000  1.0
  H  H13  1  0.18009000  0.55270000  0.41629000  1.0
  H  H14  1  0.31991000  0.55268000  0.91629000  1.0
  H  H15  1  0.81991000  0.44732000  0.58371000  1.0
  H  H16  1  0.93317000  0.54610000  0.18514000  1.0
  H  H17  1  0.43317000  0.45391000  0.31487000  1.0
  H  H18  1  0.06683000  0.45388000  0.81486000  1.0
  H  H19  1  0.56683000  0.54611000  0.68514000  1.0
  H  H20  1  0.85918000  0.53001000  0.28762000  1.0
  H  H21  1  0.35919000  0.47001000  0.21238000  1.0
  H  H22  1  0.14082000  0.46999000  0.71238000  1.0
  H  H23  1  0.64080000  0.53000000  0.78762000  1.0
  H  H24  1  0.49201000  0.32508000  0.35168000  1.0
  H  H25  1  0.99200000  0.67493000  0.14832000  1.0
  H  H26  1  0.50800000  0.67492000  0.64832000  1.0
  H  H27  1  0.00798000  0.32508000  0.85168000  1.0
  H  H28  1  0.47612000  0.18181000  0.35108000  1.0
  H  H29  1  0.97610000  0.81818000  0.14892000  1.0
  H  H30  1  0.52389000  0.81818000  0.64892000  1.0
  H  H31  1  0.02388000  0.18182000  0.85108000  1.0
  H  H32  1  0.70208000  0.21155000  0.49283000  1.0
  H  H33  1  0.20209000  0.78845000  0.00718000  1.0
  H  H34  1  0.29791000  0.78846000  0.50718000  1.0
  H  H35  1  0.79790000  0.21154000  0.99282000  1.0
  H  H36  1  0.70897000  0.35214000  0.48628000  1.0
  H  H37  1  0.20898000  0.64787000  0.01373000  1.0
  H  H38  1  0.29102000  0.64787000  0.51373000  1.0
  H  H39  1  0.79101000  0.35213000  0.98627000  1.0
  H  H40  1  0.49429000  0.72765000  0.33142000  1.0
  H  H41  1  0.99430000  0.27236000  0.16859000  1.0
  H  H42  1  0.50571000  0.27237000  0.66859000  1.0
  H  H43  1  0.00573000  0.72763000  0.83141000  1.0
  H  H44  1  0.50524000  0.58833000  0.33948000  1.0
  H  H45  1  0.00525000  0.41168000  0.16052000  1.0
  H  H46  1  0.49476000  0.41168000  0.66052000  1.0
  H  H47  1  0.99477000  0.58832000  0.83948000  1.0
  H  H48  1  0.63417000  0.64415000  0.51709000  1.0
  H  H49  1  0.13416000  0.35585000  0.98290000  1.0
  H  H50  1  0.36584000  0.35585000  0.48290000  1.0
  H  H51  1  0.86584000  0.64415000  0.01710000  1.0
  H  H52  1  0.63378000  0.78719000  0.51551000  1.0
  H  H53  1  0.13378000  0.21281000  0.98448000  1.0
  H  H54  1  0.36623000  0.21282000  0.48448000  1.0
  H  H55  1  0.86623000  0.78719000  0.01551000  1.0
  H  H56  1  0.89236000  0.94824000  0.19122000  1.0
  H  H57  1  0.39236000  0.05175000  0.30877000  1.0
  H  H58  1  0.10764000  0.05175000  0.80877000  1.0
  H  H59  1  0.60764000  0.94826000  0.69123000  1.0
  H  H60  1  0.81682000  0.95927000  0.08742000  1.0
  H  H61  1  0.31683000  0.04072000  0.41258000  1.0
  H  H62  1  0.18316000  0.04071000  0.91257000  1.0
  H  H63  1  0.68316000  0.95930000  0.58743000  1.0
  H  H64  1  0.56171000  0.05532000  0.18773000  1.0
  H  H65  1  0.06171000  0.94468000  0.31228000  1.0
  H  H66  1  0.43830000  0.94469000  0.81228000  1.0
  H  H67  1  0.93829000  0.05533000  0.68772000  1.0
  H  H68  1  0.63652000  0.04204000  0.29086000  1.0
  H  H69  1  0.13650000  0.95796000  0.20915000  1.0
  H  H70  1  0.36351000  0.95798000  0.70915000  1.0
  H  H71  1  0.86350000  0.04204000  0.79086000  1.0
  H  H72  1  0.95903000  0.82474000  0.33361000  1.0
  H  H73  1  0.45904000  0.17524000  0.16637000  1.0
  H  H74  1  0.04097000  0.17525000  0.66638000  1.0
  H  H75  1  0.54096000  0.82474000  0.83362000  1.0
  H  H76  1  0.97695000  0.68154000  0.33256000  1.0
  H  H77  1  0.47697000  0.31844000  0.16741000  1.0
  H  H78  1  0.02305000  0.31846000  0.66743000  1.0
  H  H79  1  0.52303000  0.68154000  0.83258000  1.0
  H  H80  1  0.82194000  0.72342000  0.51168000  1.0
  H  H81  1  0.32191000  0.27659000  0.98832000  1.0
  H  H82  1  0.17810000  0.27659000  0.48833000  1.0
  H  H83  1  0.67809000  0.72341000  0.01167000  1.0
  H  H84  1  0.80741000  0.86270000  0.50306000  1.0
  H  H85  1  0.30738000  0.13731000  0.99693000  1.0
  H  H86  1  0.19261000  0.13731000  0.49694000  1.0
  H  H87  1  0.69261000  0.86269000  0.00305000  1.0
  H  H88  1  0.99885000  0.23250000  0.32830000  1.0
  H  H89  1  0.49886000  0.76750000  0.17170000  1.0
  H  H90  1  0.00113000  0.76750000  0.67171000  1.0
  H  H91  1  0.50114000  0.23250000  0.82830000  1.0
  H  H92  1  0.99166000  0.09351000  0.33795000  1.0
  H  H93  1  0.49166000  0.90649000  0.16205000  1.0
  H  H94  1  0.00831000  0.90649000  0.66205000  1.0
  H  H95  1  0.50832000  0.09351000  0.83795000  1.0
  H  H96  1  0.88805000  0.15168000  0.52273000  1.0
  H  H97  1  0.38805000  0.84830000  0.97726000  1.0
  H  H98  1  0.11196000  0.84831000  0.47728000  1.0
  H  H99  1  0.61193000  0.15168000  0.02274000  1.0
  H  H100  1  0.88530000  0.29435000  0.52017000  1.0
  H  H101  1  0.38530000  0.70564000  0.97984000  1.0
  H  H102  1  0.11472000  0.70565000  0.47985000  1.0
  H  H103  1  0.61470000  0.29434000  0.02017000  1.0
  C  C104  1  0.68235000  0.47405000  0.30605000  1.0
  C  C105  1  0.18235000  0.52596000  0.19396000  1.0
  C  C106  1  0.31765000  0.52595000  0.69396000  1.0
  C  C107  1  0.81764000  0.47404000  0.80604000  1.0
  C  C108  1  0.72775000  0.48071000  0.24370000  1.0
  C  C109  1  0.22775000  0.51930000  0.25630000  1.0
  C  C110  1  0.27225000  0.51928000  0.75630000  1.0
  C  C111  1  0.77225000  0.48072000  0.74371000  1.0
  C  C112  1  0.67725000  0.45759000  0.18619000  1.0
  C  C113  1  0.17725000  0.54241000  0.31381000  1.0
  C  C114  1  0.32275000  0.54240000  0.81381000  1.0
  C  C115  1  0.82275000  0.45760000  0.68619000  1.0
  C  C116  1  0.71874000  0.46569000  0.12865000  1.0
  C  C117  1  0.21873000  0.53431000  0.37135000  1.0
  C  C118  1  0.28126000  0.53430000  0.87135000  1.0
  C  C119  1  0.78127000  0.46571000  0.62866000  1.0
  C  C120  1  0.81090000  0.49830000  0.12797000  1.0
  C  C121  1  0.31090000  0.50171000  0.37203000  1.0
  C  C122  1  0.18910000  0.50168000  0.87203000  1.0
  C  C123  1  0.68910000  0.49832000  0.62797000  1.0
  C  C124  1  0.86120000  0.52170000  0.18558000  1.0
  C  C125  1  0.36120000  0.47831000  0.31443000  1.0
  C  C126  1  0.13880000  0.47829000  0.81442000  1.0
  C  C127  1  0.63880000  0.52171000  0.68558000  1.0
  C  C128  1  0.82024000  0.51229000  0.24285000  1.0
  C  C129  1  0.32025000  0.48773000  0.25716000  1.0
  C  C130  1  0.17976000  0.48770000  0.75715000  1.0
  C  C131  1  0.67975000  0.51229000  0.74285000  1.0
  C  C132  1  0.85578000  0.50821000  0.06646000  1.0
  C  C133  1  0.35578000  0.49179000  0.43354000  1.0
  C  C134  1  0.14421000  0.49177000  0.93354000  1.0
  C  C135  1  0.64421000  0.50823000  0.56647000  1.0
  C  C136  1  0.53725000  0.29667000  0.38173000  1.0
  C  C137  1  0.03724000  0.70334000  0.11827000  1.0
  C  C138  1  0.46276000  0.70333000  0.61827000  1.0
  C  C139  1  0.96275000  0.29667000  0.88173000  1.0
  C  C140  1  0.52827000  0.21784000  0.38179000  1.0
  C  C141  1  0.02826000  0.78217000  0.11820000  1.0
  C  C142  1  0.47174000  0.78216000  0.61821000  1.0
  C  C143  1  0.97173000  0.21783000  0.88179000  1.0
  C  C144  1  0.58680000  0.18517000  0.42307000  1.0
  C  C145  1  0.08680000  0.81484000  0.07693000  1.0
  C  C146  1  0.41321000  0.81484000  0.57693000  1.0
  C  C147  1  0.91320000  0.18516000  0.92306000  1.0
  C  C148  1  0.65319000  0.23417000  0.46124000  1.0
  C  C149  1  0.15319000  0.76584000  0.03876000  1.0
  C  C150  1  0.34682000  0.76584000  0.53876000  1.0
  C  C151  1  0.84680000  0.23416000  0.96123000  1.0
  C  C152  1  0.65815000  0.31211000  0.45769000  1.0
  C  C153  1  0.15816000  0.68789000  0.04231000  1.0
  C  C154  1  0.34185000  0.68790000  0.54231000  1.0
  C  C155  1  0.84183000  0.31211000  0.95769000  1.0
  C  C156  1  0.57936000  0.10325000  0.42580000  1.0
  C  C157  1  0.07936000  0.89675000  0.07420000  1.0
  C  C158  1  0.42065000  0.89676000  0.57421000  1.0
  C  C159  1  0.92064000  0.10325000  0.92579000  1.0
  C  C160  1  0.54368000  0.98045000  0.39675000  1.0
  C  C161  1  0.04368000  0.01956000  0.10325000  1.0
  C  C162  1  0.45632000  0.01956000  0.60326000  1.0
  C  C163  1  0.95632000  0.98044000  0.89674000  1.0
  C  C164  1  0.59831000  0.97581000  0.45133000  1.0
  C  C165  1  0.09830000  0.02420000  0.04867000  1.0
  C  C166  1  0.40169000  0.02420000  0.54868000  1.0
  C  C167  1  0.90170000  0.97580000  0.95132000  1.0
  C  C168  1  0.56555000  0.85201000  0.42130000  1.0
  C  C169  1  0.06556000  0.14800000  0.07870000  1.0
  C  C170  1  0.43445000  0.14800000  0.57871000  1.0
  C  C171  1  0.93445000  0.85200000  0.92129000  1.0
  C  C172  1  0.56499000  0.76950000  0.42298000  1.0
  C  C173  1  0.06499000  0.23050000  0.07702000  1.0
  C  C174  1  0.43501000  0.23051000  0.57702000  1.0
  C  C175  1  0.93502000  0.76949000  0.92298000  1.0
  C  C176  1  0.52685000  0.71223000  0.37350000  1.0
  C  C177  1  0.02685000  0.28778000  0.12650000  1.0
  C  C178  1  0.47314000  0.28778000  0.62650000  1.0
  C  C179  1  0.97316000  0.71222000  0.87350000  1.0
  C  C180  1  0.53207000  0.63435000  0.37770000  1.0
  C  C181  1  0.03208000  0.36565000  0.12230000  1.0
  C  C182  1  0.46793000  0.36565000  0.62230000  1.0
  C  C183  1  0.96794000  0.63434000  0.87770000  1.0
  C  C184  1  0.60571000  0.66569000  0.47652000  1.0
  C  C185  1  0.10571000  0.33431000  0.02348000  1.0
  C  C186  1  0.39429000  0.33432000  0.52348000  1.0
  C  C187  1  0.89430000  0.66569000  0.97652000  1.0
  C  C188  1  0.60471000  0.74453000  0.47581000  1.0
  C  C189  1  0.10470000  0.25547000  0.02419000  1.0
  C  C190  1  0.39530000  0.25547000  0.52419000  1.0
  C  C191  1  0.89531000  0.74453000  0.97581000  1.0
  C  C192  1  0.81414000  0.98699000  0.30938000  1.0
  C  C193  1  0.31412000  0.01298000  0.19061000  1.0
  C  C194  1  0.18587000  0.01299000  0.69061000  1.0
  C  C195  1  0.68588000  0.98701000  0.80939000  1.0
  C  C196  1  0.76874000  0.99397000  0.24724000  1.0
  C  C197  1  0.26873000  0.00601000  0.25275000  1.0
  C  C198  1  0.23128000  0.00602000  0.75275000  1.0
  C  C199  1  0.73128000  0.99399000  0.74725000  1.0
  C  C200  1  0.81962000  0.97086000  0.18989000  1.0
  C  C201  1  0.31962000  0.02913000  0.31010000  1.0
  C  C202  1  0.18038000  0.02913000  0.81010000  1.0
  C  C203  1  0.68038000  0.97087000  0.68990000  1.0
  C  C204  1  0.77794000  0.97787000  0.13221000  1.0
  C  C205  1  0.27794000  0.02213000  0.36779000  1.0
  C  C206  1  0.22206000  0.02212000  0.86779000  1.0
  C  C207  1  0.72206000  0.97788000  0.63221000  1.0
  C  C208  1  0.68504000  0.00904000  0.13121000  1.0
  C  C209  1  0.18504000  0.99096000  0.36879000  1.0
  C  C210  1  0.31496000  0.99095000  0.86879000  1.0
  C  C211  1  0.81495000  0.00906000  0.63121000  1.0
  C  C212  1  0.63432000  0.03239000  0.18864000  1.0
  C  C213  1  0.13431000  0.96761000  0.31136000  1.0
  C  C214  1  0.36570000  0.96761000  0.81136000  1.0
  C  C215  1  0.86569000  0.03240000  0.68864000  1.0
  C  C216  1  0.67575000  0.02454000  0.24618000  1.0
  C  C217  1  0.17573000  0.97546000  0.25382000  1.0
  C  C218  1  0.32427000  0.97546000  0.75382000  1.0
  C  C219  1  0.82427000  0.02455000  0.74618000  1.0
  C  C220  1  0.63977000  0.01712000  0.06937000  1.0
  C  C221  1  0.13979000  0.98289000  0.43064000  1.0
  C  C222  1  0.36022000  0.98287000  0.93063000  1.0
  C  C223  1  0.86022000  0.01713000  0.56937000  1.0
  C  C224  1  0.92951000  0.79894000  0.37173000  1.0
  C  C225  1  0.42951000  0.20105000  0.12825000  1.0
  C  C226  1  0.07050000  0.20106000  0.62827000  1.0
  C  C227  1  0.57049000  0.79894000  0.87174000  1.0
  C  C228  1  0.93963000  0.72005000  0.37142000  1.0
  C  C229  1  0.43964000  0.27993000  0.12856000  1.0
  C  C230  1  0.06038000  0.27994000  0.62857000  1.0
  C  C231  1  0.56036000  0.72005000  0.87143000  1.0
  C  C232  1  0.90125000  0.69046000  0.42248000  1.0
  C  C233  1  0.40125000  0.30953000  0.07751000  1.0
  C  C234  1  0.09876000  0.30954000  0.57752000  1.0
  C  C235  1  0.59875000  0.69046000  0.92248000  1.0
  C  C236  1  0.85281000  0.74271000  0.47075000  1.0
  C  C237  1  0.35279000  0.25729000  0.02925000  1.0
  C  C238  1  0.14721000  0.25729000  0.52926000  1.0
  C  C239  1  0.64721000  0.74271000  0.97074000  1.0
  C  C240  1  0.84495000  0.82038000  0.46683000  1.0
  C  C241  1  0.34493000  0.17962000  0.03316000  1.0
  C  C242  1  0.15507000  0.17962000  0.53317000  1.0
  C  C243  1  0.65507000  0.82038000  0.96683000  1.0
  C  C244  1  0.91159000  0.60864000  0.42502000  1.0
  C  C245  1  0.41159000  0.39136000  0.07498000  1.0
  C  C246  1  0.08841000  0.39137000  0.57498000  1.0
  C  C247  1  0.58841000  0.60863000  0.92502000  1.0
  C  C248  1  0.95222000  0.48666000  0.39608000  1.0
  C  C249  1  0.45222000  0.51333000  0.10392000  1.0
  C  C250  1  0.04778000  0.51334000  0.60393000  1.0
  C  C251  1  0.54778000  0.48666000  0.89607000  1.0
  C  C252  1  0.90091000  0.48104000  0.45173000  1.0
  C  C253  1  0.40091000  0.51895000  0.04827000  1.0
  C  C254  1  0.09909000  0.51896000  0.54828000  1.0
  C  C255  1  0.59909000  0.48104000  0.95173000  1.0
  C  C256  1  0.93739000  0.35796000  0.42141000  1.0
  C  C257  1  0.43739000  0.64203000  0.07860000  1.0
  C  C258  1  0.06261000  0.64204000  0.57860000  1.0
  C  C259  1  0.56261000  0.35796000  0.92141000  1.0
  C  C260  1  0.94070000  0.27557000  0.42363000  1.0
  C  C261  1  0.44071000  0.72442000  0.07637000  1.0
  C  C262  1  0.05929000  0.72443000  0.57638000  1.0
  C  C263  1  0.55929000  0.27557000  0.92364000  1.0
  C  C264  1  0.97309000  0.21772000  0.37247000  1.0
  C  C265  1  0.47309000  0.78227000  0.12754000  1.0
  C  C266  1  0.02689000  0.78227000  0.62754000  1.0
  C  C267  1  0.52690000  0.21773000  0.87247000  1.0
  C  C268  1  0.96973000  0.13999000  0.37749000  1.0
  C  C269  1  0.46974000  0.86000000  0.12251000  1.0
  C  C270  1  0.03024000  0.86000000  0.62251000  1.0
  C  C271  1  0.53025000  0.13999000  0.87749000  1.0
  C  C272  1  0.90969000  0.17261000  0.48025000  1.0
  C  C273  1  0.40970000  0.82738000  0.01975000  1.0
  C  C274  1  0.09030000  0.82738000  0.51976000  1.0
  C  C275  1  0.59029000  0.17261000  0.98025000  1.0
  C  C276  1  0.90923000  0.25131000  0.47894000  1.0
  C  C277  1  0.40924000  0.74867000  0.02106000  1.0
  C  C278  1  0.09077000  0.74868000  0.52107000  1.0
  C  C279  1  0.59076000  0.25131000  0.97894000  1.0
  S  S280  1  0.63821000  0.06726000  0.48620000  1.0
  S  S281  1  0.13820000  0.93275000  0.01380000  1.0
  S  S282  1  0.36180000  0.93275000  0.51381000  1.0
  S  S283  1  0.86180000  0.06725000  0.98619000  1.0
  S  S284  1  0.50637000  0.88840000  0.36048000  1.0
  S  S285  1  0.00638000  0.11161000  0.13953000  1.0
  S  S286  1  0.49363000  0.11161000  0.63953000  1.0
  S  S287  1  0.99363000  0.88839000  0.86047000  1.0
  S  S288  1  0.85723000  0.57128000  0.48647000  1.0
  S  S289  1  0.35723000  0.42872000  0.01353000  1.0
  S  S290  1  0.14277000  0.42872000  0.51353000  1.0
  S  S291  1  0.64276000  0.57127000  0.98647000  1.0
  S  S292  1  0.99181000  0.39537000  0.35943000  1.0
  S  S293  1  0.49180000  0.60463000  0.14057000  1.0
  S  S294  1  0.00820000  0.60463000  0.64057000  1.0
  S  S295  1  0.50820000  0.39536000  0.85943000  1.0
  N  N296  1  0.60057000  0.34324000  0.41904000  1.0
  N  N297  1  0.10057000  0.65676000  0.08096000  1.0
  N  N298  1  0.39943000  0.65676000  0.58096000  1.0
  N  N299  1  0.89942000  0.34324000  0.91904000  1.0
  N  N300  1  0.57110000  0.61105000  0.42822000  1.0
  N  N301  1  0.07111000  0.38896000  0.07177000  1.0
  N  N302  1  0.42890000  0.38896000  0.57177000  1.0
  N  N303  1  0.92891000  0.61104000  0.92822000  1.0
  N  N304  1  0.53259000  0.05128000  0.38265000  1.0
  N  N305  1  0.03259000  0.94873000  0.11735000  1.0
  N  N306  1  0.46741000  0.94873000  0.61736000  1.0
  N  N307  1  0.96741000  0.05127000  0.88264000  1.0
  N  N308  1  0.60956000  0.90483000  0.46517000  1.0
  N  N309  1  0.10956000  0.09517000  0.03483000  1.0
  N  N310  1  0.39044000  0.09518000  0.53484000  1.0
  N  N311  1  0.89044000  0.90482000  0.96516000  1.0
  N  N312  1  0.88327000  0.84855000  0.41849000  1.0
  N  N313  1  0.38326000  0.15145000  0.08149000  1.0
  N  N314  1  0.11674000  0.15145000  0.58151000  1.0
  N  N315  1  0.61673000  0.84854000  0.91849000  1.0
  N  N316  1  0.93802000  0.11727000  0.43026000  1.0
  N  N317  1  0.43802000  0.88272000  0.06973000  1.0
  N  N318  1  0.06196000  0.88273000  0.56974000  1.0
  N  N319  1  0.56196000  0.11727000  0.93027000  1.0
  N  N320  1  0.95836000  0.55745000  0.38122000  1.0
  N  N321  1  0.45836000  0.44254000  0.11878000  1.0
  N  N322  1  0.04164000  0.44255000  0.61878000  1.0
  N  N323  1  0.54164000  0.55745000  0.88122000  1.0
  N  N324  1  0.89357000  0.41003000  0.46599000  1.0
  N  N325  1  0.39357000  0.58997000  0.03402000  1.0
  N  N326  1  0.10643000  0.58998000  0.53402000  1.0
  N  N327  1  0.60643000  0.41002000  0.96599000  1.0
  O  O328  1  0.73380000  0.48961000  0.35658000  1.0
  O  O329  1  0.23381000  0.51042000  0.14343000  1.0
  O  O330  1  0.26619000  0.51040000  0.64343000  1.0
  O  O331  1  0.76619000  0.48959000  0.85658000  1.0
  O  O332  1  0.59377000  0.45512000  0.30667000  1.0
  O  O333  1  0.09376000  0.54488000  0.19334000  1.0
  O  O334  1  0.40623000  0.54489000  0.69334000  1.0
  O  O335  1  0.90623000  0.45512000  0.80667000  1.0
  O  O336  1  0.93648000  0.54234000  0.06713000  1.0
  O  O337  1  0.43648000  0.45767000  0.43287000  1.0
  O  O338  1  0.06351000  0.45765000  0.93287000  1.0
  O  O339  1  0.56351000  0.54235000  0.56713000  1.0
  O  O340  1  0.80865000  0.48267000  0.01502000  1.0
  O  O341  1  0.30864000  0.51734000  0.48498000  1.0
  O  O342  1  0.19134000  0.51732000  0.98498000  1.0
  O  O343  1  0.69134000  0.48268000  0.51502000  1.0
  O  O344  1  0.76542000  0.00774000  0.36064000  1.0
  O  O345  1  0.26540000  0.99225000  0.13935000  1.0
  O  O346  1  0.23459000  0.99225000  0.63935000  1.0
  O  O347  1  0.73460000  0.00775000  0.86065000  1.0
  O  O348  1  0.90042000  0.96182000  0.30908000  1.0
  O  O349  1  0.40042000  0.03812000  0.19091000  1.0
  O  O350  1  0.09959000  0.03816000  0.69092000  1.0
  O  O351  1  0.59959000  0.96185000  0.80909000  1.0
  O  O352  1  0.55745000  0.04857000  0.06947000  1.0
  O  O353  1  0.05747000  0.95144000  0.43055000  1.0
  O  O354  1  0.44253000  0.95141000  0.93053000  1.0
  O  O355  1  0.94253000  0.04859000  0.56948000  1.0
  O  O356  1  0.68817000  0.99257000  0.01828000  1.0
  O  O357  1  0.18820000  0.00743000  0.48172000  1.0
  O  O358  1  0.31182000  0.00742000  0.98172000  1.0
  O  O359  1  0.81183000  0.99258000  0.51828000  1.0
