# generated using pymatgen
data_FeH8C6(N4O3)2
_symmetry_space_group_name_H-M   'P 1'
_cell_length_a   6.78156000
_cell_length_b   7.13335000
_cell_length_c   8.17412000
_cell_angle_alpha   91.88510000
_cell_angle_beta   106.11700000
_cell_angle_gamma   115.89700000
_symmetry_Int_Tables_number   1
_chemical_formula_structural   FeH8C6(N4O3)2
_chemical_formula_sum   'Fe1 H8 C6 N8 O6'
_cell_volume   336.25661821
_cell_formula_units_Z   1
loop_
 _symmetry_equiv_pos_site_id
 _symmetry_equiv_pos_as_xyz
  1  'x, y, z'
loop_
 _atom_site_type_symbol
 _atom_site_label
 _atom_site_symmetry_multiplicity
 _atom_site_fract_x
 _atom_site_fract_y
 _atom_site_fract_z
 _atom_site_occupancy
  Fe  Fe0  1  0.50020000  0.49996000  0.49993000  1.0
  H  H1  1  0.99616000  0.23817000  0.30028000  1.0
  H  H2  1  0.00438000  0.76203000  0.69943000  1.0
  H  H3  1  0.37196000  0.77164000  0.69168000  1.0
  H  H4  1  0.62854000  0.22848000  0.30800000  1.0
  H  H5  1  0.72445000  0.82553000  0.36912000  1.0
  H  H6  1  0.27586000  0.17465000  0.63122000  1.0
  H  H7  1  0.74698000  0.92288000  0.55179000  1.0
  H  H8  1  0.25233000  0.07667000  0.44849000  1.0
  C  C9  1  0.99920000  0.35602000  0.38991000  1.0
  C  C10  1  0.00136000  0.64405000  0.60991000  1.0
  C  C11  1  0.20625000  0.64910000  0.60599000  1.0
  C  C12  1  0.79428000  0.35093000  0.39383000  1.0
  C  C13  1  0.69197000  0.65397000  0.89001000  1.0
  C  C14  1  0.30809000  0.34611000  0.10988000  1.0
  N  N15  1  0.20820000  0.50403000  0.49661000  1.0
  N  N16  1  0.79235000  0.49590000  0.50327000  1.0
  N  N17  1  0.62264000  0.59786000  0.73920000  1.0
  N  N18  1  0.37771000  0.40197000  0.26069000  1.0
  N  N19  1  0.95443000  0.82325000  0.14984000  1.0
  N  N20  1  0.04485000  0.17687000  0.85028000  1.0
  N  N21  1  0.73111000  0.70771000  0.05468000  1.0
  N  N22  1  0.26841000  0.29241000  0.94508000  1.0
  O  O23  1  0.63063000  0.81948000  0.44494000  1.0
  O  O24  1  0.36921000  0.18000000  0.55523000  1.0
  O  O25  1  0.11879000  0.86588000  0.09298000  1.0
  O  O26  1  0.88097000  0.13433000  0.90770000  1.0
  O  O27  1  0.98648000  0.88860000  0.30791000  1.0
  O  O28  1  0.01225000  0.11155000  0.69212000  1.0
