# generated using pymatgen
data_AgH8C12N2Cl
_symmetry_space_group_name_H-M   'P 1'
_cell_length_a   4.21712000
_cell_length_b   8.02188000
_cell_length_c   8.02194000
_cell_angle_alpha   78.70230000
_cell_angle_beta   77.49150000
_cell_angle_gamma   77.49250000
_symmetry_Int_Tables_number   1
_chemical_formula_structural   AgH8C12N2Cl
_chemical_formula_sum   'Ag1 H8 C12 N2 Cl1'
_cell_volume   255.46684479
_cell_formula_units_Z   1
loop_
 _symmetry_equiv_pos_site_id
 _symmetry_equiv_pos_as_xyz
  1  'x, y, z'
loop_
 _atom_site_type_symbol
 _atom_site_label
 _atom_site_symmetry_multiplicity
 _atom_site_fract_x
 _atom_site_fract_y
 _atom_site_fract_z
 _atom_site_occupancy
  Ag  Ag0  1  0.99999000  0.00871000  0.99129000  1.0
  H  H1  1  0.28055000  0.12771000  0.29824000  1.0
  H  H2  1  0.71946000  0.70174000  0.87229000  1.0
  H  H3  1  0.40559000  0.01342000  0.59777000  1.0
  H  H4  1  0.59438000  0.40223000  0.98660000  1.0
  H  H5  1  0.30275000  0.71691000  0.73455000  1.0
  H  H6  1  0.69725000  0.26544000  0.28309000  1.0
  H  H7  1  0.12315000  0.44426000  0.71309000  1.0
  H  H8  1  0.87685000  0.28690000  0.55574000  1.0
  C  C9  1  0.23884000  0.99940000  0.36334000  1.0
  C  C10  1  0.76116000  0.63665000  0.00060000  1.0
  C  C11  1  0.31085000  0.93506000  0.52953000  1.0
  C  C12  1  0.68914000  0.47046000  0.06495000  1.0
  C  C13  1  0.25404000  0.77134000  0.60502000  1.0
  C  C14  1  0.74596000  0.39498000  0.22866000  1.0
  C  C15  1  0.12950000  0.67301000  0.51461000  1.0
  C  C16  1  0.87051000  0.48539000  0.32699000  1.0
  C  C17  1  0.06372000  0.75001000  0.34700000  1.0
  C  C18  1  0.93629000  0.65300000  0.24999000  1.0
  C  C19  1  0.06452000  0.50318000  0.58622000  1.0
  C  C20  1  0.93549000  0.41378000  0.49681000  1.0
  N  N21  1  0.11507000  0.91180000  0.27579000  1.0
  N  N22  1  0.88495000  0.72420000  0.08819000  1.0
  Cl  Cl23  1  0.49999000  0.14748000  0.85252000  1.0
