# generated using pymatgen
data_AlH15C22I2O5
_symmetry_space_group_name_H-M   'P 1'
_cell_length_a   6.66399000
_cell_length_b   25.40850000
_cell_length_c   28.94960000
_cell_angle_alpha   89.99990000
_cell_angle_beta   89.99890000
_cell_angle_gamma   89.63400000
_symmetry_Int_Tables_number   1
_chemical_formula_structural   AlH15C22I2O5
_chemical_formula_sum   'Al4 H60 C88 I8 O20'
_cell_volume   4901.70386881
_cell_formula_units_Z   4
loop_
 _symmetry_equiv_pos_site_id
 _symmetry_equiv_pos_as_xyz
  1  'x, y, z'
loop_
 _atom_site_type_symbol
 _atom_site_label
 _atom_site_symmetry_multiplicity
 _atom_site_fract_x
 _atom_site_fract_y
 _atom_site_fract_z
 _atom_site_occupancy
  Al  Al0  1  0.19905000  0.74971000  0.25000000  1.0
  Al  Al1  1  0.80096000  0.25029000  0.75000000  1.0
  Al  Al2  1  0.69871000  0.75102000  0.25000000  1.0
  Al  Al3  1  0.30130000  0.24897000  0.75000000  1.0
  H  H4  1  0.76349000  0.32668000  0.62636000  1.0
  H  H5  1  0.23652000  0.67330000  0.37364000  1.0
  H  H6  1  0.23652000  0.67331000  0.12635000  1.0
  H  H7  1  0.76348000  0.32668000  0.87365000  1.0
  H  H8  1  0.26775000  0.12018000  0.83224000  1.0
  H  H9  1  0.73227000  0.87981000  0.16776000  1.0
  H  H10  1  0.73215000  0.87986000  0.33221000  1.0
  H  H11  1  0.26769000  0.12023000  0.66773000  1.0
  H  H12  1  0.74496000  0.38852000  0.55965000  1.0
  H  H13  1  0.25506000  0.61146000  0.44035000  1.0
  H  H14  1  0.25503000  0.61147000  0.05964000  1.0
  H  H15  1  0.74494000  0.38853000  0.94035000  1.0
  H  H16  1  0.24775000  0.05348000  0.89509000  1.0
  H  H17  1  0.75228000  0.94650000  0.10491000  1.0
  H  H18  1  0.75213000  0.94655000  0.39506000  1.0
  H  H19  1  0.24764000  0.05353000  0.60489000  1.0
  H  H20  1  0.31917000  0.45098000  0.59868000  1.0
  H  H21  1  0.68083000  0.54901000  0.40132000  1.0
  H  H22  1  0.68083000  0.54901000  0.09868000  1.0
  H  H23  1  0.31914000  0.45099000  0.90132000  1.0
  H  H24  1  0.81629000  0.10698000  0.94687000  1.0
  H  H25  1  0.18371000  0.89302000  0.05313000  1.0
  H  H26  1  0.18377000  0.89298000  0.44690000  1.0
  H  H27  1  0.81643000  0.10693000  0.55316000  1.0
  H  H28  1  0.24733000  0.50447000  0.43647000  1.0
  H  H29  1  0.75269000  0.49552000  0.56352000  1.0
  H  H30  1  0.75265000  0.49552000  0.93648000  1.0
  H  H31  1  0.24730000  0.50448000  0.06352000  1.0
  H  H32  1  0.74805000  0.92837000  0.01151000  1.0
  H  H33  1  0.25194000  0.07162000  0.98848000  1.0
  H  H34  1  0.25190000  0.07161000  0.51153000  1.0
  H  H35  1  0.74801000  0.92837000  0.48849000  1.0
  H  H36  1  0.48117000  0.42711000  0.66448000  1.0
  H  H37  1  0.34598000  0.39567000  0.70972000  1.0
  H  H38  1  0.48871000  0.35740000  0.67100000  1.0
  H  H39  1  0.51879000  0.57289000  0.33553000  1.0
  H  H40  1  0.51127000  0.64259000  0.32901000  1.0
  H  H41  1  0.65396000  0.60431000  0.29028000  1.0
  H  H42  1  0.51886000  0.57288000  0.16449000  1.0
  H  H43  1  0.65403000  0.60432000  0.20973000  1.0
  H  H44  1  0.51129000  0.64258000  0.17101000  1.0
  H  H45  1  0.48113000  0.42712000  0.83551000  1.0
  H  H46  1  0.48871000  0.35741000  0.82900000  1.0
  H  H47  1  0.34597000  0.39567000  0.79028000  1.0
  H  H48  1  0.97418000  0.17930000  0.91833000  1.0
  H  H49  1  0.98970000  0.17652000  0.85696000  1.0
  H  H50  1  0.84051000  0.22514000  0.88306000  1.0
  H  H51  1  0.02578000  0.82070000  0.08168000  1.0
  H  H52  1  0.15948000  0.77486000  0.11694000  1.0
  H  H53  1  0.01032000  0.82347000  0.14306000  1.0
  H  H54  1  0.02603000  0.82061000  0.41837000  1.0
  H  H55  1  0.01033000  0.82341000  0.35700000  1.0
  H  H56  1  0.15973000  0.77481000  0.38306000  1.0
  H  H57  1  0.97457000  0.17917000  0.58174000  1.0
  H  H58  1  0.84088000  0.22508000  0.61693000  1.0
  H  H59  1  0.98975000  0.17646000  0.64311000  1.0
  H  H60  1  0.45228000  0.68044000  0.25002000  1.0
  H  H61  1  0.54772000  0.31956000  0.75002000  1.0
  H  H62  1  0.95124000  0.82011000  0.25006000  1.0
  H  H63  1  0.04876000  0.17988000  0.75007000  1.0
  C  C64  1  0.44633000  0.81283000  0.31349000  1.0
  C  C65  1  0.55368000  0.18718000  0.68650000  1.0
  C  C66  1  0.55366000  0.18717000  0.81350000  1.0
  C  C67  1  0.44634000  0.81282000  0.18650000  1.0
  C  C68  1  0.94907000  0.68579000  0.18789000  1.0
  C  C69  1  0.05096000  0.31420000  0.81212000  1.0
  C  C70  1  0.05096000  0.31420000  0.68789000  1.0
  C  C71  1  0.94903000  0.68579000  0.31211000  1.0
  C  C72  1  0.88565000  0.35391000  0.61958000  1.0
  C  C73  1  0.11436000  0.64608000  0.38041000  1.0
  C  C74  1  0.11437000  0.64608000  0.11958000  1.0
  C  C75  1  0.88563000  0.35391000  0.88042000  1.0
  C  C76  1  0.38815000  0.11652000  0.85750000  1.0
  C  C77  1  0.61185000  0.88348000  0.14250000  1.0
  C  C78  1  0.61177000  0.88351000  0.35748000  1.0
  C  C79  1  0.38813000  0.11654000  0.64249000  1.0
  C  C80  1  0.87554000  0.38834000  0.58236000  1.0
  C  C81  1  0.12447000  0.61165000  0.41763000  1.0
  C  C82  1  0.12445000  0.61166000  0.08236000  1.0
  C  C83  1  0.87552000  0.38834000  0.91764000  1.0
  C  C84  1  0.37732000  0.07931000  0.89251000  1.0
  C  C85  1  0.62270000  0.92068000  0.10749000  1.0
  C  C86  1  0.62260000  0.92070000  0.39249000  1.0
  C  C87  1  0.37727000  0.07934000  0.60748000  1.0
  C  C88  1  0.03439000  0.42300000  0.57407000  1.0
  C  C89  1  0.96562000  0.57699000  0.42592000  1.0
  C  C90  1  0.96559000  0.57700000  0.07407000  1.0
  C  C91  1  0.03437000  0.42300000  0.92592000  1.0
  C  C92  1  0.53465000  0.07490000  0.92443000  1.0
  C  C93  1  0.46535000  0.92509000  0.07557000  1.0
  C  C94  1  0.46530000  0.92509000  0.42443000  1.0
  C  C95  1  0.53466000  0.07490000  0.57558000  1.0
  C  C96  1  0.19902000  0.42268000  0.60419000  1.0
  C  C97  1  0.80098000  0.57730000  0.39581000  1.0
  C  C98  1  0.80098000  0.57731000  0.10419000  1.0
  C  C99  1  0.19900000  0.42269000  0.89580000  1.0
  C  C100  1  0.69768000  0.10923000  0.92094000  1.0
  C  C101  1  0.30231000  0.89076000  0.07907000  1.0
  C  C102  1  0.30233000  0.89074000  0.42095000  1.0
  C  C103  1  0.69777000  0.10920000  0.57908000  1.0
  C  C104  1  0.21260000  0.38839000  0.64192000  1.0
  C  C105  1  0.78739000  0.61160000  0.35809000  1.0
  C  C106  1  0.78741000  0.61160000  0.14192000  1.0
  C  C107  1  0.21259000  0.38839000  0.85808000  1.0
  C  C108  1  0.71189000  0.14717000  0.88602000  1.0
  C  C109  1  0.28811000  0.85283000  0.11399000  1.0
  C  C110  1  0.28815000  0.85281000  0.38602000  1.0
  C  C111  1  0.71200000  0.14714000  0.61401000  1.0
  C  C112  1  0.05217000  0.35304000  0.64919000  1.0
  C  C113  1  0.94782000  0.64695000  0.35081000  1.0
  C  C114  1  0.94784000  0.64695000  0.14919000  1.0
  C  C115  1  0.05217000  0.35304000  0.85081000  1.0
  C  C116  1  0.55380000  0.14996000  0.85337000  1.0
  C  C117  1  0.44620000  0.85003000  0.14663000  1.0
  C  C118  1  0.44620000  0.85004000  0.35336000  1.0
  C  C119  1  0.55385000  0.14996000  0.64664000  1.0
  C  C120  1  0.16108000  0.46490000  0.49920000  1.0
  C  C121  1  0.83895000  0.53509000  0.50080000  1.0
  C  C122  1  0.83891000  0.53510000  0.99920000  1.0
  C  C123  1  0.16104000  0.46491000  0.00080000  1.0
  C  C124  1  0.66152000  0.99505000  0.96986000  1.0
  C  C125  1  0.33847000  0.00494000  0.03014000  1.0
  C  C126  1  0.33842000  0.00494000  0.46988000  1.0
  C  C127  1  0.66151000  0.99504000  0.53014000  1.0
  C  C128  1  0.13939000  0.50277000  0.46469000  1.0
  C  C129  1  0.86064000  0.49721000  0.53530000  1.0
  C  C130  1  0.86059000  0.49722000  0.96469000  1.0
  C  C131  1  0.13935000  0.50278000  0.03530000  1.0
  C  C132  1  0.63964000  0.96015000  0.00664000  1.0
  C  C133  1  0.36036000  0.03983000  0.99336000  1.0
  C  C134  1  0.36034000  0.03983000  0.50665000  1.0
  C  C135  1  0.63960000  0.96015000  0.49336000  1.0
  C  C136  1  0.97799000  0.53864000  0.46441000  1.0
  C  C137  1  0.02203000  0.46134000  0.53558000  1.0
  C  C138  1  0.02199000  0.46135000  0.96441000  1.0
  C  C139  1  0.97795000  0.53865000  0.03558000  1.0
  C  C140  1  0.47768000  0.96400000  0.03756000  1.0
  C  C141  1  0.52232000  0.03599000  0.96244000  1.0
  C  C142  1  0.52231000  0.03598000  0.53756000  1.0
  C  C143  1  0.47764000  0.96400000  0.46245000  1.0
  C  C144  1  0.39187000  0.39241000  0.67335000  1.0
  C  C145  1  0.60810000  0.60759000  0.32665000  1.0
  C  C146  1  0.60815000  0.60758000  0.17336000  1.0
  C  C147  1  0.39185000  0.39241000  0.82664000  1.0
  C  C148  1  0.88841000  0.18385000  0.88619000  1.0
  C  C149  1  0.11159000  0.81615000  0.11382000  1.0
  C  C150  1  0.11173000  0.81609000  0.38621000  1.0
  C  C151  1  0.88864000  0.18378000  0.61385000  1.0
  I  I152  1  0.40199000  0.41119000  0.49189000  1.0
  I  I153  1  0.59802000  0.58879000  0.50811000  1.0
  I  I154  1  0.59798000  0.58880000  0.99189000  1.0
  I  I155  1  0.40198000  0.41121000  0.00810000  1.0
  I  I156  1  0.90323000  0.98083000  0.92431000  1.0
  I  I157  1  0.09676000  0.01916000  0.07568000  1.0
  I  I158  1  0.09664000  0.01915000  0.42435000  1.0
  I  I159  1  0.90321000  0.98081000  0.57568000  1.0
  O  O160  1  0.61727000  0.79944000  0.20277000  1.0
  O  O161  1  0.38275000  0.20054000  0.79722000  1.0
  O  O162  1  0.38277000  0.20055000  0.70277000  1.0
  O  O163  1  0.61725000  0.79946000  0.29722000  1.0
  O  O164  1  0.12007000  0.70045000  0.29721000  1.0
  O  O165  1  0.87992000  0.29955000  0.70279000  1.0
  O  O166  1  0.87992000  0.29955000  0.79721000  1.0
  O  O167  1  0.12010000  0.70045000  0.20278000  1.0
  O  O168  1  0.27751000  0.79812000  0.29758000  1.0
  O  O169  1  0.72250000  0.20189000  0.70242000  1.0
  O  O170  1  0.72249000  0.20188000  0.79758000  1.0
  O  O171  1  0.27753000  0.79811000  0.20242000  1.0
  O  O172  1  0.78026000  0.70172000  0.20317000  1.0
  O  O173  1  0.21977000  0.29827000  0.79684000  1.0
  O  O174  1  0.21976000  0.29827000  0.70317000  1.0
  O  O175  1  0.78022000  0.70172000  0.29683000  1.0
  O  O176  1  0.45019000  0.71849000  0.25000000  1.0
  O  O177  1  0.54981000  0.28150000  0.75000000  1.0
  O  O178  1  0.94915000  0.78206000  0.25000000  1.0
  O  O179  1  0.05086000  0.21793000  0.75000000  1.0
