# generated using pymatgen
data_CdH12C18N11O6
_symmetry_space_group_name_H-M   'P 1'
_cell_length_a   15.27586911
_cell_length_b   15.27640000
_cell_length_c   15.44980000
_cell_angle_alpha   67.93300000
_cell_angle_beta   67.93363466
_cell_angle_gamma   61.85267644
_symmetry_Int_Tables_number   1
_chemical_formula_structural   CdH12C18N11O6
_chemical_formula_sum   'Cd4 H48 C72 N44 O24'
_cell_volume   2857.91095077
_cell_formula_units_Z   4
loop_
 _symmetry_equiv_pos_site_id
 _symmetry_equiv_pos_as_xyz
  1  'x, y, z'
loop_
 _atom_site_type_symbol
 _atom_site_label
 _atom_site_symmetry_multiplicity
 _atom_site_fract_x
 _atom_site_fract_y
 _atom_site_fract_z
 _atom_site_occupancy
  Cd  Cd0  1  0.94483000  0.70612000  0.31202000  1.0
  Cd  Cd1  1  0.29389000  0.05516000  0.18797000  1.0
  Cd  Cd2  1  0.05516000  0.29389000  0.68798000  1.0
  Cd  Cd3  1  0.70612000  0.94483000  0.81202000  1.0
  H  H4  1  0.83004000  0.90901000  0.14330000  1.0
  H  H5  1  0.09098000  0.16996000  0.35672000  1.0
  H  H6  1  0.16995000  0.09098000  0.85672000  1.0
  H  H7  1  0.90902000  0.83004000  0.64327000  1.0
  H  H8  1  0.67795000  0.07244000  0.14444000  1.0
  H  H9  1  0.92755000  0.32206000  0.35557000  1.0
  H  H10  1  0.32205000  0.92756000  0.85557000  1.0
  H  H11  1  0.07245000  0.67794000  0.64444000  1.0
  H  H12  1  0.57516000  0.95223000  0.44994000  1.0
  H  H13  1  0.04776000  0.42483000  0.05007000  1.0
  H  H14  1  0.42484000  0.04777000  0.55007000  1.0
  H  H15  1  0.95223000  0.57517000  0.94994000  1.0
  H  H16  1  0.73253000  0.79479000  0.43729000  1.0
  H  H17  1  0.20521000  0.26745000  0.06272000  1.0
  H  H18  1  0.26747000  0.20521000  0.56272000  1.0
  H  H19  1  0.79479000  0.73255000  0.93728000  1.0
  H  H20  1  0.01688000  0.45958000  0.39734000  1.0
  H  H21  1  0.54044000  0.98312000  0.10267000  1.0
  H  H22  1  0.98312000  0.54043000  0.60268000  1.0
  H  H23  1  0.45957000  0.01688000  0.89733000  1.0
  H  H24  1  0.17377000  0.30047000  0.39540000  1.0
  H  H25  1  0.69955000  0.82622000  0.10460000  1.0
  H  H26  1  0.82622000  0.69954000  0.60461000  1.0
  H  H27  1  0.30046000  0.17377000  0.89540000  1.0
  H  H28  1  0.34928000  0.48926000  0.22507000  1.0
  H  H29  1  0.51074000  0.65073000  0.27492000  1.0
  H  H30  1  0.65072000  0.51075000  0.77494000  1.0
  H  H31  1  0.48926000  0.34927000  0.72506000  1.0
  H  H32  1  0.18323000  0.64235000  0.23440000  1.0
  H  H33  1  0.35766000  0.81677000  0.26560000  1.0
  H  H34  1  0.81677000  0.35765000  0.76562000  1.0
  H  H35  1  0.64235000  0.18322000  0.73438000  1.0
  H  H36  1  0.94867000  0.67101000  0.12486000  1.0
  H  H37  1  0.32899000  0.05134000  0.37513000  1.0
  H  H38  1  0.05133000  0.32898000  0.87513000  1.0
  H  H39  1  0.67102000  0.94866000  0.62486000  1.0
  H  H40  1  0.97676000  0.74240000  0.94688000  1.0
  H  H41  1  0.25760000  0.02324000  0.55311000  1.0
  H  H42  1  0.02325000  0.25760000  0.05312000  1.0
  H  H43  1  0.74240000  0.97675000  0.44688000  1.0
  H  H44  1  0.11242000  0.92040000  0.97413000  1.0
  H  H45  1  0.07959000  0.88759000  0.52586000  1.0
  H  H46  1  0.88759000  0.07960000  0.02587000  1.0
  H  H47  1  0.92040000  0.11241000  0.47413000  1.0
  H  H48  1  0.07544000  0.84554000  0.15088000  1.0
  H  H49  1  0.15445000  0.92458000  0.34912000  1.0
  H  H50  1  0.92455000  0.15446000  0.84913000  1.0
  H  H51  1  0.84554000  0.07544000  0.65088000  1.0
  C  C52  1  0.52842000  0.12425000  0.30671000  1.0
  C  C53  1  0.87575000  0.47157000  0.19330000  1.0
  C  C54  1  0.47157000  0.87575000  0.69330000  1.0
  C  C55  1  0.12425000  0.52843000  0.80670000  1.0
  C  C56  1  0.36944000  0.29086000  0.31233000  1.0
  C  C57  1  0.70915000  0.63056000  0.18765000  1.0
  C  C58  1  0.63056000  0.70914000  0.68766000  1.0
  C  C59  1  0.29086000  0.36944000  0.81234000  1.0
  C  C60  1  0.77233000  0.92084000  0.21024000  1.0
  C  C61  1  0.07915000  0.22768000  0.28977000  1.0
  C  C62  1  0.22767000  0.07915000  0.78977000  1.0
  C  C63  1  0.92084000  0.77234000  0.71023000  1.0
  C  C64  1  0.68686000  0.01249000  0.21064000  1.0
  C  C65  1  0.98750000  0.31314000  0.28937000  1.0
  C  C66  1  0.31313000  0.98750000  0.78937000  1.0
  C  C67  1  0.01250000  0.68686000  0.71063000  1.0
  C  C68  1  0.61489000  0.02626000  0.29803000  1.0
  C  C69  1  0.97375000  0.38511000  0.20197000  1.0
  C  C70  1  0.38511000  0.97375000  0.70197000  1.0
  C  C71  1  0.02625000  0.61490000  0.79803000  1.0
  C  C72  1  0.62896000  0.94520000  0.38031000  1.0
  C  C73  1  0.05481000  0.37103000  0.11970000  1.0
  C  C74  1  0.37103000  0.05482000  0.61970000  1.0
  C  C75  1  0.94520000  0.62897000  0.88031000  1.0
  C  C76  1  0.71707000  0.85714000  0.37364000  1.0
  C  C77  1  0.14285000  0.28292000  0.12637000  1.0
  C  C78  1  0.28292000  0.14285000  0.62637000  1.0
  C  C79  1  0.85714000  0.71709000  0.87363000  1.0
  C  C80  1  0.09160000  0.46315000  0.35839000  1.0
  C  C81  1  0.53686000  0.90840000  0.14161000  1.0
  C  C82  1  0.90840000  0.53686000  0.64161000  1.0
  C  C83  1  0.46315000  0.09160000  0.85837000  1.0
  C  C84  1  0.17963000  0.37426000  0.35705000  1.0
  C  C85  1  0.62575000  0.82036000  0.14296000  1.0
  C  C86  1  0.82037000  0.62574000  0.64296000  1.0
  C  C87  1  0.37425000  0.17965000  0.85703000  1.0
  C  C88  1  0.27439000  0.38260000  0.30905000  1.0
  C  C89  1  0.61740000  0.72561000  0.19095000  1.0
  C  C90  1  0.72561000  0.61740000  0.69096000  1.0
  C  C91  1  0.38260000  0.27439000  0.80904000  1.0
  C  C92  1  0.27672000  0.48022000  0.26254000  1.0
  C  C93  1  0.51978000  0.72328000  0.23747000  1.0
  C  C94  1  0.72328000  0.51978000  0.73748000  1.0
  C  C95  1  0.48022000  0.27671000  0.76252000  1.0
  C  C96  1  0.18493000  0.56489000  0.26765000  1.0
  C  C97  1  0.43512000  0.81507000  0.23236000  1.0
  C  C98  1  0.81507000  0.43512000  0.73237000  1.0
  C  C99  1  0.56488000  0.18493000  0.76763000  1.0
  C  C100  1  0.06206000  0.88371000  0.84233000  1.0
  C  C101  1  0.11629000  0.93794000  0.65766000  1.0
  C  C102  1  0.93795000  0.11628000  0.15767000  1.0
  C  C103  1  0.88370000  0.06206000  0.34234000  1.0
  C  C104  1  0.98468000  0.72654000  0.08853000  1.0
  C  C105  1  0.27346000  0.01533000  0.41146000  1.0
  C  C106  1  0.01532000  0.27346000  0.91148000  1.0
  C  C107  1  0.72654000  0.98468000  0.58853000  1.0
  C  C108  1  0.00081000  0.76582000  0.98958000  1.0
  C  C109  1  0.23418000  0.99919000  0.51042000  1.0
  C  C110  1  0.99918000  0.23419000  0.01043000  1.0
  C  C111  1  0.76582000  0.00080000  0.48958000  1.0
  C  C112  1  0.04626000  0.83796000  0.94647000  1.0
  C  C113  1  0.16204000  0.95375000  0.55352000  1.0
  C  C114  1  0.95374000  0.16204000  0.05353000  1.0
  C  C115  1  0.83796000  0.04625000  0.44647000  1.0
  C  C116  1  0.07584000  0.86576000  0.00451000  1.0
  C  C117  1  0.13422000  0.92417000  0.49549000  1.0
  C  C118  1  0.92417000  0.13423000  0.99549000  1.0
  C  C119  1  0.86576000  0.07584000  0.50451000  1.0
  C  C120  1  0.05563000  0.82372000  0.10330000  1.0
  C  C121  1  0.17627000  0.94439000  0.39669000  1.0
  C  C122  1  0.94437000  0.17628000  0.89670000  1.0
  C  C123  1  0.82372000  0.05563000  0.60330000  1.0
  N  N124  1  0.82410000  0.58065000  0.38511000  1.0
  N  N125  1  0.41933000  0.17591000  0.11488000  1.0
  N  N126  1  0.17590000  0.41934000  0.61489000  1.0
  N  N127  1  0.58067000  0.82409000  0.88511000  1.0
  N  N128  1  0.99968000  0.79066000  0.41263000  1.0
  N  N129  1  0.20935000  0.00031000  0.08737000  1.0
  N  N130  1  0.00032000  0.20935000  0.58737000  1.0
  N  N131  1  0.79065000  0.99970000  0.91263000  1.0
  N  N132  1  0.36553000  0.20809000  0.38564000  1.0
  N  N133  1  0.79192000  0.63447000  0.11435000  1.0
  N  N134  1  0.63447000  0.79191000  0.61436000  1.0
  N  N135  1  0.20808000  0.36553000  0.88564000  1.0
  N  N136  1  0.54059000  0.21216000  0.24994000  1.0
  N  N137  1  0.78783000  0.45941000  0.25007000  1.0
  N  N138  1  0.45941000  0.78783000  0.75007000  1.0
  N  N139  1  0.21217000  0.54059000  0.74994000  1.0
  N  N140  1  0.44704000  0.12268000  0.38185000  1.0
  N  N141  1  0.87733000  0.55295000  0.11815000  1.0
  N  N142  1  0.55296000  0.87732000  0.61815000  1.0
  N  N143  1  0.12268000  0.44705000  0.88185000  1.0
  N  N144  1  0.45835000  0.29717000  0.25238000  1.0
  N  N145  1  0.70282000  0.54166000  0.24762000  1.0
  N  N146  1  0.54165000  0.70282000  0.74763000  1.0
  N  N147  1  0.29718000  0.45834000  0.75238000  1.0
  N  N148  1  0.78892000  0.84564000  0.29040000  1.0
  N  N149  1  0.15435000  0.21107000  0.20961000  1.0
  N  N150  1  0.21108000  0.15435000  0.70961000  1.0
  N  N151  1  0.84565000  0.78892000  0.79039000  1.0
  N  N152  1  0.09379000  0.55685000  0.31485000  1.0
  N  N153  1  0.44316000  0.90621000  0.18515000  1.0
  N  N154  1  0.90622000  0.44315000  0.68517000  1.0
  N  N155  1  0.55684000  0.09379000  0.81484000  1.0
  N  N156  1  0.02215000  0.86291000  0.79133000  1.0
  N  N157  1  0.13710000  0.97785000  0.70866000  1.0
  N  N158  1  0.97786000  0.13709000  0.20867000  1.0
  N  N159  1  0.86290000  0.02215000  0.29134000  1.0
  N  N160  1  0.04868000  0.89184000  0.69688000  1.0
  N  N161  1  0.10816000  0.95132000  0.80310000  1.0
  N  N162  1  0.95133000  0.10814000  0.30311000  1.0
  N  N163  1  0.89186000  0.04867000  0.19689000  1.0
  N  N164  1  0.01015000  0.75581000  0.14474000  1.0
  N  N165  1  0.24420000  0.98985000  0.35525000  1.0
  N  N166  1  0.98984000  0.24420000  0.85526000  1.0
  N  N167  1  0.75581000  0.01015000  0.64474000  1.0
  O  O168  1  0.85955000  0.60354000  0.29318000  1.0
  O  O169  1  0.39645000  0.14046000  0.20681000  1.0
  O  O170  1  0.14046000  0.39645000  0.70682000  1.0
  O  O171  1  0.60355000  0.85954000  0.79318000  1.0
  O  O172  1  0.84726000  0.61335000  0.43609000  1.0
  O  O173  1  0.38665000  0.15272000  0.06390000  1.0
  O  O174  1  0.15272000  0.38665000  0.56391000  1.0
  O  O175  1  0.61335000  0.84729000  0.93609000  1.0
  O  O176  1  0.77080000  0.52895000  0.42342000  1.0
  O  O177  1  0.47101000  0.22923000  0.07657000  1.0
  O  O178  1  0.22921000  0.47103000  0.57657000  1.0
  O  O179  1  0.52900000  0.77076000  0.92343000  1.0
  O  O180  1  0.04415000  0.79479000  0.32364000  1.0
  O  O181  1  0.20520000  0.95584000  0.17636000  1.0
  O  O182  1  0.95585000  0.20521000  0.67636000  1.0
  O  O183  1  0.79479000  0.04417000  0.82364000  1.0
  O  O184  1  0.93309000  0.74915000  0.45162000  1.0
  O  O185  1  0.25085000  0.06690000  0.04838000  1.0
  O  O186  1  0.06690000  0.25086000  0.54838000  1.0
  O  O187  1  0.74915000  0.93310000  0.95162000  1.0
  O  O188  1  0.01885000  0.82601000  0.46099000  1.0
  O  O189  1  0.17402000  0.98112000  0.03899000  1.0
  O  O190  1  0.98113000  0.17401000  0.53900000  1.0
  O  O191  1  0.82599000  0.01888000  0.96100000  1.0
