# generated using pymatgen
data_ZnH20C30N4(ClO2)2
_symmetry_space_group_name_H-M   'P 1'
_cell_length_a   8.50446000
_cell_length_b   9.33202000
_cell_length_c   18.30780000
_cell_angle_alpha   94.52720000
_cell_angle_beta   89.98610000
_cell_angle_gamma   117.11400000
_symmetry_Int_Tables_number   1
_chemical_formula_structural   ZnH20C30N4(ClO2)2
_chemical_formula_sum   'Zn2 H40 C60 N8 Cl4 O8'
_cell_volume   1288.21555611
_cell_formula_units_Z   2
loop_
 _symmetry_equiv_pos_site_id
 _symmetry_equiv_pos_as_xyz
  1  'x, y, z'
loop_
 _atom_site_type_symbol
 _atom_site_label
 _atom_site_symmetry_multiplicity
 _atom_site_fract_x
 _atom_site_fract_y
 _atom_site_fract_z
 _atom_site_occupancy
  Zn  Zn0  1  0.10376000  0.99984000  0.75006000  1.0
  Zn  Zn1  1  0.89624000  0.00016000  0.24994000  1.0
  H  H2  1  0.78871000  0.01791000  0.96554000  1.0
  H  H3  1  0.77093000  0.98254000  0.53450000  1.0
  H  H4  1  0.21129000  0.98209000  0.03446000  1.0
  H  H5  1  0.22907000  0.01746000  0.46550000  1.0
  H  H6  1  0.85464000  0.72753000  0.62473000  1.0
  H  H7  1  0.12709000  0.27249000  0.87536000  1.0
  H  H8  1  0.14536000  0.27247000  0.37527000  1.0
  H  H9  1  0.87290000  0.72751000  0.12464000  1.0
  H  H10  1  0.89300000  0.87900000  0.89496000  1.0
  H  H11  1  0.01465000  0.12070000  0.60514000  1.0
  H  H12  1  0.10699000  0.12100000  0.10504000  1.0
  H  H13  1  0.98535000  0.87929000  0.39486000  1.0
  H  H14  1  0.67769000  0.68836000  0.97538000  1.0
  H  H15  1  0.98974000  0.31114000  0.52465000  1.0
  H  H16  1  0.32231000  0.31164000  0.02462000  1.0
  H  H17  1  0.01026000  0.68886000  0.47536000  1.0
  H  H18  1  0.33281000  0.65874000  0.49627000  1.0
  H  H19  1  0.67397000  0.34166000  0.00378000  1.0
  H  H20  1  0.66719000  0.34126000  0.50373000  1.0
  H  H21  1  0.32604000  0.65835000  0.99622000  1.0
  H  H22  1  0.45680000  0.32948000  0.66404000  1.0
  H  H23  1  0.12724000  0.67039000  0.83594000  1.0
  H  H24  1  0.54320000  0.67052000  0.33596000  1.0
  H  H25  1  0.87277000  0.32962000  0.16406000  1.0
  H  H26  1  0.66094000  0.34937000  0.63162000  1.0
  H  H27  1  0.31157000  0.65070000  0.86834000  1.0
  H  H28  1  0.33906000  0.65062000  0.36838000  1.0
  H  H29  1  0.68844000  0.34930000  0.13166000  1.0
  H  H30  1  0.43699000  0.32498000  0.79223000  1.0
  H  H31  1  0.11161000  0.67453000  0.70773000  1.0
  H  H32  1  0.56301000  0.67501000  0.20777000  1.0
  H  H33  1  0.88839000  0.32547000  0.29227000  1.0
  H  H34  1  0.45157000  0.41398000  0.92481000  1.0
  H  H35  1  0.03731000  0.58532000  0.57518000  1.0
  H  H36  1  0.54843000  0.58602000  0.07519000  1.0
  H  H37  1  0.96269000  0.41468000  0.42482000  1.0
  H  H38  1  0.40601000  0.59080000  0.61542000  1.0
  H  H39  1  0.81522000  0.40960000  0.88461000  1.0
  H  H40  1  0.59399000  0.40920000  0.38458000  1.0
  H  H41  1  0.18479000  0.59041000  0.11539000  1.0
  C  C42  1  0.66107000  0.00933000  0.98048000  1.0
  C  C43  1  0.65187000  0.99104000  0.51954000  1.0
  C  C44  1  0.33893000  0.99067000  0.01952000  1.0
  C  C45  1  0.34813000  0.00896000  0.48046000  1.0
  C  C46  1  0.38659000  0.01261000  0.94650000  1.0
  C  C47  1  0.37381000  0.98711000  0.55349000  1.0
  C  C48  1  0.61341000  0.98739000  0.05350000  1.0
  C  C49  1  0.62619000  0.01289000  0.44651000  1.0
  C  C50  1  0.55102000  0.02156000  0.92754000  1.0
  C  C51  1  0.52946000  0.97857000  0.57247000  1.0
  C  C52  1  0.44898000  0.97844000  0.07246000  1.0
  C  C53  1  0.47054000  0.02143000  0.42753000  1.0
  C  C54  1  0.77952000  0.71259000  0.79770000  1.0
  C  C55  1  0.06735000  0.28723000  0.70235000  1.0
  C  C56  1  0.22048000  0.28741000  0.20230000  1.0
  C  C57  1  0.93266000  0.71277000  0.29765000  1.0
  C  C58  1  0.25873000  0.03121000  0.89544000  1.0
  C  C59  1  0.22723000  0.96835000  0.60453000  1.0
  C  C60  1  0.74127000  0.96879000  0.10456000  1.0
  C  C61  1  0.77276000  0.03165000  0.39547000  1.0
  C  C62  1  0.80672000  0.69593000  0.67910000  1.0
  C  C63  1  0.11087000  0.30399000  0.82097000  1.0
  C  C64  1  0.19328000  0.30407000  0.32090000  1.0
  C  C65  1  0.88913000  0.69601000  0.17903000  1.0
  C  C66  1  0.65016000  0.55768000  0.76903000  1.0
  C  C67  1  0.09258000  0.44206000  0.73098000  1.0
  C  C68  1  0.34984000  0.44232000  0.23097000  1.0
  C  C69  1  0.90742000  0.55794000  0.26902000  1.0
  C  C70  1  0.79192000  0.76074000  0.87256000  1.0
  C  C71  1  0.03178000  0.23899000  0.62750000  1.0
  C  C72  1  0.20808000  0.23926000  0.12744000  1.0
  C  C73  1  0.96822000  0.76101000  0.37251000  1.0
  C  C74  1  0.54084000  0.46049000  0.56769000  1.0
  C  C75  1  0.08040000  0.53948000  0.93231000  1.0
  C  C76  1  0.45916000  0.53951000  0.43231000  1.0
  C  C77  1  0.91961000  0.46053000  0.06769000  1.0
  C  C78  1  0.67018000  0.65180000  0.91696000  1.0
  C  C79  1  0.01873000  0.34774000  0.58306000  1.0
  C  C80  1  0.32982000  0.34820000  0.08304000  1.0
  C  C81  1  0.98127000  0.65225000  0.41694000  1.0
  C  C82  1  0.40712000  0.58968000  0.49787000  1.0
  C  C83  1  0.81736000  0.41058000  0.00216000  1.0
  C  C84  1  0.59288000  0.41032000  0.50213000  1.0
  C  C85  1  0.18265000  0.58942000  0.99784000  1.0
  C  C86  1  0.57969000  0.41291000  0.63982000  1.0
  C  C87  1  0.16677000  0.58702000  0.86016000  1.0
  C  C88  1  0.42031000  0.58709000  0.36018000  1.0
  C  C89  1  0.83324000  0.41298000  0.13984000  1.0
  C  C90  1  0.53195000  0.44612000  0.81386000  1.0
  C  C91  1  0.08558000  0.55340000  0.68612000  1.0
  C  C92  1  0.46804000  0.55388000  0.18614000  1.0
  C  C93  1  0.91442000  0.44659000  0.31388000  1.0
  C  C94  1  0.54273000  0.49732000  0.88819000  1.0
  C  C95  1  0.04529000  0.50208000  0.61180000  1.0
  C  C96  1  0.45727000  0.50268000  0.11181000  1.0
  C  C97  1  0.95471000  0.49792000  0.38820000  1.0
  C  C98  1  0.44816000  0.55120000  0.56493000  1.0
  C  C99  1  0.89695000  0.44902000  0.93509000  1.0
  C  C100  1  0.55184000  0.44880000  0.43507000  1.0
  C  C101  1  0.10305000  0.55099000  0.06491000  1.0
  N  N102  1  0.87593000  0.79511000  0.73975000  1.0
  N  N103  1  0.08112000  0.20479000  0.76033000  1.0
  N  N104  1  0.12407000  0.20489000  0.26025000  1.0
  N  N105  1  0.91888000  0.79521000  0.23967000  1.0
  N  N106  1  0.67193000  0.55242000  0.69369000  1.0
  N  N107  1  0.11952000  0.44743000  0.80633000  1.0
  N  N108  1  0.32807000  0.44758000  0.30631000  1.0
  N  N109  1  0.88048000  0.55257000  0.19367000  1.0
  Cl  Cl110  1  0.62769000  0.05443000  0.83981000  1.0
  Cl  Cl111  1  0.57324000  0.94574000  0.66020000  1.0
  Cl  Cl112  1  0.37231000  0.94557000  0.16019000  1.0
  Cl  Cl113  1  0.42676000  0.05426000  0.33980000  1.0
  O  O114  1  0.24123000  0.96632000  0.82907000  1.0
  O  O115  1  0.27446000  0.03323000  0.67090000  1.0
  O  O116  1  0.75877000  0.03368000  0.17093000  1.0
  O  O117  1  0.72554000  0.96677000  0.32910000  1.0
  O  O118  1  0.17734000  0.10553000  0.92135000  1.0
  O  O119  1  0.07155000  0.89403000  0.57860000  1.0
  O  O120  1  0.82266000  0.89446000  0.07865000  1.0
  O  O121  1  0.92844000  0.10596000  0.42140000  1.0
