# generated using pymatgen
data_CdH8C10(NCl2)2
_symmetry_space_group_name_H-M   'P 1'
_cell_length_a   3.84560000
_cell_length_b   11.58000000
_cell_length_c   14.23810000
_cell_angle_alpha   90.00050000
_cell_angle_beta   90.00000000
_cell_angle_gamma   90.61350000
_symmetry_Int_Tables_number   1
_chemical_formula_structural   CdH8C10(NCl2)2
_chemical_formula_sum   'Cd2 H16 C20 N4 Cl8'
_cell_volume   634.01540511
_cell_formula_units_Z   2
loop_
 _symmetry_equiv_pos_site_id
 _symmetry_equiv_pos_as_xyz
  1  'x, y, z'
loop_
 _atom_site_type_symbol
 _atom_site_label
 _atom_site_symmetry_multiplicity
 _atom_site_fract_x
 _atom_site_fract_y
 _atom_site_fract_z
 _atom_site_occupancy
  Cd  Cd0  1  0.99999000  0.00000000  0.00000000  1.0
  Cd  Cd1  1  0.00000000  0.50000000  0.50000000  1.0
  H  H2  1  0.26261000  0.89531000  0.19715000  1.0
  H  H3  1  0.26262000  0.39531000  0.30286000  1.0
  H  H4  1  0.73738000  0.10469000  0.80284000  1.0
  H  H5  1  0.73735000  0.60470000  0.69716000  1.0
  H  H6  1  0.02142000  0.12310000  0.42883000  1.0
  H  H7  1  0.02142000  0.62310000  0.07116000  1.0
  H  H8  1  0.97860000  0.87689000  0.57116000  1.0
  H  H9  1  0.97859000  0.37689000  0.92883000  1.0
  H  H10  1  0.76148000  0.25729000  0.31248000  1.0
  H  H11  1  0.76149000  0.75730000  0.18752000  1.0
  H  H12  1  0.23851000  0.74270000  0.68752000  1.0
  H  H13  1  0.23850000  0.24270000  0.81248000  1.0
  H  H14  1  0.76326000  0.20232000  0.14041000  1.0
  H  H15  1  0.76326000  0.70233000  0.35959000  1.0
  H  H16  1  0.23675000  0.79768000  0.85959000  1.0
  H  H17  1  0.23673000  0.29768000  0.64041000  1.0
  C  C18  1  0.15136000  0.97417000  0.22553000  1.0
  C  C19  1  0.15137000  0.47418000  0.27447000  1.0
  C  C20  1  0.84862000  0.02582000  0.77447000  1.0
  C  C21  1  0.84861000  0.52581000  0.72554000  1.0
  C  C22  1  0.15641000  0.99846000  0.32148000  1.0
  C  C23  1  0.15642000  0.49846000  0.17852000  1.0
  C  C24  1  0.84360000  0.00154000  0.67851000  1.0
  C  C25  1  0.84356000  0.50154000  0.82150000  1.0
  C  C26  1  0.01912000  0.10188000  0.35431000  1.0
  C  C27  1  0.01914000  0.60188000  0.14569000  1.0
  C  C28  1  0.98088000  0.89812000  0.64568000  1.0
  C  C29  1  0.98086000  0.39811000  0.85432000  1.0
  C  C30  1  0.87624000  0.17688000  0.28870000  1.0
  C  C31  1  0.87624000  0.67688000  0.21130000  1.0
  C  C32  1  0.12377000  0.82312000  0.71130000  1.0
  C  C33  1  0.12376000  0.32312000  0.78869000  1.0
  C  C34  1  0.87663000  0.14707000  0.19395000  1.0
  C  C35  1  0.87663000  0.64707000  0.30605000  1.0
  C  C36  1  0.12338000  0.85293000  0.80605000  1.0
  C  C37  1  0.12337000  0.35293000  0.69394000  1.0
  N  N38  1  0.01298000  0.04750000  0.16324000  1.0
  N  N39  1  0.01298000  0.54750000  0.33676000  1.0
  N  N40  1  0.98702000  0.95250000  0.83675000  1.0
  N  N41  1  0.98701000  0.45251000  0.66324000  1.0
  Cl  Cl42  1  0.50957000  0.15590000  0.97097000  1.0
  Cl  Cl43  1  0.50957000  0.65590000  0.52903000  1.0
  Cl  Cl44  1  0.49043000  0.84411000  0.02903000  1.0
  Cl  Cl45  1  0.49043000  0.34411000  0.47097000  1.0
  Cl  Cl46  1  0.32897000  0.89843000  0.39807000  1.0
  Cl  Cl47  1  0.32897000  0.39843000  0.10194000  1.0
  Cl  Cl48  1  0.67105000  0.10157000  0.60193000  1.0
  Cl  Cl49  1  0.67105000  0.60156000  0.89808000  1.0
