# generated using pymatgen
data_Zn3H2C22(ClO3)4
_symmetry_space_group_name_H-M   'P 1'
_cell_length_a   19.97010790
_cell_length_b   19.97010000
_cell_length_c   19.97010000
_cell_angle_alpha   114.05110000
_cell_angle_beta   107.20422822
_cell_angle_gamma   107.25802799
_symmetry_Int_Tables_number   1
_chemical_formula_structural   Zn3H2C22(ClO3)4
_chemical_formula_sum   'Zn6 H4 C44 Cl8 O24'
_cell_volume   6101.17976181
_cell_formula_units_Z   2
loop_
 _symmetry_equiv_pos_site_id
 _symmetry_equiv_pos_as_xyz
  1  'x, y, z'
loop_
 _atom_site_type_symbol
 _atom_site_label
 _atom_site_symmetry_multiplicity
 _atom_site_fract_x
 _atom_site_fract_y
 _atom_site_fract_z
 _atom_site_occupancy
  Zn  Zn0  1  0.55489000  0.50000000  0.05489000  1.0
  Zn  Zn1  1  0.44499000  0.49999000  0.94499000  1.0
  Zn  Zn2  1  0.44528000  0.94493000  0.50035000  1.0
  Zn  Zn3  1  0.55542000  0.05507000  0.50035000  1.0
  Zn  Zn4  1  0.00055000  0.93999000  0.94054000  1.0
  Zn  Zn5  1  0.00055000  0.06000000  0.06056000  1.0
  H  H6  1  0.40413000  0.21026000  0.61441000  1.0
  H  H7  1  0.40414000  0.78973000  0.19387000  1.0
  H  H8  1  0.59785000  0.28936000  0.88720000  1.0
  H  H9  1  0.59785000  0.71065000  0.30849000  1.0
  C  C10  1  0.60903000  0.60946000  0.99958000  1.0
  C  C11  1  0.39011000  0.39054000  0.99957000  1.0
  C  C12  1  0.72171000  0.72182000  0.99990000  1.0
  C  C13  1  0.27809000  0.27819000  0.99990000  1.0
  C  C14  1  0.77898000  0.77863000  0.00035000  1.0
  C  C15  1  0.22172000  0.22137000  0.00035000  1.0
  C  C16  1  0.83111000  0.83033000  0.00078000  1.0
  C  C17  1  0.17046000  0.16967000  0.00079000  1.0
  C  C18  1  0.39083000  0.99999000  0.39083000  1.0
  C  C19  1  0.50047000  0.11841000  0.61887000  1.0
  C  C20  1  0.50047000  0.88160000  0.38206000  1.0
  C  C21  1  0.60990000  0.00000000  0.60990000  1.0
  C  C22  1  0.89140000  0.00000000  0.89140000  1.0
  C  C23  1  0.89176000  0.89092000  0.00084000  1.0
  C  C24  1  0.10992000  0.10908000  0.00084000  1.0
  C  C25  1  0.10962000  0.00000000  0.10962000  1.0
  C  C26  1  0.33022000  0.00000000  0.33022000  1.0
  C  C27  1  0.50079000  0.38147000  0.88227000  1.0
  C  C28  1  0.50079000  0.61852000  0.11931000  1.0
  C  C29  1  0.27857000  1.00000000  0.27857000  1.0
  C  C30  1  0.22181000  0.00000000  0.22181000  1.0
  C  C31  1  0.17016000  0.00000000  0.17016000  1.0
  C  C32  1  0.67058000  1.00000000  0.67058000  1.0
  C  C33  1  0.72228000  0.00000000  0.72228000  1.0
  C  C34  1  0.77911000  0.00000000  0.77911000  1.0
  C  C35  1  0.83080000  0.00000000  0.83080000  1.0
  C  C36  1  0.51979000  0.31706000  0.74382000  1.0
  C  C37  1  0.42676000  0.68294000  0.20273000  1.0
  C  C38  1  0.42676000  0.22403000  0.74382000  1.0
  C  C39  1  0.51979000  0.77598000  0.20273000  1.0
  C  C40  1  0.44712000  0.22839000  0.67552000  1.0
  C  C41  1  0.44712000  0.77160000  0.21872000  1.0
  C  C42  1  0.50198000  0.18692000  0.68890000  1.0
  C  C43  1  0.50198000  0.81308000  0.31506000  1.0
  C  C44  1  0.57521000  0.27651000  0.75832000  1.0
  C  C45  1  0.48182000  0.72349000  0.29870000  1.0
  C  C46  1  0.48183000  0.18312000  0.75833000  1.0
  C  C47  1  0.57521000  0.81688000  0.29870000  1.0
  C  C48  1  0.55474000  0.27173000  0.82647000  1.0
  C  C49  1  0.55474000  0.72827000  0.28300000  1.0
  C  C50  1  0.50111000  0.31308000  0.81418000  1.0
  C  C51  1  0.50111000  0.68693000  0.18803000  1.0
  C  C52  1  0.66961000  0.67011000  0.99950000  1.0
  C  C53  1  0.32939000  0.32989000  0.99950000  1.0
  Cl  Cl54  1  0.54422000  0.40254000  0.73521000  1.0
  Cl  Cl55  1  0.33267000  0.59745000  0.14168000  1.0
  Cl  Cl56  1  0.33268000  0.19099000  0.73523000  1.0
  Cl  Cl57  1  0.54422000  0.80901000  0.14168000  1.0
  Cl  Cl58  1  0.67037000  0.31276000  0.76986000  1.0
  Cl  Cl59  1  0.45712000  0.68725000  0.35762000  1.0
  Cl  Cl60  1  0.45712000  0.09950000  0.76987000  1.0
  Cl  Cl61  1  0.67037000  0.90051000  0.35761000  1.0
  O  O62  1  0.63363000  0.58567000  0.04795000  1.0
  O  O63  1  0.46228000  0.41433000  0.04796000  1.0
  O  O64  1  0.08571000  0.94729000  0.03300000  1.0
  O  O65  1  0.08571000  0.05271000  0.13842000  1.0
  O  O66  1  0.53669000  0.58538000  0.95132000  1.0
  O  O67  1  0.36594000  0.41463000  0.95132000  1.0
  O  O68  1  0.54893000  0.40799000  0.95692000  1.0
  O  O69  1  0.54892000  0.59201000  0.14093000  1.0
  O  O70  1  0.45252000  0.40729000  0.85981000  1.0
  O  O71  1  0.45252000  0.59271000  0.04523000  1.0
  O  O72  1  0.36629000  0.95163000  0.41467000  1.0
  O  O73  1  0.46304000  0.04838000  0.41467000  1.0
  O  O74  1  0.45147000  0.04404000  0.59186000  1.0
  O  O75  1  0.54782000  0.95596000  0.40743000  1.0
  O  O76  1  0.54782000  0.14039000  0.59186000  1.0
  O  O77  1  0.45147000  0.85961000  0.40743000  1.0
  O  O78  1  0.53759000  0.95167000  0.58592000  1.0
  O  O79  1  0.63426000  0.04834000  0.58592000  1.0
  O  O80  1  0.91542000  0.94732000  0.86274000  1.0
  O  O81  1  0.91542000  0.05268000  0.96810000  1.0
  O  O82  1  0.91574000  0.86223000  0.94812000  1.0
  O  O83  1  0.08590000  0.13777000  0.05352000  1.0
  O  O84  1  0.08590000  0.03238000  0.94813000  1.0
  O  O85  1  0.91574000  0.96761000  0.05351000  1.0
