# generated using pymatgen
data_CuPH25C31BrN3
_symmetry_space_group_name_H-M   'P 1'
_cell_length_a   13.11310000
_cell_length_b   14.34228976
_cell_length_c   20.07120000
_cell_angle_alpha   81.60929310
_cell_angle_beta   71.37530000
_cell_angle_gamma   62.82335114
_symmetry_Int_Tables_number   1
_chemical_formula_structural   CuPH25C31BrN3
_chemical_formula_sum   'Cu4 P4 H100 C124 Br4 N12'
_cell_volume   3182.23625566
_cell_formula_units_Z   4
loop_
 _symmetry_equiv_pos_site_id
 _symmetry_equiv_pos_as_xyz
  1  'x, y, z'
loop_
 _atom_site_type_symbol
 _atom_site_label
 _atom_site_symmetry_multiplicity
 _atom_site_fract_x
 _atom_site_fract_y
 _atom_site_fract_z
 _atom_site_occupancy
  Cu  Cu0  1  0.38341000  0.54837000  0.53971000  1.0
  Cu  Cu1  1  0.06826000  0.54835000  0.96026000  1.0
  Cu  Cu2  1  0.61658000  0.45164000  0.46029000  1.0
  Cu  Cu3  1  0.93175000  0.45164000  0.03974000  1.0
  P  P4  1  0.22964000  0.53460000  0.52938000  1.0
  P  P5  1  0.23583000  0.53448000  0.97063000  1.0
  P  P6  1  0.77035000  0.46541000  0.47062000  1.0
  P  P7  1  0.76418000  0.46552000  0.02937000  1.0
  H  H8  1  0.30903000  0.55424000  0.69349000  1.0
  H  H9  1  0.13644000  0.55433000  0.80649000  1.0
  H  H10  1  0.69098000  0.44576000  0.30651000  1.0
  H  H11  1  0.86355000  0.44567000  0.19351000  1.0
  H  H12  1  0.30194000  0.65335000  0.78835000  1.0
  H  H13  1  0.04437000  0.65369000  0.71172000  1.0
  H  H14  1  0.69805000  0.34666000  0.21165000  1.0
  H  H15  1  0.95562000  0.34631000  0.28828000  1.0
  H  H16  1  0.42796000  0.84128000  0.62644000  1.0
  H  H17  1  0.73102000  0.84179000  0.87378000  1.0
  H  H18  1  0.57204000  0.15872000  0.37356000  1.0
  H  H19  1  0.26898000  0.15821000  0.12623000  1.0
  H  H20  1  0.42647000  0.73494000  0.53712000  1.0
  H  H21  1  0.83893000  0.73526000  0.96299000  1.0
  H  H22  1  0.57353000  0.26506000  0.46288000  1.0
  H  H23  1  0.16107000  0.26473000  0.03701000  1.0
  H  H24  1  0.36109000  0.98084000  0.92434000  1.0
  H  H25  1  0.65884000  0.98018000  0.57539000  1.0
  H  H26  1  0.63890000  0.01916000  0.07567000  1.0
  H  H27  1  0.34115000  0.01983000  0.42462000  1.0
  H  H28  1  0.45052000  0.20081000  0.98904000  1.0
  H  H29  1  0.35021000  0.20034000  0.51018000  1.0
  H  H30  1  0.54950000  0.79917000  0.01097000  1.0
  H  H31  1  0.64980000  0.79966000  0.48983000  1.0
  H  H32  1  0.55954000  0.21833000  0.86449000  1.0
  H  H33  1  0.22329000  0.21797000  0.63462000  1.0
  H  H34  1  0.44047000  0.78166000  0.13552000  1.0
  H  H35  1  0.77672000  0.78201000  0.36538000  1.0
  H  H36  1  0.98228000  0.54773000  0.58507000  1.0
  H  H37  1  0.47070000  0.54713000  0.91454000  1.0
  H  H38  1  0.01771000  0.45228000  0.41493000  1.0
  H  H39  1  0.52931000  0.45286000  0.08545000  1.0
  H  H40  1  0.88672000  0.47400000  0.69149000  1.0
  H  H41  1  0.63918000  0.47351000  0.80782000  1.0
  H  H42  1  0.11328000  0.52600000  0.30851000  1.0
  H  H43  1  0.36083000  0.52648000  0.19217000  1.0
  H  H44  1  0.99835000  0.37594000  0.77952000  1.0
  H  H45  1  0.62440000  0.37608000  0.71989000  1.0
  H  H46  1  0.00165000  0.62406000  0.22047000  1.0
  H  H47  1  0.37560000  0.62391000  0.28011000  1.0
  H  H48  1  0.20629000  0.34948000  0.75810000  1.0
  H  H49  1  0.44254000  0.34999000  0.74183000  1.0
  H  H50  1  0.79370000  0.65053000  0.24190000  1.0
  H  H51  1  0.55745000  0.65001000  0.25817000  1.0
  H  H52  1  0.30698000  0.41599000  0.64709000  1.0
  H  H53  1  0.27620000  0.41629000  0.85314000  1.0
  H  H54  1  0.69301000  0.58402000  0.35290000  1.0
  H  H55  1  0.72379000  0.58371000  0.14686000  1.0
  H  H56  1  0.16053000  0.36383000  0.52319000  1.0
  H  H57  1  0.47546000  0.36396000  0.97676000  1.0
  H  H58  1  0.83945000  0.63618000  0.47681000  1.0
  H  H59  1  0.52456000  0.63603000  0.02324000  1.0
  H  H60  1  0.20503000  0.25141000  0.42508000  1.0
  H  H61  1  0.54349000  0.25139000  0.07477000  1.0
  H  H62  1  0.79497000  0.74861000  0.57490000  1.0
  H  H63  1  0.45652000  0.74860000  0.92523000  1.0
  H  H64  1  0.32244000  0.27551000  0.30533000  1.0
  H  H65  1  0.40219000  0.27533000  0.19455000  1.0
  H  H66  1  0.67757000  0.72451000  0.69466000  1.0
  H  H67  1  0.59782000  0.72466000  0.80544000  1.0
  H  H68  1  0.39618000  0.41286000  0.28376000  1.0
  H  H69  1  0.19117000  0.41260000  0.21629000  1.0
  H  H70  1  0.60383000  0.58716000  0.71625000  1.0
  H  H71  1  0.80884000  0.58739000  0.78371000  1.0
  H  H72  1  0.35765000  0.52168000  0.38270000  1.0
  H  H73  1  0.12074000  0.52150000  0.11740000  1.0
  H  H74  1  0.64235000  0.47834000  0.61730000  1.0
  H  H75  1  0.87927000  0.47850000  0.88259000  1.0
  H  H76  1  0.13361000  0.73994000  0.58701000  1.0
  H  H77  1  0.12664000  0.73976000  0.91304000  1.0
  H  H78  1  0.86638000  0.26007000  0.41299000  1.0
  H  H79  1  0.87338000  0.26024000  0.08696000  1.0
  H  H80  1  0.97375000  0.91429000  0.56952000  1.0
  H  H81  1  0.11197000  0.91419000  0.93069000  1.0
  H  H82  1  0.02624000  0.08572000  0.43049000  1.0
  H  H83  1  0.88805000  0.08581000  0.06932000  1.0
  H  H84  1  0.86598000  0.93516000  0.48216000  1.0
  H  H85  1  0.19884000  0.93506000  0.01806000  1.0
  H  H86  1  0.13400000  0.06486000  0.51784000  1.0
  H  H87  1  0.80117000  0.06493000  0.98195000  1.0
  H  H88  1  0.91740000  0.78051000  0.41340000  1.0
  H  H89  1  0.30233000  0.78033000  0.08664000  1.0
  H  H90  1  0.08260000  0.21950000  0.58660000  1.0
  H  H91  1  0.69767000  0.21966000  0.91337000  1.0
  H  H92  1  0.07235000  0.60605000  0.43320000  1.0
  H  H93  1  0.32191000  0.60582000  0.06672000  1.0
  H  H94  1  0.92765000  0.39396000  0.56680000  1.0
  H  H95  1  0.67810000  0.39417000  0.93328000  1.0
  H  H96  1  0.57132000  0.11591000  0.77076000  1.0
  H  H97  1  0.31329000  0.11559000  0.72854000  1.0
  H  H98  1  0.42867000  0.88409000  0.22924000  1.0
  H  H99  1  0.68669000  0.88440000  0.27146000  1.0
  H  H100  1  0.35158000  0.08195000  0.01885000  1.0
  H  H101  1  0.56783000  0.08105000  0.48064000  1.0
  H  H102  1  0.64843000  0.91804000  0.98115000  1.0
  H  H103  1  0.43218000  0.91895000  0.51937000  1.0
  H  H104  1  0.33062000  0.79854000  0.82371000  1.0
  H  H105  1  0.87098000  0.79895000  0.67644000  1.0
  H  H106  1  0.66938000  0.20145000  0.17629000  1.0
  H  H107  1  0.12902000  0.20104000  0.32356000  1.0
  C  C108  1  0.33234000  0.61984000  0.68089000  1.0
  C  C109  1  0.04766000  0.62003000  0.81916000  1.0
  C  C110  1  0.66767000  0.38016000  0.31910000  1.0
  C  C111  1  0.95234000  0.37996000  0.18085000  1.0
  C  C112  1  0.32871000  0.67529000  0.73345000  1.0
  C  C113  1  0.99583000  0.67560000  0.76664000  1.0
  C  C114  1  0.67129000  0.32472000  0.26655000  1.0
  C  C115  1  0.00417000  0.32439000  0.23336000  1.0
  C  C116  1  0.36388000  0.75668000  0.71464000  1.0
  C  C117  1  0.87942000  0.75708000  0.78552000  1.0
  C  C118  1  0.63612000  0.24332000  0.28537000  1.0
  C  C119  1  0.12057000  0.24292000  0.21449000  1.0
  C  C120  1  0.39865000  0.77950000  0.64262000  1.0
  C  C121  1  0.82199000  0.77991000  0.85754000  1.0
  C  C122  1  0.60135000  0.22050000  0.35738000  1.0
  C  C123  1  0.17801000  0.22009000  0.14247000  1.0
  C  C124  1  0.39840000  0.72125000  0.59358000  1.0
  C  C125  1  0.88054000  0.72154000  0.90653000  1.0
  C  C126  1  0.60159000  0.27876000  0.40642000  1.0
  C  C127  1  0.11946000  0.27845000  0.09348000  1.0
  C  C128  1  0.36729000  0.81285000  0.76780000  1.0
  C  C129  1  0.81988000  0.81322000  0.73233000  1.0
  C  C130  1  0.63270000  0.18715000  0.23220000  1.0
  C  C131  1  0.18011000  0.18678000  0.26768000  1.0
  C  C132  1  0.40368000  0.03348000  0.91211000  1.0
  C  C133  1  0.56368000  0.03291000  0.58749000  1.0
  C  C134  1  0.59633000  0.96651000  0.08790000  1.0
  C  C135  1  0.43631000  0.96710000  0.41252000  1.0
  C  C136  1  0.45501000  0.15651000  0.94771000  1.0
  C  C137  1  0.38978000  0.15601000  0.55160000  1.0
  C  C138  1  0.54500000  0.84348000  0.05229000  1.0
  C  C139  1  0.61022000  0.84399000  0.44841000  1.0
  C  C140  1  0.51686000  0.16561000  0.87805000  1.0
  C  C141  1  0.31860000  0.16521000  0.62120000  1.0
  C  C142  1  0.48314000  0.83438000  0.12196000  1.0
  C  C143  1  0.68140000  0.83478000  0.37880000  1.0
  C  C144  1  0.15128000  0.48673000  0.60908000  1.0
  C  C145  1  0.36193000  0.48655000  0.89088000  1.0
  C  C146  1  0.84872000  0.51327000  0.39092000  1.0
  C  C147  1  0.63808000  0.51344000  0.10911000  1.0
  C  C148  1  0.03267000  0.50288000  0.62210000  1.0
  C  C149  1  0.46462000  0.50248000  0.87761000  1.0
  C  C150  1  0.96732000  0.49713000  0.37790000  1.0
  C  C151  1  0.53539000  0.49751000  0.12238000  1.0
  C  C152  1  0.97849000  0.46178000  0.68260000  1.0
  C  C153  1  0.55946000  0.46148000  0.81692000  1.0
  C  C154  1  0.02151000  0.53822000  0.31740000  1.0
  C  C155  1  0.44055000  0.53851000  0.18307000  1.0
  C  C156  1  0.04090000  0.40664000  0.73158000  1.0
  C  C157  1  0.55151000  0.40669000  0.76800000  1.0
  C  C158  1  0.95909000  0.59336000  0.26842000  1.0
  C  C159  1  0.44849000  0.59330000  0.23199000  1.0
  C  C160  1  0.15827000  0.39174000  0.71948000  1.0
  C  C161  1  0.44885000  0.39199000  0.78036000  1.0
  C  C162  1  0.84171000  0.60827000  0.28052000  1.0
  C  C163  1  0.55114000  0.60801000  0.21963000  1.0
  C  C164  1  0.21371000  0.43058000  0.65820000  1.0
  C  C165  1  0.35504000  0.43071000  0.84183000  1.0
  C  C166  1  0.78628000  0.56943000  0.34180000  1.0
  C  C167  1  0.64497000  0.56928000  0.15816000  1.0
  C  C168  1  0.25472000  0.45114000  0.45948000  1.0
  C  C169  1  0.29407000  0.45106000  0.04055000  1.0
  C  C170  1  0.74527000  0.54887000  0.54052000  1.0
  C  C171  1  0.70593000  0.54894000  0.95944000  1.0
  C  C172  1  0.21265000  0.37456000  0.47081000  1.0
  C  C173  1  0.41270000  0.37458000  0.02916000  1.0
  C  C174  1  0.78735000  0.62544000  0.52919000  1.0
  C  C175  1  0.58730000  0.62542000  0.97084000  1.0
  C  C176  1  0.23726000  0.31146000  0.41546000  1.0
  C  C177  1  0.45124000  0.31143000  0.08447000  1.0
  C  C178  1  0.76273000  0.68856000  0.58453000  1.0
  C  C179  1  0.54877000  0.68856000  0.91553000  1.0
  C  C180  1  0.30255000  0.32556000  0.34808000  1.0
  C  C181  1  0.37197000  0.32542000  0.15186000  1.0
  C  C182  1  0.69745000  0.67446000  0.65191000  1.0
  C  C183  1  0.62805000  0.67456000  0.84814000  1.0
  C  C184  1  0.34383000  0.40253000  0.33616000  1.0
  C  C185  1  0.25376000  0.40234000  0.16385000  1.0
  C  C186  1  0.65617000  0.59748000  0.66384000  1.0
  C  C187  1  0.74625000  0.59765000  0.83615000  1.0
  C  C188  1  0.32148000  0.46429000  0.39142000  1.0
  C  C189  1  0.21426000  0.46414000  0.10863000  1.0
  C  C190  1  0.67852000  0.53572000  0.60858000  1.0
  C  C191  1  0.78576000  0.53585000  0.89136000  1.0
  C  C192  1  0.11169000  0.66050000  0.51264000  1.0
  C  C193  1  0.22804000  0.66033000  0.98734000  1.0
  C  C194  1  0.88829000  0.33951000  0.48736000  1.0
  C  C195  1  0.77197000  0.33966000  0.01266000  1.0
  C  C196  1  0.08384000  0.74856000  0.55022000  1.0
  C  C197  1  0.16777000  0.74841000  0.94983000  1.0
  C  C198  1  0.91615000  0.25145000  0.44979000  1.0
  C  C199  1  0.83224000  0.25159000  0.05017000  1.0
  C  C200  1  0.99527000  0.84656000  0.53978000  1.0
  C  C201  1  0.15828000  0.84644000  0.96035000  1.0
  C  C202  1  0.00472000  0.15345000  0.46022000  1.0
  C  C203  1  0.84173000  0.15355000  0.03965000  1.0
  C  C204  1  0.93486000  0.85843000  0.49058000  1.0
  C  C205  1  0.20680000  0.85831000  0.00955000  1.0
  C  C206  1  0.06514000  0.14158000  0.50942000  1.0
  C  C207  1  0.79321000  0.14168000  0.99045000  1.0
  C  C208  1  0.96369000  0.77175000  0.45209000  1.0
  C  C209  1  0.26478000  0.77158000  0.04795000  1.0
  C  C210  1  0.03630000  0.22826000  0.54790000  1.0
  C  C211  1  0.73523000  0.22841000  0.95206000  1.0
  C  C212  1  0.05110000  0.67323000  0.46328000  1.0
  C  C213  1  0.27594000  0.67304000  0.03671000  1.0
  C  C214  1  0.94890000  0.32678000  0.53672000  1.0
  C  C215  1  0.72406000  0.32695000  0.96329000  1.0
  C  C216  1  0.47099000  0.98156000  0.78701000  1.0
  C  C217  1  0.54778000  0.98141000  0.71272000  1.0
  C  C218  1  0.52900000  0.01844000  0.21300000  1.0
  C  C219  1  0.45221000  0.01859000  0.28729000  1.0
  C  C220  1  0.46629000  0.04185000  0.84167000  1.0
  C  C221  1  0.49251000  0.04146000  0.65788000  1.0
  C  C222  1  0.53372000  0.95814000  0.15834000  1.0
  C  C223  1  0.50749000  0.95853000  0.34213000  1.0
  C  C224  1  0.52282000  0.10869000  0.82514000  1.0
  C  C225  1  0.36924000  0.10831000  0.67422000  1.0
  C  C226  1  0.47717000  0.89131000  0.17487000  1.0
  C  C227  1  0.63075000  0.89168000  0.32578000  1.0
  C  C228  1  0.39837000  0.09038000  0.96440000  1.0
  C  C229  1  0.51244000  0.08972000  0.53507000  1.0
  C  C230  1  0.60163000  0.90961000  0.03561000  1.0
  C  C231  1  0.48757000  0.91028000  0.46494000  1.0
  Br  Br232  1  0.46653000  0.62472000  0.42550000  1.0
  Br  Br233  1  0.90879000  0.62473000  0.07445000  1.0
  Br  Br234  1  0.53346000  0.37530000  0.57450000  1.0
  Br  Br235  1  0.09122000  0.37526000  0.92555000  1.0
  N  N236  1  0.36673000  0.64136000  0.61186000  1.0
  N  N237  1  0.99193000  0.64152000  0.88820000  1.0
  N  N238  1  0.63327000  0.35865000  0.38814000  1.0
  N  N239  1  0.00807000  0.35847000  0.11180000  1.0
  N  N240  1  0.41452000  0.87815000  0.74890000  1.0
  N  N241  1  0.70735000  0.87833000  0.75112000  1.0
  N  N242  1  0.58547000  0.12185000  0.25111000  1.0
  N  N243  1  0.29264000  0.12167000  0.24889000  1.0
  N  N244  1  0.40725000  0.92881000  0.80459000  1.0
  N  N245  1  0.66420000  0.92873000  0.69531000  1.0
  N  N246  1  0.59273000  0.07120000  0.19542000  1.0
  N  N247  1  0.33579000  0.07126000  0.30470000  1.0
