# generated using pymatgen
data_SrH14C12O5
_symmetry_space_group_name_H-M   'P 1'
_cell_length_a   7.17677000
_cell_length_b   11.73130000
_cell_length_c   14.60120000
_cell_angle_alpha   90.00000000
_cell_angle_beta   89.99990000
_cell_angle_gamma   90.00000000
_symmetry_Int_Tables_number   1
_chemical_formula_structural   SrH14C12O5
_chemical_formula_sum   'Sr4 H56 C48 O20'
_cell_volume   1229.31652316
_cell_formula_units_Z   4
loop_
 _symmetry_equiv_pos_site_id
 _symmetry_equiv_pos_as_xyz
  1  'x, y, z'
loop_
 _atom_site_type_symbol
 _atom_site_label
 _atom_site_symmetry_multiplicity
 _atom_site_fract_x
 _atom_site_fract_y
 _atom_site_fract_z
 _atom_site_occupancy
  Sr  Sr0  1  0.06169000  0.06023000  0.01436000  1.0
  Sr  Sr1  1  0.56169000  0.93977000  0.98564000  1.0
  Sr  Sr2  1  0.56168000  0.43977000  0.01436000  1.0
  Sr  Sr3  1  0.06168000  0.56023000  0.98564000  1.0
  H  H4  1  0.49201000  0.54891000  0.38896000  1.0
  H  H5  1  0.99201000  0.45109000  0.61104000  1.0
  H  H6  1  0.99201000  0.95109000  0.38896000  1.0
  H  H7  1  0.49201000  0.04891000  0.61104000  1.0
  H  H8  1  0.54350000  0.53166000  0.55448000  1.0
  H  H9  1  0.04350000  0.46834000  0.44552000  1.0
  H  H10  1  0.04350000  0.96834000  0.55448000  1.0
  H  H11  1  0.54350000  0.03166000  0.44552000  1.0
  H  H12  1  0.30035000  0.19599000  0.54903000  1.0
  H  H13  1  0.80035000  0.80402000  0.45097000  1.0
  H  H14  1  0.80035000  0.30401000  0.54903000  1.0
  H  H15  1  0.30035000  0.69599000  0.45097000  1.0
  H  H16  1  0.24498000  0.21395000  0.38470000  1.0
  H  H17  1  0.74498000  0.78605000  0.61530000  1.0
  H  H18  1  0.74498000  0.28605000  0.38470000  1.0
  H  H19  1  0.24498000  0.71395000  0.61530000  1.0
  H  H20  1  0.47639000  0.39771000  0.23682000  1.0
  H  H21  1  0.97639000  0.60230000  0.76318000  1.0
  H  H22  1  0.97639000  0.10230000  0.23682000  1.0
  H  H23  1  0.47639000  0.89771000  0.76318000  1.0
  H  H24  1  0.27929000  0.48169000  0.25692000  1.0
  H  H25  1  0.77929000  0.51831000  0.74308000  1.0
  H  H26  1  0.77929000  0.01831000  0.25692000  1.0
  H  H27  1  0.27929000  0.98169000  0.74308000  1.0
  H  H28  1  0.28087000  0.22124000  0.23075000  1.0
  H  H29  1  0.78087000  0.77876000  0.76926000  1.0
  H  H30  1  0.78087000  0.27876000  0.23075000  1.0
  H  H31  1  0.28087000  0.72124000  0.76925000  1.0
  H  H32  1  0.08383000  0.29913000  0.26379000  1.0
  H  H33  1  0.58383000  0.70087000  0.73621000  1.0
  H  H34  1  0.58383000  0.20087000  0.26379000  1.0
  H  H35  1  0.08383000  0.79913000  0.73621000  1.0
  H  H36  1  0.60780000  0.37218000  0.68114000  1.0
  H  H37  1  0.10780000  0.62782000  0.31886000  1.0
  H  H38  1  0.10780000  0.12783000  0.68114000  1.0
  H  H39  1  0.60780000  0.87218000  0.31886000  1.0
  H  H40  1  0.44787000  0.25854000  0.68584000  1.0
  H  H41  1  0.94787000  0.74146000  0.31416000  1.0
  H  H42  1  0.94787000  0.24146000  0.68584000  1.0
  H  H43  1  0.44787000  0.75854000  0.31416000  1.0
  H  H44  1  0.33552000  0.51060000  0.70474000  1.0
  H  H45  1  0.83552000  0.48940000  0.29527000  1.0
  H  H46  1  0.83552000  0.98940000  0.70474000  1.0
  H  H47  1  0.33552000  0.01060000  0.29526000  1.0
  H  H48  1  0.18798000  0.39243000  0.71809000  1.0
  H  H49  1  0.68798000  0.60757000  0.28191000  1.0
  H  H50  1  0.68798000  0.10757000  0.71809000  1.0
  H  H51  1  0.18798000  0.89243000  0.28191000  1.0
  H  H52  1  0.95666000  0.81899000  0.99524000  1.0
  H  H53  1  0.45665000  0.18101000  0.00476000  1.0
  H  H54  1  0.45666000  0.68101000  0.99524000  1.0
  H  H55  1  0.95666000  0.31899000  0.00476000  1.0
  H  H56  1  0.89818000  0.80951000  0.09733000  1.0
  H  H57  1  0.39818000  0.19049000  0.90267000  1.0
  H  H58  1  0.39818000  0.69048000  0.09733000  1.0
  H  H59  1  0.89818000  0.30951000  0.90267000  1.0
  C  C60  1  0.36600000  0.38284000  0.37302000  1.0
  C  C61  1  0.86600000  0.61716000  0.62698000  1.0
  C  C62  1  0.86600000  0.11716000  0.37302000  1.0
  C  C63  1  0.36600000  0.88284000  0.62698000  1.0
  C  C64  1  0.44880000  0.47100000  0.42387000  1.0
  C  C65  1  0.94880000  0.52900000  0.57613000  1.0
  C  C66  1  0.94880000  0.02900000  0.42387000  1.0
  C  C67  1  0.44880000  0.97100000  0.57613000  1.0
  C  C68  1  0.47732000  0.46137000  0.51783000  1.0
  C  C69  1  0.97732000  0.53863000  0.48217000  1.0
  C  C70  1  0.97732000  0.03863000  0.51783000  1.0
  C  C71  1  0.47732000  0.96137000  0.48217000  1.0
  C  C72  1  0.42563000  0.36184000  0.56489000  1.0
  C  C73  1  0.92563000  0.63816000  0.43511000  1.0
  C  C74  1  0.92563000  0.13817000  0.56489000  1.0
  C  C75  1  0.42563000  0.86184000  0.43511000  1.0
  C  C76  1  0.34206000  0.27440000  0.51461000  1.0
  C  C77  1  0.84206000  0.72560000  0.48540000  1.0
  C  C78  1  0.84206000  0.22560000  0.51460000  1.0
  C  C79  1  0.34206000  0.77440000  0.48539000  1.0
  C  C80  1  0.31213000  0.28445000  0.42040000  1.0
  C  C81  1  0.81213000  0.71555000  0.57960000  1.0
  C  C82  1  0.81212000  0.21555000  0.42040000  1.0
  C  C83  1  0.31213000  0.78445000  0.57960000  1.0
  C  C84  1  0.33924000  0.39704000  0.27091000  1.0
  C  C85  1  0.83924000  0.60296000  0.72909000  1.0
  C  C86  1  0.83924000  0.10296000  0.27091000  1.0
  C  C87  1  0.33924000  0.89704000  0.72909000  1.0
  C  C88  1  0.21709000  0.30651000  0.22689000  1.0
  C  C89  1  0.71710000  0.69349000  0.77311000  1.0
  C  C90  1  0.71709000  0.19349000  0.22689000  1.0
  C  C91  1  0.21710000  0.80651000  0.77311000  1.0
  C  C92  1  0.17053000  0.32626000  0.12710000  1.0
  C  C93  1  0.67053000  0.67373000  0.87290000  1.0
  C  C94  1  0.67053000  0.17373000  0.12710000  1.0
  C  C95  1  0.17053000  0.82627000  0.87290000  1.0
  C  C96  1  0.46237000  0.34853000  0.66610000  1.0
  C  C97  1  0.96236000  0.65147000  0.33390000  1.0
  C  C98  1  0.96236000  0.15147000  0.66610000  1.0
  C  C99  1  0.46236000  0.84853000  0.33390000  1.0
  C  C100  1  0.33353000  0.42075000  0.72625000  1.0
  C  C101  1  0.83352000  0.57925000  0.27375000  1.0
  C  C102  1  0.83352000  0.07926000  0.72625000  1.0
  C  C103  1  0.33352000  0.92074000  0.27375000  1.0
  C  C104  1  0.37697000  0.41583000  0.82806000  1.0
  C  C105  1  0.87697000  0.58417000  0.17194000  1.0
  C  C106  1  0.87696000  0.08417000  0.82806000  1.0
  C  C107  1  0.37696000  0.91583000  0.17194000  1.0
  O  O108  1  0.06349000  0.25328000  0.08898000  1.0
  O  O109  1  0.56348000  0.74672000  0.91102000  1.0
  O  O110  1  0.56349000  0.24672000  0.08898000  1.0
  O  O111  1  0.06349000  0.75328000  0.91102000  1.0
  O  O112  1  0.23422000  0.41341000  0.08587000  1.0
  O  O113  1  0.73422000  0.58659000  0.91413000  1.0
  O  O114  1  0.73422000  0.08659000  0.08587000  1.0
  O  O115  1  0.23422000  0.91341000  0.91413000  1.0
  O  O116  1  0.31123000  0.49563000  0.87872000  1.0
  O  O117  1  0.81123000  0.50438000  0.12128000  1.0
  O  O118  1  0.81123000  0.00437000  0.87872000  1.0
  O  O119  1  0.31123000  0.99563000  0.12128000  1.0
  O  O120  1  0.47706000  0.33565000  0.85990000  1.0
  O  O121  1  0.97706000  0.66435000  0.14010000  1.0
  O  O122  1  0.97706000  0.16436000  0.85990000  1.0
  O  O123  1  0.47706000  0.83565000  0.14010000  1.0
  O  O124  1  0.89091000  0.86268000  0.04522000  1.0
  O  O125  1  0.39091000  0.13732000  0.95478000  1.0
  O  O126  1  0.39091000  0.63732000  0.04522000  1.0
  O  O127  1  0.89091000  0.36268000  0.95478000  1.0
