# generated using pymatgen
data_AlH15C21(N2O3)2
_symmetry_space_group_name_H-M   'P 1'
_cell_length_a   4.11387000
_cell_length_b   23.36980323
_cell_length_c   23.36950000
_cell_angle_alpha   59.99928768
_cell_angle_beta   89.99930000
_cell_angle_gamma   89.99950001
_symmetry_Int_Tables_number   1
_chemical_formula_structural   AlH15C21(N2O3)2
_chemical_formula_sum   'Al3 H45 C63 N12 O18'
_cell_volume   1945.72990689
_cell_formula_units_Z   3
loop_
 _symmetry_equiv_pos_site_id
 _symmetry_equiv_pos_as_xyz
  1  'x, y, z'
loop_
 _atom_site_type_symbol
 _atom_site_label
 _atom_site_symmetry_multiplicity
 _atom_site_fract_x
 _atom_site_fract_y
 _atom_site_fract_z
 _atom_site_occupancy
  Al  Al0  1  0.00114000  0.50016000  0.50018000  1.0
  Al  Al1  1  0.00118000  0.83352000  0.83298000  1.0
  Al  Al2  1  0.00121000  0.16634000  0.16684000  1.0
  H  H3  1  0.80411000  0.08151000  0.05106000  1.0
  H  H4  1  0.80336000  0.07876000  0.94676000  1.0
  H  H5  1  0.20605000  0.25309000  0.85715000  1.0
  H  H6  1  0.20607000  0.05643000  0.91977000  1.0
  H  H7  1  0.80404000  0.03413000  0.74816000  1.0
  H  H8  1  0.80332000  0.14117000  0.74543000  1.0
  H  H9  1  0.20598000  0.19047000  0.72312000  1.0
  H  H10  1  0.80406000  0.38438000  0.70078000  1.0
  H  H11  1  0.80335000  0.28007000  0.80784000  1.0
  H  H12  1  0.19398000  0.63289000  0.94912000  1.0
  H  H13  1  0.19508000  0.52579000  0.05335000  1.0
  H  H14  1  0.79299000  0.61030000  0.14307000  1.0
  H  H15  1  0.79298000  0.47642000  0.07997000  1.0
  H  H16  1  0.19405000  0.28246000  0.25134000  1.0
  H  H17  1  0.19514000  0.38670000  0.25421000  1.0
  H  H18  1  0.79302000  0.41332000  0.27694000  1.0
  H  H19  1  0.19396000  0.58467000  0.29955000  1.0
  H  H20  1  0.19505000  0.58755000  0.19243000  1.0
  H  H21  1  0.19350000  0.91779000  0.63298000  1.0
  H  H22  1  0.19527000  0.92079000  0.52578000  1.0
  H  H23  1  0.79333000  0.74657000  0.61033000  1.0
  H  H24  1  0.79335000  0.94365000  0.47643000  1.0
  H  H25  1  0.19355000  0.96632000  0.28255000  1.0
  H  H26  1  0.19530000  0.85912000  0.38675000  1.0
  H  H27  1  0.79338000  0.80975000  0.41325000  1.0
  H  H28  1  0.19342000  0.61589000  0.58445000  1.0
  H  H29  1  0.19521000  0.72008000  0.58745000  1.0
  H  H30  1  0.03353000  0.24966000  0.00724000  1.0
  H  H31  1  0.99428000  0.29068000  0.92533000  1.0
  H  H32  1  0.03350000  0.90979000  0.91632000  1.0
  H  H33  1  0.99425000  0.95066000  0.95735000  1.0
  H  H34  1  0.03347000  0.34055000  0.57646000  1.0
  H  H35  1  0.99421000  0.25865000  0.61735000  1.0
  H  H36  1  0.96468000  0.75712000  0.99298000  1.0
  H  H37  1  0.00484000  0.71619000  0.07486000  1.0
  H  H38  1  0.96473000  0.32633000  0.08323000  1.0
  H  H39  1  0.00484000  0.40822000  0.04227000  1.0
  H  H40  1  0.96470000  0.41658000  0.42377000  1.0
  H  H41  1  0.00487000  0.37563000  0.38283000  1.0
  H  H42  1  0.96028000  0.74915000  0.75784000  1.0
  H  H43  1  0.00614000  0.70922000  0.71601000  1.0
  H  H44  1  0.96032000  0.09117000  0.32635000  1.0
  H  H45  1  0.00616000  0.04933000  0.40812000  1.0
  H  H46  1  0.96030000  0.65967000  0.41582000  1.0
  H  H47  1  0.00618000  0.74143000  0.37589000  1.0
  C  C48  1  0.50240000  0.58861000  0.49937000  1.0
  C  C49  1  0.49827000  0.41166000  0.58825000  1.0
  C  C50  1  0.50286000  0.49944000  0.41201000  1.0
  C  C51  1  0.49830000  0.92158000  0.83343000  1.0
  C  C52  1  0.50245000  0.83271000  0.74533000  1.0
  C  C53  1  0.50289000  0.74536000  0.92186000  1.0
  C  C54  1  0.49835000  0.16677000  0.07834000  1.0
  C  C55  1  0.50248000  0.07868000  0.25530000  1.0
  C  C56  1  0.50292000  0.25522000  0.16611000  1.0
  C  C57  1  0.66567000  0.11831000  0.00880000  1.0
  C  C58  1  0.67018000  0.11713000  0.94996000  1.0
  C  C59  1  0.50740000  0.16650000  0.89420000  1.0
  C  C60  1  0.33746000  0.21535000  0.89975000  1.0
  C  C61  1  0.32183000  0.21596000  0.95938000  1.0
  C  C62  1  0.49430000  0.16691000  0.01442000  1.0
  C  C63  1  0.33745000  0.05157000  0.88202000  1.0
  C  C64  1  0.32178000  0.99134000  0.88262000  1.0
  C  C65  1  0.49423000  0.98537000  0.83356000  1.0
  C  C66  1  0.66561000  0.03958000  0.78497000  1.0
  C  C67  1  0.67014000  0.09960000  0.78379000  1.0
  C  C68  1  0.50738000  0.10598000  0.83317000  1.0
  C  C69  1  0.33741000  0.23308000  0.71825000  1.0
  C  C70  1  0.32177000  0.29271000  0.65801000  1.0
  C  C71  1  0.49422000  0.34774000  0.65204000  1.0
  C  C72  1  0.66561000  0.34212000  0.70624000  1.0
  C  C73  1  0.67015000  0.28328000  0.76627000  1.0
  C  C74  1  0.50738000  0.22752000  0.77266000  1.0
  C  C75  1  0.33267000  0.62740000  0.99137000  1.0
  C  C76  1  0.32834000  0.56734000  0.05016000  1.0
  C  C77  1  0.49173000  0.56082000  0.10591000  1.0
  C  C78  1  0.66152000  0.61520000  0.10045000  1.0
  C  C79  1  0.67700000  0.67548000  0.04085000  1.0
  C  C80  1  0.50458000  0.68155000  0.98578000  1.0
  C  C81  1  0.66153000  0.43380000  0.11768000  1.0
  C  C82  1  0.67702000  0.37420000  0.11701000  1.0
  C  C83  1  0.50461000  0.31913000  0.16601000  1.0
  C  C84  1  0.33272000  0.32471000  0.21458000  1.0
  C  C85  1  0.32837000  0.38351000  0.21584000  1.0
  C  C86  1  0.49174000  0.43926000  0.16661000  1.0
  C  C87  1  0.66154000  0.45103000  0.28186000  1.0
  C  C88  1  0.67699000  0.45035000  0.34213000  1.0
  C  C89  1  0.50456000  0.49935000  0.34820000  1.0
  C  C90  1  0.33264000  0.54791000  0.29406000  1.0
  C  C91  1  0.32833000  0.54918000  0.23399000  1.0
  C  C92  1  0.49172000  0.49995000  0.22747000  1.0
  C  C93  1  0.33237000  0.88109000  0.62744000  1.0
  C  C94  1  0.32841000  0.88242000  0.56735000  1.0
  C  C95  1  0.49218000  0.83323000  0.56082000  1.0
  C  C96  1  0.66170000  0.78428000  0.61522000  1.0
  C  C97  1  0.67642000  0.78349000  0.67554000  1.0
  C  C98  1  0.50402000  0.83250000  0.68158000  1.0
  C  C99  1  0.66171000  0.94854000  0.43383000  1.0
  C  C100  1  0.67644000  0.00887000  0.37430000  1.0
  C  C101  1  0.50406000  0.01493000  0.31924000  1.0
  C  C102  1  0.33243000  0.96077000  0.32480000  1.0
  C  C103  1  0.32847000  0.90068000  0.38356000  1.0
  C  C104  1  0.49221000  0.89414000  0.43928000  1.0
  C  C105  1  0.66172000  0.76716000  0.45095000  1.0
  C  C106  1  0.67643000  0.70762000  0.45016000  1.0
  C  C107  1  0.50402000  0.65257000  0.49916000  1.0
  C  C108  1  0.33235000  0.65813000  0.54775000  1.0
  C  C109  1  0.32841000  0.71689000  0.54908000  1.0
  C  C110  1  0.49219000  0.77260000  0.49991000  1.0
  N  N111  1  0.51361000  0.16667000  0.83334000  1.0
  N  N112  1  0.48612000  0.50001000  0.16665667  1.0
  N  N113  1  0.48698000  0.83333000  0.50000333  1.0
  N  N114  1  0.15138000  0.26528000  0.96338000  1.0
  N  N115  1  0.15134000  0.93802000  0.93194000  1.0
  N  N116  1  0.15132000  0.29670000  0.60470000  1.0
  N  N117  1  0.84736000  0.72882000  0.03686000  1.0
  N  N118  1  0.84738000  0.37022000  0.06765000  1.0
  N  N119  1  0.84738000  0.40099000  0.39547000  1.0
  N  N120  1  0.84604000  0.73397000  0.72889000  1.0
  N  N121  1  0.84607000  0.06222000  0.37048000  1.0
  N  N122  1  0.84607000  0.70380000  0.40063000  1.0
  O  O123  1  0.26561000  0.47082000  0.45178000  1.0
  O  O124  1  0.26581000  0.57756000  0.47055000  1.0
  O  O125  1  0.26459000  0.45187000  0.57677000  1.0
  O  O126  1  0.73822000  0.52798000  0.42328000  1.0
  O  O127  1  0.73649000  0.42247000  0.54880000  1.0
  O  O128  1  0.73716000  0.54877000  0.52816000  1.0
  O  O129  1  0.73824000  0.75662000  0.88207000  1.0
  O  O130  1  0.73655000  0.88213000  0.86206000  1.0
  O  O131  1  0.73721000  0.86151000  0.75638000  1.0
  O  O132  1  0.26564000  0.78512000  0.91072000  1.0
  O  O133  1  0.26585000  0.80389000  0.78522000  1.0
  O  O134  1  0.26463000  0.91010000  0.80469000  1.0
  O  O135  1  0.73827000  0.21542000  0.19465000  1.0
  O  O136  1  0.73656000  0.19542000  0.08915000  1.0
  O  O137  1  0.73726000  0.08974000  0.21545000  1.0
  O  O138  1  0.26565000  0.24408000  0.13749000  1.0
  O  O139  1  0.26590000  0.11856000  0.24424000  1.0
  O  O140  1  0.26468000  0.13805000  0.11854000  1.0
