# generated using pymatgen
data_Cu2H15C24(NO6)2
_symmetry_space_group_name_H-M   'P 1'
_cell_length_a   18.77820000
_cell_length_b   18.77820000
_cell_length_c   35.09850000
_cell_angle_alpha   90.00010000
_cell_angle_beta   89.99990000
_cell_angle_gamma   89.99930000
_symmetry_Int_Tables_number   1
_chemical_formula_structural   Cu2H15C24(NO6)2
_chemical_formula_sum   'Cu16 H120 C192 N16 O96'
_cell_volume   12376.46098077
_cell_formula_units_Z   8
loop_
 _symmetry_equiv_pos_site_id
 _symmetry_equiv_pos_as_xyz
  1  'x, y, z'
loop_
 _atom_site_type_symbol
 _atom_site_label
 _atom_site_symmetry_multiplicity
 _atom_site_fract_x
 _atom_site_fract_y
 _atom_site_fract_z
 _atom_site_occupancy
  Cu  Cu0  1  0.69655000  0.73992000  0.22364000  1.0
  Cu  Cu1  1  0.26008000  0.69654000  0.22364000  1.0
  Cu  Cu2  1  0.30345000  0.26007000  0.22364000  1.0
  Cu  Cu3  1  0.73992000  0.30345000  0.22364000  1.0
  Cu  Cu4  1  0.80345000  0.23992000  0.27637000  1.0
  Cu  Cu5  1  0.19655000  0.76008000  0.27637000  1.0
  Cu  Cu6  1  0.76008000  0.80346000  0.27637000  1.0
  Cu  Cu7  1  0.23992000  0.19654000  0.27637000  1.0
  Cu  Cu8  1  0.30345000  0.26008000  0.77636000  1.0
  Cu  Cu9  1  0.73992000  0.30346000  0.77636000  1.0
  Cu  Cu10  1  0.69654000  0.73992000  0.77636000  1.0
  Cu  Cu11  1  0.26008000  0.69655000  0.77636000  1.0
  Cu  Cu12  1  0.19654000  0.76009000  0.72363000  1.0
  Cu  Cu13  1  0.80345000  0.23992000  0.72363000  1.0
  Cu  Cu14  1  0.23992000  0.19655000  0.72363000  1.0
  Cu  Cu15  1  0.76008000  0.80346000  0.72363000  1.0
  H  H16  1  0.59026000  0.69246000  0.17489000  1.0
  H  H17  1  0.30754000  0.59025000  0.17488000  1.0
  H  H18  1  0.40974000  0.30754000  0.17489000  1.0
  H  H19  1  0.69246000  0.40975000  0.17488000  1.0
  H  H20  1  0.90976000  0.19246000  0.32512000  1.0
  H  H21  1  0.09025000  0.80755000  0.32512000  1.0
  H  H22  1  0.80755000  0.90976000  0.32512000  1.0
  H  H23  1  0.19245000  0.09024000  0.32512000  1.0
  H  H24  1  0.40974000  0.30755000  0.82512000  1.0
  H  H25  1  0.69246000  0.40975000  0.82512000  1.0
  H  H26  1  0.59025000  0.69246000  0.82512000  1.0
  H  H27  1  0.30755000  0.59025000  0.82511000  1.0
  H  H28  1  0.09024000  0.80755000  0.67488000  1.0
  H  H29  1  0.90976000  0.19246000  0.67488000  1.0
  H  H30  1  0.19246000  0.09024000  0.67488000  1.0
  H  H31  1  0.80755000  0.90975000  0.67488000  1.0
  H  H32  1  0.66038000  0.69808000  0.15152000  1.0
  H  H33  1  0.30192000  0.66037000  0.15152000  1.0
  H  H34  1  0.33963000  0.30191000  0.15152000  1.0
  H  H35  1  0.69808000  0.33963000  0.15152000  1.0
  H  H36  1  0.83964000  0.19807000  0.34849000  1.0
  H  H37  1  0.16037000  0.80192000  0.34848000  1.0
  H  H38  1  0.80193000  0.83964000  0.34849000  1.0
  H  H39  1  0.19807000  0.16036000  0.34849000  1.0
  H  H40  1  0.33963000  0.30192000  0.84848000  1.0
  H  H41  1  0.69808000  0.33963000  0.84848000  1.0
  H  H42  1  0.66036000  0.69808000  0.84848000  1.0
  H  H43  1  0.30193000  0.66037000  0.84848000  1.0
  H  H44  1  0.16036000  0.80193000  0.65151000  1.0
  H  H45  1  0.83964000  0.19808000  0.65152000  1.0
  H  H46  1  0.19807000  0.16036000  0.65151000  1.0
  H  H47  1  0.80193000  0.83963000  0.65151000  1.0
  H  H48  1  0.75122000  0.02166000  0.24284000  1.0
  H  H49  1  0.97835000  0.75122000  0.24284000  1.0
  H  H50  1  0.24878000  0.97834000  0.24284000  1.0
  H  H51  1  0.02165000  0.24878000  0.24284000  1.0
  H  H52  1  0.74880000  0.52167000  0.25716000  1.0
  H  H53  1  0.25121000  0.47833000  0.25716000  1.0
  H  H54  1  0.47834000  0.74881000  0.25716000  1.0
  H  H55  1  0.52166000  0.25120000  0.25716000  1.0
  H  H56  1  0.24879000  0.97835000  0.75716000  1.0
  H  H57  1  0.02166000  0.24878000  0.75716000  1.0
  H  H58  1  0.75121000  0.02166000  0.75716000  1.0
  H  H59  1  0.97834000  0.75122000  0.75716000  1.0
  H  H60  1  0.25120000  0.47834000  0.74284000  1.0
  H  H61  1  0.74879000  0.52166000  0.74284000  1.0
  H  H62  1  0.52166000  0.25120000  0.74284000  1.0
  H  H63  1  0.47833000  0.74879000  0.74284000  1.0
  H  H64  1  0.70922000  0.14141000  0.14067000  1.0
  H  H65  1  0.85859000  0.70923000  0.14067000  1.0
  H  H66  1  0.29078000  0.85859000  0.14066000  1.0
  H  H67  1  0.14141000  0.29077000  0.14067000  1.0
  H  H68  1  0.79081000  0.64141000  0.35934000  1.0
  H  H69  1  0.20919000  0.35859000  0.35934000  1.0
  H  H70  1  0.35859000  0.79080000  0.35934000  1.0
  H  H71  1  0.64141000  0.20918000  0.35934000  1.0
  H  H72  1  0.29079000  0.85859000  0.85933000  1.0
  H  H73  1  0.14141000  0.29079000  0.85933000  1.0
  H  H74  1  0.70921000  0.14141000  0.85934000  1.0
  H  H75  1  0.85859000  0.70921000  0.85933000  1.0
  H  H76  1  0.20920000  0.35859000  0.64066000  1.0
  H  H77  1  0.79080000  0.64141000  0.64066000  1.0
  H  H78  1  0.64141000  0.20920000  0.64066000  1.0
  H  H79  1  0.35859000  0.79081000  0.64066000  1.0
  H  H80  1  0.67594000  0.91344000  0.14262000  1.0
  H  H81  1  0.08657000  0.67594000  0.14262000  1.0
  H  H82  1  0.32405000  0.08656000  0.14262000  1.0
  H  H83  1  0.91344000  0.32405000  0.14262000  1.0
  H  H84  1  0.82407000  0.41343000  0.35738000  1.0
  H  H85  1  0.17594000  0.58657000  0.35738000  1.0
  H  H86  1  0.58656000  0.82408000  0.35738000  1.0
  H  H87  1  0.41344000  0.17592000  0.35738000  1.0
  H  H88  1  0.32407000  0.08656000  0.85738000  1.0
  H  H89  1  0.91344000  0.32406000  0.85738000  1.0
  H  H90  1  0.67594000  0.91344000  0.85738000  1.0
  H  H91  1  0.08656000  0.67594000  0.85738000  1.0
  H  H92  1  0.17592000  0.58656000  0.64262000  1.0
  H  H93  1  0.82407000  0.41343000  0.64262000  1.0
  H  H94  1  0.41344000  0.17593000  0.64262000  1.0
  H  H95  1  0.58656000  0.82407000  0.64262000  1.0
  H  H96  1  0.72400000  0.10828000  0.00000000  1.0
  H  H97  1  0.89172000  0.72401000  0.00000000  1.0
  H  H98  1  0.27600000  0.89172000  0.00000000  1.0
  H  H99  1  0.10828000  0.27599000  0.00000000  1.0
  H  H100  1  0.77599000  0.60828000  0.50000000  1.0
  H  H101  1  0.22400000  0.39172000  0.50000000  1.0
  H  H102  1  0.39172000  0.77600000  0.50000000  1.0
  H  H103  1  0.60828000  0.22400000  0.50000000  1.0
  H  H104  1  0.54735000  0.01918000  0.06143000  1.0
  H  H105  1  0.98081000  0.54735000  0.06143000  1.0
  H  H106  1  0.45265000  0.98081000  0.06143000  1.0
  H  H107  1  0.01919000  0.45265000  0.06143000  1.0
  H  H108  1  0.95265000  0.51918000  0.43857000  1.0
  H  H109  1  0.04734000  0.48081000  0.43857000  1.0
  H  H110  1  0.48081000  0.95265000  0.43857000  1.0
  H  H111  1  0.51918000  0.04735000  0.43857000  1.0
  H  H112  1  0.45266000  0.98081000  0.93857000  1.0
  H  H113  1  0.01918000  0.45265000  0.93857000  1.0
  H  H114  1  0.54735000  0.01918000  0.93857000  1.0
  H  H115  1  0.98082000  0.54735000  0.93857000  1.0
  H  H116  1  0.04734000  0.48081000  0.56143000  1.0
  H  H117  1  0.95265000  0.51919000  0.56143000  1.0
  H  H118  1  0.51919000  0.04735000  0.56143000  1.0
  H  H119  1  0.48081000  0.95265000  0.56143000  1.0
  H  H120  1  0.64882000  0.98032000  0.08902000  1.0
  H  H121  1  0.01968000  0.64883000  0.08902000  1.0
  H  H122  1  0.35117000  0.01968000  0.08902000  1.0
  H  H123  1  0.98033000  0.35117000  0.08902000  1.0
  H  H124  1  0.85118000  0.48032000  0.41098000  1.0
  H  H125  1  0.14882000  0.51968000  0.41098000  1.0
  H  H126  1  0.51968000  0.85119000  0.41098000  1.0
  H  H127  1  0.48032000  0.14882000  0.41098000  1.0
  H  H128  1  0.35118000  0.01967000  0.91098000  1.0
  H  H129  1  0.98032000  0.35118000  0.91098000  1.0
  H  H130  1  0.64883000  0.98032000  0.91098000  1.0
  H  H131  1  0.01968000  0.64883000  0.91098000  1.0
  H  H132  1  0.14882000  0.51968000  0.58901000  1.0
  H  H133  1  0.85118000  0.48032000  0.58902000  1.0
  H  H134  1  0.48033000  0.14882000  0.58902000  1.0
  H  H135  1  0.51968000  0.85118000  0.58902000  1.0
  C  C136  1  0.71508000  0.89125000  0.21550000  1.0
  C  C137  1  0.10876000  0.71508000  0.21550000  1.0
  C  C138  1  0.28492000  0.10875000  0.21550000  1.0
  C  C139  1  0.89125000  0.28492000  0.21550000  1.0
  C  C140  1  0.78493000  0.39125000  0.28450000  1.0
  C  C141  1  0.21508000  0.60875000  0.28451000  1.0
  C  C142  1  0.60876000  0.78494000  0.28450000  1.0
  C  C143  1  0.39125000  0.21507000  0.28450000  1.0
  C  C144  1  0.28492000  0.10876000  0.78450000  1.0
  C  C145  1  0.89125000  0.28492000  0.78450000  1.0
  C  C146  1  0.71507000  0.89125000  0.78450000  1.0
  C  C147  1  0.10875000  0.71508000  0.78450000  1.0
  C  C148  1  0.21507000  0.60876000  0.71549000  1.0
  C  C149  1  0.78492000  0.39125000  0.71550000  1.0
  C  C150  1  0.39125000  0.21507000  0.71549000  1.0
  C  C151  1  0.60875000  0.78492000  0.71550000  1.0
  C  C152  1  0.74904000  0.15595000  0.21376000  1.0
  C  C153  1  0.84406000  0.74903000  0.21376000  1.0
  C  C154  1  0.25097000  0.84405000  0.21376000  1.0
  C  C155  1  0.15595000  0.25095000  0.21376000  1.0
  C  C156  1  0.75098000  0.65595000  0.28625000  1.0
  C  C157  1  0.24901000  0.34404000  0.28625000  1.0
  C  C158  1  0.34405000  0.75098000  0.28625000  1.0
  C  C159  1  0.65595000  0.24902000  0.28625000  1.0
  C  C160  1  0.25097000  0.84405000  0.78624000  1.0
  C  C161  1  0.15595000  0.25097000  0.78624000  1.0
  C  C162  1  0.74903000  0.15595000  0.78624000  1.0
  C  C163  1  0.84405000  0.74903000  0.78624000  1.0
  C  C164  1  0.24902000  0.34405000  0.71375000  1.0
  C  C165  1  0.75097000  0.65595000  0.71375000  1.0
  C  C166  1  0.65595000  0.24902000  0.71375000  1.0
  C  C167  1  0.34405000  0.75098000  0.71375000  1.0
  C  C168  1  0.73137000  0.08789000  0.19370000  1.0
  C  C169  1  0.91211000  0.73137000  0.19370000  1.0
  C  C170  1  0.26863000  0.91211000  0.19369000  1.0
  C  C171  1  0.08789000  0.26862000  0.19370000  1.0
  C  C172  1  0.76865000  0.58790000  0.30631000  1.0
  C  C173  1  0.23135000  0.41210000  0.30631000  1.0
  C  C174  1  0.41211000  0.76866000  0.30631000  1.0
  C  C175  1  0.58789000  0.23134000  0.30631000  1.0
  C  C176  1  0.26864000  0.91211000  0.80630000  1.0
  C  C177  1  0.08789000  0.26864000  0.80630000  1.0
  C  C178  1  0.73136000  0.08789000  0.80631000  1.0
  C  C179  1  0.91211000  0.73136000  0.80631000  1.0
  C  C180  1  0.23135000  0.41211000  0.69369000  1.0
  C  C181  1  0.76864000  0.58789000  0.69369000  1.0
  C  C182  1  0.58789000  0.23135000  0.69369000  1.0
  C  C183  1  0.41211000  0.76865000  0.69369000  1.0
  C  C184  1  0.71306000  0.96077000  0.19467000  1.0
  C  C185  1  0.03924000  0.71306000  0.19467000  1.0
  C  C186  1  0.28694000  0.03923000  0.19467000  1.0
  C  C187  1  0.96077000  0.28694000  0.19467000  1.0
  C  C188  1  0.78695000  0.46077000  0.30533000  1.0
  C  C189  1  0.21305000  0.53923000  0.30533000  1.0
  C  C190  1  0.53924000  0.78697000  0.30533000  1.0
  C  C191  1  0.46077000  0.21304000  0.30533000  1.0
  C  C192  1  0.28695000  0.03923000  0.80533000  1.0
  C  C193  1  0.96077000  0.28694000  0.80533000  1.0
  C  C194  1  0.71305000  0.96077000  0.80533000  1.0
  C  C195  1  0.03923000  0.71305000  0.80533000  1.0
  C  C196  1  0.21304000  0.53923000  0.69466000  1.0
  C  C197  1  0.78695000  0.46077000  0.69466000  1.0
  C  C198  1  0.46077000  0.21304000  0.69466000  1.0
  C  C199  1  0.53923000  0.78695000  0.69467000  1.0
  C  C200  1  0.73391000  0.02327000  0.21329000  1.0
  C  C201  1  0.97674000  0.73391000  0.21329000  1.0
  C  C202  1  0.26609000  0.97673000  0.21328000  1.0
  C  C203  1  0.02326000  0.26609000  0.21329000  1.0
  C  C204  1  0.76611000  0.52327000  0.28672000  1.0
  C  C205  1  0.23389000  0.47673000  0.28672000  1.0
  C  C206  1  0.47674000  0.76611000  0.28672000  1.0
  C  C207  1  0.52326000  0.23389000  0.28672000  1.0
  C  C208  1  0.26610000  0.97674000  0.78671000  1.0
  C  C209  1  0.02327000  0.26610000  0.78671000  1.0
  C  C210  1  0.73390000  0.02327000  0.78672000  1.0
  C  C211  1  0.97674000  0.73390000  0.78671000  1.0
  C  C212  1  0.23389000  0.47674000  0.71328000  1.0
  C  C213  1  0.76610000  0.52327000  0.71328000  1.0
  C  C214  1  0.52326000  0.23389000  0.71328000  1.0
  C  C215  1  0.47673000  0.76610000  0.71328000  1.0
  C  C216  1  0.71033000  0.09074000  0.15550000  1.0
  C  C217  1  0.90927000  0.71034000  0.15550000  1.0
  C  C218  1  0.28967000  0.90927000  0.15550000  1.0
  C  C219  1  0.09074000  0.28966000  0.15550000  1.0
  C  C220  1  0.78969000  0.59074000  0.34451000  1.0
  C  C221  1  0.21031000  0.40926000  0.34450000  1.0
  C  C222  1  0.40927000  0.78969000  0.34450000  1.0
  C  C223  1  0.59074000  0.21030000  0.34450000  1.0
  C  C224  1  0.28968000  0.90927000  0.84450000  1.0
  C  C225  1  0.09073000  0.28967000  0.84450000  1.0
  C  C226  1  0.71032000  0.09074000  0.84450000  1.0
  C  C227  1  0.90927000  0.71032000  0.84450000  1.0
  C  C228  1  0.21031000  0.40926000  0.65550000  1.0
  C  C229  1  0.78968000  0.59073000  0.65550000  1.0
  C  C230  1  0.59074000  0.21032000  0.65550000  1.0
  C  C231  1  0.40926000  0.78969000  0.65550000  1.0
  C  C232  1  0.69107000  0.02785000  0.13674000  1.0
  C  C233  1  0.97216000  0.69108000  0.13674000  1.0
  C  C234  1  0.30892000  0.97215000  0.13674000  1.0
  C  C235  1  0.02785000  0.30892000  0.13674000  1.0
  C  C236  1  0.80894000  0.52785000  0.36326000  1.0
  C  C237  1  0.19106000  0.47215000  0.36326000  1.0
  C  C238  1  0.47216000  0.80895000  0.36326000  1.0
  C  C239  1  0.52785000  0.19105000  0.36326000  1.0
  C  C240  1  0.30893000  0.97216000  0.86326000  1.0
  C  C241  1  0.02785000  0.30893000  0.86326000  1.0
  C  C242  1  0.69107000  0.02785000  0.86326000  1.0
  C  C243  1  0.97216000  0.69107000  0.86326000  1.0
  C  C244  1  0.19106000  0.47215000  0.63674000  1.0
  C  C245  1  0.80894000  0.52784000  0.63674000  1.0
  C  C246  1  0.52785000  0.19106000  0.63674000  1.0
  C  C247  1  0.47215000  0.80894000  0.63674000  1.0
  C  C248  1  0.69160000  0.96300000  0.15657000  1.0
  C  C249  1  0.03701000  0.69160000  0.15657000  1.0
  C  C250  1  0.30839000  0.03700000  0.15656000  1.0
  C  C251  1  0.96300000  0.30839000  0.15657000  1.0
  C  C252  1  0.80841000  0.46300000  0.34344000  1.0
  C  C253  1  0.19159000  0.53700000  0.34344000  1.0
  C  C254  1  0.53700000  0.80842000  0.34344000  1.0
  C  C255  1  0.46299000  0.19158000  0.34344000  1.0
  C  C256  1  0.30841000  0.03700000  0.84343000  1.0
  C  C257  1  0.96300000  0.30840000  0.84343000  1.0
  C  C258  1  0.69160000  0.96300000  0.84343000  1.0
  C  C259  1  0.03700000  0.69160000  0.84343000  1.0
  C  C260  1  0.19158000  0.53700000  0.65656000  1.0
  C  C261  1  0.80841000  0.46300000  0.65656000  1.0
  C  C262  1  0.46300000  0.19159000  0.65656000  1.0
  C  C263  1  0.53700000  0.80841000  0.65656000  1.0
  C  C264  1  0.53653000  0.01514000  0.00000000  1.0
  C  C265  1  0.98486000  0.53653000  0.00000000  1.0
  C  C266  1  0.46347000  0.98485000  0.00000000  1.0
  C  C267  1  0.01514000  0.46347000  0.00000000  1.0
  C  C268  1  0.96347000  0.51514000  0.50000000  1.0
  C  C269  1  0.03652000  0.48485000  0.50000000  1.0
  C  C270  1  0.48485000  0.96347000  0.50000000  1.0
  C  C271  1  0.51514000  0.03653000  0.50000000  1.0
  C  C272  1  0.67288000  0.08078000  0.00000000  1.0
  C  C273  1  0.91922000  0.67288000  0.00000000  1.0
  C  C274  1  0.32713000  0.91922000  0.00000000  1.0
  C  C275  1  0.08078000  0.32712000  0.00000000  1.0
  C  C276  1  0.82712000  0.58078000  0.50000000  1.0
  C  C277  1  0.17287000  0.41922000  0.50000000  1.0
  C  C278  1  0.41922000  0.82713000  0.50000000  1.0
  C  C279  1  0.58078000  0.17288000  0.50000000  1.0
  C  C280  1  0.57261000  0.03023000  0.03411000  1.0
  C  C281  1  0.96977000  0.57261000  0.03411000  1.0
  C  C282  1  0.42739000  0.96976000  0.03411000  1.0
  C  C283  1  0.03024000  0.42739000  0.03411000  1.0
  C  C284  1  0.92739000  0.53023000  0.46589000  1.0
  C  C285  1  0.07260000  0.46976000  0.46589000  1.0
  C  C286  1  0.46976000  0.92739000  0.46589000  1.0
  C  C287  1  0.53023000  0.07261000  0.46589000  1.0
  C  C288  1  0.42739000  0.96976000  0.96589000  1.0
  C  C289  1  0.03023000  0.42739000  0.96589000  1.0
  C  C290  1  0.57261000  0.03023000  0.96589000  1.0
  C  C291  1  0.96977000  0.57261000  0.96589000  1.0
  C  C292  1  0.07260000  0.46976000  0.53411000  1.0
  C  C293  1  0.92739000  0.53023000  0.53411000  1.0
  C  C294  1  0.53023000  0.07261000  0.53411000  1.0
  C  C295  1  0.46976000  0.92739000  0.53411000  1.0
  C  C296  1  0.63989000  0.06232000  0.03430000  1.0
  C  C297  1  0.93768000  0.63990000  0.03431000  1.0
  C  C298  1  0.36011000  0.93767000  0.03430000  1.0
  C  C299  1  0.06233000  0.36011000  0.03431000  1.0
  C  C300  1  0.86011000  0.56232000  0.46570000  1.0
  C  C301  1  0.13989000  0.43768000  0.46570000  1.0
  C  C302  1  0.43768000  0.86011000  0.46570000  1.0
  C  C303  1  0.56232000  0.13989000  0.46570000  1.0
  C  C304  1  0.36011000  0.93767000  0.96569000  1.0
  C  C305  1  0.06232000  0.36011000  0.96570000  1.0
  C  C306  1  0.63989000  0.06232000  0.96570000  1.0
  C  C307  1  0.93768000  0.63989000  0.96570000  1.0
  C  C308  1  0.13988000  0.43767000  0.53430000  1.0
  C  C309  1  0.86011000  0.56232000  0.53430000  1.0
  C  C310  1  0.56233000  0.13989000  0.53430000  1.0
  C  C311  1  0.43767000  0.86011000  0.53430000  1.0
  C  C312  1  0.67597000  0.08002000  0.07133000  1.0
  C  C313  1  0.91999000  0.67597000  0.07133000  1.0
  C  C314  1  0.32403000  0.91999000  0.07133000  1.0
  C  C315  1  0.08002000  0.32403000  0.07133000  1.0
  C  C316  1  0.82403000  0.58001000  0.42867000  1.0
  C  C317  1  0.17597000  0.41999000  0.42867000  1.0
  C  C318  1  0.41999000  0.82403000  0.42867000  1.0
  C  C319  1  0.58001000  0.17596000  0.42867000  1.0
  C  C320  1  0.32404000  0.91998000  0.92867000  1.0
  C  C321  1  0.08001000  0.32403000  0.92867000  1.0
  C  C322  1  0.67597000  0.08001000  0.92867000  1.0
  C  C323  1  0.91999000  0.67597000  0.92867000  1.0
  C  C324  1  0.17596000  0.41998000  0.57133000  1.0
  C  C325  1  0.82403000  0.58001000  0.57133000  1.0
  C  C326  1  0.58001000  0.17597000  0.57133000  1.0
  C  C327  1  0.41999000  0.82404000  0.57133000  1.0
  N  N328  1  0.66857000  0.02741000  0.09851000  1.0
  N  N329  1  0.97259000  0.66858000  0.09851000  1.0
  N  N330  1  0.33143000  0.97259000  0.09851000  1.0
  N  N331  1  0.02742000  0.33142000  0.09851000  1.0
  N  N332  1  0.83144000  0.52741000  0.40149000  1.0
  N  N333  1  0.16856000  0.47259000  0.40149000  1.0
  N  N334  1  0.47259000  0.83145000  0.40149000  1.0
  N  N335  1  0.52741000  0.16855000  0.40149000  1.0
  N  N336  1  0.33144000  0.97258000  0.90149000  1.0
  N  N337  1  0.02741000  0.33143000  0.90149000  1.0
  N  N338  1  0.66857000  0.02741000  0.90149000  1.0
  N  N339  1  0.97259000  0.66857000  0.90149000  1.0
  N  N340  1  0.16856000  0.47259000  0.59851000  1.0
  N  N341  1  0.83144000  0.52741000  0.59851000  1.0
  N  N342  1  0.52742000  0.16856000  0.59851000  1.0
  N  N343  1  0.47259000  0.83144000  0.59851000  1.0
  O  O344  1  0.68454000  0.83780000  0.20012000  1.0
  O  O345  1  0.16221000  0.68453000  0.20012000  1.0
  O  O346  1  0.31547000  0.16220000  0.20012000  1.0
  O  O347  1  0.83780000  0.31546000  0.20012000  1.0
  O  O348  1  0.81546000  0.33779000  0.29989000  1.0
  O  O349  1  0.18455000  0.66220000  0.29989000  1.0
  O  O350  1  0.66221000  0.81547000  0.29989000  1.0
  O  O351  1  0.33779000  0.18454000  0.29988000  1.0
  O  O352  1  0.31547000  0.16221000  0.79988000  1.0
  O  O353  1  0.83780000  0.31547000  0.79988000  1.0
  O  O354  1  0.68454000  0.83780000  0.79988000  1.0
  O  O355  1  0.16221000  0.68455000  0.79988000  1.0
  O  O356  1  0.18454000  0.66221000  0.70011000  1.0
  O  O357  1  0.81546000  0.33779000  0.70011000  1.0
  O  O358  1  0.33779000  0.18454000  0.70011000  1.0
  O  O359  1  0.66221000  0.81546000  0.70011000  1.0
  O  O360  1  0.73169000  0.21331000  0.19638000  1.0
  O  O361  1  0.78670000  0.73169000  0.19639000  1.0
  O  O362  1  0.26831000  0.78669000  0.19638000  1.0
  O  O363  1  0.21330000  0.26830000  0.19638000  1.0
  O  O364  1  0.76832000  0.71332000  0.30362000  1.0
  O  O365  1  0.23167000  0.28668000  0.30362000  1.0
  O  O366  1  0.28669000  0.76832000  0.30362000  1.0
  O  O367  1  0.71331000  0.23168000  0.30362000  1.0
  O  O368  1  0.26832000  0.78670000  0.80361000  1.0
  O  O369  1  0.21331000  0.26832000  0.80361000  1.0
  O  O370  1  0.73169000  0.21331000  0.80362000  1.0
  O  O371  1  0.78669000  0.73168000  0.80361000  1.0
  O  O372  1  0.23168000  0.28669000  0.69638000  1.0
  O  O373  1  0.76833000  0.71331000  0.69638000  1.0
  O  O374  1  0.71331000  0.23168000  0.69638000  1.0
  O  O375  1  0.28669000  0.76833000  0.69638000  1.0
  O  O376  1  0.77852000  0.15188000  0.24635000  1.0
  O  O377  1  0.84813000  0.77851000  0.24636000  1.0
  O  O378  1  0.22148000  0.84812000  0.24635000  1.0
  O  O379  1  0.15187000  0.22148000  0.24635000  1.0
  O  O380  1  0.72150000  0.65188000  0.25365000  1.0
  O  O381  1  0.27849000  0.34811000  0.25365000  1.0
  O  O382  1  0.34812000  0.72150000  0.25365000  1.0
  O  O383  1  0.65188000  0.27851000  0.25365000  1.0
  O  O384  1  0.22148000  0.84813000  0.75365000  1.0
  O  O385  1  0.15188000  0.22149000  0.75364000  1.0
  O  O386  1  0.77851000  0.15188000  0.75365000  1.0
  O  O387  1  0.84812000  0.77852000  0.75365000  1.0
  O  O388  1  0.27850000  0.34812000  0.74635000  1.0
  O  O389  1  0.72148000  0.65188000  0.74635000  1.0
  O  O390  1  0.65188000  0.27850000  0.74635000  1.0
  O  O391  1  0.34812000  0.72149000  0.74635000  1.0
  O  O392  1  0.74837000  0.89131000  0.24727000  1.0
  O  O393  1  0.10869000  0.74837000  0.24728000  1.0
  O  O394  1  0.25163000  0.10868000  0.24728000  1.0
  O  O395  1  0.89131000  0.25164000  0.24728000  1.0
  O  O396  1  0.75164000  0.39132000  0.25273000  1.0
  O  O397  1  0.24837000  0.60869000  0.25273000  1.0
  O  O398  1  0.60869000  0.75164000  0.25273000  1.0
  O  O399  1  0.39131000  0.24836000  0.25273000  1.0
  O  O400  1  0.25164000  0.10869000  0.75272000  1.0
  O  O401  1  0.89131000  0.25164000  0.75272000  1.0
  O  O402  1  0.74836000  0.89132000  0.75272000  1.0
  O  O403  1  0.10869000  0.74836000  0.75272000  1.0
  O  O404  1  0.24836000  0.60868000  0.74727000  1.0
  O  O405  1  0.75163000  0.39131000  0.74727000  1.0
  O  O406  1  0.39131000  0.24836000  0.74727000  1.0
  O  O407  1  0.60868000  0.75164000  0.74727000  1.0
  O  O408  1  0.64043000  0.67943000  0.17509000  1.0
  O  O409  1  0.32058000  0.64042000  0.17508000  1.0
  O  O410  1  0.35957000  0.32057000  0.17509000  1.0
  O  O411  1  0.67942000  0.35958000  0.17509000  1.0
  O  O412  1  0.85959000  0.17942000  0.32492000  1.0
  O  O413  1  0.14042000  0.82058000  0.32492000  1.0
  O  O414  1  0.82059000  0.85959000  0.32492000  1.0
  O  O415  1  0.17941000  0.14041000  0.32492000  1.0
  O  O416  1  0.35958000  0.32058000  0.82491000  1.0
  O  O417  1  0.67942000  0.35958000  0.82492000  1.0
  O  O418  1  0.64041000  0.67942000  0.82492000  1.0
  O  O419  1  0.32058000  0.64042000  0.82491000  1.0
  O  O420  1  0.14041000  0.82059000  0.67508000  1.0
  O  O421  1  0.85959000  0.17942000  0.67508000  1.0
  O  O422  1  0.17942000  0.14041000  0.67508000  1.0
  O  O423  1  0.82058000  0.85958000  0.67508000  1.0
  O  O424  1  0.70794000  0.13665000  0.07616000  1.0
  O  O425  1  0.86334000  0.70794000  0.07616000  1.0
  O  O426  1  0.29206000  0.86335000  0.07616000  1.0
  O  O427  1  0.13666000  0.29206000  0.07616000  1.0
  O  O428  1  0.79206000  0.63665000  0.42384000  1.0
  O  O429  1  0.20794000  0.36335000  0.42384000  1.0
  O  O430  1  0.36335000  0.79206000  0.42384000  1.0
  O  O431  1  0.63666000  0.20791000  0.42384000  1.0
  O  O432  1  0.29208000  0.86334000  0.92384000  1.0
  O  O433  1  0.13665000  0.29205000  0.92384000  1.0
  O  O434  1  0.70792000  0.13666000  0.92384000  1.0
  O  O435  1  0.86335000  0.70793000  0.92384000  1.0
  O  O436  1  0.20791000  0.36334000  0.57616000  1.0
  O  O437  1  0.79206000  0.63665000  0.57616000  1.0
  O  O438  1  0.63666000  0.20793000  0.57616000  1.0
  O  O439  1  0.36334000  0.79208000  0.57616000  1.0
