# generated using pymatgen
data_CoH12(C4O3)2
_symmetry_space_group_name_H-M   'P 1'
_cell_length_a   7.11202000
_cell_length_b   8.11786000
_cell_length_c   10.45432195
_cell_angle_alpha   108.40350582
_cell_angle_beta   109.88175669
_cell_angle_gamma   90.00330000
_symmetry_Int_Tables_number   1
_chemical_formula_structural   CoH12(C4O3)2
_chemical_formula_sum   'Co2 H24 C16 O12'
_cell_volume   534.65268315
_cell_formula_units_Z   2
loop_
 _symmetry_equiv_pos_site_id
 _symmetry_equiv_pos_as_xyz
  1  'x, y, z'
loop_
 _atom_site_type_symbol
 _atom_site_label
 _atom_site_symmetry_multiplicity
 _atom_site_fract_x
 _atom_site_fract_y
 _atom_site_fract_z
 _atom_site_occupancy
  Co  Co0  1  0.00000000  0.00000000  0.50000000  1.0
  Co  Co1  1  0.50000000  0.50000000  0.50000000  1.0
  H  H2  1  0.06963000  0.02030000  0.80213000  1.0
  H  H3  1  0.26660000  0.47874000  0.19802000  1.0
  H  H4  1  0.93037000  0.97970000  0.19786000  1.0
  H  H5  1  0.73340000  0.52126000  0.80198000  1.0
  H  H6  1  0.81270000  0.85782000  0.92786000  1.0
  H  H7  1  0.88563000  0.64306000  0.07239000  1.0
  H  H8  1  0.18730000  0.14218000  0.07214000  1.0
  H  H9  1  0.11436000  0.35693000  0.92761000  1.0
  H  H10  1  0.30148000  0.85044000  0.58292000  1.0
  H  H11  1  0.71935000  0.64982000  0.41786000  1.0
  H  H12  1  0.69852000  0.14956000  0.41708000  1.0
  H  H13  1  0.28064000  0.35018000  0.58214000  1.0
  H  H14  1  0.54679000  0.04903000  0.81157000  1.0
  H  H15  1  0.73471000  0.45196000  0.18881000  1.0
  H  H16  1  0.45321000  0.95097000  0.18843000  1.0
  H  H17  1  0.26530000  0.54804000  0.81120000  1.0
  H  H18  1  0.52085000  0.11273000  0.65748000  1.0
  H  H19  1  0.86336000  0.38745000  0.34231000  1.0
  H  H20  1  0.47914000  0.88727000  0.34251000  1.0
  H  H21  1  0.13663000  0.61255000  0.65769000  1.0
  H  H22  1  0.39037000  0.21410000  0.77493000  1.0
  H  H23  1  0.61537000  0.28636000  0.22557000  1.0
  H  H24  1  0.60962000  0.78590000  0.22506000  1.0
  H  H25  1  0.38464000  0.71364000  0.77444000  1.0
  C  C26  1  0.81583000  0.81758000  0.66415000  1.0
  C  C27  1  0.15223000  0.68276000  0.33591000  1.0
  C  C28  1  0.18418000  0.18241000  0.33585000  1.0
  C  C29  1  0.84777000  0.31724000  0.66409000  1.0
  C  C30  1  0.95211000  0.93685000  0.80460000  1.0
  C  C31  1  0.14734000  0.56294000  0.19545000  1.0
  C  C32  1  0.04790000  0.06315000  0.19540000  1.0
  C  C33  1  0.85266000  0.43706000  0.80455000  1.0
  C  C34  1  0.93410000  0.94326000  0.93087000  1.0
  C  C35  1  0.00339000  0.55693000  0.06915000  1.0
  C  C36  1  0.06590000  0.05674000  0.06913000  1.0
  C  C37  1  0.99662000  0.44307000  0.93086000  1.0
  C  C38  1  0.44226000  0.09100000  0.72599000  1.0
  C  C39  1  0.71615000  0.40941000  0.27422000  1.0
  C  C40  1  0.55773000  0.90900000  0.27400000  1.0
  C  C41  1  0.28385000  0.59059000  0.72578000  1.0
  O  O42  1  0.84040000  0.82050000  0.54787000  1.0
  O  O43  1  0.29320000  0.67991000  0.45216000  1.0
  O  O44  1  0.15960000  0.17950000  0.45213000  1.0
  O  O45  1  0.70680000  0.32009000  0.54785000  1.0
  O  O46  1  0.68062000  0.71283000  0.66222000  1.0
  O  O47  1  0.01915000  0.78773000  0.33798000  1.0
  O  O48  1  0.31938000  0.28717000  0.33778000  1.0
  O  O49  1  0.98085000  0.21227000  0.66202000  1.0
  O  O50  1  0.26844000  0.96348000  0.64357000  1.0
  O  O51  1  0.62547000  0.53679000  0.35725000  1.0
  O  O52  1  0.73156000  0.03652000  0.35643000  1.0
  O  O53  1  0.37452000  0.46321000  0.64275000  1.0
