# generated using pymatgen
data_NaH7C9O7
_symmetry_space_group_name_H-M   'P 1'
_cell_length_a   6.98889000
_cell_length_b   7.03790000
_cell_length_c   10.59530000
_cell_angle_alpha   88.15110000
_cell_angle_beta   83.11450000
_cell_angle_gamma   66.71840000
_symmetry_Int_Tables_number   1
_chemical_formula_structural   NaH7C9O7
_chemical_formula_sum   'Na2 H14 C18 O14'
_cell_volume   475.19852710
_cell_formula_units_Z   2
loop_
 _symmetry_equiv_pos_site_id
 _symmetry_equiv_pos_as_xyz
  1  'x, y, z'
loop_
 _atom_site_type_symbol
 _atom_site_label
 _atom_site_symmetry_multiplicity
 _atom_site_fract_x
 _atom_site_fract_y
 _atom_site_fract_z
 _atom_site_occupancy
  Na  Na0  1  0.78377000  0.17973000  0.08761000  1.0
  Na  Na1  1  0.21623000  0.82027000  0.91239000  1.0
  H  H2  1  0.69930000  0.23559000  0.64714000  1.0
  H  H3  1  0.30070000  0.76441000  0.35286000  1.0
  H  H4  1  0.24507000  0.26618000  0.39927000  1.0
  H  H5  1  0.75493000  0.73381000  0.60073000  1.0
  H  H6  1  0.97622000  0.31941000  0.58611000  1.0
  H  H7  1  0.02378000  0.68059000  0.41389000  1.0
  H  H8  1  0.76473000  0.52449000  0.93146000  1.0
  H  H9  1  0.23527000  0.47551000  0.06854000  1.0
  H  H10  1  0.93399000  0.16402000  0.33876000  1.0
  H  H11  1  0.06601000  0.83598000  0.66124000  1.0
  H  H12  1  0.20143000  0.01580000  0.17757000  1.0
  H  H13  1  0.79856000  0.98420000  0.82243000  1.0
  H  H14  1  0.10965000  0.26212000  0.19519000  1.0
  H  H15  1  0.89035000  0.73788000  0.80481000  1.0
  C  C16  1  0.18640000  0.31096000  0.72254000  1.0
  C  C17  1  0.81360000  0.68904000  0.27746000  1.0
  C  C18  1  0.39190000  0.28533000  0.73997000  1.0
  C  C19  1  0.60810000  0.71467000  0.26003000  1.0
  C  C20  1  0.54086000  0.25394000  0.63416000  1.0
  C  C21  1  0.45914000  0.74606000  0.36583000  1.0
  C  C22  1  0.48678000  0.25002000  0.51149000  1.0
  C  C23  1  0.51322000  0.74998000  0.48851000  1.0
  C  C24  1  0.28301000  0.27371000  0.49520000  1.0
  C  C25  1  0.71700000  0.72629000  0.50480000  1.0
  C  C26  1  0.13336000  0.30409000  0.60019000  1.0
  C  C27  1  0.86663000  0.69591000  0.39981000  1.0
  C  C28  1  0.02823000  0.33054000  0.83538000  1.0
  C  C29  1  0.97177000  0.66945000  0.16462000  1.0
  C  C30  1  0.44508000  0.30472000  0.87103000  1.0
  C  C31  1  0.55492000  0.69528000  0.12897000  1.0
  C  C32  1  0.64171000  0.21743000  0.39635000  1.0
  C  C33  1  0.35830000  0.78257000  0.60365000  1.0
  O  O34  1  0.05425000  0.19069000  0.91358000  1.0
  O  O35  1  0.94575000  0.80932000  0.08642000  1.0
  O  O36  1  0.85768000  0.50486000  0.84047000  1.0
  O  O37  1  0.14232000  0.49514000  0.15953000  1.0
  O  O38  1  0.59420000  0.21379000  0.28788000  1.0
  O  O39  1  0.40580000  0.78620000  0.71212000  1.0
  O  O40  1  0.83216000  0.19177000  0.42165000  1.0
  O  O41  1  0.16784000  0.80823000  0.57835000  1.0
  O  O42  1  0.30711000  0.45677000  0.93781000  1.0
  O  O43  1  0.69289000  0.54323000  0.06219000  1.0
  O  O44  1  0.61517000  0.17917000  0.90637000  1.0
  O  O45  1  0.38484000  0.82083000  0.09363000  1.0
  O  O46  1  0.07527000  0.13983000  0.21297000  1.0
  O  O47  1  0.92473000  0.86017000  0.78703000  1.0
