# generated using pymatgen
data_CuH8C9BrNO3
_symmetry_space_group_name_H-M   'P 1'
_cell_length_a   5.15201000
_cell_length_b   9.13327000
_cell_length_c   11.11400000
_cell_angle_alpha   71.57340000
_cell_angle_beta   85.05920000
_cell_angle_gamma   77.79530000
_symmetry_Int_Tables_number   1
_chemical_formula_structural   CuH8C9BrNO3
_chemical_formula_sum   'Cu2 H16 C18 Br2 N2 O6'
_cell_volume   484.83426012
_cell_formula_units_Z   2
loop_
 _symmetry_equiv_pos_site_id
 _symmetry_equiv_pos_as_xyz
  1  'x, y, z'
loop_
 _atom_site_type_symbol
 _atom_site_label
 _atom_site_symmetry_multiplicity
 _atom_site_fract_x
 _atom_site_fract_y
 _atom_site_fract_z
 _atom_site_occupancy
  Cu  Cu0  1  0.74819000  0.53053000  0.58249000  1.0
  Cu  Cu1  1  0.25183000  0.46946000  0.41752000  1.0
  H  H2  1  0.46791000  0.45014000  0.92411000  1.0
  H  H3  1  0.53212000  0.54986000  0.07588000  1.0
  H  H4  1  0.97785000  0.86981000  0.48661000  1.0
  H  H5  1  0.02214000  0.13019000  0.51339000  1.0
  H  H6  1  0.63548000  0.95232000  0.63530000  1.0
  H  H7  1  0.36452000  0.04769000  0.36469000  1.0
  H  H8  1  0.09466000  0.62963000  0.95125000  1.0
  H  H9  1  0.90532000  0.37039000  0.04875000  1.0
  H  H10  1  0.81782000  0.18058000  0.72616000  1.0
  H  H11  1  0.18221000  0.81942000  0.27384000  1.0
  H  H12  1  0.04858000  0.10010000  0.85387000  1.0
  H  H13  1  0.95142000  0.89990000  0.14613000  1.0
  H  H14  1  0.29063000  0.16244000  0.65002000  1.0
  H  H15  1  0.70937000  0.83758000  0.34998000  1.0
  H  H16  1  0.34407000  0.28159000  0.74159000  1.0
  H  H17  1  0.65594000  0.71841000  0.25840000  1.0
  C  C18  1  0.47658000  0.50617000  0.82144000  1.0
  C  C19  1  0.52342000  0.49383000  0.17855000  1.0
  C  C20  1  0.26612000  0.63358000  0.76513000  1.0
  C  C21  1  0.73389000  0.36641000  0.23486000  1.0
  C  C22  1  0.24142000  0.70731000  0.63049000  1.0
  C  C23  1  0.75858000  0.29267000  0.36952000  1.0
  C  C24  1  0.00303000  0.81781000  0.58839000  1.0
  C  C25  1  0.99694000  0.18218000  0.41160000  1.0
  C  C26  1  0.81225000  0.86407000  0.67165000  1.0
  C  C27  1  0.18774000  0.13594000  0.32834000  1.0
  C  C28  1  0.84943000  0.79706000  0.80283000  1.0
  C  C29  1  0.15058000  0.20294000  0.19717000  1.0
  C  C30  1  0.06926000  0.68224000  0.84922000  1.0
  C  C31  1  0.93072000  0.31776000  0.15079000  1.0
  C  C32  1  0.96977000  0.20567000  0.77651000  1.0
  C  C33  1  0.03023000  0.79433000  0.22349000  1.0
  C  C34  1  0.19452000  0.26031000  0.68716000  1.0
  C  C35  1  0.80548000  0.73969000  0.31284000  1.0
  Br  Br36  1  0.59384000  0.86674000  0.91801000  1.0
  Br  Br37  1  0.40617000  0.13325000  0.08199000  1.0
  N  N38  1  0.67138000  0.44428000  0.75916000  1.0
  N  N39  1  0.32861000  0.55570000  0.24086000  1.0
  O  O40  1  0.84494000  0.31823000  0.84080000  1.0
  O  O41  1  0.15509000  0.68178000  0.15921000  1.0
  O  O42  1  0.42101000  0.68034000  0.54523000  1.0
  O  O43  1  0.57898000  0.31965000  0.45477000  1.0
  O  O44  1  0.09862000  0.39524000  0.58683000  1.0
  O  O45  1  0.90137000  0.60476000  0.41317000  1.0
