# generated using pymatgen
data_Tm2Cd3H36(C2O3)12
_symmetry_space_group_name_H-M   'P 1'
_cell_length_a   18.41520000
_cell_length_b   18.41520000
_cell_length_c   18.41522783
_cell_angle_alpha   59.99995000
_cell_angle_beta   59.99995000
_cell_angle_gamma   60.00000000
_symmetry_Int_Tables_number   1
_chemical_formula_structural   Tm2Cd3H36(C2O3)12
_chemical_formula_sum   'Tm8 Cd12 H144 C96 O144'
_cell_volume   4415.85343168
_cell_formula_units_Z   4
loop_
 _symmetry_equiv_pos_site_id
 _symmetry_equiv_pos_as_xyz
  1  'x, y, z'
loop_
 _atom_site_type_symbol
 _atom_site_label
 _atom_site_symmetry_multiplicity
 _atom_site_fract_x
 _atom_site_fract_y
 _atom_site_fract_z
 _atom_site_occupancy
  Tm  Tm0  1  0.25000000  0.75000000  0.25000000  1.0
  Tm  Tm1  1  0.75000000  0.74999000  0.75000000  1.0
  Tm  Tm2  1  0.75000000  0.75000000  0.25001000  1.0
  Tm  Tm3  1  0.74999000  0.25000000  0.25001000  1.0
  Tm  Tm4  1  0.74999000  0.25000000  0.75001000  1.0
  Tm  Tm5  1  0.25000000  0.25001000  0.24999000  1.0
  Tm  Tm6  1  0.24999000  0.25001000  0.75001000  1.0
  Tm  Tm7  1  0.25000000  0.75000000  0.75000000  1.0
  Cd  Cd8  1  0.50000000  0.50000000  0.50000000  1.0
  Cd  Cd9  1  0.00000000  1.00000000  0.50000000  1.0
  Cd  Cd10  1  0.50001000  0.99999000  0.00000000  1.0
  Cd  Cd11  1  0.49999000  0.00001000  0.50000000  1.0
  Cd  Cd12  1  0.50000000  0.50000000  0.00000000  1.0
  Cd  Cd13  1  0.00000000  0.50000000  0.50000000  1.0
  Cd  Cd14  1  0.00000000  0.50000000  0.00000000  1.0
  Cd  Cd15  1  0.00000000  0.00000000  0.00000000  1.0
  Cd  Cd16  1  0.87500000  0.87500000  0.37500000  1.0
  Cd  Cd17  1  0.62500000  0.62500000  0.12500000  1.0
  Cd  Cd18  1  0.12500000  0.12500000  0.62500000  1.0
  Cd  Cd19  1  0.37500000  0.37500000  0.87500000  1.0
  H  H20  1  0.27895000  0.65176000  0.49521000  1.0
  H  H21  1  0.84824000  0.92591000  0.72106000  1.0
  H  H22  1  0.57409000  0.99521000  0.15176000  1.0
  H  H23  1  0.50479000  0.22105000  0.42592000  1.0
  H  H24  1  0.65176000  0.27894000  0.07408000  1.0
  H  H25  1  0.22105000  0.50479000  0.34824000  1.0
  H  H26  1  0.99521000  0.57408000  0.77895000  1.0
  H  H27  1  0.92591000  0.84824000  0.00479000  1.0
  H  H28  1  0.57409000  0.27894000  0.49521000  1.0
  H  H29  1  0.22106000  0.84824000  0.42591000  1.0
  H  H30  1  0.65177000  0.99521000  0.77894000  1.0
  H  H31  1  0.50479000  0.92592000  0.34824000  1.0
  H  H32  1  0.27894000  0.57408000  0.15176000  1.0
  H  H33  1  0.92591000  0.50479000  0.72106000  1.0
  H  H34  1  0.99522000  0.65176000  0.07408000  1.0
  H  H35  1  0.84823000  0.22106000  0.00479000  1.0
  H  H36  1  0.65176000  0.57408000  0.49522000  1.0
  H  H37  1  0.22105000  0.92592000  0.00479000  1.0
  H  H38  1  0.92591000  0.22106000  0.34824000  1.0
  H  H39  1  0.84823000  0.50479000  0.42592000  1.0
  H  H40  1  0.50478000  0.84824000  0.72106000  1.0
  H  H41  1  0.57409000  0.65176000  0.77894000  1.0
  H  H42  1  0.27895000  0.99521000  0.07408000  1.0
  H  H43  1  0.99522000  0.27894000  0.15176000  1.0
  H  H44  1  0.72105000  0.34824000  0.50479000  1.0
  H  H45  1  0.15177000  0.07408000  0.27894000  1.0
  H  H46  1  0.42591000  0.00479000  0.84824000  1.0
  H  H47  1  0.49521000  0.77895000  0.57408000  1.0
  H  H48  1  0.34824000  0.72106000  0.92591000  1.0
  H  H49  1  0.77895000  0.49521000  0.65176000  1.0
  H  H50  1  0.00479000  0.42591000  0.22106000  1.0
  H  H51  1  0.07408000  0.15176000  0.99522000  1.0
  H  H52  1  0.42592000  0.72106000  0.50478000  1.0
  H  H53  1  0.77895000  0.15176000  0.57408000  1.0
  H  H54  1  0.34824000  0.00478000  0.22106000  1.0
  H  H55  1  0.49522000  0.07408000  0.65176000  1.0
  H  H56  1  0.72105000  0.42592000  0.84824000  1.0
  H  H57  1  0.07409000  0.49521000  0.27894000  1.0
  H  H58  1  0.00479000  0.34824000  0.92592000  1.0
  H  H59  1  0.15177000  0.77894000  0.99521000  1.0
  H  H60  1  0.34824000  0.42592000  0.50479000  1.0
  H  H61  1  0.77895000  0.07408000  0.99521000  1.0
  H  H62  1  0.07409000  0.77894000  0.65176000  1.0
  H  H63  1  0.15177000  0.49521000  0.57408000  1.0
  H  H64  1  0.49521000  0.15176000  0.27895000  1.0
  H  H65  1  0.42591000  0.34824000  0.22106000  1.0
  H  H66  1  0.72105000  0.00479000  0.92592000  1.0
  H  H67  1  0.00478000  0.72106000  0.84824000  1.0
  H  H68  1  0.35765000  0.70860000  0.41892000  1.0
  H  H69  1  0.79141000  0.98517000  0.64235000  1.0
  H  H70  1  0.51483000  0.91893000  0.20860000  1.0
  H  H71  1  0.58108000  0.14235000  0.48517000  1.0
  H  H72  1  0.70859000  0.35765000  0.01483000  1.0
  H  H73  1  0.14236000  0.58107000  0.29140000  1.0
  H  H74  1  0.91892000  0.51483000  0.85765000  1.0
  H  H75  1  0.98517000  0.79141000  0.08107000  1.0
  H  H76  1  0.51484000  0.35764000  0.41893000  1.0
  H  H77  1  0.14235000  0.79141000  0.48517000  1.0
  H  H78  1  0.70860000  0.91892000  0.85765000  1.0
  H  H79  1  0.58106000  0.98518000  0.29141000  1.0
  H  H80  1  0.35764000  0.51483000  0.20860000  1.0
  H  H81  1  0.98518000  0.58107000  0.64235000  1.0
  H  H82  1  0.91893000  0.70860000  0.01483000  1.0
  H  H83  1  0.79140000  0.14235000  0.08107000  1.0
  H  H84  1  0.70859000  0.51483000  0.41893000  1.0
  H  H85  1  0.14235000  0.98518000  0.08107000  1.0
  H  H86  1  0.98518000  0.14235000  0.29140000  1.0
  H  H87  1  0.79140000  0.58107000  0.48518000  1.0
  H  H88  1  0.58108000  0.79140000  0.64235000  1.0
  H  H89  1  0.51483000  0.70860000  0.85764000  1.0
  H  H90  1  0.35765000  0.91892000  0.01483000  1.0
  H  H91  1  0.91893000  0.35764000  0.20860000  1.0
  H  H92  1  0.64235000  0.29140000  0.58107000  1.0
  H  H93  1  0.20861000  0.01483000  0.35764000  1.0
  H  H94  1  0.48517000  0.08107000  0.79141000  1.0
  H  H95  1  0.41892000  0.85765000  0.51483000  1.0
  H  H96  1  0.29141000  0.64235000  0.98517000  1.0
  H  H97  1  0.85764000  0.41893000  0.70860000  1.0
  H  H98  1  0.08107000  0.48517000  0.14235000  1.0
  H  H99  1  0.01483000  0.20860000  0.91893000  1.0
  H  H100  1  0.48518000  0.64235000  0.58107000  1.0
  H  H101  1  0.85765000  0.20860000  0.51482000  1.0
  H  H102  1  0.29141000  0.08107000  0.14235000  1.0
  H  H103  1  0.41892000  0.01483000  0.70861000  1.0
  H  H104  1  0.64236000  0.48517000  0.79140000  1.0
  H  H105  1  0.01484000  0.41892000  0.35764000  1.0
  H  H106  1  0.08106000  0.29141000  0.98518000  1.0
  H  H107  1  0.20859000  0.85765000  0.91893000  1.0
  H  H108  1  0.29141000  0.48517000  0.58107000  1.0
  H  H109  1  0.85764000  0.01483000  0.91893000  1.0
  H  H110  1  0.01483000  0.85765000  0.70859000  1.0
  H  H111  1  0.20861000  0.41892000  0.51483000  1.0
  H  H112  1  0.41892000  0.20860000  0.35765000  1.0
  H  H113  1  0.48517000  0.29141000  0.14235000  1.0
  H  H114  1  0.64236000  0.08107000  0.98517000  1.0
  H  H115  1  0.08108000  0.64235000  0.79140000  1.0
  H  H116  1  0.94484000  0.02501000  0.24711000  1.0
  H  H117  1  0.47499000  0.71696000  0.05516000  1.0
  H  H118  1  0.78303000  0.74711000  0.52502000  1.0
  H  H119  1  0.75288000  0.55516000  0.21697000  1.0
  H  H120  1  0.02502000  0.94484000  0.28303000  1.0
  H  H121  1  0.55515000  0.75289000  0.97499000  1.0
  H  H122  1  0.74712000  0.78303000  0.44484000  1.0
  H  H123  1  0.71696000  0.47499000  0.25289000  1.0
  H  H124  1  0.78303000  0.94484000  0.24711000  1.0
  H  H125  1  0.55515000  0.47499000  0.21697000  1.0
  H  H126  1  0.02501000  0.74711000  0.44484000  1.0
  H  H127  1  0.75289000  0.71696000  0.97499000  1.0
  H  H128  1  0.94485000  0.78303000  0.52501000  1.0
  H  H129  1  0.71696000  0.75289000  0.05516000  1.0
  H  H130  1  0.74711000  0.02501000  0.28303000  1.0
  H  H131  1  0.47498000  0.55516000  0.25289000  1.0
  H  H132  1  0.02501000  0.78304000  0.24711000  1.0
  H  H133  1  0.55515000  0.71697000  0.25289000  1.0
  H  H134  1  0.71696000  0.55516000  0.97499000  1.0
  H  H135  1  0.47499000  0.75289000  0.21696000  1.0
  H  H136  1  0.75288000  0.47499000  0.05516000  1.0
  H  H137  1  0.78303000  0.02502000  0.44484000  1.0
  H  H138  1  0.94485000  0.74711000  0.28303000  1.0
  H  H139  1  0.74711000  0.94484000  0.52501000  1.0
  H  H140  1  0.05515000  0.97499000  0.75289000  1.0
  H  H141  1  0.52502000  0.28303000  0.94484000  1.0
  H  H142  1  0.21696000  0.25289000  0.47499000  1.0
  H  H143  1  0.24711000  0.44484000  0.78304000  1.0
  H  H144  1  0.97499000  0.05516000  0.71696000  1.0
  H  H145  1  0.44484000  0.24711000  0.02502000  1.0
  H  H146  1  0.25288000  0.21697000  0.55516000  1.0
  H  H147  1  0.28304000  0.52501000  0.74711000  1.0
  H  H148  1  0.21696000  0.05516000  0.75289000  1.0
  H  H149  1  0.44485000  0.52501000  0.78303000  1.0
  H  H150  1  0.97499000  0.25289000  0.55516000  1.0
  H  H151  1  0.24712000  0.28303000  0.02501000  1.0
  H  H152  1  0.05515000  0.21697000  0.47499000  1.0
  H  H153  1  0.28304000  0.24711000  0.94484000  1.0
  H  H154  1  0.25289000  0.97499000  0.71696000  1.0
  H  H155  1  0.52501000  0.44484000  0.74711000  1.0
  H  H156  1  0.97499000  0.21696000  0.75289000  1.0
  H  H157  1  0.44485000  0.28303000  0.74711000  1.0
  H  H158  1  0.28304000  0.44484000  0.02501000  1.0
  H  H159  1  0.52502000  0.24711000  0.78303000  1.0
  H  H160  1  0.24712000  0.52501000  0.94484000  1.0
  H  H161  1  0.21697000  0.97498000  0.55516000  1.0
  H  H162  1  0.05515000  0.25289000  0.71697000  1.0
  H  H163  1  0.25289000  0.05516000  0.47499000  1.0
  C  C164  1  0.31268000  0.68185000  0.42410000  1.0
  C  C165  1  0.81815000  0.91863000  0.68732000  1.0
  C  C166  1  0.58136000  0.92410000  0.18186000  1.0
  C  C167  1  0.57590000  0.18732000  0.41863000  1.0
  C  C168  1  0.68186000  0.31267000  0.08137000  1.0
  C  C169  1  0.18733000  0.57590000  0.31814000  1.0
  C  C170  1  0.92409000  0.58137000  0.81268000  1.0
  C  C171  1  0.91862000  0.81815000  0.07591000  1.0
  C  C172  1  0.58137000  0.31268000  0.42410000  1.0
  C  C173  1  0.18732000  0.81815000  0.41863000  1.0
  C  C174  1  0.68185000  0.92410000  0.81268000  1.0
  C  C175  1  0.57591000  0.91863000  0.31814000  1.0
  C  C176  1  0.31268000  0.58137000  0.18185000  1.0
  C  C177  1  0.91864000  0.57590000  0.68732000  1.0
  C  C178  1  0.92409000  0.68185000  0.08138000  1.0
  C  C179  1  0.81815000  0.18732000  0.07590000  1.0
  C  C180  1  0.68185000  0.58137000  0.42410000  1.0
  C  C181  1  0.18733000  0.91863000  0.07590000  1.0
  C  C182  1  0.91864000  0.18732000  0.31814000  1.0
  C  C183  1  0.81815000  0.57590000  0.41863000  1.0
  C  C184  1  0.57590000  0.81815000  0.68732000  1.0
  C  C185  1  0.58137000  0.68185000  0.81268000  1.0
  C  C186  1  0.31267000  0.92410000  0.08137000  1.0
  C  C187  1  0.92410000  0.31268000  0.18185000  1.0
  C  C188  1  0.68733000  0.31814000  0.57590000  1.0
  C  C189  1  0.18185000  0.08137000  0.31268000  1.0
  C  C190  1  0.41863000  0.07590000  0.81815000  1.0
  C  C191  1  0.42409000  0.81268000  0.58137000  1.0
  C  C192  1  0.31815000  0.68732000  0.91863000  1.0
  C  C193  1  0.81268000  0.42410000  0.68185000  1.0
  C  C194  1  0.07590000  0.41863000  0.18733000  1.0
  C  C195  1  0.08137000  0.18185000  0.92410000  1.0
  C  C196  1  0.41863000  0.68733000  0.57590000  1.0
  C  C197  1  0.81267000  0.18186000  0.58137000  1.0
  C  C198  1  0.31815000  0.07590000  0.18732000  1.0
  C  C199  1  0.42410000  0.08137000  0.68185000  1.0
  C  C200  1  0.68733000  0.41863000  0.81814000  1.0
  C  C201  1  0.08138000  0.42409000  0.31268000  1.0
  C  C202  1  0.07590000  0.31814000  0.91864000  1.0
  C  C203  1  0.18185000  0.81268000  0.92410000  1.0
  C  C204  1  0.31815000  0.41863000  0.57590000  1.0
  C  C205  1  0.81268000  0.08137000  0.92410000  1.0
  C  C206  1  0.08137000  0.81268000  0.68185000  1.0
  C  C207  1  0.18185000  0.42409000  0.58138000  1.0
  C  C208  1  0.42410000  0.18185000  0.31268000  1.0
  C  C209  1  0.41864000  0.31814000  0.18732000  1.0
  C  C210  1  0.68733000  0.07590000  0.91863000  1.0
  C  C211  1  0.07591000  0.68732000  0.81814000  1.0
  C  C212  1  0.36838000  0.61086000  0.37944000  1.0
  C  C213  1  0.88914000  0.85868000  0.63162000  1.0
  C  C214  1  0.64132000  0.87944000  0.11086000  1.0
  C  C215  1  0.62054000  0.13162000  0.35869000  1.0
  C  C216  1  0.61086000  0.36838000  0.14131000  1.0
  C  C217  1  0.13162000  0.62055000  0.38914000  1.0
  C  C218  1  0.87945000  0.64131000  0.86838000  1.0
  C  C219  1  0.85869000  0.88914000  0.12055000  1.0
  C  C220  1  0.64132000  0.36838000  0.37944000  1.0
  C  C221  1  0.13163000  0.88914000  0.35868000  1.0
  C  C222  1  0.61085000  0.87945000  0.86838000  1.0
  C  C223  1  0.62055000  0.85869000  0.38915000  1.0
  C  C224  1  0.36837000  0.64132000  0.11086000  1.0
  C  C225  1  0.85869000  0.62055000  0.63162000  1.0
  C  C226  1  0.87944000  0.61086000  0.14132000  1.0
  C  C227  1  0.88914000  0.13162000  0.12055000  1.0
  C  C228  1  0.61085000  0.64132000  0.37945000  1.0
  C  C229  1  0.13162000  0.85869000  0.12055000  1.0
  C  C230  1  0.85868000  0.13162000  0.38914000  1.0
  C  C231  1  0.88914000  0.62055000  0.35869000  1.0
  C  C232  1  0.62055000  0.88914000  0.63162000  1.0
  C  C233  1  0.64131000  0.61086000  0.86838000  1.0
  C  C234  1  0.36839000  0.87944000  0.14131000  1.0
  C  C235  1  0.87944000  0.36838000  0.11086000  1.0
  C  C236  1  0.63162000  0.38914000  0.62055000  1.0
  C  C237  1  0.11086000  0.14132000  0.36838000  1.0
  C  C238  1  0.35869000  0.12055000  0.88915000  1.0
  C  C239  1  0.37945000  0.86838000  0.64131000  1.0
  C  C240  1  0.38915000  0.63162000  0.85868000  1.0
  C  C241  1  0.86838000  0.37945000  0.61086000  1.0
  C  C242  1  0.12055000  0.35869000  0.13162000  1.0
  C  C243  1  0.14133000  0.11086000  0.87944000  1.0
  C  C244  1  0.35868000  0.63162000  0.62055000  1.0
  C  C245  1  0.86838000  0.11086000  0.64131000  1.0
  C  C246  1  0.38914000  0.12055000  0.13162000  1.0
  C  C247  1  0.37945000  0.14132000  0.61086000  1.0
  C  C248  1  0.63161000  0.35869000  0.88914000  1.0
  C  C249  1  0.14131000  0.37945000  0.36838000  1.0
  C  C250  1  0.12055000  0.38915000  0.85869000  1.0
  C  C251  1  0.11085000  0.86838000  0.87945000  1.0
  C  C252  1  0.38914000  0.35869000  0.62056000  1.0
  C  C253  1  0.86838000  0.14131000  0.87945000  1.0
  C  C254  1  0.14131000  0.86838000  0.61086000  1.0
  C  C255  1  0.11087000  0.37944000  0.64132000  1.0
  C  C256  1  0.37944000  0.11086000  0.36838000  1.0
  C  C257  1  0.35869000  0.38914000  0.13161000  1.0
  C  C258  1  0.63162000  0.12055000  0.85868000  1.0
  C  C259  1  0.12055000  0.63162000  0.88914000  1.0
  O  O260  1  0.25000000  0.75000000  0.38021000  1.0
  O  O261  1  0.74999000  0.88022000  0.75000000  1.0
  O  O262  1  0.61979000  0.88022000  0.25000000  1.0
  O  O263  1  0.61978000  0.25000000  0.38022000  1.0
  O  O264  1  0.75000000  0.25000000  0.11978000  1.0
  O  O265  1  0.24999000  0.61979000  0.25000000  1.0
  O  O266  1  0.88022000  0.61978000  0.75000000  1.0
  O  O267  1  0.88021000  0.75000000  0.11979000  1.0
  O  O268  1  0.75000000  0.61979000  0.38022000  1.0
  O  O269  1  0.25000000  0.88022000  0.11978000  1.0
  O  O270  1  0.88021000  0.25000000  0.25000000  1.0
  O  O271  1  0.61978000  0.75000000  0.75000000  1.0
  O  O272  1  0.75000000  0.25000000  0.61978000  1.0
  O  O273  1  0.25000000  0.11979000  0.24999000  1.0
  O  O274  1  0.38022000  0.11979000  0.75000000  1.0
  O  O275  1  0.38022000  0.75000000  0.61978000  1.0
  O  O276  1  0.25000000  0.75000000  0.88021000  1.0
  O  O277  1  0.74999000  0.38022000  0.75000000  1.0
  O  O278  1  0.11978000  0.38022000  0.25000000  1.0
  O  O279  1  0.11979000  0.25000000  0.88022000  1.0
  O  O280  1  0.25000000  0.38022000  0.61979000  1.0
  O  O281  1  0.75000000  0.11978000  0.88022000  1.0
  O  O282  1  0.11978000  0.75000000  0.75000000  1.0
  O  O283  1  0.38022000  0.25000000  0.24999000  1.0
  O  O284  1  0.42254000  0.53980000  0.41265000  1.0
  O  O285  1  0.96021000  0.87499000  0.57745000  1.0
  O  O286  1  0.62500000  0.91265000  0.03980000  1.0
  O  O287  1  0.58734000  0.07745000  0.37500000  1.0
  O  O288  1  0.53979000  0.42255000  0.12501000  1.0
  O  O289  1  0.07746000  0.58735000  0.46020000  1.0
  O  O290  1  0.91265000  0.62501000  0.92255000  1.0
  O  O291  1  0.87500000  0.96020000  0.08735000  1.0
  O  O292  1  0.62500000  0.42255000  0.41265000  1.0
  O  O293  1  0.07745000  0.96021000  0.37499000  1.0
  O  O294  1  0.53979000  0.91265000  0.92255000  1.0
  O  O295  1  0.58734000  0.87500000  0.46021000  1.0
  O  O296  1  0.42255000  0.62501000  0.03979000  1.0
  O  O297  1  0.87499000  0.58735000  0.57745000  1.0
  O  O298  1  0.91264000  0.53980000  0.12501000  1.0
  O  O299  1  0.96021000  0.07745000  0.08735000  1.0
  O  O300  1  0.53979000  0.62501000  0.41265000  1.0
  O  O301  1  0.07744000  0.87500000  0.08735000  1.0
  O  O302  1  0.87500000  0.07745000  0.46020000  1.0
  O  O303  1  0.96020000  0.58735000  0.37500000  1.0
  O  O304  1  0.58734000  0.96021000  0.57745000  1.0
  O  O305  1  0.62500000  0.53980000  0.92255000  1.0
  O  O306  1  0.42255000  0.91265000  0.12500000  1.0
  O  O307  1  0.91264000  0.42255000  0.03980000  1.0
  O  O308  1  0.57744000  0.46021000  0.58735000  1.0
  O  O309  1  0.03979000  0.12501000  0.42255000  1.0
  O  O310  1  0.37499000  0.08735000  0.96021000  1.0
  O  O311  1  0.41265000  0.92255000  0.62501000  1.0
  O  O312  1  0.46021000  0.57745000  0.87499000  1.0
  O  O313  1  0.92254000  0.41265000  0.53980000  1.0
  O  O314  1  0.08735000  0.37499000  0.07745000  1.0
  O  O315  1  0.12500000  0.03980000  0.91265000  1.0
  O  O316  1  0.37499000  0.57745000  0.58735000  1.0
  O  O317  1  0.92256000  0.03979000  0.62500000  1.0
  O  O318  1  0.46022000  0.08734000  0.07745000  1.0
  O  O319  1  0.41264000  0.12501000  0.53980000  1.0
  O  O320  1  0.57746000  0.37499000  0.96020000  1.0
  O  O321  1  0.12501000  0.41264000  0.42255000  1.0
  O  O322  1  0.08734000  0.46021000  0.87500000  1.0
  O  O323  1  0.03980000  0.92254000  0.91265000  1.0
  O  O324  1  0.46021000  0.37499000  0.58735000  1.0
  O  O325  1  0.92255000  0.12501000  0.91264000  1.0
  O  O326  1  0.12501000  0.92255000  0.53979000  1.0
  O  O327  1  0.03981000  0.41264000  0.62501000  1.0
  O  O328  1  0.41265000  0.03980000  0.42255000  1.0
  O  O329  1  0.37499000  0.46021000  0.07745000  1.0
  O  O330  1  0.57745000  0.08735000  0.87499000  1.0
  O  O331  1  0.08736000  0.57745000  0.96020000  1.0
  O  O332  1  0.35673000  0.62678000  0.30952000  1.0
  O  O333  1  0.87322000  0.79304000  0.64326000  1.0
  O  O334  1  0.70697000  0.80952000  0.12678000  1.0
  O  O335  1  0.69048000  0.14326000  0.29304000  1.0
  O  O336  1  0.62678000  0.35674000  0.20696000  1.0
  O  O337  1  0.14326000  0.69048000  0.37322000  1.0
  O  O338  1  0.80952000  0.70696000  0.85674000  1.0
  O  O339  1  0.79304000  0.87322000  0.19048000  1.0
  O  O340  1  0.70696000  0.35674000  0.30952000  1.0
  O  O341  1  0.14326000  0.87322000  0.29304000  1.0
  O  O342  1  0.62678000  0.80952000  0.85673000  1.0
  O  O343  1  0.69048000  0.79304000  0.37322000  1.0
  O  O344  1  0.35674000  0.70697000  0.12677000  1.0
  O  O345  1  0.79304000  0.69048000  0.64326000  1.0
  O  O346  1  0.80951000  0.62678000  0.20697000  1.0
  O  O347  1  0.87322000  0.14326000  0.19048000  1.0
  O  O348  1  0.62678000  0.70697000  0.30952000  1.0
  O  O349  1  0.14326000  0.79304000  0.19048000  1.0
  O  O350  1  0.79304000  0.14326000  0.37322000  1.0
  O  O351  1  0.87323000  0.69048000  0.29304000  1.0
  O  O352  1  0.69048000  0.87322000  0.64326000  1.0
  O  O353  1  0.70696000  0.62678000  0.85674000  1.0
  O  O354  1  0.35674000  0.80952000  0.20696000  1.0
  O  O355  1  0.80951000  0.35674000  0.12678000  1.0
  O  O356  1  0.64326000  0.37322000  0.69048000  1.0
  O  O357  1  0.12677000  0.20697000  0.35674000  1.0
  O  O358  1  0.29305000  0.19048000  0.87322000  1.0
  O  O359  1  0.30952000  0.85674000  0.70696000  1.0
  O  O360  1  0.37323000  0.64326000  0.79303000  1.0
  O  O361  1  0.85674000  0.30952000  0.62678000  1.0
  O  O362  1  0.19048000  0.29304000  0.14326000  1.0
  O  O363  1  0.20697000  0.12678000  0.80952000  1.0
  O  O364  1  0.29304000  0.64326000  0.69048000  1.0
  O  O365  1  0.85674000  0.12678000  0.70696000  1.0
  O  O366  1  0.37322000  0.19048000  0.14326000  1.0
  O  O367  1  0.30952000  0.20697000  0.62678000  1.0
  O  O368  1  0.64326000  0.29304000  0.87322000  1.0
  O  O369  1  0.20697000  0.30952000  0.35673000  1.0
  O  O370  1  0.19049000  0.37322000  0.79304000  1.0
  O  O371  1  0.12677000  0.85674000  0.80952000  1.0
  O  O372  1  0.37322000  0.29304000  0.69049000  1.0
  O  O373  1  0.85674000  0.20696000  0.80952000  1.0
  O  O374  1  0.20697000  0.85674000  0.62677000  1.0
  O  O375  1  0.12678000  0.30952000  0.70697000  1.0
  O  O376  1  0.30952000  0.12678000  0.35673000  1.0
  O  O377  1  0.29304000  0.37322000  0.14325000  1.0
  O  O378  1  0.64327000  0.19048000  0.79303000  1.0
  O  O379  1  0.19048000  0.64326000  0.87322000  1.0
  O  O380  1  0.96347000  0.96345000  0.28652000  1.0
  O  O381  1  0.53653000  0.71348000  0.03655000  1.0
  O  O382  1  0.78652000  0.78656000  0.46347000  1.0
  O  O383  1  0.71346000  0.53654000  0.21346000  1.0
  O  O384  1  0.78653000  0.96346000  0.28655000  1.0
  O  O385  1  0.53653000  0.53655000  0.21344000  1.0
  O  O386  1  0.96346000  0.78655000  0.46345000  1.0
  O  O387  1  0.71346000  0.71345000  0.03655000  1.0
  O  O388  1  0.96346000  0.78654000  0.28654000  1.0
  O  O389  1  0.53653000  0.71344000  0.21348000  1.0
  O  O390  1  0.71346000  0.53654000  0.03654000  1.0
  O  O391  1  0.78654000  0.96346000  0.46345000  1.0
  O  O392  1  0.03654000  0.03654000  0.71346000  1.0
  O  O393  1  0.46347000  0.28652000  0.96345000  1.0
  O  O394  1  0.21348000  0.21344000  0.53653000  1.0
  O  O395  1  0.28654000  0.46346000  0.78654000  1.0
  O  O396  1  0.21346000  0.03654000  0.71346000  1.0
  O  O397  1  0.46347000  0.46345000  0.78655000  1.0
  O  O398  1  0.03654000  0.21346000  0.53654000  1.0
  O  O399  1  0.28654000  0.28655000  0.96345000  1.0
  O  O400  1  0.03654000  0.21347000  0.71344000  1.0
  O  O401  1  0.46346000  0.28656000  0.78653000  1.0
  O  O402  1  0.28656000  0.46346000  0.96345000  1.0
  O  O403  1  0.21347000  0.03653000  0.53655000  1.0
