# generated using pymatgen
data_Cd7H48C64(N8O13)2
_symmetry_space_group_name_H-M   'P 1'
_cell_length_a   7.47602000
_cell_length_b   11.86100000
_cell_length_c   20.97810000
_cell_angle_alpha   95.79420000
_cell_angle_beta   92.49680000
_cell_angle_gamma   102.02600000
_symmetry_Int_Tables_number   1
_chemical_formula_structural   Cd7H48C64(N8O13)2
_chemical_formula_sum   'Cd7 H48 C64 N16 O26'
_cell_volume   1806.07886135
_cell_formula_units_Z   1
loop_
 _symmetry_equiv_pos_site_id
 _symmetry_equiv_pos_as_xyz
  1  'x, y, z'
loop_
 _atom_site_type_symbol
 _atom_site_label
 _atom_site_symmetry_multiplicity
 _atom_site_fract_x
 _atom_site_fract_y
 _atom_site_fract_z
 _atom_site_occupancy
  Cd  Cd0  1  0.00000000  0.00000000  0.00000000  1.0
  Cd  Cd1  1  0.34648000  0.15321000  0.90484000  1.0
  Cd  Cd2  1  0.65352000  0.84679000  0.09516000  1.0
  Cd  Cd3  1  0.25248000  0.98473000  0.52069000  1.0
  Cd  Cd4  1  0.74751000  0.01526000  0.47931000  1.0
  Cd  Cd5  1  0.60254000  0.83315000  0.90963000  1.0
  Cd  Cd6  1  0.39746000  0.16685000  0.09037000  1.0
  H  H7  1  0.92758000  0.21062000  0.86588000  1.0
  H  H8  1  0.07243000  0.78938000  0.13412000  1.0
  H  H9  1  0.42833000  0.45547000  0.87590000  1.0
  H  H10  1  0.57167000  0.54453000  0.12410000  1.0
  H  H11  1  0.14939000  0.56051000  0.83993000  1.0
  H  H12  1  0.85062000  0.43949000  0.16007000  1.0
  H  H13  1  0.76415000  0.47073000  0.84539000  1.0
  H  H14  1  0.23585000  0.52927000  0.15461000  1.0
  H  H15  1  0.70864000  0.31821000  0.84018000  1.0
  H  H16  1  0.29137000  0.68179000  0.15982000  1.0
  H  H17  1  0.02267000  0.32877000  0.73781000  1.0
  H  H18  1  0.97733000  0.67123000  0.26219000  1.0
  H  H19  1  0.82965000  0.21356000  0.73671000  1.0
  H  H20  1  0.17036000  0.78644000  0.26329000  1.0
  H  H21  1  0.09170000  0.42158000  0.62796000  1.0
  H  H22  1  0.90830000  0.57842000  0.37204000  1.0
  H  H23  1  0.03649000  0.29656000  0.50652000  1.0
  H  H24  1  0.96350000  0.70343000  0.49348000  1.0
  H  H25  1  0.69546000  0.10979000  0.63141000  1.0
  H  H26  1  0.30453000  0.89021000  0.36860000  1.0
  H  H27  1  0.97258000  0.54047000  0.74107000  1.0
  H  H28  1  0.02742000  0.45952000  0.25893000  1.0
  H  H29  1  0.82423000  0.49847000  0.67139000  1.0
  H  H30  1  0.17576000  0.50153000  0.32861000  1.0
  H  H31  1  0.52314000  0.57853000  0.66517000  1.0
  H  H32  1  0.47686000  0.42148000  0.33483000  1.0
  H  H33  1  0.85238000  0.65455000  0.84090000  1.0
  H  H34  1  0.14763000  0.34544000  0.15910000  1.0
  H  H35  1  0.38199000  0.72461000  0.74984000  1.0
  H  H36  1  0.61802000  0.27540000  0.25017000  1.0
  H  H37  1  0.34266000  0.11953000  0.68315000  1.0
  H  H38  1  0.65734000  0.88046000  0.31685000  1.0
  H  H39  1  0.42637000  0.27366000  0.51119000  1.0
  H  H40  1  0.57361000  0.72633000  0.48881000  1.0
  H  H41  1  0.59003000  0.43312000  0.61175000  1.0
  H  H42  1  0.40995000  0.56688000  0.38825000  1.0
  H  H43  1  0.51511000  0.26231000  0.76197000  1.0
  H  H44  1  0.48489000  0.73769000  0.23804000  1.0
  H  H45  1  0.48233000  0.40350000  0.75164000  1.0
  H  H46  1  0.51767000  0.59650000  0.24836000  1.0
  H  H47  1  0.08166000  0.95128000  0.72852000  1.0
  H  H48  1  0.91834000  0.04872000  0.27148000  1.0
  H  H49  1  0.41710000  0.93526000  0.69992000  1.0
  H  H50  1  0.58290000  0.06474000  0.30008000  1.0
  H  H51  1  0.68558000  0.52982000  0.98021000  1.0
  H  H52  1  0.31441000  0.47018000  0.01979000  1.0
  H  H53  1  0.35067000  0.98266000  0.98226000  1.0
  H  H54  1  0.64934000  0.01734000  0.01774000  1.0
  C  C55  1  0.02981000  0.28844000  0.86162000  1.0
  C  C56  1  0.97021000  0.71156000  0.13838000  1.0
  C  C57  1  0.28354000  0.41791000  0.86584000  1.0
  C  C58  1  0.71647000  0.58210000  0.13416000  1.0
  C  C59  1  0.14574000  0.47090000  0.84713000  1.0
  C  C60  1  0.85426000  0.52910000  0.15287000  1.0
  C  C61  1  0.79857000  0.39172000  0.82210000  1.0
  C  C62  1  0.20143000  0.60828000  0.17790000  1.0
  C  C63  1  0.76452000  0.38328000  0.74706000  1.0
  C  C64  1  0.23547000  0.61672000  0.25294000  1.0
  C  C65  1  0.87971000  0.29772000  0.71889000  1.0
  C  C66  1  0.12029000  0.70228000  0.28111000  1.0
  C  C67  1  0.99822000  0.34081000  0.60992000  1.0
  C  C68  1  0.00178000  0.65918000  0.39008000  1.0
  C  C69  1  0.97052000  0.27794000  0.55032000  1.0
  C  C70  1  0.02947000  0.72206000  0.44968000  1.0
  C  C71  1  0.79392000  0.17739000  0.61318000  1.0
  C  C72  1  0.20608000  0.82261000  0.38682000  1.0
  C  C73  1  0.82878000  0.50507000  0.72393000  1.0
  C  C74  1  0.17122000  0.49493000  0.27607000  1.0
  C  C75  1  0.56580000  0.61078000  0.71478000  1.0
  C  C76  1  0.43421000  0.38923000  0.28522000  1.0
  C  C77  1  0.74123000  0.65141000  0.80541000  1.0
  C  C78  1  0.25877000  0.34859000  0.19459000  1.0
  C  C79  1  0.49810000  0.68479000  0.75721000  1.0
  C  C80  1  0.50192000  0.31522000  0.24279000  1.0
  C  C81  1  0.38496000  0.18196000  0.64943000  1.0
  C  C82  1  0.61503000  0.81803000  0.35057000  1.0
  C  C83  1  0.42763000  0.26589000  0.56229000  1.0
  C  C84  1  0.57236000  0.73411000  0.43771000  1.0
  C  C85  1  0.51184000  0.34576000  0.61215000  1.0
  C  C86  1  0.48814000  0.65424000  0.38785000  1.0
  C  C87  1  0.55434000  0.33576000  0.73390000  1.0
  C  C88  1  0.44566000  0.66424000  0.26610000  1.0
  C  C89  1  0.54483000  0.86026000  0.59171000  1.0
  C  C90  1  0.45517000  0.13973000  0.40829000  1.0
  C  C91  1  0.65704000  0.90565000  0.65398000  1.0
  C  C92  1  0.34296000  0.09435000  0.34602000  1.0
  C  C93  1  0.84836000  0.91625000  0.66104000  1.0
  C  C94  1  0.15164000  0.08375000  0.33896000  1.0
  C  C95  1  0.93471000  0.94560000  0.72247000  1.0
  C  C96  1  0.06529000  0.05440000  0.27753000  1.0
  C  C97  1  0.84110000  0.97153000  0.77630000  1.0
  C  C98  1  0.15891000  0.02847000  0.22370000  1.0
  C  C99  1  0.65378000  0.97364000  0.76793000  1.0
  C  C100  1  0.34622000  0.02636000  0.23207000  1.0
  C  C101  1  0.56369000  0.93806000  0.70705000  1.0
  C  C102  1  0.43631000  0.06194000  0.29295000  1.0
  C  C103  1  0.54926000  0.02130000  0.82044000  1.0
  C  C104  1  0.45075000  0.97870000  0.17956000  1.0
  C  C105  1  0.95180000  0.99895000  0.83925000  1.0
  C  C106  1  0.04821000  0.00105000  0.16075000  1.0
  C  C107  1  0.96886000  0.91279000  0.60555000  1.0
  C  C108  1  0.03113000  0.08720000  0.39445000  1.0
  C  C109  1  0.68162000  0.31284000  0.00352000  1.0
  C  C110  1  0.31838000  0.68716000  0.99648000  1.0
  C  C111  1  0.84940000  0.40649000  0.00057000  1.0
  C  C112  1  0.15060000  0.59351000  0.99943000  1.0
  C  C113  1  0.02817000  0.39082000  0.01193000  1.0
  C  C114  1  0.97182000  0.60918000  0.98807000  1.0
  C  C115  1  0.82362000  0.51550000  0.98831000  1.0
  C  C116  1  0.17638000  0.48450000  0.01169000  1.0
  C  C117  1  0.06997000  0.27552000  0.02170000  1.0
  C  C118  1  0.93004000  0.72449000  0.97830000  1.0
  N  N119  1  0.20951000  0.30399000  0.87443000  1.0
  N  N120  1  0.79051000  0.69602000  0.12557000  1.0
  N  N121  1  0.98444000  0.38718000  0.84466000  1.0
  N  N122  1  0.01557000  0.61282000  0.15534000  1.0
  N  N123  1  0.72068000  0.58916000  0.74617000  1.0
  N  N124  1  0.27933000  0.41084000  0.25383000  1.0
  N  N125  1  0.60827000  0.70935000  0.81348000  1.0
  N  N126  1  0.39175000  0.29065000  0.18652000  1.0
  N  N127  1  0.34844000  0.16428000  0.58614000  1.0
  N  N128  1  0.65156000  0.83572000  0.41387000  1.0
  N  N129  1  0.48617000  0.29155000  0.66766000  1.0
  N  N130  1  0.51383000  0.70845000  0.33234000  1.0
  N  N131  1  0.84302000  0.17650000  0.55325000  1.0
  N  N132  1  0.15696000  0.82349000  0.44675000  1.0
  N  N133  1  0.88380000  0.27586000  0.64951000  1.0
  N  N134  1  0.11619000  0.72414000  0.35049000  1.0
  O  O135  1  0.89998000  0.90698000  0.54828000  1.0
  O  O136  1  0.10003000  0.09302000  0.45172000  1.0
  O  O137  1  0.14005000  0.92349000  0.61879000  1.0
  O  O138  1  0.85995000  0.07651000  0.38121000  1.0
  O  O139  1  0.47719000  0.75433000  0.58303000  1.0
  O  O140  1  0.52281000  0.24566000  0.41697000  1.0
  O  O141  1  0.52423000  0.93788000  0.55442000  1.0
  O  O142  1  0.47576000  0.06211000  0.44558000  1.0
  O  O143  1  0.11912000  0.04540000  0.83654000  1.0
  O  O144  1  0.88090000  0.95460000  0.16346000  1.0
  O  O145  1  0.87363000  0.97357000  0.89061000  1.0
  O  O146  1  0.12639000  0.02643000  0.10939000  1.0
  O  O147  1  0.54504000  0.12845000  0.82191000  1.0
  O  O148  1  0.45496000  0.87155000  0.17809000  1.0
  O  O149  1  0.46450000  0.95648000  0.85900000  1.0
  O  O150  1  0.53550000  0.04352000  0.14100000  1.0
  O  O151  1  0.57221000  0.29496000  0.95369000  1.0
  O  O152  1  0.42779000  0.70504000  0.04631000  1.0
  O  O153  1  0.66112000  0.26695000  0.05561000  1.0
  O  O154  1  0.33888000  0.73305000  0.94439000  1.0
  O  O155  1  0.21213000  0.28052000  0.05815000  1.0
  O  O156  1  0.78787000  0.71948000  0.94185000  1.0
  O  O157  1  0.96650000  0.18536000  0.99190000  1.0
  O  O158  1  0.03351000  0.81464000  0.00810000  1.0
  O  O159  1  0.31089000  0.05571000  0.99078000  1.0
  O  O160  1  0.68912000  0.94429000  0.00922000  1.0
