# generated using pymatgen
data_FeH6(C2O3)2
_symmetry_space_group_name_H-M   'P 1'
_cell_length_a   7.84621000
_cell_length_b   8.81500000
_cell_length_c   9.09739000
_cell_angle_alpha   89.93470000
_cell_angle_beta   89.96450000
_cell_angle_gamma   89.77420000
_symmetry_Int_Tables_number   1
_chemical_formula_structural   FeH6(C2O3)2
_chemical_formula_sum   'Fe4 H24 C16 O24'
_cell_volume   629.20957166
_cell_formula_units_Z   4
loop_
 _symmetry_equiv_pos_site_id
 _symmetry_equiv_pos_as_xyz
  1  'x, y, z'
loop_
 _atom_site_type_symbol
 _atom_site_label
 _atom_site_symmetry_multiplicity
 _atom_site_fract_x
 _atom_site_fract_y
 _atom_site_fract_z
 _atom_site_occupancy
  Fe  Fe0  1  0.89859000  0.11311000  0.92771000  1.0
  Fe  Fe1  1  0.60050000  0.61373000  0.07207000  1.0
  Fe  Fe2  1  0.39909000  0.88623000  0.57236000  1.0
  Fe  Fe3  1  0.10241000  0.38830000  0.42708000  1.0
  H  H4  1  0.99880000  0.96774000  0.66042000  1.0
  H  H5  1  0.50117000  0.46517000  0.34020000  1.0
  H  H6  1  0.50031000  0.03493000  0.83956000  1.0
  H  H7  1  0.00015000  0.53412000  0.16040000  1.0
  H  H8  1  0.96583000  0.14571000  0.64588000  1.0
  H  H9  1  0.53048000  0.64315000  0.35510000  1.0
  H  H10  1  0.47151000  0.85659000  0.85401000  1.0
  H  H11  1  0.03226000  0.35571000  0.14692000  1.0
  H  H12  1  0.15811000  0.73893000  0.00617000  1.0
  H  H13  1  0.34109000  0.24211000  0.99450000  1.0
  H  H14  1  0.65562000  0.25871000  0.49262000  1.0
  H  H15  1  0.84483000  0.76302000  0.50824000  1.0
  H  H16  1  0.23634000  0.95897000  0.91272000  1.0
  H  H17  1  0.26423000  0.46209000  0.08686000  1.0
  H  H18  1  0.73371000  0.03903000  0.58679000  1.0
  H  H19  1  0.76598000  0.54178000  0.41316000  1.0
  H  H20  1  0.13652000  0.97064000  0.25460000  1.0
  H  H21  1  0.35973000  0.47052000  0.74269000  1.0
  H  H22  1  0.64141000  0.02772000  0.24361000  1.0
  H  H23  1  0.86209000  0.52589000  0.75236000  1.0
  H  H24  1  0.09259000  0.77732000  0.28808000  1.0
  H  H25  1  0.40474000  0.27674000  0.71185000  1.0
  H  H26  1  0.59455000  0.22083000  0.21010000  1.0
  H  H27  1  0.90782000  0.71771000  0.79029000  1.0
  C  C28  1  0.09528000  0.83800000  0.05692000  1.0
  C  C29  1  0.40379000  0.34013000  0.94231000  1.0
  C  C30  1  0.59384000  0.16000000  0.44125000  1.0
  C  C31  1  0.90697000  0.66297000  0.55784000  1.0
  C  C32  1  0.90371000  0.80797000  0.05524000  1.0
  C  C33  1  0.59527000  0.30865000  0.94448000  1.0
  C  C34  1  0.40232000  0.19073000  0.44236000  1.0
  C  C35  1  0.09853000  0.69218000  0.55794000  1.0
  C  C36  1  0.34875000  0.81632000  0.22830000  1.0
  C  C37  1  0.14918000  0.31639000  0.77269000  1.0
  C  C38  1  0.84980000  0.18449000  0.27334000  1.0
  C  C39  1  0.65184000  0.68287000  0.72776000  1.0
  C  C40  1  0.16106000  0.85500000  0.21437000  1.0
  C  C41  1  0.33666000  0.35551000  0.78505000  1.0
  C  C42  1  0.66270000  0.14342000  0.28467000  1.0
  C  C43  1  0.83923000  0.64269000  0.71445000  1.0
  O  O44  1  0.41874000  0.81560000  0.35426000  1.0
  O  O45  1  0.07753000  0.31646000  0.64757000  1.0
  O  O46  1  0.92354000  0.18225000  0.14901000  1.0
  O  O47  1  0.58068000  0.68307000  0.85338000  1.0
  O  O48  1  0.91574000  0.04975000  0.68566000  1.0
  O  O49  1  0.58255000  0.54805000  0.31506000  1.0
  O  O50  1  0.41949000  0.95176000  0.81393000  1.0
  O  O51  1  0.08271000  0.45162000  0.18595000  1.0
  O  O52  1  0.42849000  0.77828000  0.11159000  1.0
  O  O53  1  0.07163000  0.27730000  0.88998000  1.0
  O  O54  1  0.92447000  0.22685000  0.39066000  1.0
  O  O55  1  0.57372000  0.72250000  0.61086000  1.0
  O  O56  1  0.80432000  0.90431000  0.99818000  1.0
  O  O57  1  0.69450000  0.40382000  0.00222000  1.0
  O  O58  1  0.30298000  0.09510000  0.49909000  1.0
  O  O59  1  0.19809000  0.59524000  0.50246000  1.0
  O  O60  1  0.85394000  0.68156000  0.11086000  1.0
  O  O61  1  0.64513000  0.18185000  0.88929000  1.0
  O  O62  1  0.35274000  0.31808000  0.38725000  1.0
  O  O63  1  0.14807000  0.81884000  0.61329000  1.0
  O  O64  1  0.12893000  0.97014000  0.97143000  1.0
  O  O65  1  0.37011000  0.47343000  0.02620000  1.0
  O  O66  1  0.62736000  0.02764000  0.52690000  1.0
  O  O67  1  0.87515000  0.53267000  0.46961000  1.0
