# generated using pymatgen
data_ZnH14C15(NO2)2
_symmetry_space_group_name_H-M   'P 1'
_cell_length_a   7.88695000
_cell_length_b   9.42566000
_cell_length_c   10.38150000
_cell_angle_alpha   109.57400000
_cell_angle_beta   94.15990000
_cell_angle_gamma   104.07900000
_symmetry_Int_Tables_number   1
_chemical_formula_structural   ZnH14C15(NO2)2
_chemical_formula_sum   'Zn2 H28 C30 N4 O8'
_cell_volume   695.22385166
_cell_formula_units_Z   2
loop_
 _symmetry_equiv_pos_site_id
 _symmetry_equiv_pos_as_xyz
  1  'x, y, z'
loop_
 _atom_site_type_symbol
 _atom_site_label
 _atom_site_symmetry_multiplicity
 _atom_site_fract_x
 _atom_site_fract_y
 _atom_site_fract_z
 _atom_site_occupancy
  Zn  Zn0  1  0.84216000  0.01159000  0.85920000  1.0
  Zn  Zn1  1  0.15784000  0.98841000  0.14080000  1.0
  H  H2  1  0.63297000  0.06394000  0.10012000  1.0
  H  H3  1  0.36703000  0.93605000  0.89988000  1.0
  H  H4  1  0.67088000  0.65451000  0.72628000  1.0
  H  H5  1  0.32912000  0.34549000  0.27373000  1.0
  H  H6  1  0.03601000  0.96453000  0.61176000  1.0
  H  H7  1  0.96400000  0.03547000  0.38824000  1.0
  H  H8  1  0.04446000  0.75808000  0.39130000  1.0
  H  H9  1  0.95555000  0.24192000  0.60870000  1.0
  H  H10  1  0.62770000  0.26275000  0.31771000  1.0
  H  H11  1  0.37230000  0.73724000  0.68229000  1.0
  H  H12  1  0.03715000  0.36701000  0.00618000  1.0
  H  H13  1  0.96284000  0.63299000  0.99381000  1.0
  H  H14  1  0.51438000  0.26762000  0.96422000  1.0
  H  H15  1  0.48562000  0.73238000  0.03579000  1.0
  H  H16  1  0.39289000  0.40494000  0.98697000  1.0
  H  H17  1  0.60711000  0.59506000  0.01304000  1.0
  H  H18  1  0.65979000  0.43030000  0.51140000  1.0
  H  H19  1  0.34022000  0.56970000  0.48860000  1.0
  H  H20  1  0.05453000  0.58533000  0.22451000  1.0
  H  H21  1  0.94546000  0.41467000  0.77548000  1.0
  H  H22  1  0.51305000  0.38443000  0.77496000  1.0
  H  H23  1  0.48696000  0.61557000  0.22505000  1.0
  H  H24  1  0.28063000  0.29891000  0.73039000  1.0
  H  H25  1  0.71937000  0.70109000  0.26961000  1.0
  H  H26  1  0.43448000  0.13840000  0.56832000  1.0
  H  H27  1  0.56553000  0.86160000  0.43168000  1.0
  H  H28  1  0.32400000  0.03059000  0.66474000  1.0
  H  H29  1  0.67601000  0.96941000  0.33527000  1.0
  C  C30  1  0.84382000  0.44614000  0.29570000  1.0
  C  C31  1  0.15618000  0.55386000  0.70430000  1.0
  C  C32  1  0.84904000  0.57300000  0.42838000  1.0
  C  C33  1  0.15096000  0.42700000  0.57162000  1.0
  C  C34  1  0.72644000  0.18010000  0.13093000  1.0
  C  C35  1  0.27356000  0.81990000  0.86908000  1.0
  C  C36  1  0.74988000  0.67074000  0.64772000  1.0
  C  C37  1  0.25012000  0.32926000  0.35228000  1.0
  C  C38  1  0.95439000  0.84403000  0.58390000  1.0
  C  C39  1  0.04561000  0.15598000  0.41610000  1.0
  C  C40  1  0.95729000  0.72700000  0.46051000  1.0
  C  C41  1  0.04271000  0.27300000  0.53950000  1.0
  C  C42  1  0.72446000  0.29571000  0.25565000  1.0
  C  C43  1  0.27554000  0.70428000  0.74434000  1.0
  C  C44  1  0.95041000  0.34977000  0.07988000  1.0
  C  C45  1  0.04958000  0.65023000  0.92011000  1.0
  C  C46  1  0.39590000  0.28749000  0.91907000  1.0
  C  C47  1  0.60410000  0.71250000  0.08093000  1.0
  C  C48  1  0.23346000  0.17559000  0.93865000  1.0
  C  C49  1  0.76654000  0.82441000  0.06135000  1.0
  C  C50  1  0.74440000  0.54668000  0.52657000  1.0
  C  C51  1  0.25560000  0.45332000  0.47343000  1.0
  C  C52  1  0.95752000  0.47218000  0.20237000  1.0
  C  C53  1  0.04246000  0.52782000  0.79762000  1.0
  C  C54  1  0.60760000  0.11149000  0.72248000  1.0
  C  C55  1  0.39240000  0.88851000  0.27752000  1.0
  C  C56  1  0.40412000  0.28415000  0.77181000  1.0
  C  C57  1  0.59588000  0.71585000  0.22819000  1.0
  C  C58  1  0.43264000  0.13259000  0.67235000  1.0
  C  C59  1  0.56736000  0.86741000  0.32765000  1.0
  N  N60  1  0.83934000  0.20444000  0.04442000  1.0
  N  N61  1  0.16065000  0.79556000  0.95558000  1.0
  N  N62  1  0.85307000  0.81774000  0.67691000  1.0
  N  N63  1  0.14693000  0.18226000  0.32310000  1.0
  O  O64  1  0.09510000  0.12259000  0.84635000  1.0
  O  O65  1  0.90490000  0.87742000  0.15365000  1.0
  O  O66  1  0.24695000  0.14994000  0.05098000  1.0
  O  O67  1  0.75304000  0.85005000  0.94901000  1.0
  O  O68  1  0.59752000  0.99937000  0.76947000  1.0
  O  O69  1  0.40248000  0.00062000  0.23052000  1.0
  O  O70  1  0.75148000  0.20455000  0.72176000  1.0
  O  O71  1  0.24852000  0.79545000  0.27825000  1.0
