# generated using pymatgen
data_MnNiH21C19N7O2
_symmetry_space_group_name_H-M   'P 1'
_cell_length_a   9.63266000
_cell_length_b   10.39640000
_cell_length_c   10.39660000
_cell_angle_alpha   70.46600000
_cell_angle_beta   89.40190000
_cell_angle_gamma   89.40550000
_symmetry_Int_Tables_number   1
_chemical_formula_structural   MnNiH21C19N7O2
_chemical_formula_sum   'Mn2 Ni2 H42 C38 N14 O4'
_cell_volume   981.16149414
_cell_formula_units_Z   2
loop_
 _symmetry_equiv_pos_site_id
 _symmetry_equiv_pos_as_xyz
  1  'x, y, z'
loop_
 _atom_site_type_symbol
 _atom_site_label
 _atom_site_symmetry_multiplicity
 _atom_site_fract_x
 _atom_site_fract_y
 _atom_site_fract_z
 _atom_site_occupancy
  Mn  Mn0  1  0.25000000  0.74607000  0.25391000  1.0
  Mn  Mn1  1  0.75000000  0.25390000  0.74610000  1.0
  Ni  Ni2  1  0.00000000  0.00000000  0.50000000  1.0
  Ni  Ni3  1  0.50001000  0.49999000  0.00000000  1.0
  H  H4  1  0.25004000  0.26550000  0.73449000  1.0
  H  H5  1  0.75000000  0.73449000  0.26549000  1.0
  H  H6  1  0.40774000  0.46001000  0.71762000  1.0
  H  H7  1  0.09229000  0.28234000  0.54003000  1.0
  H  H8  1  0.59227000  0.53999000  0.28236000  1.0
  H  H9  1  0.90770000  0.71767000  0.45998000  1.0
  H  H10  1  0.56600000  0.61506000  0.65293000  1.0
  H  H11  1  0.93400000  0.34702000  0.38501000  1.0
  H  H12  1  0.43396000  0.38498000  0.34707000  1.0
  H  H13  1  0.06602000  0.65298000  0.61498000  1.0
  H  H14  1  0.46312000  0.75310000  0.66571000  1.0
  H  H15  1  0.03686000  0.33423000  0.24695000  1.0
  H  H16  1  0.53688000  0.24693000  0.33424000  1.0
  H  H17  1  0.96311000  0.66580000  0.75302000  1.0
  H  H18  1  0.60556000  0.78408000  0.54886000  1.0
  H  H19  1  0.89443000  0.45110000  0.21599000  1.0
  H  H20  1  0.39443000  0.21590000  0.45114000  1.0
  H  H21  1  0.10555000  0.54891000  0.78404000  1.0
  H  H22  1  0.57669000  0.90148000  0.29034000  1.0
  H  H23  1  0.92330000  0.70959000  0.09856000  1.0
  H  H24  1  0.42330000  0.09851000  0.70964000  1.0
  H  H25  1  0.07671000  0.29039000  0.90145000  1.0
  H  H26  1  0.49382000  0.95110000  0.41857000  1.0
  H  H27  1  0.00619000  0.58136000  0.04894000  1.0
  H  H28  1  0.50620000  0.04888000  0.58140000  1.0
  H  H29  1  0.99381000  0.41865000  0.95107000  1.0
  H  H30  1  0.30444000  0.06408000  0.26674000  1.0
  H  H31  1  0.19558000  0.73321000  0.93596000  1.0
  H  H32  1  0.69558000  0.93593000  0.73325000  1.0
  H  H33  1  0.80442000  0.26678000  0.06407000  1.0
  H  H34  1  0.46489000  0.11890000  0.17866000  1.0
  H  H35  1  0.03512000  0.82127000  0.88114000  1.0
  H  H36  1  0.53514000  0.88112000  0.82134000  1.0
  H  H37  1  0.96487000  0.17873000  0.11886000  1.0
  H  H38  1  0.34647000  0.14889000  0.95293000  1.0
  H  H39  1  0.15347000  0.04703000  0.85112000  1.0
  H  H40  1  0.65350000  0.85115000  0.04706000  1.0
  H  H41  1  0.84648000  0.95300000  0.14889000  1.0
  H  H42  1  0.19508000  0.11217000  0.05951000  1.0
  H  H43  1  0.30489000  0.94049000  0.88780000  1.0
  H  H44  1  0.80491000  0.88781000  0.94052000  1.0
  H  H45  1  0.69508000  0.05954000  0.11218000  1.0
  C  C46  1  0.25003000  0.35623000  0.64378000  1.0
  C  C47  1  0.74998000  0.64377000  0.35623000  1.0
  C  C48  1  0.33813000  0.46436000  0.63471000  1.0
  C  C49  1  0.16190000  0.36525000  0.53566000  1.0
  C  C50  1  0.66191000  0.53562000  0.36526000  1.0
  C  C51  1  0.83810000  0.63476000  0.46434000  1.0
  C  C52  1  0.33729000  0.57968000  0.51724000  1.0
  C  C53  1  0.16273000  0.48274000  0.42033000  1.0
  C  C54  1  0.66271000  0.42032000  0.48276000  1.0
  C  C55  1  0.83729000  0.51725000  0.57966000  1.0
  C  C56  1  0.42169000  0.69980000  0.49028000  1.0
  C  C57  1  0.07830000  0.50968000  0.30025000  1.0
  C  C58  1  0.57832000  0.30019000  0.50972000  1.0
  C  C59  1  0.92167000  0.49032000  0.69977000  1.0
  C  C60  1  0.52054000  0.71403000  0.59406000  1.0
  C  C61  1  0.97946000  0.40589000  0.28603000  1.0
  C  C62  1  0.47944000  0.28598000  0.40591000  1.0
  C  C63  1  0.02054000  0.59412000  0.71397000  1.0
  C  C64  1  0.47452000  0.91848000  0.33048000  1.0
  C  C65  1  0.02548000  0.66946000  0.08155000  1.0
  C  C66  1  0.52548000  0.08151000  0.66951000  1.0
  C  C67  1  0.97452000  0.33054000  0.91845000  1.0
  C  C68  1  0.39738000  0.03004000  0.22406000  1.0
  C  C69  1  0.10262000  0.77589000  0.96999000  1.0
  C  C70  1  0.60264000  0.96997000  0.77594000  1.0
  C  C71  1  0.89737000  0.22411000  0.03002000  1.0
  C  C72  1  0.27851000  0.06629000  0.01546000  1.0
  C  C73  1  0.22147000  0.98452000  0.93371000  1.0
  C  C74  1  0.72149000  0.93371000  0.98456000  1.0
  C  C75  1  0.77851000  0.01549000  0.06630000  1.0
  C  C76  1  0.06727000  0.91076000  0.38733000  1.0
  C  C77  1  0.43273000  0.61265000  0.08924000  1.0
  C  C78  1  0.93274000  0.08923000  0.61267000  1.0
  C  C79  1  0.56727000  0.38731000  0.91076000  1.0
  C  C80  1  0.83733000  0.05462000  0.40317000  1.0
  C  C81  1  0.66267000  0.59682000  0.94539000  1.0
  C  C82  1  0.16267000  0.94539000  0.59684000  1.0
  C  C83  1  0.33734000  0.40314000  0.05461000  1.0
  N  N84  1  0.24999000  0.58886000  0.41114000  1.0
  N  N85  1  0.75000000  0.41115000  0.58886000  1.0
  N  N86  1  0.39730000  0.79090000  0.37020000  1.0
  N  N87  1  0.10271000  0.62976000  0.20912000  1.0
  N  N88  1  0.60273000  0.20909000  0.62980000  1.0
  N  N89  1  0.89727000  0.37022000  0.79089000  1.0
  N  N90  1  0.12203000  0.84783000  0.32567000  1.0
  N  N91  1  0.37797000  0.67432000  0.15216000  1.0
  N  N92  1  0.87799000  0.15217000  0.67434000  1.0
  N  N93  1  0.62202000  0.32567000  0.84782000  1.0
  N  N94  1  0.73272000  0.09289000  0.34507000  1.0
  N  N95  1  0.76728000  0.65492000  0.90712000  1.0
  N  N96  1  0.26727000  0.90712000  0.65493000  1.0
  N  N97  1  0.23272000  0.34505000  0.09290000  1.0
  O  O98  1  0.35738000  0.97255000  0.12282000  1.0
  O  O99  1  0.14262000  0.87714000  0.02748000  1.0
  O  O100  1  0.64263000  0.02744000  0.87719000  1.0
  O  O101  1  0.85741000  0.12284000  0.97256000  1.0
