# generated using pymatgen
data_ZnH12C16(NO2)2
_symmetry_space_group_name_H-M   'P 1'
_cell_length_a   8.29622000
_cell_length_b   8.70812000
_cell_length_c   12.28720000
_cell_angle_alpha   104.99000000
_cell_angle_beta   103.71000000
_cell_angle_gamma   106.47800000
_symmetry_Int_Tables_number   1
_chemical_formula_structural   ZnH12C16(NO2)2
_chemical_formula_sum   'Zn2 H24 C32 N4 O8'
_cell_volume   774.72613199
_cell_formula_units_Z   2
loop_
 _symmetry_equiv_pos_site_id
 _symmetry_equiv_pos_as_xyz
  1  'x, y, z'
loop_
 _atom_site_type_symbol
 _atom_site_label
 _atom_site_symmetry_multiplicity
 _atom_site_fract_x
 _atom_site_fract_y
 _atom_site_fract_z
 _atom_site_occupancy
  Zn  Zn0  1  0.90996000  0.19574000  0.30666000  1.0
  Zn  Zn1  1  0.10315000  0.88894000  0.69336000  1.0
  H  H2  1  0.44022000  0.44289000  0.32206000  1.0
  H  H3  1  0.61833000  0.12123000  0.67803000  1.0
  H  H4  1  0.59780000  0.65716000  0.66607000  1.0
  H  H5  1  0.43215000  0.99163000  0.33407000  1.0
  H  H6  1  0.21052000  0.55873000  0.32526000  1.0
  H  H7  1  0.38492000  0.23324000  0.67481000  1.0
  H  H8  1  0.43176000  0.81472000  0.76409000  1.0
  H  H9  1  0.16789000  0.05081000  0.23599000  1.0
  H  H10  1  0.02759000  0.51033000  0.65745000  1.0
  H  H11  1  0.87082000  0.85314000  0.34225000  1.0
  H  H12  1  0.93791000  0.51377000  0.09328000  1.0
  H  H13  1  0.34467000  0.42069000  0.90685000  1.0
  H  H14  1  0.72698000  0.52398000  0.56177000  1.0
  H  H15  1  0.66498000  0.96189000  0.43826000  1.0
  H  H16  1  0.99231000  0.33472000  0.78742000  1.0
  H  H17  1  0.70563000  0.54750000  0.21237000  1.0
  H  H18  1  0.97996000  0.91569000  0.89874000  1.0
  H  H19  1  0.58086000  0.01712000  0.10151000  1.0
  H  H20  1  0.94083000  0.75855000  0.03637000  1.0
  H  H21  1  0.40437000  0.72218000  0.96375000  1.0
  H  H22  1  0.99819000  0.22037000  0.92517000  1.0
  H  H23  1  0.57392000  0.29534000  0.07438000  1.0
  H  H24  1  0.06016000  0.71791000  0.43891000  1.0
  H  H25  1  0.12101000  0.27878000  0.56111000  1.0
  C  C26  1  0.97405000  0.22235000  0.09942000  1.0
  C  C27  1  0.37470000  0.12301000  0.90045000  1.0
  C  C28  1  0.95899000  0.44688000  0.01250000  1.0
  C  C29  1  0.44688000  0.43458000  0.98743000  1.0
  C  C30  1  0.97900000  0.29639000  0.00336000  1.0
  C  C31  1  0.47610000  0.29319000  0.99640000  1.0
  C  C32  1  0.72088000  0.36320000  0.38877000  1.0
  C  C33  1  0.83183000  0.97422000  0.61133000  1.0
  C  C34  1  0.65304000  0.47172000  0.46617000  1.0
  C  C35  1  0.68677000  0.00551000  0.53389000  1.0
  C  C36  1  0.47942000  0.66653000  0.61126000  1.0
  C  C37  1  0.36841000  0.05561000  0.38888000  1.0
  C  C38  1  0.50508000  0.49997000  0.41916000  1.0
  C  C39  1  0.58602000  0.08103000  0.58095000  1.0
  C  C40  1  0.41986000  0.59568000  0.48560000  1.0
  C  C41  1  0.43435000  0.11032000  0.51453000  1.0
  C  C42  1  0.38862000  0.75385000  0.66706000  1.0
  C  C43  1  0.22171000  0.08689000  0.33300000  1.0
  C  C44  1  0.26676000  0.61594000  0.42246000  1.0
  C  C45  1  0.34410000  0.19338000  0.57761000  1.0
  C  C46  1  0.18101000  0.70246000  0.48468000  1.0
  C  C47  1  0.19612000  0.21760000  0.51535000  1.0
  C  C48  1  0.98224000  0.78715000  0.87672000  1.0
  C  C49  1  0.60544000  0.91059000  0.12341000  1.0
  C  C50  1  0.96043000  0.69740000  0.95375000  1.0
  C  C51  1  0.50676000  0.74381000  0.04628000  1.0
  C  C52  1  0.96856000  0.53336000  0.92618000  1.0
  C  C53  1  0.54281000  0.60740000  0.07371000  1.0
  C  C54  1  0.01135000  0.56091000  0.74358000  1.0
  C  C55  1  0.76835000  0.81751000  0.25620000  1.0
  C  C56  1  0.99082000  0.46369000  0.81605000  1.0
  C  C57  1  0.67544000  0.64780000  0.18373000  1.0
  N  N58  1  0.24093000  0.77142000  0.60484000  1.0
  N  N59  1  0.13607000  0.16652000  0.39519000  1.0
  N  N60  1  0.00994000  0.72146000  0.77378000  1.0
  N  N61  1  0.73634000  0.94783000  0.22620000  1.0
  O  O62  1  0.95677000  0.31472000  0.19483000  1.0
  O  O63  1  0.26156000  0.11984000  0.80522000  1.0
  O  O64  1  0.86801000  0.34770000  0.44266000  1.0
  O  O65  1  0.92500000  0.90476000  0.55744000  1.0
  O  O66  1  0.98625000  0.07871000  0.08458000  1.0
  O  O67  1  0.40192000  0.99425000  0.91526000  1.0
  O  O68  1  0.63820000  0.29018000  0.27856000  1.0
  O  O69  1  0.85933000  0.01152000  0.72156000  1.0
