# generated using pymatgen
data_Li2H8C2N10O3
_symmetry_space_group_name_H-M   'P 1'
_cell_length_a   6.82071000
_cell_length_b   7.66103000
_cell_length_c   9.91968000
_cell_angle_alpha   82.78360000
_cell_angle_beta   75.00040000
_cell_angle_gamma   66.79640000
_symmetry_Int_Tables_number   1
_chemical_formula_structural   Li2H8C2N10O3
_chemical_formula_sum   'Li4 H16 C4 N20 O6'
_cell_volume   460.01572711
_cell_formula_units_Z   2
loop_
 _symmetry_equiv_pos_site_id
 _symmetry_equiv_pos_as_xyz
  1  'x, y, z'
loop_
 _atom_site_type_symbol
 _atom_site_label
 _atom_site_symmetry_multiplicity
 _atom_site_fract_x
 _atom_site_fract_y
 _atom_site_fract_z
 _atom_site_occupancy
  Li  Li0  1  0.56666000  0.36524000  0.16566000  1.0
  Li  Li1  1  0.43334000  0.63476000  0.83434000  1.0
  Li  Li2  1  0.48864000  0.14189000  0.56861000  1.0
  Li  Li3  1  0.51136000  0.85811000  0.43139000  1.0
  H  H4  1  0.99469000  0.35050000  0.76904000  1.0
  H  H5  1  0.00531000  0.64950000  0.23096000  1.0
  H  H6  1  0.95922000  0.67844000  0.73806000  1.0
  H  H7  1  0.04078000  0.32156000  0.26194000  1.0
  H  H8  1  0.69401000  0.16434000  0.72886000  1.0
  H  H9  1  0.30599000  0.83566000  0.27114000  1.0
  H  H10  1  0.14692000  0.10217000  0.54995000  1.0
  H  H11  1  0.85307000  0.89783000  0.45005000  1.0
  H  H12  1  0.94152000  0.14253000  0.08761000  1.0
  H  H13  1  0.05848000  0.85747000  0.91239000  1.0
  H  H14  1  0.64978000  0.97868000  0.79803000  1.0
  H  H15  1  0.35022000  0.02132000  0.20198000  1.0
  H  H16  1  0.80693000  0.01160000  0.09403000  1.0
  H  H17  1  0.19307000  0.98840000  0.90597000  1.0
  H  H18  1  0.22892000  0.96514000  0.67644000  1.0
  H  H19  1  0.77108000  0.03486000  0.32356000  1.0
  C  C20  1  0.17514000  0.55816000  0.56110000  1.0
  C  C21  1  0.82486000  0.44184000  0.43890000  1.0
  C  C22  1  0.19915000  0.34914000  0.89121000  1.0
  C  C23  1  0.80085000  0.65086000  0.10879000  1.0
  N  N24  1  0.11512000  0.39628000  0.77516000  1.0
  N  N25  1  0.88488000  0.60372000  0.22484000  1.0
  N  N26  1  0.33767000  0.40862000  0.49174000  1.0
  N  N27  1  0.66233000  0.59138000  0.50826000  1.0
  N  N28  1  0.35598000  0.46363000  0.35628000  1.0
  N  N29  1  0.64403000  0.53636000  0.64372000  1.0
  N  N30  1  0.10546000  0.56820000  0.70509000  1.0
  N  N31  1  0.89454000  0.43180000  0.29491000  1.0
  N  N32  1  0.29487000  0.19936000  0.07525000  1.0
  N  N33  1  0.70513000  0.80064000  0.92475000  1.0
  N  N34  1  0.09308000  0.70155000  0.47376000  1.0
  N  N35  1  0.90692000  0.29845000  0.52624000  1.0
  N  N36  1  0.37553000  0.33219000  0.04491000  1.0
  N  N37  1  0.62447000  0.66782000  0.95509000  1.0
  N  N38  1  0.17937000  0.20528000  0.98084000  1.0
  N  N39  1  0.82063000  0.79473000  0.01916000  1.0
  N  N40  1  0.21199000  0.63770000  0.34525000  1.0
  N  N41  1  0.78801000  0.36230000  0.65475000  1.0
  N  N42  1  0.31941000  0.43040000  0.92853000  1.0
  N  N43  1  0.68059000  0.56960000  0.07147000  1.0
  O  O44  1  0.28068000  0.01263000  0.58218000  1.0
  O  O45  1  0.71932000  0.98737000  0.41782000  1.0
  O  O46  1  0.81320000  0.11420000  0.14342000  1.0
  O  O47  1  0.18681000  0.88580000  0.85658000  1.0
  O  O48  1  0.62528000  0.07580000  0.72093000  1.0
  O  O49  1  0.37472000  0.92420000  0.27907000  1.0
