# generated using pymatgen
data_CdH18C19N4ClO2
_symmetry_space_group_name_H-M   'P 1'
_cell_length_a   9.40557000
_cell_length_b   9.80462000
_cell_length_c   10.77630000
_cell_angle_alpha   86.10530000
_cell_angle_beta   80.81040000
_cell_angle_gamma   72.07310000
_symmetry_Int_Tables_number   1
_chemical_formula_structural   CdH18C19N4ClO2
_chemical_formula_sum   'Cd2 H36 C38 N8 Cl2 O4'
_cell_volume   933.19991726
_cell_formula_units_Z   2
loop_
 _symmetry_equiv_pos_site_id
 _symmetry_equiv_pos_as_xyz
  1  'x, y, z'
loop_
 _atom_site_type_symbol
 _atom_site_label
 _atom_site_symmetry_multiplicity
 _atom_site_fract_x
 _atom_site_fract_y
 _atom_site_fract_z
 _atom_site_occupancy
  Cd  Cd0  1  0.45697000  0.70158000  0.50273000  1.0
  Cd  Cd1  1  0.54303000  0.29842000  0.49727000  1.0
  H  H2  1  0.08667000  0.90572000  0.54852000  1.0
  H  H3  1  0.91333000  0.09428000  0.45148000  1.0
  H  H4  1  0.24158000  0.81881000  0.12080000  1.0
  H  H5  1  0.75842000  0.18119000  0.87919000  1.0
  H  H6  1  0.17257000  0.98585000  0.19489000  1.0
  H  H7  1  0.82743000  0.01416000  0.80511000  1.0
  H  H8  1  0.47837000  0.75810000  0.97185000  1.0
  H  H9  1  0.52163000  0.24190000  0.02815000  1.0
  H  H10  1  0.32665000  0.15727000  0.16650000  1.0
  H  H11  1  0.67335000  0.84274000  0.83350000  1.0
  H  H12  1  0.73591000  0.45875000  0.62411000  1.0
  H  H13  1  0.26409000  0.54125000  0.37588000  1.0
  H  H14  1  0.70672000  0.89725000  0.56292000  1.0
  H  H15  1  0.29328000  0.10275000  0.43707000  1.0
  H  H16  1  0.97606000  0.75257000  0.65549000  1.0
  H  H17  1  0.02393000  0.24743000  0.34451000  1.0
  H  H18  1  0.10461000  0.49876000  0.70108000  1.0
  H  H19  1  0.89539000  0.50124000  0.29892000  1.0
  H  H20  1  0.04365000  0.37092000  0.63472000  1.0
  H  H21  1  0.95635000  0.62908000  0.36528000  1.0
  H  H22  1  0.74737000  0.57277000  0.86925000  1.0
  H  H23  1  0.25263000  0.42723000  0.13074000  1.0
  H  H24  1  0.67299000  0.47789000  0.08073000  1.0
  H  H25  1  0.32701000  0.52211000  0.91927000  1.0
  H  H26  1  0.83730000  0.25133000  0.16228000  1.0
  H  H27  1  0.16270000  0.74867000  0.83772000  1.0
  H  H28  1  0.08419000  0.12611000  0.03398000  1.0
  H  H29  1  0.91582000  0.87390000  0.96602000  1.0
  H  H30  1  0.25608000  0.27793000  0.74907000  1.0
  H  H31  1  0.74392000  0.72207000  0.25093000  1.0
  H  H32  1  0.28739000  0.15428000  0.87529000  1.0
  H  H33  1  0.71261000  0.84572000  0.12471000  1.0
  H  H34  1  0.97448000  0.15295000  0.69081000  1.0
  H  H35  1  0.02552000  0.84705000  0.30919000  1.0
  H  H36  1  0.43888000  0.96212000  0.71761000  1.0
  H  H37  1  0.56112000  0.03788000  0.28239000  1.0
  C  C38  1  0.14207000  0.95230000  0.60736000  1.0
  C  C39  1  0.85793000  0.04770000  0.39264000  1.0
  C  C40  1  0.33141000  0.82886000  0.28911000  1.0
  C  C41  1  0.66860000  0.17114000  0.71089000  1.0
  C  C42  1  0.27630000  0.89766000  0.16663000  1.0
  C  C43  1  0.72370000  0.10235000  0.83337000  1.0
  C  C44  1  0.48774000  0.86444000  0.98458000  1.0
  C  C45  1  0.51226000  0.13556000  0.01542000  1.0
  C  C46  1  0.38896000  0.95173000  0.07926000  1.0
  C  C47  1  0.61105000  0.04827000  0.92074000  1.0
  C  C48  1  0.40257000  0.08815000  0.09300000  1.0
  C  C49  1  0.59744000  0.91186000  0.90700000  1.0
  C  C50  1  0.76132000  0.56024000  0.61835000  1.0
  C  C51  1  0.23867000  0.43976000  0.38165000  1.0
  C  C52  1  0.75256000  0.78504000  0.58835000  1.0
  C  C53  1  0.24744000  0.21496000  0.41165000  1.0
  C  C54  1  0.88515000  0.71598000  0.63461000  1.0
  C  C55  1  0.11485000  0.28402000  0.36539000  1.0
  C  C56  1  0.00697000  0.45895000  0.70198000  1.0
  C  C57  1  0.99303000  0.54105000  0.29802000  1.0
  C  C58  1  0.95882000  0.40428000  0.83196000  1.0
  C  C59  1  0.04118000  0.59572000  0.16804000  1.0
  C  C60  1  0.82187000  0.47457000  0.90512000  1.0
  C  C61  1  0.17813000  0.52543000  0.09488000  1.0
  C  C62  1  0.77876000  0.42086000  0.02365000  1.0
  C  C63  1  0.22124000  0.57914000  0.97635000  1.0
  C  C64  1  0.87193000  0.29409000  0.07023000  1.0
  C  C65  1  0.12807000  0.70591000  0.92977000  1.0
  C  C66  1  0.00936000  0.22440000  0.99841000  1.0
  C  C67  1  0.99064000  0.77560000  0.00160000  1.0
  C  C68  1  0.05500000  0.27863000  0.88031000  1.0
  C  C69  1  0.94500000  0.72137000  0.11969000  1.0
  C  C70  1  0.20787000  0.20327000  0.80912000  1.0
  C  C71  1  0.79213000  0.79673000  0.19088000  1.0
  C  C72  1  0.08599000  0.07470000  0.67744000  1.0
  C  C73  1  0.91401000  0.92530000  0.32257000  1.0
  C  C74  1  0.32881000  0.97500000  0.69159000  1.0
  C  C75  1  0.67119000  0.02500000  0.30841000  1.0
  N  N76  1  0.67668000  0.68667000  0.57907000  1.0
  N  N77  1  0.32331000  0.31333000  0.42093000  1.0
  N  N78  1  0.88883000  0.57405000  0.65279000  1.0
  N  N79  1  0.11117000  0.42595000  0.34721000  1.0
  N  N80  1  0.20580000  0.08691000  0.73041000  1.0
  N  N81  1  0.79421000  0.91309000  0.26959000  1.0
  N  N82  1  0.29344000  0.89155000  0.61687000  1.0
  N  N83  1  0.70656000  0.10845000  0.38313000  1.0
  Cl  Cl84  1  0.37898000  0.51144000  0.65324000  1.0
  Cl  Cl85  1  0.62101000  0.48855000  0.34676000  1.0
  O  O86  1  0.44679000  0.85135000  0.32125000  1.0
  O  O87  1  0.55321000  0.14865000  0.67875000  1.0
  O  O88  1  0.25664000  0.75416000  0.35474000  1.0
  O  O89  1  0.74336000  0.24584000  0.64525000  1.0
