# generated using pymatgen
data_ZnP2H10(C2O3)2
_symmetry_space_group_name_H-M   'P 1'
_cell_length_a   7.88918000
_cell_length_b   7.97659000
_cell_length_c   8.89426916
_cell_angle_alpha   68.44091131
_cell_angle_beta   63.68050888
_cell_angle_gamma   90.01820000
_symmetry_Int_Tables_number   1
_chemical_formula_structural   ZnP2H10(C2O3)2
_chemical_formula_sum   'Zn2 P4 H20 C8 O12'
_cell_volume   457.55238312
_cell_formula_units_Z   2
loop_
 _symmetry_equiv_pos_site_id
 _symmetry_equiv_pos_as_xyz
  1  'x, y, z'
loop_
 _atom_site_type_symbol
 _atom_site_label
 _atom_site_symmetry_multiplicity
 _atom_site_fract_x
 _atom_site_fract_y
 _atom_site_fract_z
 _atom_site_occupancy
  Zn  Zn0  1  0.03808000  0.25004000  0.99988000  1.0
  Zn  Zn1  1  0.96193000  0.74996000  0.00011000  1.0
  P  P2  1  0.67772000  0.96172000  0.20976000  1.0
  P  P3  1  0.88770000  0.53824000  0.79008000  1.0
  P  P4  1  0.32227000  0.03827000  0.79024000  1.0
  P  P5  1  0.11231000  0.46177000  0.20991000  1.0
  H  H6  1  0.41793000  0.96546000  0.17389000  1.0
  H  H7  1  0.59205000  0.53451000  0.82609000  1.0
  H  H8  1  0.58206000  0.03451000  0.82612000  1.0
  H  H9  1  0.40795000  0.46547000  0.17392000  1.0
  H  H10  1  0.73883000  0.73401000  0.42663000  1.0
  H  H11  1  0.16555000  0.76621000  0.57327000  1.0
  H  H12  1  0.26118000  0.26600000  0.57337000  1.0
  H  H13  1  0.83444000  0.23381000  0.42672000  1.0
  H  H14  1  0.50833000  0.78796000  0.53494000  1.0
  H  H15  1  0.04339000  0.71219000  0.46493000  1.0
  H  H16  1  0.49168000  0.21204000  0.46507000  1.0
  H  H17  1  0.95660000  0.28782000  0.53506000  1.0
  H  H18  1  0.37446000  0.60407000  0.42196000  1.0
  H  H19  1  0.79635000  0.89574000  0.57834000  1.0
  H  H20  1  0.62555000  0.39593000  0.57805000  1.0
  H  H21  1  0.20364000  0.10427000  0.42166000  1.0
  H  H22  1  0.60561000  0.57215000  0.29044000  1.0
  H  H23  1  0.89632000  0.92788000  0.70956000  1.0
  H  H24  1  0.39440000  0.42785000  0.70957000  1.0
  H  H25  1  0.10367000  0.07213000  0.29044000  1.0
  C  C26  1  0.60551000  0.75724000  0.41763000  1.0
  C  C27  1  0.02322000  0.74280000  0.58231000  1.0
  C  C28  1  0.39451000  0.24276000  0.58237000  1.0
  C  C29  1  0.97677000  0.25721000  0.41768000  1.0
  C  C30  1  0.51396000  0.58743000  0.41868000  1.0
  C  C31  1  0.93270000  0.91254000  0.58139000  1.0
  C  C32  1  0.48605000  0.41257000  0.58133000  1.0
  C  C33  1  0.06729000  0.08748000  0.41861000  1.0
  O  O34  1  0.78644000  0.11501000  0.21632000  1.0
  O  O35  1  0.00298000  0.38502000  0.78337000  1.0
  O  O36  1  0.21355000  0.88499000  0.78367000  1.0
  O  O37  1  0.99704000  0.61499000  0.21661000  1.0
  O  O38  1  0.78325000  0.92010000  0.03992000  1.0
  O  O39  1  0.82348000  0.57979000  0.95994000  1.0
  O  O40  1  0.21673000  0.07988000  0.96009000  1.0
  O  O41  1  0.17653000  0.42021000  0.04006000  1.0
  O  O42  1  0.48647000  0.03235000  0.20947000  1.0
  O  O43  1  0.69607000  0.46758000  0.79044000  1.0
  O  O44  1  0.51351000  0.96763000  0.79054000  1.0
  O  O45  1  0.30394000  0.53241000  0.20956000  1.0
