# generated using pymatgen
data_NdH8C6NO7
_symmetry_space_group_name_H-M   'P 1'
_cell_length_a   6.71374000
_cell_length_b   6.91309000
_cell_length_c   19.76270000
_cell_angle_alpha   86.43660000
_cell_angle_beta   89.99990000
_cell_angle_gamma   89.99990000
_symmetry_Int_Tables_number   1
_chemical_formula_structural   NdH8C6NO7
_chemical_formula_sum   'Nd4 H32 C24 N4 O28'
_cell_volume   915.46668607
_cell_formula_units_Z   4
loop_
 _symmetry_equiv_pos_site_id
 _symmetry_equiv_pos_as_xyz
  1  'x, y, z'
loop_
 _atom_site_type_symbol
 _atom_site_label
 _atom_site_symmetry_multiplicity
 _atom_site_fract_x
 _atom_site_fract_y
 _atom_site_fract_z
 _atom_site_occupancy
  Nd  Nd0  1  0.23728000  0.73111000  0.89968000  1.0
  Nd  Nd1  1  0.73729000  0.76890000  0.60032000  1.0
  Nd  Nd2  1  0.76271000  0.26890000  0.10032000  1.0
  Nd  Nd3  1  0.26272000  0.23110000  0.39968000  1.0
  H  H4  1  0.07462000  0.63372000  0.04527000  1.0
  H  H5  1  0.57466000  0.86629000  0.45473000  1.0
  H  H6  1  0.92534000  0.36629000  0.95473000  1.0
  H  H7  1  0.42536000  0.13371000  0.54527000  1.0
  H  H8  1  0.27663000  0.51759000  0.03579000  1.0
  H  H9  1  0.77667000  0.98241000  0.46422000  1.0
  H  H10  1  0.72333000  0.48242000  0.96421000  1.0
  H  H11  1  0.22336000  0.01759000  0.53579000  1.0
  H  H12  1  0.27532000  0.18424000  0.79127000  1.0
  H  H13  1  0.77532000  0.31575000  0.70873000  1.0
  H  H14  1  0.72467000  0.81575000  0.20873000  1.0
  H  H15  1  0.22468000  0.68425000  0.29127000  1.0
  H  H16  1  0.47027000  0.31418000  0.82812000  1.0
  H  H17  1  0.97027000  0.18582000  0.67187000  1.0
  H  H18  1  0.52973000  0.68582000  0.17188000  1.0
  H  H19  1  0.02973000  0.81418000  0.32812000  1.0
  H  H20  1  0.60935000  0.09727000  0.93167000  1.0
  H  H21  1  0.10936000  0.40275000  0.56833000  1.0
  H  H22  1  0.39063000  0.90273000  0.06833000  1.0
  H  H23  1  0.89065000  0.59726000  0.43167000  1.0
  H  H24  1  0.78265000  0.08240000  0.86450000  1.0
  H  H25  1  0.28266000  0.41761000  0.63550000  1.0
  H  H26  1  0.21734000  0.91760000  0.13550000  1.0
  H  H27  1  0.71735000  0.58239000  0.36450000  1.0
  H  H28  1  0.70213000  0.99538000  0.76295000  1.0
  H  H29  1  0.20213000  0.50460000  0.73705000  1.0
  H  H30  1  0.29789000  0.00461000  0.23705000  1.0
  H  H31  1  0.79788000  0.49540000  0.26295000  1.0
  H  H32  1  0.45248000  0.01304000  0.73513000  1.0
  H  H33  1  0.95248000  0.48695000  0.76488000  1.0
  H  H34  1  0.54753000  0.98697000  0.26487000  1.0
  H  H35  1  0.04753000  0.51304000  0.23512000  1.0
  C  C36  1  0.37316000  0.18662000  0.83594000  1.0
  C  C37  1  0.87318000  0.31338000  0.66406000  1.0
  C  C38  1  0.62683000  0.81338000  0.16406000  1.0
  C  C39  1  0.12684000  0.68662000  0.33594000  1.0
  C  C40  1  0.23302000  0.21109000  0.89552000  1.0
  C  C41  1  0.73303000  0.28893000  0.60447000  1.0
  C  C42  1  0.76698000  0.78892000  0.10448000  1.0
  C  C43  1  0.26698000  0.71108000  0.39552000  1.0
  C  C44  1  0.65258000  0.01101000  0.88919000  1.0
  C  C45  1  0.15258000  0.48900000  0.61081000  1.0
  C  C46  1  0.34741000  0.98899000  0.11082000  1.0
  C  C47  1  0.84742000  0.51101000  0.38919000  1.0
  C  C48  1  0.71055000  0.81024000  0.91959000  1.0
  C  C49  1  0.21056000  0.68977000  0.58041000  1.0
  C  C50  1  0.28943000  0.18975000  0.08041000  1.0
  C  C51  1  0.78944000  0.31024000  0.41959000  1.0
  C  C52  1  0.54925000  0.94527000  0.77466000  1.0
  C  C53  1  0.04924000  0.55471000  0.72534000  1.0
  C  C54  1  0.45075000  0.05473000  0.22534000  1.0
  C  C55  1  0.95075000  0.44527000  0.27466000  1.0
  C  C56  1  0.54019000  0.72736000  0.76633000  1.0
  C  C57  1  0.04020000  0.77263000  0.73368000  1.0
  C  C58  1  0.45981000  0.27263000  0.23367000  1.0
  C  C59  1  0.95980000  0.22737000  0.26633000  1.0
  N  N60  1  0.48263000  0.00154000  0.84172000  1.0
  N  N61  1  0.98264000  0.49847000  0.65828000  1.0
  N  N62  1  0.51737000  0.99846000  0.15828000  1.0
  N  N63  1  0.01737000  0.50153000  0.34172000  1.0
  O  O64  1  0.15775000  0.37923000  0.90192000  1.0
  O  O65  1  0.65775000  0.12078000  0.59807000  1.0
  O  O66  1  0.84225000  0.62077000  0.09808000  1.0
  O  O67  1  0.34225000  0.87922000  0.40192000  1.0
  O  O68  1  0.18976000  0.06275000  0.93336000  1.0
  O  O69  1  0.68978000  0.43726000  0.56664000  1.0
  O  O70  1  0.81024000  0.93725000  0.06664000  1.0
  O  O71  1  0.31025000  0.56275000  0.43336000  1.0
  O  O72  1  0.88754000  0.75251000  0.91595000  1.0
  O  O73  1  0.38755000  0.74749000  0.58405000  1.0
  O  O74  1  0.11245000  0.24749000  0.08405000  1.0
  O  O75  1  0.61246000  0.25251000  0.41595000  1.0
  O  O76  1  0.57205000  0.70732000  0.94825000  1.0
  O  O77  1  0.07207000  0.79270000  0.55176000  1.0
  O  O78  1  0.42793000  0.29268000  0.05175000  1.0
  O  O79  1  0.92794000  0.20731000  0.44824000  1.0
  O  O80  1  0.60084000  0.66731000  0.71061000  1.0
  O  O81  1  0.10085000  0.83267000  0.78938000  1.0
  O  O82  1  0.39916000  0.33268000  0.28938000  1.0
  O  O83  1  0.89914000  0.16732000  0.21062000  1.0
  O  O84  1  0.46884000  0.61838000  0.81425000  1.0
  O  O85  1  0.96884000  0.88161000  0.68576000  1.0
  O  O86  1  0.53116000  0.38162000  0.18575000  1.0
  O  O87  1  0.03116000  0.11838000  0.31424000  1.0
  O  O88  1  0.20590000  0.63988000  0.02216000  1.0
  O  O89  1  0.70593000  0.86012000  0.47784000  1.0
  O  O90  1  0.79408000  0.36013000  0.97784000  1.0
  O  O91  1  0.29409000  0.13988000  0.52216000  1.0
