# generated using pymatgen
data_CdH16C28(N3O2)2
_symmetry_space_group_name_H-M   'P 1'
_cell_length_a   10.60850000
_cell_length_b   11.39910000
_cell_length_c   12.48620000
_cell_angle_alpha   107.99600000
_cell_angle_beta   99.51790000
_cell_angle_gamma   98.34510000
_symmetry_Int_Tables_number   1
_chemical_formula_structural   CdH16C28(N3O2)2
_chemical_formula_sum   'Cd2 H32 C56 N12 O8'
_cell_volume   1384.94923902
_cell_formula_units_Z   2
loop_
 _symmetry_equiv_pos_site_id
 _symmetry_equiv_pos_as_xyz
  1  'x, y, z'
loop_
 _atom_site_type_symbol
 _atom_site_label
 _atom_site_symmetry_multiplicity
 _atom_site_fract_x
 _atom_site_fract_y
 _atom_site_fract_z
 _atom_site_occupancy
  Cd  Cd0  1  0.66402000  0.01283000  0.08735000  1.0
  Cd  Cd1  1  0.33598000  0.98717000  0.91265000  1.0
  H  H2  1  0.68612000  0.71378000  0.15075000  1.0
  H  H3  1  0.31388000  0.28622000  0.84925000  1.0
  H  H4  1  0.62505000  0.52552000  0.18347000  1.0
  H  H5  1  0.37495000  0.47448000  0.81653000  1.0
  H  H6  1  0.67995000  0.17515000  0.50395000  1.0
  H  H7  1  0.32005000  0.82485000  0.49605000  1.0
  H  H8  1  0.63178000  0.74411000  0.52758000  1.0
  H  H9  1  0.36822000  0.25588000  0.47242000  1.0
  H  H10  1  0.63026000  0.92334000  0.69922000  1.0
  H  H11  1  0.36974000  0.07666000  0.30078000  1.0
  H  H12  1  0.58285000  0.06166000  0.81648000  1.0
  H  H13  1  0.41715000  0.93833000  0.18352000  1.0
  H  H14  1  0.73709000  0.49804000  0.82458000  1.0
  H  H15  1  0.26291000  0.50196000  0.17542000  1.0
  H  H16  1  0.74055000  0.31696000  0.65444000  1.0
  H  H17  1  0.25945000  0.68304000  0.34556000  1.0
  H  H18  1  0.81820000  0.30920000  0.22396000  1.0
  H  H19  1  0.18180000  0.69080000  0.77605000  1.0
  H  H20  1  0.96579000  0.47858000  0.18536000  1.0
  H  H21  1  0.03421000  0.52142000  0.81464000  1.0
  H  H22  1  0.06800000  0.41541000  0.01271000  1.0
  H  H23  1  0.93199000  0.58459000  0.98729000  1.0
  H  H24  1  0.09322000  0.24744000  0.84138000  1.0
  H  H25  1  0.90678000  0.75256000  0.15862000  1.0
  H  H26  1  0.04314000  0.02129000  0.71839000  1.0
  H  H27  1  0.95686000  0.97871000  0.28161000  1.0
  H  H28  1  0.92442000  0.79994000  0.67556000  1.0
  H  H29  1  0.07559000  0.20006000  0.32445000  1.0
  H  H30  1  0.76233000  0.65063000  0.72307000  1.0
  H  H31  1  0.23767000  0.34937000  0.27693000  1.0
  H  H32  1  0.65912000  0.73611000  0.89012000  1.0
  H  H33  1  0.34088000  0.26389000  0.10988000  1.0
  C  C34  1  0.66102000  0.06579000  0.61833000  1.0
  C  C35  1  0.33898000  0.93421000  0.38167000  1.0
  C  C36  1  0.67407000  0.08327000  0.51438000  1.0
  C  C37  1  0.32593000  0.91673000  0.48562000  1.0
  C  C38  1  0.67502000  0.98172000  0.41694000  1.0
  C  C39  1  0.32498000  0.01828000  0.58305000  1.0
  C  C40  1  0.66161000  0.85853000  0.42194000  1.0
  C  C41  1  0.33839000  0.14147000  0.57806000  1.0
  C  C42  1  0.64454000  0.83970000  0.52493000  1.0
  C  C43  1  0.35546000  0.16030000  0.47507000  1.0
  C  C44  1  0.64409000  0.94111000  0.62076000  1.0
  C  C45  1  0.35591000  0.05889000  0.37924000  1.0
  C  C46  1  0.66318000  0.75258000  0.31969000  1.0
  C  C47  1  0.33682000  0.24742000  0.68031000  1.0
  C  C48  1  0.68355000  0.00036000  0.30743000  1.0
  C  C49  1  0.31645000  0.99964000  0.69256000  1.0
  C  C50  1  0.66212000  0.17397000  0.72149000  1.0
  C  C51  1  0.33788000  0.82603000  0.27851000  1.0
  C  C52  1  0.61914000  0.15585000  0.81621000  1.0
  C  C53  1  0.38086000  0.84415000  0.18379000  1.0
  C  C54  1  0.61733000  0.25829000  0.91321000  1.0
  C  C55  1  0.38266000  0.74171000  0.08679000  1.0
  C  C56  1  0.66129000  0.38253000  0.91644000  1.0
  C  C57  1  0.33871000  0.61747000  0.08356000  1.0
  C  C58  1  0.70459000  0.40169000  0.82145000  1.0
  C  C59  1  0.29540000  0.59831000  0.17855000  1.0
  C  C60  1  0.70543000  0.29976000  0.72651000  1.0
  C  C61  1  0.29457000  0.70024000  0.27350000  1.0
  C  C62  1  0.57153000  0.23967000  0.01186000  1.0
  C  C63  1  0.42847000  0.76033000  0.98813000  1.0
  C  C64  1  0.66368000  0.48745000  0.01965000  1.0
  C  C65  1  0.33632000  0.51255000  0.98035000  1.0
  C  C66  1  0.86366000  0.28724000  0.14982000  1.0
  C  C67  1  0.13634000  0.71276000  0.85018000  1.0
  C  C68  1  0.94599000  0.38107000  0.12742000  1.0
  C  C69  1  0.05401000  0.61893000  0.87258000  1.0
  C  C70  1  0.00070000  0.34696000  0.03207000  1.0
  C  C71  1  0.99931000  0.65305000  0.96794000  1.0
  C  C72  1  0.97242000  0.21958000  0.95881000  1.0
  C  C73  1  0.02759000  0.78042000  0.04120000  1.0
  C  C74  1  0.02656000  0.17765000  0.85953000  1.0
  C  C75  1  0.97344000  0.82235000  0.14048000  1.0
  C  C76  1  0.99906000  0.05320000  0.79234000  1.0
  C  C77  1  0.00095000  0.94680000  0.20767000  1.0
  C  C78  1  0.91238000  0.96182000  0.81734000  1.0
  C  C79  1  0.08762000  0.03818000  0.18266000  1.0
  C  C80  1  0.87973000  0.83251000  0.74912000  1.0
  C  C81  1  0.12028000  0.16749000  0.25088000  1.0
  C  C82  1  0.79060000  0.75045000  0.77520000  1.0
  C  C83  1  0.20940000  0.24955000  0.22480000  1.0
  C  C84  1  0.73301000  0.79743000  0.86925000  1.0
  C  C85  1  0.26699000  0.20258000  0.13075000  1.0
  C  C86  1  0.88689000  0.13155000  0.98728000  1.0
  C  C87  1  0.11312000  0.86845000  0.01272000  1.0
  C  C88  1  0.85322000  0.00043000  0.91310000  1.0
  C  C89  1  0.14678000  0.99957000  0.08690000  1.0
  N  N90  1  0.68153000  0.78472000  0.22636000  1.0
  N  N91  1  0.31847000  0.21528000  0.77363000  1.0
  N  N92  1  0.68865000  0.90188000  0.21725000  1.0
  N  N93  1  0.31135000  0.09812000  0.78275000  1.0
  N  N94  1  0.57290000  0.33626000  0.10399000  1.0
  N  N95  1  0.42710000  0.66374000  0.89601000  1.0
  N  N96  1  0.61882000  0.45431000  0.10438000  1.0
  N  N97  1  0.38118000  0.54569000  0.89562000  1.0
  N  N98  1  0.83561000  0.16677000  0.08182000  1.0
  N  N99  1  0.16439000  0.83323000  0.91818000  1.0
  N  N100  1  0.76448000  0.91851000  0.93612000  1.0
  N  N101  1  0.23552000  0.08149000  0.06388000  1.0
  O  O102  1  0.65007000  0.63942000  0.31623000  1.0
  O  O103  1  0.34992000  0.36058000  0.68377000  1.0
  O  O104  1  0.68304000  0.10676000  0.29163000  1.0
  O  O105  1  0.31696000  0.89324000  0.70837000  1.0
  O  O106  1  0.53109000  0.12476000  0.01163000  1.0
  O  O107  1  0.46891000  0.87524000  0.98837000  1.0
  O  O108  1  0.70601000  0.60214000  0.03251000  1.0
  O  O109  1  0.29398000  0.39786000  0.96749000  1.0
