# generated using pymatgen
data_HgH4C6I2N3
_symmetry_space_group_name_H-M   'P 1'
_cell_length_a   7.06456000
_cell_length_b   8.14152000
_cell_length_c   9.78498000
_cell_angle_alpha   84.67760000
_cell_angle_beta   79.08190000
_cell_angle_gamma   65.97060000
_symmetry_Int_Tables_number   1
_chemical_formula_structural   HgH4C6I2N3
_chemical_formula_sum   'Hg2 H8 C12 I4 N6'
_cell_volume   504.64063950
_cell_formula_units_Z   2
loop_
 _symmetry_equiv_pos_site_id
 _symmetry_equiv_pos_as_xyz
  1  'x, y, z'
loop_
 _atom_site_type_symbol
 _atom_site_label
 _atom_site_symmetry_multiplicity
 _atom_site_fract_x
 _atom_site_fract_y
 _atom_site_fract_z
 _atom_site_occupancy
  Hg  Hg0  1  0.25367000  0.09297000  0.14692000  1.0
  Hg  Hg1  1  0.74633000  0.90703000  0.85308000  1.0
  H  H2  1  0.10278000  0.53103000  0.11844000  1.0
  H  H3  1  0.89724000  0.46898000  0.88157000  1.0
  H  H4  1  0.01488000  0.81193000  0.24548000  1.0
  H  H5  1  0.98510000  0.18810000  0.75451000  1.0
  H  H6  1  0.12091000  0.78388000  0.48244000  1.0
  H  H7  1  0.87907000  0.21613000  0.51756000  1.0
  H  H8  1  0.30847000  0.47695000  0.57933000  1.0
  H  H9  1  0.69152000  0.52304000  0.42065000  1.0
  C  C10  1  0.14331000  0.52428000  0.22169000  1.0
  C  C11  1  0.85669000  0.47573000  0.77829000  1.0
  C  C12  1  0.09654000  0.68098000  0.29260000  1.0
  C  C13  1  0.90348000  0.31900000  0.70738000  1.0
  C  C14  1  0.15535000  0.66550000  0.42292000  1.0
  C  C15  1  0.84466000  0.33448000  0.57710000  1.0
  C  C16  1  0.26058000  0.49484000  0.47766000  1.0
  C  C17  1  0.73943000  0.50516000  0.52236000  1.0
  C  C18  1  0.29902000  0.34525000  0.40011000  1.0
  C  C19  1  0.70097000  0.65475000  0.59990000  1.0
  C  C20  1  0.40559000  0.16172000  0.45376000  1.0
  C  C21  1  0.59441000  0.83829000  0.54625000  1.0
  I  I22  1  0.82851000  0.19926000  0.18220000  1.0
  I  I23  1  0.17149000  0.80074000  0.81782000  1.0
  I  I24  1  0.58044000  0.74862000  0.10936000  1.0
  I  I25  1  0.41958000  0.25136000  0.89064000  1.0
  N  N26  1  0.24010000  0.36010000  0.27460000  1.0
  N  N27  1  0.75990000  0.63990000  0.72538000  1.0
  N  N28  1  0.37266000  0.02720000  0.40560000  1.0
  N  N29  1  0.62732000  0.97278000  0.59438000  1.0
  N  N30  1  0.46866000  0.86250000  0.45140000  1.0
  N  N31  1  0.53136000  0.13751000  0.54862000  1.0
