# generated using pymatgen
data_CdH20C22(NO2)2
_symmetry_space_group_name_H-M   'P 1'
_cell_length_a   10.07430000
_cell_length_b   10.83110000
_cell_length_c   11.28620000
_cell_angle_alpha   112.90500000
_cell_angle_beta   98.87320000
_cell_angle_gamma   106.59400000
_symmetry_Int_Tables_number   1
_chemical_formula_structural   CdH20C22(NO2)2
_chemical_formula_sum   'Cd2 H40 C44 N4 O8'
_cell_volume   1036.86115474
_cell_formula_units_Z   2
loop_
 _symmetry_equiv_pos_site_id
 _symmetry_equiv_pos_as_xyz
  1  'x, y, z'
loop_
 _atom_site_type_symbol
 _atom_site_label
 _atom_site_symmetry_multiplicity
 _atom_site_fract_x
 _atom_site_fract_y
 _atom_site_fract_z
 _atom_site_occupancy
  Cd  Cd0  1  0.93571000  0.11198000  0.14584000  1.0
  Cd  Cd1  1  0.06429000  0.88802000  0.85416000  1.0
  H  H2  1  0.27040000  0.16424000  0.24040000  1.0
  H  H3  1  0.72960000  0.83576000  0.75960000  1.0
  H  H4  1  0.46034000  0.20721000  0.43792000  1.0
  H  H5  1  0.53966000  0.79279000  0.56209000  1.0
  H  H6  1  0.12937000  0.15767000  0.63587000  1.0
  H  H7  1  0.87063000  0.84233000  0.36414000  1.0
  H  H8  1  0.95262000  0.12138000  0.42945000  1.0
  H  H9  1  0.04738000  0.87862000  0.57055000  1.0
  H  H10  1  0.52591000  0.27784000  0.68245000  1.0
  H  H11  1  0.47410000  0.72216000  0.31756000  1.0
  H  H12  1  0.39022000  0.25721000  0.76502000  1.0
  H  H13  1  0.60978000  0.74279000  0.23498000  1.0
  H  H14  1  0.43648000  0.99987000  0.56089000  1.0
  H  H15  1  0.56353000  0.00013000  0.43911000  1.0
  H  H16  1  0.31788000  0.99278000  0.65976000  1.0
  H  H17  1  0.68213000  0.00722000  0.34024000  1.0
  H  H18  1  0.71319000  0.25570000  0.77733000  1.0
  H  H19  1  0.28681000  0.74430000  0.22268000  1.0
  H  H20  1  0.89696000  0.26476000  0.95860000  1.0
  H  H21  1  0.10304000  0.73524000  0.04140000  1.0
  H  H22  1  0.60469000  0.91409000  0.96742000  1.0
  H  H23  1  0.39531000  0.08591000  0.03258000  1.0
  H  H24  1  0.40503000  0.89173000  0.78797000  1.0
  H  H25  1  0.59497000  0.10827000  0.21203000  1.0
  H  H26  1  0.19633000  0.40426000  0.11544000  1.0
  H  H27  1  0.80367000  0.59574000  0.88456000  1.0
  H  H28  1  0.26927000  0.41035000  0.98121000  1.0
  H  H29  1  0.73073000  0.58965000  0.01879000  1.0
  H  H30  1  0.50675000  0.36854000  0.97487000  1.0
  H  H31  1  0.49325000  0.63146000  0.02512000  1.0
  H  H32  1  0.74918000  0.41624000  0.11266000  1.0
  H  H33  1  0.25082000  0.58376000  0.88733000  1.0
  H  H34  1  0.59148000  0.47545000  0.45521000  1.0
  H  H35  1  0.40851000  0.52455000  0.54479000  1.0
  H  H36  1  0.34963000  0.43308000  0.31831000  1.0
  H  H37  1  0.65036000  0.56691000  0.68168000  1.0
  H  H38  1  0.83353000  0.48687000  0.47659000  1.0
  H  H39  1  0.16647000  0.51313000  0.52341000  1.0
  H  H40  1  0.91648000  0.57960000  0.39100000  1.0
  H  H41  1  0.08352000  0.42040000  0.60900000  1.0
  C  C42  1  0.24376000  0.16272000  0.32977000  1.0
  C  C43  1  0.75624000  0.83728000  0.67024000  1.0
  C  C44  1  0.34842000  0.18579000  0.44009000  1.0
  C  C45  1  0.65158000  0.81421000  0.55992000  1.0
  C  C46  1  0.30953000  0.18415000  0.55338000  1.0
  C  C47  1  0.69048000  0.81585000  0.44663000  1.0
  C  C48  1  0.16422000  0.15906000  0.54943000  1.0
  C  C49  1  0.83578000  0.84094000  0.45058000  1.0
  C  C50  1  0.06594000  0.13805000  0.43564000  1.0
  C  C51  1  0.93406000  0.86196000  0.56437000  1.0
  C  C52  1  0.41884000  0.20553000  0.67313000  1.0
  C  C53  1  0.58117000  0.79447000  0.32688000  1.0
  C  C54  1  0.42272000  0.05979000  0.65972000  1.0
  C  C55  1  0.57728000  0.94021000  0.34028000  1.0
  C  C56  1  0.54130000  0.07310000  0.76836000  1.0
  C  C57  1  0.45871000  0.92690000  0.23164000  1.0
  C  C58  1  0.68270000  0.17767000  0.81652000  1.0
  C  C59  1  0.31731000  0.82233000  0.18349000  1.0
  C  C60  1  0.78667000  0.18331000  0.91722000  1.0
  C  C61  1  0.21333000  0.81669000  0.08278000  1.0
  C  C62  1  0.62361000  0.98816000  0.92282000  1.0
  C  C63  1  0.37639000  0.01185000  0.07718000  1.0
  C  C64  1  0.51319000  0.97597000  0.82321000  1.0
  C  C65  1  0.48681000  0.02403000  0.17680000  1.0
  C  C66  1  0.18739000  0.19881000  0.96949000  1.0
  C  C67  1  0.81260000  0.80119000  0.03050000  1.0
  C  C68  1  0.26136000  0.36354000  0.05167000  1.0
  C  C69  1  0.73863000  0.63646000  0.94832000  1.0
  C  C70  1  0.41111000  0.39895000  0.13727000  1.0
  C  C71  1  0.58889000  0.60104000  0.86273000  1.0
  C  C72  1  0.52549000  0.39414000  0.08094000  1.0
  C  C73  1  0.47451000  0.60586000  0.91906000  1.0
  C  C74  1  0.66166000  0.42048000  0.15837000  1.0
  C  C75  1  0.33833000  0.57951000  0.84162000  1.0
  C  C76  1  0.68827000  0.45011000  0.29434000  1.0
  C  C77  1  0.31173000  0.54989000  0.70565000  1.0
  C  C78  1  0.57361000  0.45303000  0.34985000  1.0
  C  C79  1  0.42638000  0.54696000  0.65015000  1.0
  C  C80  1  0.43763000  0.42930000  0.27301000  1.0
  C  C81  1  0.56237000  0.57070000  0.72698000  1.0
  C  C82  1  0.83664000  0.47765000  0.37672000  1.0
  C  C83  1  0.16335000  0.52235000  0.62328000  1.0
  C  C84  1  0.88577000  0.35449000  0.30515000  1.0
  C  C85  1  0.11423000  0.64551000  0.69485000  1.0
  N  N86  1  0.10480000  0.13940000  0.32714000  1.0
  N  N87  1  0.89520000  0.86060000  0.67286000  1.0
  N  N88  1  0.75791000  0.09093000  0.97064000  1.0
  N  N89  1  0.24209000  0.90907000  0.02936000  1.0
  O  O90  1  0.10037000  0.13003000  0.01524000  1.0
  O  O91  1  0.89963000  0.86997000  0.98476000  1.0
  O  O92  1  0.21904000  0.13398000  0.86474000  1.0
  O  O93  1  0.78094000  0.86602000  0.13525000  1.0
  O  O94  1  0.82563000  0.23407000  0.30664000  1.0
  O  O95  1  0.17437000  0.76594000  0.69336000  1.0
  O  O96  1  0.97882000  0.37411000  0.24302000  1.0
  O  O97  1  0.02118000  0.62590000  0.75698000  1.0
