# generated using pymatgen
data_Tb2H30C45(SO8)3
_symmetry_space_group_name_H-M   'P 1'
_cell_length_a   9.26742000
_cell_length_b   15.58810000
_cell_length_c   21.85180000
_cell_angle_alpha   103.03900000
_cell_angle_beta   101.67900000
_cell_angle_gamma   104.50600000
_symmetry_Int_Tables_number   1
_chemical_formula_structural   Tb2H30C45(SO8)3
_chemical_formula_sum   'Tb4 H60 C90 S6 O48'
_cell_volume   2862.90796608
_cell_formula_units_Z   2
loop_
 _symmetry_equiv_pos_site_id
 _symmetry_equiv_pos_as_xyz
  1  'x, y, z'
loop_
 _atom_site_type_symbol
 _atom_site_label
 _atom_site_symmetry_multiplicity
 _atom_site_fract_x
 _atom_site_fract_y
 _atom_site_fract_z
 _atom_site_occupancy
  Tb  Tb0  1  0.50913000  0.86309000  0.81512000  1.0
  Tb  Tb1  1  0.03570000  0.90671000  0.85268000  1.0
  Tb  Tb2  1  0.49087000  0.13691000  0.18488000  1.0
  Tb  Tb3  1  0.96430000  0.09329000  0.14732000  1.0
  H  H4  1  0.87859000  0.83631000  0.67548000  1.0
  H  H5  1  0.73423000  0.84074000  0.56836000  1.0
  H  H6  1  0.30615000  0.90318000  0.62139000  1.0
  H  H7  1  0.65063000  0.78630000  0.45282000  1.0
  H  H8  1  0.66847000  0.90548000  0.48935000  1.0
  H  H9  1  0.67736000  0.86722000  0.40672000  1.0
  H  H10  1  0.97440000  0.84373000  0.36486000  1.0
  H  H11  1  0.95878000  0.90986000  0.26985000  1.0
  H  H12  1  0.45530000  0.01545000  0.32114000  1.0
  H  H13  1  0.47339000  0.95172000  0.41743000  1.0
  H  H14  1  0.97844000  0.66764000  0.91396000  1.0
  H  H15  1  0.90214000  0.50973000  0.92900000  1.0
  H  H16  1  0.26697000  0.44804000  0.84934000  1.0
  H  H17  1  0.34518000  0.60804000  0.83698000  1.0
  H  H18  1  0.05386000  0.23236000  0.01118000  1.0
  H  H19  1  0.47849000  0.16305000  0.02867000  1.0
  H  H20  1  0.58315000  0.28503000  0.97976000  1.0
  H  H21  1  0.66769000  0.44044000  0.98270000  1.0
  H  H22  1  0.59392000  0.35831000  0.90256000  1.0
  H  H23  1  0.59512000  0.47580000  0.91308000  1.0
  H  H24  1  0.56093000  0.56345000  0.79418000  1.0
  H  H25  1  0.00619000  0.55152000  0.70116000  1.0
  H  H26  1  0.93493000  0.69568000  0.72433000  1.0
  H  H27  1  0.95560000  0.38923000  0.64983000  1.0
  H  H28  1  0.09537000  0.43948000  0.72914000  1.0
  H  H29  1  0.99461000  0.31794000  0.70074000  1.0
  H  H30  1  0.23006000  0.27380000  0.79227000  1.0
  H  H31  1  0.19260000  0.15084000  0.84859000  1.0
  H  H32  1  0.60600000  0.09599000  0.81345000  1.0
  H  H33  1  0.64440000  0.21868000  0.75594000  1.0
  H  H34  1  0.12140000  0.16368000  0.32452000  1.0
  H  H35  1  0.26577000  0.15926000  0.43164000  1.0
  H  H36  1  0.69385000  0.09682000  0.37861000  1.0
  H  H37  1  0.34938000  0.21371000  0.54717000  1.0
  H  H38  1  0.33154000  0.09452000  0.51065000  1.0
  H  H39  1  0.32266000  0.13279000  0.59328000  1.0
  H  H40  1  0.02562000  0.15627000  0.63514000  1.0
  H  H41  1  0.04122000  0.09014000  0.73014000  1.0
  H  H42  1  0.54471000  0.98455000  0.67886000  1.0
  H  H43  1  0.52662000  0.04829000  0.58258000  1.0
  H  H44  1  0.02156000  0.33236000  0.08604000  1.0
  H  H45  1  0.09786000  0.49027000  0.07100000  1.0
  H  H46  1  0.73302000  0.55195000  0.15066000  1.0
  H  H47  1  0.65481000  0.39195000  0.16302000  1.0
  H  H48  1  0.94614000  0.76764000  0.98882000  1.0
  H  H49  1  0.52150000  0.83695000  0.97133000  1.0
  H  H50  1  0.41685000  0.71497000  0.02024000  1.0
  H  H51  1  0.33231000  0.55956000  0.01730000  1.0
  H  H52  1  0.40607000  0.64170000  0.09744000  1.0
  H  H53  1  0.40487000  0.52420000  0.08692000  1.0
  H  H54  1  0.43908000  0.43655000  0.20582000  1.0
  H  H55  1  0.99381000  0.44849000  0.29884000  1.0
  H  H56  1  0.06507000  0.30432000  0.27567000  1.0
  H  H57  1  0.04441000  0.61077000  0.35018000  1.0
  H  H58  1  0.90463000  0.56052000  0.27086000  1.0
  H  H59  1  0.00538000  0.68206000  0.29926000  1.0
  H  H60  1  0.76993000  0.72619000  0.20773000  1.0
  H  H61  1  0.80740000  0.84915000  0.15140000  1.0
  H  H62  1  0.39400000  0.90401000  0.18656000  1.0
  H  H63  1  0.35561000  0.78132000  0.24406000  1.0
  C  C64  1  0.18801000  0.86458000  0.71920000  1.0
  C  C65  1  0.10151000  0.86894000  0.65578000  1.0
  C  C66  1  0.94068000  0.85254000  0.64011000  1.0
  C  C67  1  0.85942000  0.85532000  0.57998000  1.0
  C  C68  1  0.93893000  0.87702000  0.53433000  1.0
  C  C69  1  0.10166000  0.89647000  0.55172000  1.0
  C  C70  1  0.18146000  0.89068000  0.61044000  1.0
  C  C71  1  0.70669000  0.85848000  0.45549000  1.0
  C  C72  1  0.22495000  0.89298000  0.39472000  1.0
  C  C73  1  0.07871000  0.88044000  0.35429000  1.0
  C  C74  1  0.07042000  0.91722000  0.30179000  1.0
  C  C75  1  0.20628000  0.96501000  0.28968000  1.0
  C  C76  1  0.35136000  0.97718000  0.33107000  1.0
  C  C77  1  0.36175000  0.94156000  0.38421000  1.0
  C  C78  1  0.19873000  0.00575000  0.23353000  1.0
  C  C79  1  0.21055000  0.74251000  0.86665000  1.0
  C  C80  1  0.16728000  0.64741000  0.87555000  1.0
  C  C81  1  0.04243000  0.61977000  0.90112000  1.0
  C  C82  1  0.99862000  0.53160000  0.90889000  1.0
  C  C83  1  0.08039000  0.47092000  0.88998000  1.0
  C  C84  1  0.20563000  0.49681000  0.86413000  1.0
  C  C85  1  0.24897000  0.58567000  0.85732000  1.0
  C  C86  1  0.23054000  0.31496000  0.97951000  1.0
  C  C87  1  0.16988000  0.24421000  0.00452000  1.0
  C  C88  1  0.26035000  0.18992000  0.02364000  1.0
  C  C89  1  0.40916000  0.20594000  0.01450000  1.0
  C  C90  1  0.46825000  0.27475000  0.98729000  1.0
  C  C91  1  0.37994000  0.33105000  0.96964000  1.0
  C  C92  1  0.20593000  0.12365000  0.05954000  1.0
  C  C93  1  0.58103000  0.41896000  0.93520000  1.0
  C  C94  1  0.70451000  0.72704000  0.77682000  1.0
  C  C95  1  0.74319000  0.63963000  0.76053000  1.0
  C  C96  1  0.65917000  0.56160000  0.77433000  1.0
  C  C97  1  0.70373000  0.48249000  0.76407000  1.0
  C  C98  1  0.82870000  0.47609000  0.73732000  1.0
  C  C99  1  0.90954000  0.55392000  0.72194000  1.0
  C  C100  1  0.86865000  0.63484000  0.73461000  1.0
  C  C101  1  0.98519000  0.38635000  0.70044000  1.0
  C  C102  1  0.43806000  0.25161000  0.77092000  1.0
  C  C103  1  0.31104000  0.23421000  0.79648000  1.0
  C  C104  1  0.29100000  0.16596000  0.82836000  1.0
  C  C105  1  0.39756000  0.11650000  0.83429000  1.0
  C  C106  1  0.52469000  0.13528000  0.80826000  1.0
  C  C107  1  0.54586000  0.20297000  0.77609000  1.0
  C  C108  1  0.37231000  0.04058000  0.86628000  1.0
  C  C109  1  0.81199000  0.13542000  0.28080000  1.0
  C  C110  1  0.89848000  0.13106000  0.34422000  1.0
  C  C111  1  0.05931000  0.14745000  0.35989000  1.0
  C  C112  1  0.14058000  0.14468000  0.42002000  1.0
  C  C113  1  0.06107000  0.12299000  0.46567000  1.0
  C  C114  1  0.89834000  0.10353000  0.44828000  1.0
  C  C115  1  0.81854000  0.10932000  0.38956000  1.0
  C  C116  1  0.29332000  0.14152000  0.54451000  1.0
  C  C117  1  0.77506000  0.10702000  0.60528000  1.0
  C  C118  1  0.92130000  0.11956000  0.64571000  1.0
  C  C119  1  0.92958000  0.08278000  0.69821000  1.0
  C  C120  1  0.79372000  0.03499000  0.71032000  1.0
  C  C121  1  0.64865000  0.02283000  0.66893000  1.0
  C  C122  1  0.63826000  0.05845000  0.61579000  1.0
  C  C123  1  0.80127000  0.99425000  0.76647000  1.0
  C  C124  1  0.78946000  0.25749000  0.13335000  1.0
  C  C125  1  0.83272000  0.35258000  0.12445000  1.0
  C  C126  1  0.95757000  0.38023000  0.09887000  1.0
  C  C127  1  0.00137000  0.46840000  0.09111000  1.0
  C  C128  1  0.91959000  0.52908000  0.11002000  1.0
  C  C129  1  0.79437000  0.50319000  0.13587000  1.0
  C  C130  1  0.75103000  0.41433000  0.14268000  1.0
  C  C131  1  0.76945000  0.68504000  0.02049000  1.0
  C  C132  1  0.83012000  0.75579000  0.99548000  1.0
  C  C133  1  0.73965000  0.81008000  0.97636000  1.0
  C  C134  1  0.59084000  0.79406000  0.98550000  1.0
  C  C135  1  0.53174000  0.72525000  0.01271000  1.0
  C  C136  1  0.62005000  0.66895000  0.03037000  1.0
  C  C137  1  0.79407000  0.87635000  0.94046000  1.0
  C  C138  1  0.41896000  0.58105000  0.06480000  1.0
  C  C139  1  0.29549000  0.27296000  0.22318000  1.0
  C  C140  1  0.25680000  0.36037000  0.23947000  1.0
  C  C141  1  0.34082000  0.43840000  0.22567000  1.0
  C  C142  1  0.29627000  0.51752000  0.23592000  1.0
  C  C143  1  0.17131000  0.52391000  0.26267000  1.0
  C  C144  1  0.09046000  0.44608000  0.27805000  1.0
  C  C145  1  0.13135000  0.36516000  0.26538000  1.0
  C  C146  1  0.01481000  0.61366000  0.29956000  1.0
  C  C147  1  0.56194000  0.74839000  0.22909000  1.0
  C  C148  1  0.68896000  0.76579000  0.20351000  1.0
  C  C149  1  0.70899000  0.83403000  0.17164000  1.0
  C  C150  1  0.60244000  0.88350000  0.16571000  1.0
  C  C151  1  0.47531000  0.86472000  0.19174000  1.0
  C  C152  1  0.45414000  0.79703000  0.22392000  1.0
  C  C153  1  0.62769000  0.95942000  0.13372000  1.0
  S  S154  1  0.23617000  0.84706000  0.46189000  1.0
  S  S155  1  0.02180000  0.35859000  0.89958000  1.0
  S  S156  1  0.46247000  0.33877000  0.73114000  1.0
  S  S157  1  0.76383000  0.15295000  0.53811000  1.0
  S  S158  1  0.97819000  0.64141000  0.10042000  1.0
  S  S159  1  0.53753000  0.66122000  0.26886000  1.0
  O  O160  1  0.12252000  0.86730000  0.76534000  1.0
  O  O161  1  0.32526000  0.85874000  0.72582000  1.0
  O  O162  1  0.87275000  0.88074000  0.47458000  1.0
  O  O163  1  0.18235000  0.92495000  0.50843000  1.0
  O  O164  1  0.12030000  0.75836000  0.44531000  1.0
  O  O165  1  0.39556000  0.85894000  0.49279000  1.0
  O  O166  1  0.06674000  0.99736000  0.19741000  1.0
  O  O167  1  0.32749000  0.04720000  0.22567000  1.0
  O  O168  1  0.12667000  0.79317000  0.88066000  1.0
  O  O169  1  0.32860000  0.76706000  0.84599000  1.0
  O  O170  1  0.87268000  0.34157000  0.91254000  1.0
  O  O171  1  0.04964000  0.29154000  0.84991000  1.0
  O  O172  1  0.14972000  0.37789000  0.96978000  1.0
  O  O173  1  0.46416000  0.99251000  0.86668000  1.0
  O  O174  1  0.25682000  0.02596000  0.89031000  1.0
  O  O175  1  0.06470000  0.10156000  0.06122000  1.0
  O  O176  1  0.30655000  0.09456000  0.09059000  1.0
  O  O177  1  0.34540000  0.38406000  0.73582000  1.0
  O  O178  1  0.62772000  0.40722000  0.78316000  1.0
  O  O179  1  0.56857000  0.72590000  0.78086000  1.0
  O  O180  1  0.42707000  0.40027000  0.94349000  1.0
  O  O181  1  0.81253000  0.80297000  0.78784000  1.0
  O  O182  1  0.86207000  0.39571000  0.72986000  1.0
  O  O183  1  0.48948000  0.30639000  0.66869000  1.0
  O  O184  1  0.87747000  0.13270000  0.23466000  1.0
  O  O185  1  0.67475000  0.14127000  0.27418000  1.0
  O  O186  1  0.12726000  0.11927000  0.52542000  1.0
  O  O187  1  0.81765000  0.07506000  0.49157000  1.0
  O  O188  1  0.87970000  0.24164000  0.55470000  1.0
  O  O189  1  0.60444000  0.14107000  0.50721000  1.0
  O  O190  1  0.93326000  0.00263000  0.80259000  1.0
  O  O191  1  0.67251000  0.95280000  0.77432000  1.0
  O  O192  1  0.87334000  0.20683000  0.11935000  1.0
  O  O193  1  0.67140000  0.23294000  0.15401000  1.0
  O  O194  1  0.12732000  0.65842000  0.08746000  1.0
  O  O195  1  0.95036000  0.70846000  0.15009000  1.0
  O  O196  1  0.85027000  0.62211000  0.03022000  1.0
  O  O197  1  0.53584000  0.00749000  0.13333000  1.0
  O  O198  1  0.74318000  0.97403000  0.10969000  1.0
  O  O199  1  0.93530000  0.89844000  0.93878000  1.0
  O  O200  1  0.69345000  0.90543000  0.90940000  1.0
  O  O201  1  0.65460000  0.61593000  0.26418000  1.0
  O  O202  1  0.37228000  0.59278000  0.21683000  1.0
  O  O203  1  0.43143000  0.27410000  0.21915000  1.0
  O  O204  1  0.57292000  0.59973000  0.05651000  1.0
  O  O205  1  0.18746000  0.19703000  0.21216000  1.0
  O  O206  1  0.13793000  0.60430000  0.27014000  1.0
  O  O207  1  0.51052000  0.69361000  0.33131000  1.0
