# generated using pymatgen
data_ZnH5C17NO4F5
_symmetry_space_group_name_H-M   'P 1'
_cell_length_a   11.12940000
_cell_length_b   16.60820000
_cell_length_c   17.85080000
_cell_angle_alpha   89.59960000
_cell_angle_beta   88.27390000
_cell_angle_gamma   89.77150000
_symmetry_Int_Tables_number   1
_chemical_formula_structural   ZnH5C17NO4F5
_chemical_formula_sum   'Zn2 H10 C34 N2 O8 F10'
_cell_volume   3297.92812449
_cell_formula_units_Z   2
loop_
 _symmetry_equiv_pos_site_id
 _symmetry_equiv_pos_as_xyz
  1  'x, y, z'
loop_
 _atom_site_type_symbol
 _atom_site_label
 _atom_site_symmetry_multiplicity
 _atom_site_fract_x
 _atom_site_fract_y
 _atom_site_fract_z
 _atom_site_occupancy
  Zn  Zn0  1  0.50848000  0.58227000  0.50050000  1.0
  Zn  Zn1  1  0.50953000  0.41716000  0.49889000  1.0
  H  H2  1  0.12138000  0.38205000  0.48534000  1.0
  H  H3  1  0.89895000  0.38076000  0.51150000  1.0
  H  H4  1  0.10194000  0.55997000  0.53150000  1.0
  H  H5  1  0.91400000  0.56073000  0.47010000  1.0
  H  H6  1  0.43473000  0.63615000  0.86956000  1.0
  H  H7  1  0.43562000  0.63725000  0.12890000  1.0
  H  H8  1  0.47236000  0.62708000  0.73098000  1.0
  H  H9  1  0.46209000  0.62871000  0.26743000  1.0
  H  H10  1  0.64277000  0.71252000  0.41818000  1.0
  H  H11  1  0.36980000  0.70882000  0.58316000  1.0
  C  C12  1  0.49055000  0.49980000  0.35430000  1.0
  C  C13  1  0.50487000  0.49764000  0.64583000  1.0
  C  C14  1  0.74171000  0.50049000  0.49032000  1.0
  C  C15  1  0.27543000  0.50135000  0.50932000  1.0
  C  C16  1  0.07453000  0.43845000  0.49851000  1.0
  C  C17  1  0.94421000  0.43802000  0.49988000  1.0
  C  C18  1  0.14250000  0.50295000  0.51406000  1.0
  C  C19  1  0.87464000  0.50278000  0.48596000  1.0
  C  C20  1  0.44804000  0.57807000  0.84254000  1.0
  C  C21  1  0.44316000  0.57918000  0.15710000  1.0
  C  C22  1  0.46842000  0.57302000  0.76579000  1.0
  C  C23  1  0.45824000  0.57447000  0.23371000  1.0
  C  C24  1  0.48577000  0.49878000  0.72943000  1.0
  C  C25  1  0.47044000  0.50032000  0.27145000  1.0
  C  C26  1  0.48165000  0.42887000  0.77390000  1.0
  C  C27  1  0.46383000  0.43006000  0.22865000  1.0
  C  C28  1  0.46195000  0.43351000  0.85131000  1.0
  C  C29  1  0.44788000  0.43432000  0.15149000  1.0
  C  C30  1  0.44580000  0.50778000  0.88766000  1.0
  C  C31  1  0.43904000  0.50849000  0.11360000  1.0
  C  C32  1  0.43414000  0.51010000  0.96650000  1.0
  C  C33  1  0.43207000  0.51022000  0.03487000  1.0
  C  C34  1  0.57955000  0.83083000  0.45260000  1.0
  C  C35  1  0.42499000  0.82881000  0.54769000  1.0
  C  C36  1  0.58124000  0.74737000  0.45401000  1.0
  C  C37  1  0.42895000  0.74534000  0.54708000  1.0
  C  C38  1  0.50087000  0.87525000  0.49999000  1.0
  C  C39  1  0.49920000  0.95983000  0.49980000  1.0
  C  C40  1  0.49940000  0.03310000  0.49944000  1.0
  C  C41  1  0.58477000  0.16142000  0.45452000  1.0
  C  C42  1  0.41937000  0.16308000  0.54352000  1.0
  C  C43  1  0.58353000  0.24519000  0.45651000  1.0
  C  C44  1  0.42502000  0.24679000  0.54164000  1.0
  C  C45  1  0.50100000  0.11770000  0.49913000  1.0
  N  N46  1  0.50644000  0.70665000  0.50074000  1.0
  N  N47  1  0.50547000  0.28675000  0.49916000  1.0
  O  O48  1  0.47636000  0.56704000  0.38755000  1.0
  O  O49  1  0.53160000  0.56468000  0.61448000  1.0
  O  O50  1  0.52060000  0.43356000  0.38462000  1.0
  O  O51  1  0.49034000  0.43093000  0.61294000  1.0
  O  O52  1  0.68806000  0.56756000  0.47808000  1.0
  O  O53  1  0.32796000  0.56776000  0.52375000  1.0
  O  O54  1  0.69020000  0.43381000  0.50614000  1.0
  O  O55  1  0.32803000  0.43575000  0.49106000  1.0
  F  F56  1  0.66329000  0.28622000  0.41464000  1.0
  F  F57  1  0.34723000  0.28908000  0.58353000  1.0
  F  F58  1  0.49896000  0.35456000  0.74522000  1.0
  F  F59  1  0.47190000  0.35554000  0.25885000  1.0
  F  F60  1  0.46070000  0.36450000  0.89184000  1.0
  F  F61  1  0.44283000  0.36490000  0.11275000  1.0
  F  F62  1  0.65464000  0.87091000  0.40515000  1.0
  F  F63  1  0.34732000  0.86688000  0.59479000  1.0
  F  F64  1  0.66555000  0.12250000  0.41064000  1.0
  F  F65  1  0.33633000  0.12589000  0.58728000  1.0
