# generated using pymatgen
data_CuH22C22(N4O)2
_symmetry_space_group_name_H-M   'P 1'
_cell_length_a   7.51819000
_cell_length_b   8.46414000
_cell_length_c   10.73290000
_cell_angle_alpha   94.16650000
_cell_angle_beta   110.31100000
_cell_angle_gamma   110.24600000
_symmetry_Int_Tables_number   1
_chemical_formula_structural   CuH22C22(N4O)2
_chemical_formula_sum   'Cu1 H22 C22 N8 O2'
_cell_volume   586.34672703
_cell_formula_units_Z   1
loop_
 _symmetry_equiv_pos_site_id
 _symmetry_equiv_pos_as_xyz
  1  'x, y, z'
loop_
 _atom_site_type_symbol
 _atom_site_label
 _atom_site_symmetry_multiplicity
 _atom_site_fract_x
 _atom_site_fract_y
 _atom_site_fract_z
 _atom_site_occupancy
  Cu  Cu0  1  0.00000000  0.99999000  0.00000000  1.0
  H  H1  1  0.59244000  0.41700000  0.31446000  1.0
  H  H2  1  0.40756000  0.58299000  0.68554000  1.0
  H  H3  1  0.82084000  0.49891000  0.46644000  1.0
  H  H4  1  0.17917000  0.50110000  0.53355000  1.0
  H  H5  1  0.23745000  0.27149000  0.25764000  1.0
  H  H6  1  0.76256000  0.72849000  0.74235000  1.0
  H  H7  1  0.37671000  0.28259000  0.50677000  1.0
  H  H8  1  0.62329000  0.71741000  0.49323000  1.0
  H  H9  1  0.07883000  0.72663000  0.40981000  1.0
  H  H10  1  0.92117000  0.27337000  0.59021000  1.0
  H  H11  1  0.95821000  0.73836000  0.16401000  1.0
  H  H12  1  0.04178000  0.26161000  0.83600000  1.0
  H  H13  1  0.38922000  0.90741000  0.64334000  1.0
  H  H14  1  0.61079000  0.09261000  0.35667000  1.0
  H  H15  1  0.17197000  0.93394000  0.64934000  1.0
  H  H16  1  0.82804000  0.06606000  0.35067000  1.0
  H  H17  1  0.59270000  0.23267000  0.71569000  1.0
  H  H18  1  0.40729000  0.76735000  0.28430000  1.0
  H  H19  1  0.49445000  0.14516000  0.83438000  1.0
  H  H20  1  0.50554000  0.85487000  0.16563000  1.0
  H  H21  1  0.37119000  0.25689000  0.72598000  1.0
  H  H22  1  0.62878000  0.74312000  0.27401000  1.0
  C  C23  1  0.72912000  0.30312000  0.15446000  1.0
  C  C24  1  0.27089000  0.69688000  0.84553000  1.0
  C  C25  1  0.82522000  0.24088000  0.08606000  1.0
  C  C26  1  0.17478000  0.75911000  0.91393000  1.0
  C  C27  1  0.51727000  0.26267000  0.08949000  1.0
  C  C28  1  0.48274000  0.73733000  0.91051000  1.0
  C  C29  1  0.84819000  0.39798000  0.29643000  1.0
  C  C30  1  0.15182000  0.60203000  0.70356000  1.0
  C  C31  1  0.21051000  0.15365000  0.29617000  1.0
  C  C32  1  0.78949000  0.84633000  0.70382000  1.0
  C  C33  1  0.28506000  0.15837000  0.43514000  1.0
  C  C34  1  0.71494000  0.84163000  0.56486000  1.0
  C  C35  1  0.23963000  0.00451000  0.48099000  1.0
  C  C36  1  0.76037000  0.99549000  0.51902000  1.0
  C  C37  1  0.11887000  0.85089000  0.38107000  1.0
  C  C38  1  0.88113000  0.14911000  0.61893000  1.0
  C  C39  1  0.05129000  0.85526000  0.24415000  1.0
  C  C40  1  0.94870000  0.14473000  0.75586000  1.0
  C  C41  1  0.31106000  0.99739000  0.62898000  1.0
  C  C42  1  0.68894000  0.00262000  0.37103000  1.0
  C  C43  1  0.44996000  0.16832000  0.73108000  1.0
  C  C44  1  0.55003000  0.83170000  0.26892000  1.0
  N  N45  1  0.74671000  0.45062000  0.36197000  1.0
  N  N46  1  0.25330000  0.54938000  0.63802000  1.0
  N  N47  1  0.90806000  0.19059000  0.02712000  1.0
  N  N48  1  0.09194000  0.80938000  0.97288000  1.0
  N  N49  1  0.33928000  0.23081000  0.03962000  1.0
  N  N50  1  0.66072000  0.76918000  0.96038000  1.0
  N  N51  1  0.09709000  0.00499000  0.20209000  1.0
  N  N52  1  0.90291000  0.99499000  0.79791000  1.0
  O  O53  1  0.03762000  0.42881000  0.35476000  1.0
  O  O54  1  0.96240000  0.57121000  0.64523000  1.0
