# generated using pymatgen
data_LaH17C17NO7
_symmetry_space_group_name_H-M   'P 1'
_cell_length_a   10.00240000
_cell_length_b   10.69310000
_cell_length_c   10.73480000
_cell_angle_alpha   64.39470000
_cell_angle_beta   65.46590000
_cell_angle_gamma   67.21700000
_symmetry_Int_Tables_number   1
_chemical_formula_structural   LaH17C17NO7
_chemical_formula_sum   'La2 H34 C34 N2 O14'
_cell_volume   911.20382290
_cell_formula_units_Z   2
loop_
 _symmetry_equiv_pos_site_id
 _symmetry_equiv_pos_as_xyz
  1  'x, y, z'
loop_
 _atom_site_type_symbol
 _atom_site_label
 _atom_site_symmetry_multiplicity
 _atom_site_fract_x
 _atom_site_fract_y
 _atom_site_fract_z
 _atom_site_occupancy
  La  La0  1  0.71510000  0.98989000  0.49255000  1.0
  La  La1  1  0.28490000  0.01011000  0.50744000  1.0
  H  H2  1  0.48446000  0.40453000  0.66504000  1.0
  H  H3  1  0.51554000  0.59546000  0.33497000  1.0
  H  H4  1  0.31733000  0.64935000  0.66480000  1.0
  H  H5  1  0.68267000  0.35064000  0.33521000  1.0
  H  H6  1  0.98008000  0.55963000  0.58841000  1.0
  H  H7  1  0.01993000  0.44038000  0.41157000  1.0
  H  H8  1  0.14781000  0.31509000  0.58742000  1.0
  H  H9  1  0.85219000  0.68491000  0.41257000  1.0
  H  H10  1  0.27951000  0.39143000  0.13409000  1.0
  H  H11  1  0.72049000  0.60857000  0.86592000  1.0
  H  H12  1  0.73723000  0.37614000  0.07194000  1.0
  H  H13  1  0.26276000  0.62387000  0.92807000  1.0
  H  H14  1  0.89116000  0.11175000  0.08405000  1.0
  H  H15  1  0.10885000  0.88824000  0.91595000  1.0
  H  H16  1  0.08722000  0.18745000  0.91117000  1.0
  H  H17  1  0.91277000  0.81255000  0.08883000  1.0
  H  H18  1  0.27414000  0.10038000  0.92077000  1.0
  H  H19  1  0.72586000  0.89963000  0.07923000  1.0
  H  H20  1  0.04356000  0.31989000  0.07464000  1.0
  H  H21  1  0.95644000  0.68011000  0.92536000  1.0
  H  H22  1  0.20623000  0.35070000  0.92186000  1.0
  H  H23  1  0.79376000  0.64931000  0.07814000  1.0
  H  H24  1  0.22876000  0.22965000  0.09307000  1.0
  H  H25  1  0.77124000  0.77035000  0.90693000  1.0
  H  H26  1  0.13704000  0.92239000  0.31262000  1.0
  H  H27  1  0.86297000  0.07762000  0.68738000  1.0
  H  H28  1  0.29658000  0.97806000  0.17178000  1.0
  H  H29  1  0.70343000  0.02194000  0.82822000  1.0
  H  H30  1  0.33082000  0.71075000  0.25519000  1.0
  H  H31  1  0.66919000  0.28926000  0.74482000  1.0
  H  H32  1  0.34128000  0.78981000  0.06914000  1.0
  H  H33  1  0.65872000  0.21019000  0.93087000  1.0
  H  H34  1  0.17306000  0.73997000  0.20094000  1.0
  H  H35  1  0.82694000  0.26003000  0.79907000  1.0
  C  C36  1  0.43819000  0.20814000  0.60566000  1.0
  C  C37  1  0.56180000  0.79185000  0.39434000  1.0
  C  C38  1  0.32891000  0.34673000  0.62151000  1.0
  C  C39  1  0.67109000  0.65326000  0.37849000  1.0
  C  C40  1  0.37385000  0.43955000  0.64814000  1.0
  C  C41  1  0.62615000  0.56044000  0.35186000  1.0
  C  C42  1  0.28102000  0.57586000  0.64748000  1.0
  C  C43  1  0.71898000  0.42413000  0.35252000  1.0
  C  C44  1  0.14080000  0.62085000  0.62130000  1.0
  C  C45  1  0.85920000  0.37914000  0.37869000  1.0
  C  C46  1  0.09131000  0.52470000  0.60416000  1.0
  C  C47  1  0.90869000  0.47530000  0.39583000  1.0
  C  C48  1  0.18501000  0.38893000  0.60319000  1.0
  C  C49  1  0.81499000  0.61108000  0.39680000  1.0
  C  C50  1  0.95185000  0.22671000  0.39617000  1.0
  C  C51  1  0.04815000  0.77329000  0.60383000  1.0
  C  C52  1  0.52042000  0.22907000  0.23388000  1.0
  C  C53  1  0.47958000  0.77093000  0.76612000  1.0
  C  C54  1  0.50950000  0.37007000  0.11398000  1.0
  C  C55  1  0.49049000  0.62994000  0.88602000  1.0
  C  C56  1  0.37537000  0.43988000  0.07406000  1.0
  C  C57  1  0.62463000  0.56012000  0.92594000  1.0
  C  C58  1  0.63379000  0.43143000  0.03953000  1.0
  C  C59  1  0.36620000  0.56857000  0.96048000  1.0
  C  C60  1  0.96057000  0.02798000  0.15421000  1.0
  C  C61  1  0.03943000  0.97201000  0.84579000  1.0
  C  C62  1  0.15950000  0.14795000  0.98119000  1.0
  C  C63  1  0.84050000  0.85205000  0.01881000  1.0
  C  C64  1  0.15967000  0.26905000  0.02020000  1.0
  C  C65  1  0.84033000  0.73095000  0.97980000  1.0
  C  C66  1  0.20388000  0.93105000  0.19968000  1.0
  C  C67  1  0.79613000  0.06896000  0.80031000  1.0
  C  C68  1  0.26565000  0.78454000  0.17910000  1.0
  C  C69  1  0.73435000  0.21546000  0.82090000  1.0
  N  N70  1  0.10436000  0.03297000  0.10979000  1.0
  N  N71  1  0.89565000  0.96704000  0.89021000  1.0
  O  O72  1  0.56664000  0.17214000  0.62559000  1.0
  O  O73  1  0.43335000  0.82785000  0.37442000  1.0
  O  O74  1  0.40375000  0.13111000  0.56476000  1.0
  O  O75  1  0.59625000  0.86889000  0.43523000  1.0
  O  O76  1  0.08405000  0.19419000  0.40725000  1.0
  O  O77  1  0.91595000  0.80581000  0.59275000  1.0
  O  O78  1  0.89282000  0.13793000  0.40121000  1.0
  O  O79  1  0.10718000  0.86207000  0.59880000  1.0
  O  O80  1  0.63146000  0.18397000  0.28476000  1.0
  O  O81  1  0.36854000  0.81602000  0.71524000  1.0
  O  O82  1  0.41865000  0.16377000  0.27625000  1.0
  O  O83  1  0.58136000  0.83622000  0.72373000  1.0
  O  O84  1  0.90442000  0.93619000  0.26736000  1.0
  O  O85  1  0.09559000  0.06381000  0.73263000  1.0
