# generated using pymatgen
data_NaH36C30(N2O)3
_symmetry_space_group_name_H-M   'P 1'
_cell_length_a   13.18580000
_cell_length_b   13.18580000
_cell_length_c   21.04850000
_cell_angle_alpha   78.29670000
_cell_angle_beta   78.29670000
_cell_angle_gamma   66.18960000
_symmetry_Int_Tables_number   1
_chemical_formula_structural   NaH36C30(N2O)3
_chemical_formula_sum   'Na4 H144 C120 N24 O12'
_cell_volume   3248.49993275
_cell_formula_units_Z   4
loop_
 _symmetry_equiv_pos_site_id
 _symmetry_equiv_pos_as_xyz
  1  'x, y, z'
loop_
 _atom_site_type_symbol
 _atom_site_label
 _atom_site_symmetry_multiplicity
 _atom_site_fract_x
 _atom_site_fract_y
 _atom_site_fract_z
 _atom_site_occupancy
  Na  Na0  1  0.55713000  0.20947000  0.13459000  1.0
  Na  Na1  1  0.79053000  0.44287000  0.36541000  1.0
  Na  Na2  1  0.44285000  0.79056000  0.86539000  1.0
  Na  Na3  1  0.20944000  0.55715000  0.63461000  1.0
  H  H4  1  0.74373000  0.12581000  0.24531000  1.0
  H  H5  1  0.87419000  0.25626000  0.25470000  1.0
  H  H6  1  0.25628000  0.87421000  0.75468000  1.0
  H  H7  1  0.12580000  0.74372000  0.74532000  1.0
  H  H8  1  0.77035000  0.01031000  0.35555000  1.0
  H  H9  1  0.98969000  0.22965000  0.14445000  1.0
  H  H10  1  0.22967000  0.98961000  0.64440000  1.0
  H  H11  1  0.01040000  0.77032000  0.85560000  1.0
  H  H12  1  0.43573000  0.01954000  0.37037000  1.0
  H  H13  1  0.98046000  0.56427000  0.12963000  1.0
  H  H14  1  0.56431000  0.98042000  0.62954000  1.0
  H  H15  1  0.01959000  0.43569000  0.87046000  1.0
  H  H16  1  0.42227000  0.13545000  0.26056000  1.0
  H  H17  1  0.86455000  0.57773000  0.23944000  1.0
  H  H18  1  0.57777000  0.86458000  0.73938000  1.0
  H  H19  1  0.13542000  0.42223000  0.76062000  1.0
  H  H20  1  0.22824000  0.24355000  0.13095000  1.0
  H  H21  1  0.75645000  0.77176000  0.36905000  1.0
  H  H22  1  0.77174000  0.75647000  0.86905000  1.0
  H  H23  1  0.24353000  0.22826000  0.63095000  1.0
  H  H24  1  0.27410000  0.27394000  0.19681000  1.0
  H  H25  1  0.72606000  0.72589000  0.30319000  1.0
  H  H26  1  0.72586000  0.72609000  0.80320000  1.0
  H  H27  1  0.27391000  0.27414000  0.69680000  1.0
  H  H28  1  0.92262000  0.81876000  0.45681000  1.0
  H  H29  1  0.18124000  0.07738000  0.04319000  1.0
  H  H30  1  0.07742000  0.18126000  0.54313000  1.0
  H  H31  1  0.81874000  0.92258000  0.95686000  1.0
  H  H32  1  0.37996000  0.23758000  0.00535000  1.0
  H  H33  1  0.76242000  0.62004000  0.49465000  1.0
  H  H34  1  0.61998000  0.76245000  0.99470000  1.0
  H  H35  1  0.23756000  0.38001000  0.50530000  1.0
  H  H36  1  0.50745000  0.11764000  0.01121000  1.0
  H  H37  1  0.88236000  0.49255000  0.48879000  1.0
  H  H38  1  0.49249000  0.88239000  0.98883000  1.0
  H  H39  1  0.11762000  0.50751000  0.51117000  1.0
  H  H40  1  0.10300000  0.71954000  0.50636000  1.0
  H  H41  1  0.28046000  0.89699000  0.99364000  1.0
  H  H42  1  0.89702000  0.28051000  0.49359000  1.0
  H  H43  1  0.71949000  0.10298000  0.00641000  1.0
  H  H44  1  0.93344000  0.66215000  0.68930000  1.0
  H  H45  1  0.33785000  0.06655000  0.81070000  1.0
  H  H46  1  0.06658000  0.33787000  0.31064000  1.0
  H  H47  1  0.66213000  0.93342000  0.18936000  1.0
  H  H48  1  0.74735000  0.74784000  0.64488000  1.0
  H  H49  1  0.25217000  0.25264000  0.85512000  1.0
  H  H50  1  0.25268000  0.25214000  0.35505000  1.0
  H  H51  1  0.74787000  0.74732000  0.14495000  1.0
  H  H52  1  0.14323000  0.14672000  0.22158000  1.0
  H  H53  1  0.85329000  0.85677000  0.27842000  1.0
  H  H54  1  0.85674000  0.85332000  0.77842000  1.0
  H  H55  1  0.14669000  0.14326000  0.72158000  1.0
  H  H56  1  0.25280000  0.11328000  0.26867000  1.0
  H  H57  1  0.88672000  0.74720000  0.23133000  1.0
  H  H58  1  0.74716000  0.88674000  0.73134000  1.0
  H  H59  1  0.11326000  0.25284000  0.76866000  1.0
  H  H60  1  0.33855000  0.94279000  0.22696000  1.0
  H  H61  1  0.05721000  0.66144000  0.27304000  1.0
  H  H62  1  0.66141000  0.05724000  0.77305000  1.0
  H  H63  1  0.94276000  0.33859000  0.72695000  1.0
  H  H64  1  0.25052000  0.98754000  0.16502000  1.0
  H  H65  1  0.01246000  0.74947000  0.33498000  1.0
  H  H66  1  0.74945000  0.01249000  0.83498000  1.0
  H  H67  1  0.98752000  0.25055000  0.66502000  1.0
  H  H68  1  0.47870000  0.97721000  0.14263000  1.0
  H  H69  1  0.02279000  0.52130000  0.35737000  1.0
  H  H70  1  0.52128000  0.02282000  0.85738000  1.0
  H  H71  1  0.97718000  0.47872000  0.64262000  1.0
  H  H72  1  0.37619000  0.04780000  0.08800000  1.0
  H  H73  1  0.95221000  0.62380000  0.41200000  1.0
  H  H74  1  0.62378000  0.95224000  0.91201000  1.0
  H  H75  1  0.04777000  0.37622000  0.58799000  1.0
  H  H76  1  0.56732000  0.16203000  0.89736000  1.0
  H  H77  1  0.83797000  0.43268000  0.60263000  1.0
  H  H78  1  0.43260000  0.83797000  0.10268000  1.0
  H  H79  1  0.16203000  0.56740000  0.39732000  1.0
  H  H80  1  0.43039000  0.26657000  0.89373000  1.0
  H  H81  1  0.73344000  0.56961000  0.60627000  1.0
  H  H82  1  0.56954000  0.73346000  0.10631000  1.0
  H  H83  1  0.26654000  0.43046000  0.39369000  1.0
  H  H84  1  0.52130000  0.39674000  0.87559000  1.0
  H  H85  1  0.60326000  0.47870000  0.62441000  1.0
  H  H86  1  0.47868000  0.60327000  0.12444000  1.0
  H  H87  1  0.39673000  0.52132000  0.37556000  1.0
  H  H88  1  0.64449000  0.29146000  0.90461000  1.0
  H  H89  1  0.70854000  0.35551000  0.59539000  1.0
  H  H90  1  0.35548000  0.70851000  0.09542000  1.0
  H  H91  1  0.29149000  0.64452000  0.40457000  1.0
  H  H92  1  0.56904000  0.39373000  0.99846000  1.0
  H  H93  1  0.60627000  0.43096000  0.50154000  1.0
  H  H94  1  0.43094000  0.60626000  0.00157000  1.0
  H  H95  1  0.39373000  0.56906000  0.49843000  1.0
  H  H96  1  0.42820000  0.42744000  0.98490000  1.0
  H  H97  1  0.57256000  0.57180000  0.51510000  1.0
  H  H98  1  0.57177000  0.57259000  0.01512000  1.0
  H  H99  1  0.42741000  0.42823000  0.48487000  1.0
  H  H100  1  0.30021000  0.40902000  0.09951000  1.0
  H  H101  1  0.59098000  0.69979000  0.40049000  1.0
  H  H102  1  0.69976000  0.59097000  0.90048000  1.0
  H  H103  1  0.40903000  0.30024000  0.59951000  1.0
  H  H104  1  0.35453000  0.51548000  0.09131000  1.0
  H  H105  1  0.48452000  0.64546000  0.40869000  1.0
  H  H106  1  0.64543000  0.48451000  0.90868000  1.0
  H  H107  1  0.51549000  0.35456000  0.59132000  1.0
  H  H108  1  0.17080000  0.47453000  0.19536000  1.0
  H  H109  1  0.52546000  0.82920000  0.30464000  1.0
  H  H110  1  0.82918000  0.52546000  0.80464000  1.0
  H  H111  1  0.47454000  0.17082000  0.69536000  1.0
  H  H112  1  0.17315000  0.60448000  0.15267000  1.0
  H  H113  1  0.39552000  0.82684000  0.34733000  1.0
  H  H114  1  0.82681000  0.39552000  0.84732000  1.0
  H  H115  1  0.60448000  0.17318000  0.65268000  1.0
  H  H116  1  0.31800000  0.59520000  0.21345000  1.0
  H  H117  1  0.40480000  0.68200000  0.28655000  1.0
  H  H118  1  0.68198000  0.40479000  0.78655000  1.0
  H  H119  1  0.59521000  0.31802000  0.71345000  1.0
  H  H120  1  0.23471000  0.53910000  0.27623000  1.0
  H  H121  1  0.46090000  0.76528000  0.22377000  1.0
  H  H122  1  0.76526000  0.46089000  0.72377000  1.0
  H  H123  1  0.53911000  0.23474000  0.77623000  1.0
  H  H124  1  0.46031000  0.41549000  0.24337000  1.0
  H  H125  1  0.58451000  0.53968000  0.25663000  1.0
  H  H126  1  0.53966000  0.58450000  0.75662000  1.0
  H  H127  1  0.41550000  0.46034000  0.74338000  1.0
  H  H128  1  0.36260000  0.34868000  0.26566000  1.0
  H  H129  1  0.65132000  0.63740000  0.23434000  1.0
  H  H130  1  0.63736000  0.65132000  0.73433000  1.0
  H  H131  1  0.34868000  0.36263000  0.76567000  1.0
  H  H132  1  0.34389000  0.88450000  0.47731000  1.0
  H  H133  1  0.11551000  0.65610000  0.02269000  1.0
  H  H134  1  0.65614000  0.11542000  0.52261000  1.0
  H  H135  1  0.88459000  0.34386000  0.97739000  1.0
  H  H136  1  0.20294000  0.80008000  0.52920000  1.0
  H  H137  1  0.19992000  0.79706000  0.97081000  1.0
  H  H138  1  0.79705000  0.19989000  0.47075000  1.0
  H  H139  1  0.80012000  0.20294000  0.02924000  1.0
  H  H140  1  0.38531000  0.62460000  0.68214000  1.0
  H  H141  1  0.37539000  0.61469000  0.81786000  1.0
  H  H142  1  0.61471000  0.37539000  0.31782000  1.0
  H  H143  1  0.62462000  0.38529000  0.18218000  1.0
  H  H144  1  0.53325000  0.70368000  0.63676000  1.0
  H  H145  1  0.29632000  0.46675000  0.86324000  1.0
  H  H146  1  0.46680000  0.29627000  0.36315000  1.0
  H  H147  1  0.70373000  0.53319000  0.13685000  1.0
  C  C148  1  0.67724000  0.10014000  0.27448000  1.0
  C  C149  1  0.89986000  0.32276000  0.22552000  1.0
  C  C150  1  0.32280000  0.89983000  0.72548000  1.0
  C  C151  1  0.10017000  0.67720000  0.77452000  1.0
  C  C152  1  0.69283000  0.03516000  0.33518000  1.0
  C  C153  1  0.96485000  0.30717000  0.16482000  1.0
  C  C154  1  0.30720000  0.96479000  0.66476000  1.0
  C  C155  1  0.03521000  0.69279000  0.83524000  1.0
  C  C156  1  0.60585000  0.00229000  0.37156000  1.0
  C  C157  1  0.99772000  0.39415000  0.12844000  1.0
  C  C158  1  0.39419000  0.99765000  0.62837000  1.0
  C  C159  1  0.00235000  0.60581000  0.87163000  1.0
  C  C160  1  0.50569000  0.04105000  0.34372000  1.0
  C  C161  1  0.95896000  0.49431000  0.15628000  1.0
  C  C162  1  0.49435000  0.95889000  0.65621000  1.0
  C  C163  1  0.04111000  0.50564000  0.84379000  1.0
  C  C164  1  0.49849000  0.10602000  0.28312000  1.0
  C  C165  1  0.89399000  0.50151000  0.21688000  1.0
  C  C166  1  0.50155000  0.89397000  0.71683000  1.0
  C  C167  1  0.10604000  0.49845000  0.78317000  1.0
  C  C168  1  0.61666000  0.93289000  0.43467000  1.0
  C  C169  1  0.06711000  0.38333000  0.06533000  1.0
  C  C170  1  0.38336000  0.06706000  0.56526000  1.0
  C  C171  1  0.93295000  0.61664000  0.93474000  1.0
  C  C172  1  0.82250000  0.78857000  0.54744000  1.0
  C  C173  1  0.21144000  0.17750000  0.95256000  1.0
  C  C174  1  0.17751000  0.21143000  0.45250000  1.0
  C  C175  1  0.78858000  0.82248000  0.04750000  1.0
  C  C176  1  0.54193000  0.83731000  0.52138000  1.0
  C  C177  1  0.16269000  0.45807000  0.97862000  1.0
  C  C178  1  0.45810000  0.16264000  0.47856000  1.0
  C  C179  1  0.83737000  0.54189000  0.02144000  1.0
  C  C180  1  0.71667000  0.83388000  0.51848000  1.0
  C  C181  1  0.16612000  0.28333000  0.98153000  1.0
  C  C182  1  0.28335000  0.16607000  0.48146000  1.0
  C  C183  1  0.83394000  0.71665000  0.01854000  1.0
  C  C184  1  0.27565000  0.20663000  0.17303000  1.0
  C  C185  1  0.79337000  0.72434000  0.32697000  1.0
  C  C186  1  0.72431000  0.79340000  0.82698000  1.0
  C  C187  1  0.20660000  0.27569000  0.67302000  1.0
  C  C188  1  0.92337000  0.78351000  0.50833000  1.0
  C  C189  1  0.21649000  0.07663000  0.99167000  1.0
  C  C190  1  0.07664000  0.21651000  0.49162000  1.0
  C  C191  1  0.78348000  0.92336000  0.00838000  1.0
  C  C192  1  0.47161000  0.20703000  0.99277000  1.0
  C  C193  1  0.79297000  0.52839000  0.50723000  1.0
  C  C194  1  0.52833000  0.79299000  0.00727000  1.0
  C  C195  1  0.20701000  0.47167000  0.49273000  1.0
  C  C196  1  0.02212000  0.73028000  0.53620000  1.0
  C  C197  1  0.26972000  0.97787000  0.96380000  1.0
  C  C198  1  0.97789000  0.26977000  0.46375000  1.0
  C  C199  1  0.73022000  0.02211000  0.03625000  1.0
  C  C200  1  0.92802000  0.69628000  0.63763000  1.0
  C  C201  1  0.30372000  0.07197000  0.86237000  1.0
  C  C202  1  0.07200000  0.30375000  0.36231000  1.0
  C  C203  1  0.69625000  0.92800000  0.13769000  1.0
  C  C204  1  0.82528000  0.74450000  0.61376000  1.0
  C  C205  1  0.25550000  0.17472000  0.88624000  1.0
  C  C206  1  0.17474000  0.25551000  0.38618000  1.0
  C  C207  1  0.74449000  0.82526000  0.11382000  1.0
  C  C208  1  0.45343000  0.79651000  0.55136000  1.0
  C  C209  1  0.20349000  0.54657000  0.94864000  1.0
  C  C210  1  0.54660000  0.20344000  0.44858000  1.0
  C  C211  1  0.79658000  0.45339000  0.05142000  1.0
  C  C212  1  0.23390000  0.12164000  0.21892000  1.0
  C  C213  1  0.87836000  0.76610000  0.28109000  1.0
  C  C214  1  0.76607000  0.87839000  0.78109000  1.0
  C  C215  1  0.12161000  0.23393000  0.71891000  1.0
  C  C216  1  0.30233000  0.01182000  0.18903000  1.0
  C  C217  1  0.98818000  0.69766000  0.31097000  1.0
  C  C218  1  0.69764000  0.98821000  0.81097000  1.0
  C  C219  1  0.01179000  0.30236000  0.68903000  1.0
  C  C220  1  0.39370000  0.03902000  0.13845000  1.0
  C  C221  1  0.96098000  0.60629000  0.36155000  1.0
  C  C222  1  0.60627000  0.96101000  0.86156000  1.0
  C  C223  1  0.03899000  0.39373000  0.63844000  1.0
  C  C224  1  0.50475000  0.23545000  0.91875000  1.0
  C  C225  1  0.76455000  0.49525000  0.58125000  1.0
  C  C226  1  0.49518000  0.76456000  0.08129000  1.0
  C  C227  1  0.23544000  0.50481000  0.41871000  1.0
  C  C228  1  0.55254000  0.32661000  0.91404000  1.0
  C  C229  1  0.67339000  0.44746000  0.58596000  1.0
  C  C230  1  0.44742000  0.67340000  0.08599000  1.0
  C  C231  1  0.32660000  0.55257000  0.41401000  1.0
  C  C232  1  0.51399000  0.36321000  0.98209000  1.0
  C  C233  1  0.63679000  0.48601000  0.51791000  1.0
  C  C234  1  0.48598000  0.63680000  0.01794000  1.0
  C  C235  1  0.36320000  0.51402000  0.48206000  1.0
  C  C236  1  0.32188000  0.45842000  0.12676000  1.0
  C  C237  1  0.54158000  0.67812000  0.37324000  1.0
  C  C238  1  0.67809000  0.54157000  0.87323000  1.0
  C  C239  1  0.45843000  0.32191000  0.62677000  1.0
  C  C240  1  0.22521000  0.52174000  0.17536000  1.0
  C  C241  1  0.47825000  0.77479000  0.32464000  1.0
  C  C242  1  0.77476000  0.47825000  0.82464000  1.0
  C  C243  1  0.52175000  0.22524000  0.67536000  1.0
  C  C244  1  0.28679000  0.52693000  0.22848000  1.0
  C  C245  1  0.47307000  0.71321000  0.27152000  1.0
  C  C246  1  0.71319000  0.47307000  0.77151000  1.0
  C  C247  1  0.52693000  0.28681000  0.72849000  1.0
  C  C248  1  0.38430000  0.41368000  0.23052000  1.0
  C  C249  1  0.58632000  0.61570000  0.26947000  1.0
  C  C250  1  0.61567000  0.58632000  0.76947000  1.0
  C  C251  1  0.41368000  0.38433000  0.73053000  1.0
  C  C252  1  0.35621000  0.82577000  0.52227000  1.0
  C  C253  1  0.17423000  0.64379000  0.97773000  1.0
  C  C254  1  0.64381000  0.17417000  0.47766000  1.0
  C  C255  1  0.82584000  0.35618000  0.02234000  1.0
  C  C256  1  0.27830000  0.77866000  0.55142000  1.0
  C  C257  1  0.22134000  0.72170000  0.94859000  1.0
  C  C258  1  0.72169000  0.22132000  0.44854000  1.0
  C  C259  1  0.77868000  0.27831000  0.05146000  1.0
  C  C260  1  0.37935000  0.68162000  0.63616000  1.0
  C  C261  1  0.31838000  0.62065000  0.86384000  1.0
  C  C262  1  0.62065000  0.31836000  0.36379000  1.0
  C  C263  1  0.68164000  0.37935000  0.13621000  1.0
  C  C264  1  0.46198000  0.72444000  0.61121000  1.0
  C  C265  1  0.27556000  0.53802000  0.88879000  1.0
  C  C266  1  0.53804000  0.27550000  0.38872000  1.0
  C  C267  1  0.72451000  0.46195000  0.11128000  1.0
  N  N268  1  0.58225000  0.13552000  0.24727000  1.0
  N  N269  1  0.86448000  0.41775000  0.25273000  1.0
  N  N270  1  0.41779000  0.86447000  0.75270000  1.0
  N  N271  1  0.13553000  0.58221000  0.74730000  1.0
  N  N272  1  0.02587000  0.68633000  0.59962000  1.0
  N  N273  1  0.31367000  0.97412000  0.90038000  1.0
  N  N274  1  0.97414000  0.31372000  0.40032000  1.0
  N  N275  1  0.68628000  0.02586000  0.09968000  1.0
  N  N276  1  0.28911000  0.70458000  0.60697000  1.0
  N  N277  1  0.29542000  0.71090000  0.89303000  1.0
  N  N278  1  0.71088000  0.29541000  0.39299000  1.0
  N  N279  1  0.70460000  0.28911000  0.10701000  1.0
  N  N280  1  0.71578000  0.89694000  0.46022000  1.0
  N  N281  1  0.10306000  0.28421000  0.03978000  1.0
  N  N282  1  0.28424000  0.10300000  0.53972000  1.0
  N  N283  1  0.89700000  0.71576000  0.96029000  1.0
  N  N284  1  0.53126000  0.90124000  0.46320000  1.0
  N  N285  1  0.09876000  0.46874000  0.03680000  1.0
  N  N286  1  0.46877000  0.09870000  0.53673000  1.0
  N  N287  1  0.90131000  0.53122000  0.96327000  1.0
  N  N288  1  0.63486000  0.80137000  0.55283000  1.0
  N  N289  1  0.19863000  0.36514000  0.94717000  1.0
  N  N290  1  0.36516000  0.19858000  0.44713000  1.0
  N  N291  1  0.80143000  0.63483000  0.05288000  1.0
  O  O292  1  0.39112000  0.14354000  0.15056000  1.0
  O  O293  1  0.85647000  0.60888000  0.34944000  1.0
  O  O294  1  0.60885000  0.85650000  0.84945000  1.0
  O  O295  1  0.14350000  0.39115000  0.65055000  1.0
  O  O296  1  0.51574000  0.26337000  0.02541000  1.0
  O  O297  1  0.73663000  0.48426000  0.47459000  1.0
  O  O298  1  0.48421000  0.73664000  0.97463000  1.0
  O  O299  1  0.26336000  0.51579000  0.52537000  1.0
  O  O300  1  0.40919000  0.38250000  0.16542000  1.0
  O  O301  1  0.61750000  0.59081000  0.33458000  1.0
  O  O302  1  0.59079000  0.61750000  0.83457000  1.0
  O  O303  1  0.38251000  0.40921000  0.66543000  1.0
