# generated using pymatgen
data_Ag3H2C2(N3O)3
_symmetry_space_group_name_H-M   'P 1'
_cell_length_a   6.78933000
_cell_length_b   6.78938000
_cell_length_c   10.95090000
_cell_angle_alpha   83.02140000
_cell_angle_beta   83.02180000
_cell_angle_gamma   71.13820000
_symmetry_Int_Tables_number   1
_chemical_formula_structural   Ag3H2C2(N3O)3
_chemical_formula_sum   'Ag6 H4 C4 N18 O6'
_cell_volume   472.32055661
_cell_formula_units_Z   2
loop_
 _symmetry_equiv_pos_site_id
 _symmetry_equiv_pos_as_xyz
  1  'x, y, z'
loop_
 _atom_site_type_symbol
 _atom_site_label
 _atom_site_symmetry_multiplicity
 _atom_site_fract_x
 _atom_site_fract_y
 _atom_site_fract_z
 _atom_site_occupancy
  Ag  Ag0  1  0.12591000  0.87408000  0.75000000  1.0
  Ag  Ag1  1  0.87408000  0.12592000  0.25000000  1.0
  Ag  Ag2  1  0.99670000  0.53827000  0.31011000  1.0
  Ag  Ag3  1  0.46173000  0.00330000  0.18989000  1.0
  Ag  Ag4  1  0.00330000  0.46172000  0.68989000  1.0
  Ag  Ag5  1  0.53827000  0.99670000  0.81011000  1.0
  H  H6  1  0.24303000  0.60497000  0.03161000  1.0
  H  H7  1  0.39503000  0.75699000  0.46839000  1.0
  H  H8  1  0.75698000  0.39503000  0.96839000  1.0
  H  H9  1  0.60498000  0.24301000  0.53161000  1.0
  C  C10  1  0.07783000  0.68972000  0.02829000  1.0
  C  C11  1  0.31029000  0.92214000  0.47171000  1.0
  C  C12  1  0.92216000  0.31028000  0.97172000  1.0
  C  C13  1  0.68971000  0.07786000  0.52829000  1.0
  N  N14  1  0.98788000  0.80095000  0.92861000  1.0
  N  N15  1  0.19905000  0.01212000  0.57139000  1.0
  N  N16  1  0.01212000  0.19905000  0.07139000  1.0
  N  N17  1  0.80095000  0.98788000  0.42861000  1.0
  N  N18  1  0.78277000  0.87902000  0.96356000  1.0
  N  N19  1  0.12098000  0.21723000  0.53644000  1.0
  N  N20  1  0.21723000  0.12098000  0.03644000  1.0
  N  N21  1  0.87902000  0.78277000  0.46356000  1.0
  N  N22  1  0.74977000  0.81743000  0.08080000  1.0
  N  N23  1  0.18257000  0.25023000  0.41920000  1.0
  N  N24  1  0.25023000  0.18257000  0.91920000  1.0
  N  N25  1  0.81743000  0.74977000  0.58079000  1.0
  N  N26  1  0.93320000  0.69759000  0.12370000  1.0
  N  N27  1  0.30241000  0.06681000  0.37630000  1.0
  N  N28  1  0.06680000  0.30241000  0.87630000  1.0
  N  N29  1  0.69759000  0.93319000  0.62370000  1.0
  N  N30  1  0.48346000  0.51654000  0.25000000  1.0
  N  N31  1  0.51654000  0.48346000  0.75000000  1.0
  O  O32  1  0.32326000  0.67674000  0.25000000  1.0
  O  O33  1  0.67673000  0.32327000  0.75000000  1.0
  O  O34  1  0.60608000  0.47921000  0.33524000  1.0
  O  O35  1  0.52078000  0.39392000  0.16476000  1.0
  O  O36  1  0.39391000  0.52079000  0.66476000  1.0
  O  O37  1  0.47921000  0.60608000  0.83524000  1.0
