# generated using pymatgen
data_CuPH9C3O4
_symmetry_space_group_name_H-M   'P 1'
_cell_length_a   7.43810000
_cell_length_b   7.51388000
_cell_length_c   11.79950000
_cell_angle_alpha   89.99940000
_cell_angle_beta   99.25110000
_cell_angle_gamma   89.99990000
_symmetry_Int_Tables_number   1
_chemical_formula_structural   CuPH9C3O4
_chemical_formula_sum   'Cu4 P4 H36 C12 O16'
_cell_volume   650.88470796
_cell_formula_units_Z   4
loop_
 _symmetry_equiv_pos_site_id
 _symmetry_equiv_pos_as_xyz
  1  'x, y, z'
loop_
 _atom_site_type_symbol
 _atom_site_label
 _atom_site_symmetry_multiplicity
 _atom_site_fract_x
 _atom_site_fract_y
 _atom_site_fract_z
 _atom_site_occupancy
  Cu  Cu0  1  0.56069000  0.18932000  0.96455000  1.0
  Cu  Cu1  1  0.93932000  0.68931000  0.03546000  1.0
  Cu  Cu2  1  0.43933000  0.81069000  0.03545000  1.0
  Cu  Cu3  1  0.06068000  0.31069000  0.96454000  1.0
  P  P4  1  0.88590000  0.05226000  0.13614000  1.0
  P  P5  1  0.61408000  0.55227000  0.86385000  1.0
  P  P6  1  0.11410000  0.94774000  0.86386000  1.0
  P  P7  1  0.38592000  0.44772000  0.13615000  1.0
  H  H8  1  0.97476000  0.13434000  0.33243000  1.0
  H  H9  1  0.52524000  0.63433000  0.66757000  1.0
  H  H10  1  0.02523000  0.86567000  0.66757000  1.0
  H  H11  1  0.47476000  0.36567000  0.33243000  1.0
  H  H12  1  0.89019000  0.81494000  0.34671000  1.0
  H  H13  1  0.60981000  0.31495000  0.65329000  1.0
  H  H14  1  0.10981000  0.18505000  0.65329000  1.0
  H  H15  1  0.39018000  0.68506000  0.34670000  1.0
  H  H16  1  0.66570000  0.85876000  0.27948000  1.0
  H  H17  1  0.83430000  0.35876000  0.72052000  1.0
  H  H18  1  0.33430000  0.14124000  0.72052000  1.0
  H  H19  1  0.16570000  0.64123000  0.27947000  1.0
  H  H20  1  0.74557000  0.19049000  0.27808000  1.0
  H  H21  1  0.75443000  0.69048000  0.72192000  1.0
  H  H22  1  0.25442000  0.80952000  0.72192000  1.0
  H  H23  1  0.24557000  0.30951000  0.27807000  1.0
  H  H24  1  0.83616000  0.01471000  0.51380000  1.0
  H  H25  1  0.66385000  0.51471000  0.48620000  1.0
  H  H26  1  0.16385000  0.98529000  0.48620000  1.0
  H  H27  1  0.33615000  0.48529000  0.51380000  1.0
  H  H28  1  0.61182000  0.05494000  0.44190000  1.0
  H  H29  1  0.88818000  0.55494000  0.55811000  1.0
  H  H30  1  0.38817000  0.94506000  0.55810000  1.0
  H  H31  1  0.11181000  0.44506000  0.44189000  1.0
  H  H32  1  0.67585000  0.83773000  0.49150000  1.0
  H  H33  1  0.82416000  0.33774000  0.50851000  1.0
  H  H34  1  0.32415000  0.16226000  0.50851000  1.0
  H  H35  1  0.17583000  0.66226000  0.49148000  1.0
  H  H36  1  0.60067000  0.93242000  0.84892000  1.0
  H  H37  1  0.89933000  0.43241000  0.15108000  1.0
  H  H38  1  0.39934000  0.06758000  0.15108000  1.0
  H  H39  1  0.10067000  0.56758000  0.84892000  1.0
  H  H40  1  0.76407000  0.06868000  0.83894000  1.0
  H  H41  1  0.73593000  0.56867000  0.16106000  1.0
  H  H42  1  0.23594000  0.93132000  0.16106000  1.0
  H  H43  1  0.26407000  0.43133000  0.83894000  1.0
  C  C44  1  0.78190000  0.91608000  0.33714000  1.0
  C  C45  1  0.71810000  0.41607000  0.66286000  1.0
  C  C46  1  0.21810000  0.08392000  0.66286000  1.0
  C  C47  1  0.28190000  0.58392000  0.33714000  1.0
  C  C48  1  0.72377000  0.95787000  0.45251000  1.0
  C  C49  1  0.77624000  0.45787000  0.54750000  1.0
  C  C50  1  0.27623000  0.04213000  0.54750000  1.0
  C  C51  1  0.22376000  0.54213000  0.45250000  1.0
  C  C52  1  0.84769000  0.08345000  0.28210000  1.0
  C  C53  1  0.65232000  0.58345000  0.71790000  1.0
  C  C54  1  0.15230000  0.91656000  0.71790000  1.0
  C  C55  1  0.34769000  0.41655000  0.28210000  1.0
  O  O56  1  0.62696000  0.05824000  0.82907000  1.0
  O  O57  1  0.87304000  0.55823000  0.17093000  1.0
  O  O58  1  0.37304000  0.94177000  0.17093000  1.0
  O  O59  1  0.12696000  0.44177000  0.82906000  1.0
  O  O60  1  0.70334000  0.00503000  0.05945000  1.0
  O  O61  1  0.79665000  0.50503000  0.94055000  1.0
  O  O62  1  0.29666000  0.99497000  0.94055000  1.0
  O  O63  1  0.20335000  0.49496000  0.05945000  1.0
  O  O64  1  0.97029000  0.23003000  0.10389000  1.0
  O  O65  1  0.52971000  0.73004000  0.89611000  1.0
  O  O66  1  0.02970000  0.76997000  0.89610000  1.0
  O  O67  1  0.47029000  0.26996000  0.10390000  1.0
  O  O68  1  0.02085000  0.89528000  0.13233000  1.0
  O  O69  1  0.47915000  0.39528000  0.86768000  1.0
  O  O70  1  0.97915000  0.10472000  0.86768000  1.0
  O  O71  1  0.52085000  0.60472000  0.13232000  1.0
