# generated using pymatgen
data_CuH7C7NClO
_symmetry_space_group_name_H-M   'P 1'
_cell_length_a   3.74352000
_cell_length_b   12.95925054
_cell_length_c   15.74610000
_cell_angle_alpha   89.99967084
_cell_angle_beta   89.99990000
_cell_angle_gamma   81.88034955
_symmetry_Int_Tables_number   1
_chemical_formula_structural   CuH7C7NClO
_chemical_formula_sum   'Cu4 H28 C28 N4 Cl4 O4'
_cell_volume   756.23608596
_cell_formula_units_Z   4
loop_
 _symmetry_equiv_pos_site_id
 _symmetry_equiv_pos_as_xyz
  1  'x, y, z'
loop_
 _atom_site_type_symbol
 _atom_site_label
 _atom_site_symmetry_multiplicity
 _atom_site_fract_x
 _atom_site_fract_y
 _atom_site_fract_z
 _atom_site_occupancy
  Cu  Cu0  1  0.25025000  0.50453000  0.56089000  1.0
  Cu  Cu1  1  0.74975000  0.99547000  0.06089000  1.0
  Cu  Cu2  1  0.74974000  0.49547000  0.43911000  1.0
  Cu  Cu3  1  0.25024000  0.00453000  0.93911000  1.0
  H  H4  1  0.76241000  0.58255000  0.01339000  1.0
  H  H5  1  0.23760000  0.91745000  0.51338000  1.0
  H  H6  1  0.23760000  0.41744000  0.98662000  1.0
  H  H7  1  0.76242000  0.08256000  0.48661000  1.0
  H  H8  1  0.32501000  0.64148000  0.97912000  1.0
  H  H9  1  0.67501000  0.85852000  0.47911000  1.0
  H  H10  1  0.67500000  0.35852000  0.02089000  1.0
  H  H11  1  0.32502000  0.14148000  0.52088000  1.0
  H  H12  1  0.69962000  0.70487000  0.95748000  1.0
  H  H13  1  0.30041000  0.79512000  0.45749000  1.0
  H  H14  1  0.30040000  0.29512000  0.04252000  1.0
  H  H15  1  0.69962000  0.20488000  0.54251000  1.0
  H  H16  1  0.55671000  0.47708000  0.73109000  1.0
  H  H17  1  0.44328000  0.02292000  0.23109000  1.0
  H  H18  1  0.44327000  0.52292000  0.26891000  1.0
  H  H19  1  0.55672000  0.97708000  0.76891000  1.0
  H  H20  1  0.37698000  0.77878000  0.85233000  1.0
  H  H21  1  0.62299000  0.72122000  0.35233000  1.0
  H  H22  1  0.62301000  0.22121000  0.14767000  1.0
  H  H23  1  0.37702000  0.27879000  0.64767000  1.0
  H  H24  1  0.08955000  0.85058000  0.71638000  1.0
  H  H25  1  0.91045000  0.64942000  0.21637000  1.0
  H  H26  1  0.91045000  0.14943000  0.28363000  1.0
  H  H27  1  0.08957000  0.35057000  0.78363000  1.0
  H  H28  1  0.04360000  0.72964000  0.59529000  1.0
  H  H29  1  0.95639000  0.77037000  0.09529000  1.0
  H  H30  1  0.95638000  0.27037000  0.40471000  1.0
  H  H31  1  0.04360000  0.22963000  0.90471000  1.0
  C  C32  1  0.66533000  0.57023000  0.87968000  1.0
  C  C33  1  0.33466000  0.92977000  0.37968000  1.0
  C  C34  1  0.33465000  0.42977000  0.12032000  1.0
  C  C35  1  0.66534000  0.07024000  0.62031000  1.0
  C  C36  1  0.61291000  0.62733000  0.96259000  1.0
  C  C37  1  0.38711000  0.87266000  0.46259000  1.0
  C  C38  1  0.38710000  0.37266000  0.03741000  1.0
  C  C39  1  0.61292000  0.12734000  0.53741000  1.0
  C  C40  1  0.45469000  0.56011000  0.73031000  1.0
  C  C41  1  0.54530000  0.93989000  0.23031000  1.0
  C  C42  1  0.54529000  0.43989000  0.26969000  1.0
  C  C43  1  0.45471000  0.06011000  0.76968000  1.0
  C  C44  1  0.48966000  0.62132000  0.80220000  1.0
  C  C45  1  0.51032000  0.87868000  0.30220000  1.0
  C  C46  1  0.51031000  0.37868000  0.19780000  1.0
  C  C47  1  0.48969000  0.12132000  0.69779000  1.0
  C  C48  1  0.35504000  0.72773000  0.79825000  1.0
  C  C49  1  0.64495000  0.77227000  0.29824000  1.0
  C  C50  1  0.64495000  0.27227000  0.20176000  1.0
  C  C51  1  0.35507000  0.22773000  0.70175000  1.0
  C  C52  1  0.19545000  0.76827000  0.72312000  1.0
  C  C53  1  0.80454000  0.73173000  0.22312000  1.0
  C  C54  1  0.80454000  0.23173000  0.27688000  1.0
  C  C55  1  0.19546000  0.26827000  0.77688000  1.0
  C  C56  1  0.16907000  0.70161000  0.65504000  1.0
  C  C57  1  0.83092000  0.79840000  0.15504000  1.0
  C  C58  1  0.83092000  0.29840000  0.34496000  1.0
  C  C59  1  0.16907000  0.20160000  0.84496000  1.0
  N  N60  1  0.29466000  0.59837000  0.65825000  1.0
  N  N61  1  0.70533000  0.90164000  0.15824000  1.0
  N  N62  1  0.70532000  0.40164000  0.34176000  1.0
  N  N63  1  0.29468000  0.09836000  0.84175000  1.0
  Cl  Cl64  1  0.17278000  0.60995000  0.43615000  1.0
  Cl  Cl65  1  0.82721000  0.89005000  0.93615000  1.0
  Cl  Cl66  1  0.82721000  0.39006000  0.56385000  1.0
  Cl  Cl67  1  0.17278000  0.10995000  0.06385000  1.0
  O  O68  1  0.84639000  0.48293000  0.87425000  1.0
  O  O69  1  0.15363000  0.01705000  0.37425000  1.0
  O  O70  1  0.15361000  0.51705000  0.12575000  1.0
  O  O71  1  0.84638000  0.98294000  0.62575000  1.0
