# generated using pymatgen
data_TmCoH16C16(N5O3)2
_symmetry_space_group_name_H-M   'P 1'
_cell_length_a   10.02150000
_cell_length_b   10.52200000
_cell_length_c   12.41850000
_cell_angle_alpha   73.83830000
_cell_angle_beta   76.20520000
_cell_angle_gamma   71.29590000
_symmetry_Int_Tables_number   1
_chemical_formula_structural   TmCoH16C16(N5O3)2
_chemical_formula_sum   'Tm2 Co2 H32 C32 N20 O12'
_cell_volume   1175.18231596
_cell_formula_units_Z   2
loop_
 _symmetry_equiv_pos_site_id
 _symmetry_equiv_pos_as_xyz
  1  'x, y, z'
loop_
 _atom_site_type_symbol
 _atom_site_label
 _atom_site_symmetry_multiplicity
 _atom_site_fract_x
 _atom_site_fract_y
 _atom_site_fract_z
 _atom_site_occupancy
  Tm  Tm0  1  0.40138000  0.31241000  0.29150000  1.0
  Tm  Tm1  1  0.59862000  0.68759000  0.70849000  1.0
  Co  Co2  1  0.34238000  0.29383000  0.73726000  1.0
  Co  Co3  1  0.65763000  0.70616000  0.26274000  1.0
  H  H4  1  0.28715000  0.75352000  0.54377000  1.0
  H  H5  1  0.71285000  0.24649000  0.45623000  1.0
  H  H6  1  0.33250000  0.90278000  0.02200000  1.0
  H  H7  1  0.66750000  0.09722000  0.97800000  1.0
  H  H8  1  0.12604000  0.51399000  0.09618000  1.0
  H  H9  1  0.87396000  0.48602000  0.90382000  1.0
  H  H10  1  0.47812000  0.65302000  0.06708000  1.0
  H  H11  1  0.52188000  0.34699000  0.93292000  1.0
  H  H12  1  0.01278000  0.68129000  0.29632000  1.0
  H  H13  1  0.98722000  0.31872000  0.70368000  1.0
  H  H14  1  0.36373000  0.54269000  0.46027000  1.0
  H  H15  1  0.63626000  0.45731000  0.53973000  1.0
  H  H16  1  0.96712000  0.75760000  0.04532000  1.0
  H  H17  1  0.03288000  0.24241000  0.95468000  1.0
  H  H18  1  0.92089000  0.89837000  0.37103000  1.0
  H  H19  1  0.07910000  0.10163000  0.62897000  1.0
  H  H20  1  0.41833000  0.08580000  0.18604000  1.0
  H  H21  1  0.58167000  0.91420000  0.81396000  1.0
  H  H22  1  0.36497000  0.22629000  0.10040000  1.0
  H  H23  1  0.63504000  0.77371000  0.89960000  1.0
  H  H24  1  0.71134000  0.26395000  0.24645000  1.0
  H  H25  1  0.28866000  0.73604000  0.75356000  1.0
  H  H26  1  0.69753000  0.11248000  0.25466000  1.0
  H  H27  1  0.30247000  0.88752000  0.74534000  1.0
  H  H28  1  0.39613000  0.01062000  0.36777000  1.0
  H  H29  1  0.60388000  0.98938000  0.63223000  1.0
  H  H30  1  0.38635000  0.06214000  0.47853000  1.0
  H  H31  1  0.61361000  0.93788000  0.52146000  1.0
  H  H32  1  0.16754000  0.20579000  0.28660000  1.0
  H  H33  1  0.83247000  0.79420000  0.71339000  1.0
  H  H34  1  0.08368000  0.35559000  0.30945000  1.0
  H  H35  1  0.91632000  0.64440000  0.69056000  1.0
  C  C36  1  0.38037000  0.29748000  0.58285000  1.0
  C  C37  1  0.61963000  0.70251000  0.41714000  1.0
  C  C38  1  0.57759000  0.56452000  0.27733000  1.0
  C  C39  1  0.42241000  0.43547000  0.72267000  1.0
  C  C40  1  0.30015000  0.28161000  0.89382000  1.0
  C  C41  1  0.69985000  0.71839000  0.10618000  1.0
  C  C42  1  0.36494000  0.68449000  0.06279000  1.0
  C  C43  1  0.63506000  0.31551000  0.93721000  1.0
  C  C44  1  0.51832000  0.16318000  0.74682000  1.0
  C  C45  1  0.48169000  0.83680000  0.25318000  1.0
  C  C46  1  0.26809000  0.62516000  0.44497000  1.0
  C  C47  1  0.73191000  0.37485000  0.55504000  1.0
  C  C48  1  0.26751000  0.14618000  0.75549000  1.0
  C  C49  1  0.73249000  0.85381000  0.24451000  1.0
  C  C50  1  0.17014000  0.43048000  0.72129000  1.0
  C  C51  1  0.82987000  0.56952000  0.27871000  1.0
  C  C52  1  0.22321000  0.74095000  0.48977000  1.0
  C  C53  1  0.77679000  0.25905000  0.51024000  1.0
  C  C54  1  0.13860000  0.84879000  0.03168000  1.0
  C  C55  1  0.86140000  0.15121000  0.96832000  1.0
  C  C56  1  0.09731000  0.84171000  0.46472000  1.0
  C  C57  1  0.90269000  0.15829000  0.53528000  1.0
  C  C58  1  0.16319000  0.60534000  0.07720000  1.0
  C  C59  1  0.83681000  0.39466000  0.92280000  1.0
  C  C60  1  0.28364000  0.81936000  0.03764000  1.0
  C  C61  1  0.71636000  0.18065000  0.96237000  1.0
  C  C62  1  0.07929000  0.73837000  0.04991000  1.0
  C  C63  1  0.92071000  0.26163000  0.95009000  1.0
  C  C64  1  0.06652000  0.70628000  0.35063000  1.0
  C  C65  1  0.93347000  0.29373000  0.64937000  1.0
  C  C66  1  0.01862000  0.82231000  0.39361000  1.0
  C  C67  1  0.98137000  0.17770000  0.60639000  1.0
  N  N68  1  0.30356000  0.57984000  0.08514000  1.0
  N  N69  1  0.69644000  0.42016000  0.91486000  1.0
  N  N70  1  0.19010000  0.60887000  0.37620000  1.0
  N  N71  1  0.80990000  0.39114000  0.62380000  1.0
  N  N72  1  0.40405000  0.29237000  0.48684000  1.0
  N  N73  1  0.59595000  0.70762000  0.51316000  1.0
  N  N74  1  0.52919000  0.47487000  0.28263000  1.0
  N  N75  1  0.47082000  0.52512000  0.71737000  1.0
  N  N76  1  0.05855000  0.95683000  0.51218000  1.0
  N  N77  1  0.94145000  0.04317000  0.48783000  1.0
  N  N78  1  0.06698000  0.52207000  0.71020000  1.0
  N  N79  1  0.93302000  0.47792000  0.28980000  1.0
  N  N80  1  0.62640000  0.07534000  0.74513000  1.0
  N  N81  1  0.37361000  0.92467000  0.25487000  1.0
  N  N82  1  0.23305000  0.04741000  0.76220000  1.0
  N  N83  1  0.76694000  0.95258000  0.23781000  1.0
  N  N84  1  0.27341000  0.27670000  0.99185000  1.0
  N  N85  1  0.72659000  0.72331000  0.00815000  1.0
  N  N86  1  0.06137000  0.98856000  0.01206000  1.0
  N  N87  1  0.93863000  0.01145000  0.98794000  1.0
  O  O88  1  0.42603000  0.18138000  0.16188000  1.0
  O  O89  1  0.57397000  0.81862000  0.83812000  1.0
  O  O90  1  0.37986000  0.45152000  0.11462000  1.0
  O  O91  1  0.62014000  0.54849000  0.88539000  1.0
  O  O92  1  0.22814000  0.50070000  0.33231000  1.0
  O  O93  1  0.77186000  0.49930000  0.66770000  1.0
  O  O94  1  0.64534000  0.20726000  0.27022000  1.0
  O  O95  1  0.35466000  0.79274000  0.72977000  1.0
  O  O96  1  0.17497000  0.27823000  0.31741000  1.0
  O  O97  1  0.82503000  0.72176000  0.68259000  1.0
  O  O98  1  0.42337000  0.07506000  0.39737000  1.0
  O  O99  1  0.57664000  0.92493000  0.60263000  1.0
