# generated using pymatgen
data_CoH14C24S(NO3)2
_symmetry_space_group_name_H-M   'P 1'
_cell_length_a   7.71384000
_cell_length_b   12.45730000
_cell_length_c   12.45710000
_cell_angle_alpha   112.61500000
_cell_angle_beta   101.36800000
_cell_angle_gamma   101.36800000
_symmetry_Int_Tables_number   1
_chemical_formula_structural   CoH14C24S(NO3)2
_chemical_formula_sum   'Co2 H28 C48 S2 N4 O12'
_cell_volume   1032.89790902
_cell_formula_units_Z   2
loop_
 _symmetry_equiv_pos_site_id
 _symmetry_equiv_pos_as_xyz
  1  'x, y, z'
loop_
 _atom_site_type_symbol
 _atom_site_label
 _atom_site_symmetry_multiplicity
 _atom_site_fract_x
 _atom_site_fract_y
 _atom_site_fract_z
 _atom_site_occupancy
  Co  Co0  1  0.12815000  0.20157000  0.38965000  1.0
  Co  Co1  1  0.62816000  0.38967000  0.20158000  1.0
  H  H2  1  0.13550000  0.64401000  0.42032000  1.0
  H  H3  1  0.63551000  0.42033000  0.64401000  1.0
  H  H4  1  0.38199000  0.81870000  0.59675000  1.0
  H  H5  1  0.88199000  0.59676000  0.81871000  1.0
  H  H6  1  0.10721000  0.43490000  0.62424000  1.0
  H  H7  1  0.60722000  0.62424000  0.43489000  1.0
  H  H8  1  0.61060000  0.96769000  0.78434000  1.0
  H  H9  1  0.11061000  0.78435000  0.96770000  1.0
  H  H10  1  0.83478000  0.09853000  0.99108000  1.0
  H  H11  1  0.33477000  0.99108000  0.09853000  1.0
  H  H12  1  0.67914000  0.81908000  0.10620000  1.0
  H  H13  1  0.17914000  0.10620000  0.81907000  1.0
  H  H14  1  0.46356000  0.14741000  0.31526000  1.0
  H  H15  1  0.96354000  0.31527000  0.14743000  1.0
  H  H16  1  0.58904000  0.97122000  0.26065000  1.0
  H  H17  1  0.08905000  0.26066000  0.97123000  1.0
  H  H18  1  0.17811000  0.80181000  0.38624000  1.0
  H  H19  1  0.67811000  0.38624000  0.80181000  1.0
  H  H20  1  0.07815000  0.98663000  0.44146000  1.0
  H  H21  1  0.57814000  0.44146000  0.98663000  1.0
  H  H22  1  0.74110000  0.84728000  0.32114000  1.0
  H  H23  1  0.24109000  0.32115000  0.84727000  1.0
  H  H24  1  0.82469000  0.65323000  0.26340000  1.0
  H  H25  1  0.32467000  0.26340000  0.65323000  1.0
  H  H26  1  0.27870000  0.44677000  0.16259000  1.0
  H  H27  1  0.77869000  0.16258000  0.44677000  1.0
  H  H28  1  0.16901000  0.63023000  0.21170000  1.0
  H  H29  1  0.66902000  0.21170000  0.63024000  1.0
  C  C30  1  0.95889000  0.42679000  0.40329000  1.0
  C  C31  1  0.45892000  0.40329000  0.42679000  1.0
  C  C32  1  0.10897000  0.52918000  0.51070000  1.0
  C  C33  1  0.60900000  0.51070000  0.52917000  1.0
  C  C34  1  0.18646000  0.63771000  0.50489000  1.0
  C  C35  1  0.68647000  0.50490000  0.63772000  1.0
  C  C36  1  0.32274000  0.73568000  0.60384000  1.0
  C  C37  1  0.82274000  0.60384000  0.73569000  1.0
  C  C38  1  0.38084000  0.72613000  0.71241000  1.0
  C  C39  1  0.88084000  0.71241000  0.72613000  1.0
  C  C40  1  0.30105000  0.61696000  0.71721000  1.0
  C  C41  1  0.80105000  0.71722000  0.61697000  1.0
  C  C42  1  0.16797000  0.51832000  0.61893000  1.0
  C  C43  1  0.66799000  0.61894000  0.51832000  1.0
  C  C44  1  0.51787000  0.81794000  0.82763000  1.0
  C  C45  1  0.01787000  0.82763000  0.81794000  1.0
  C  C46  1  0.62328000  0.93498000  0.85407000  1.0
  C  C47  1  0.12328000  0.85407000  0.93498000  1.0
  C  C48  1  0.74945000  0.00808000  0.96962000  1.0
  C  C49  1  0.24944000  0.96962000  0.00808000  1.0
  C  C50  1  0.76927000  0.96811000  0.06096000  1.0
  C  C51  1  0.26926000  0.06095000  0.96812000  1.0
  C  C52  1  0.66338000  0.85079000  0.03569000  1.0
  C  C53  1  0.16338000  0.03569000  0.85079000  1.0
  C  C54  1  0.54145000  0.77823000  0.91960000  1.0
  C  C55  1  0.04145000  0.91960000  0.77823000  1.0
  C  C56  1  0.89829000  0.05119000  0.18554000  1.0
  C  C57  1  0.39829000  0.18553000  0.05119000  1.0
  C  C58  1  0.40586000  0.06916000  0.33081000  1.0
  C  C59  1  0.90585000  0.33082000  0.06917000  1.0
  C  C60  1  0.47256000  0.96894000  0.29805000  1.0
  C  C61  1  0.97257000  0.29805000  0.96895000  1.0
  C  C62  1  0.38852000  0.86709000  0.31294000  1.0
  C  C63  1  0.88852000  0.31295000  0.86709000  1.0
  C  C64  1  0.24459000  0.87459000  0.36652000  1.0
  C  C65  1  0.74459000  0.36652000  0.87460000  1.0
  C  C66  1  0.18827000  0.97858000  0.39889000  1.0
  C  C67  1  0.68826000  0.39889000  0.97859000  1.0
  C  C68  1  0.44689000  0.75606000  0.27433000  1.0
  C  C69  1  0.94688000  0.27433000  0.75606000  1.0
  C  C70  1  0.63315000  0.76043000  0.28458000  1.0
  C  C71  1  0.13314000  0.28458000  0.76043000  1.0
  C  C72  1  0.68072000  0.65277000  0.25260000  1.0
  C  C73  1  0.18071000  0.25260000  0.65277000  1.0
  C  C74  1  0.37499000  0.53740000  0.19734000  1.0
  C  C75  1  0.87498000  0.19734000  0.53739000  1.0
  C  C76  1  0.31658000  0.64050000  0.22688000  1.0
  C  C77  1  0.81658000  0.22687000  0.64050000  1.0
  S  S78  1  0.39454000  0.62634000  0.86433000  1.0
  S  S79  1  0.89455000  0.86433000  0.62633000  1.0
  N  N80  1  0.26407000  0.07385000  0.37913000  1.0
  N  N81  1  0.76407000  0.37913000  0.07386000  1.0
  N  N82  1  0.55498000  0.54275000  0.21193000  1.0
  N  N83  1  0.05497000  0.21193000  0.54274000  1.0
  O  O84  1  0.93733000  0.31773000  0.38478000  1.0
  O  O85  1  0.43735000  0.38479000  0.31772000  1.0
  O  O86  1  0.85750000  0.46181000  0.33613000  1.0
  O  O87  1  0.35750000  0.33612000  0.46180000  1.0
  O  O88  1  0.03143000  0.14079000  0.20142000  1.0
  O  O89  1  0.53142000  0.20140000  0.14079000  1.0
  O  O90  1  0.87465000  0.03270000  0.27621000  1.0
  O  O91  1  0.37464000  0.27620000  0.03271000  1.0
  O  O92  1  0.25384000  0.62165000  0.92627000  1.0
  O  O93  1  0.75383000  0.92627000  0.62165000  1.0
  O  O94  1  0.50371000  0.54267000  0.85925000  1.0
  O  O95  1  0.00369000  0.85924000  0.54267000  1.0
