# generated using pymatgen
data_CaH12C6S2N4O9
_symmetry_space_group_name_H-M   'P 1'
_cell_length_a   5.89708000
_cell_length_b   9.21965000
_cell_length_c   13.01010000
_cell_angle_alpha   74.79180000
_cell_angle_beta   88.29080000
_cell_angle_gamma   79.39140000
_symmetry_Int_Tables_number   1
_chemical_formula_structural   CaH12C6S2N4O9
_chemical_formula_sum   'Ca2 H24 C12 S4 N8 O18'
_cell_volume   670.78037360
_cell_formula_units_Z   2
loop_
 _symmetry_equiv_pos_site_id
 _symmetry_equiv_pos_as_xyz
  1  'x, y, z'
loop_
 _atom_site_type_symbol
 _atom_site_label
 _atom_site_symmetry_multiplicity
 _atom_site_fract_x
 _atom_site_fract_y
 _atom_site_fract_z
 _atom_site_occupancy
  Ca  Ca0  1  0.18677000  0.05266000  0.70076000  1.0
  Ca  Ca1  1  0.81323000  0.94733000  0.29924000  1.0
  H  H2  1  0.64260000  0.30458000  0.68464000  1.0
  H  H3  1  0.35740000  0.69541000  0.31536000  1.0
  H  H4  1  0.59790000  0.78217000  0.83018000  1.0
  H  H5  1  0.40210000  0.21783000  0.16982000  1.0
  H  H6  1  0.59682000  0.59566000  0.61916000  1.0
  H  H7  1  0.40320000  0.40433000  0.38084000  1.0
  H  H8  1  0.95339000  0.43286000  0.61182000  1.0
  H  H9  1  0.04661000  0.56715000  0.38818000  1.0
  H  H10  1  0.95578000  0.57727000  0.82849000  1.0
  H  H11  1  0.04423000  0.42274000  0.17151000  1.0
  H  H12  1  0.54751000  0.03644000  0.87187000  1.0
  H  H13  1  0.45248000  0.96356000  0.12813000  1.0
  H  H14  1  0.36972000  0.93588000  0.92332000  1.0
  H  H15  1  0.63027000  0.06412000  0.07668000  1.0
  H  H16  1  0.97124000  0.85680000  0.90176000  1.0
  H  H17  1  0.02875000  0.14320000  0.09824000  1.0
  H  H18  1  0.65824000  0.08565000  0.59812000  1.0
  H  H19  1  0.34175000  0.91435000  0.40188000  1.0
  H  H20  1  0.15096000  0.75995000  0.84414000  1.0
  H  H21  1  0.84904000  0.24005000  0.15586000  1.0
  H  H22  1  0.62423000  0.92105000  0.60354000  1.0
  H  H23  1  0.37576000  0.07895000  0.39646000  1.0
  H  H24  1  0.32710000  0.38919000  0.90273000  1.0
  H  H25  1  0.67290000  0.61081000  0.09727000  1.0
  C  C26  1  0.45890000  0.53107000  0.62230000  1.0
  C  C27  1  0.54111000  0.46892000  0.37770000  1.0
  C  C28  1  0.22350000  0.57960000  0.59948000  1.0
  C  C29  1  0.77650000  0.42040000  0.40053000  1.0
  C  C30  1  0.12997000  0.44518000  0.62023000  1.0
  C  C31  1  0.87003000  0.55482000  0.37977000  1.0
  C  C32  1  0.78299000  0.55409000  0.84453000  1.0
  C  C33  1  0.21702000  0.44591000  0.15547000  1.0
  C  C34  1  0.69635000  0.41838000  0.87120000  1.0
  C  C35  1  0.30366000  0.58162000  0.12880000  1.0
  C  C36  1  0.45601000  0.46204000  0.88181000  1.0
  C  C37  1  0.54399000  0.53797000  0.11819000  1.0
  S  S38  1  0.07223000  0.76654000  0.55731000  1.0
  S  S39  1  0.92777000  0.23346000  0.44269000  1.0
  S  S40  1  0.85139000  0.23279000  0.88744000  1.0
  S  S41  1  0.14861000  0.76722000  0.11256000  1.0
  N  N42  1  0.29499000  0.32175000  0.65371000  1.0
  N  N43  1  0.70501000  0.67825000  0.34629000  1.0
  N  N44  1  0.49227000  0.37725000  0.65343000  1.0
  N  N45  1  0.50773000  0.62274000  0.34657000  1.0
  N  N46  1  0.39946000  0.61420000  0.86268000  1.0
  N  N47  1  0.60054000  0.38581000  0.13732000  1.0
  N  N48  1  0.59999000  0.66708000  0.84003000  1.0
  N  N49  1  0.40001000  0.33293000  0.15997000  1.0
  O  O50  1  0.10186000  0.81657000  0.43974000  1.0
  O  O51  1  0.89815000  0.18343000  0.56026000  1.0
  O  O52  1  0.83141000  0.75854000  0.58407000  1.0
  O  O53  1  0.16859000  0.24145000  0.41593000  1.0
  O  O54  1  0.18243000  0.85641000  0.61157000  1.0
  O  O55  1  0.81756000  0.14359000  0.38843000  1.0
  O  O56  1  0.89205000  0.21130000  0.77854000  1.0
  O  O57  1  0.10795000  0.78870000  0.22146000  1.0
  O  O58  1  0.06518000  0.21986000  0.94556000  1.0
  O  O59  1  0.93482000  0.78013000  0.05444000  1.0
  O  O60  1  0.69534000  0.13155000  0.94407000  1.0
  O  O61  1  0.30465000  0.86846000  0.05593000  1.0
  O  O62  1  0.02747000  0.85402000  0.83024000  1.0
  O  O63  1  0.97253000  0.14598000  0.16976000  1.0
  O  O64  1  0.44327000  0.97332000  0.85416000  1.0
  O  O65  1  0.55672000  0.02668000  0.14584000  1.0
  O  O66  1  0.54912000  0.01528000  0.62212000  1.0
  O  O67  1  0.45087000  0.98472000  0.37788000  1.0
