# generated using pymatgen
data_SnH13C9NO3
_symmetry_space_group_name_H-M   'P 1'
_cell_length_a   8.20697000
_cell_length_b   12.69471895
_cell_length_c   12.82790000
_cell_angle_alpha   65.80413036
_cell_angle_beta   71.35500000
_cell_angle_gamma   71.15321210
_symmetry_Int_Tables_number   1
_chemical_formula_structural   SnH13C9NO3
_chemical_formula_sum   'Sn4 H52 C36 N4 O12'
_cell_volume   1126.22281290
_cell_formula_units_Z   4
loop_
 _symmetry_equiv_pos_site_id
 _symmetry_equiv_pos_as_xyz
  1  'x, y, z'
loop_
 _atom_site_type_symbol
 _atom_site_label
 _atom_site_symmetry_multiplicity
 _atom_site_fract_x
 _atom_site_fract_y
 _atom_site_fract_z
 _atom_site_occupancy
  Sn  Sn0  1  0.74137000  0.94872000  0.74982000  1.0
  Sn  Sn1  1  0.44063000  0.55106000  0.75012000  1.0
  Sn  Sn2  1  0.25863000  0.05128000  0.25018000  1.0
  Sn  Sn3  1  0.55938000  0.44893000  0.24990000  1.0
  H  H4  1  0.99429000  0.59167000  0.21417000  1.0
  H  H5  1  0.80030000  0.90825000  0.28621000  1.0
  H  H6  1  0.00571000  0.40833000  0.78582000  1.0
  H  H7  1  0.19970000  0.09175000  0.71379000  1.0
  H  H8  1  0.47679000  0.67532000  0.99861000  1.0
  H  H9  1  0.15171000  0.82449000  0.50130000  1.0
  H  H10  1  0.52322000  0.32468000  0.00138000  1.0
  H  H11  1  0.84830000  0.17551000  0.49870000  1.0
  H  H12  1  0.98793000  0.93529000  0.96468000  1.0
  H  H13  1  0.88776000  0.56472000  0.53590000  1.0
  H  H14  1  0.01207000  0.06471000  0.03532000  1.0
  H  H15  1  0.11224000  0.43528000  0.46410000  1.0
  H  H16  1  0.83035000  0.78172000  0.12545000  1.0
  H  H17  1  0.73732000  0.71825000  0.37521000  1.0
  H  H18  1  0.16965000  0.21828000  0.87455000  1.0
  H  H19  1  0.26268000  0.28175000  0.62479000  1.0
  H  H20  1  0.03180000  0.77175000  0.74171000  1.0
  H  H21  1  0.54526000  0.72832000  0.75845000  1.0
  H  H22  1  0.96820000  0.22825000  0.25829000  1.0
  H  H23  1  0.45475000  0.27168000  0.24155000  1.0
  H  H24  1  0.83842000  0.71062000  0.80640000  1.0
  H  H25  1  0.35518000  0.78905000  0.69397000  1.0
  H  H26  1  0.16158000  0.28938000  0.19360000  1.0
  H  H27  1  0.64482000  0.21095000  0.30603000  1.0
  H  H28  1  0.92372000  0.75411000  0.89098000  1.0
  H  H29  1  0.56853000  0.74611000  0.60913000  1.0
  H  H30  1  0.07628000  0.24589000  0.10902000  1.0
  H  H31  1  0.43147000  0.25389000  0.39087000  1.0
  H  H32  1  0.56535000  0.10363000  0.57875000  1.0
  H  H33  1  0.24826000  0.39620000  0.92135000  1.0
  H  H34  1  0.43465000  0.89636000  0.42125000  1.0
  H  H35  1  0.75174000  0.60380000  0.07865000  1.0
  H  H36  1  0.56694000  0.95520000  0.59980000  1.0
  H  H37  1  0.12287000  0.54470000  0.90020000  1.0
  H  H38  1  0.43306000  0.04479000  0.40020000  1.0
  H  H39  1  0.87712000  0.45530000  0.09980000  1.0
  H  H40  1  0.75729000  0.01540000  0.51511000  1.0
  H  H41  1  0.28874000  0.48441000  0.98484000  1.0
  H  H42  1  0.24271000  0.98459000  0.48489000  1.0
  H  H43  1  0.71125000  0.51559000  0.01516000  1.0
  H  H44  1  0.66850000  0.01814000  0.93749000  1.0
  H  H45  1  0.62438000  0.48172000  0.56236000  1.0
  H  H46  1  0.33149000  0.98186000  0.06251000  1.0
  H  H47  1  0.37561000  0.51829000  0.43764000  1.0
  H  H48  1  0.52837000  0.11787000  0.83985000  1.0
  H  H49  1  0.48629000  0.38199000  0.66004000  1.0
  H  H50  1  0.47163000  0.88213000  0.16015000  1.0
  H  H51  1  0.51371000  0.61802000  0.33996000  1.0
  H  H52  1  0.75133000  0.13092000  0.80925000  1.0
  H  H53  1  0.69181000  0.36889000  0.69057000  1.0
  H  H54  1  0.24866000  0.86908000  0.19075000  1.0
  H  H55  1  0.30820000  0.63111000  0.30942000  1.0
  C  C56  1  0.35121000  0.90381000  0.88298000  1.0
  C  C57  1  0.13864000  0.59613000  0.61714000  1.0
  C  C58  1  0.64879000  0.09619000  0.11702000  1.0
  C  C59  1  0.86136000  0.40387000  0.38286000  1.0
  C  C60  1  0.24280000  0.61443000  0.11424000  1.0
  C  C61  1  0.97196000  0.88546000  0.38596000  1.0
  C  C62  1  0.75720000  0.38557000  0.88576000  1.0
  C  C63  1  0.02803000  0.11454000  0.61405000  1.0
  C  C64  1  0.33421000  0.70032000  0.02494000  1.0
  C  C65  1  0.06019000  0.79953000  0.47513000  1.0
  C  C66  1  0.66578000  0.29969000  0.97505000  1.0
  C  C67  1  0.93982000  0.20047000  0.52487000  1.0
  C  C68  1  0.24537000  0.81416000  0.97265000  1.0
  C  C69  1  0.03263000  0.68574000  0.52758000  1.0
  C  C70  1  0.75463000  0.18584000  0.02734000  1.0
  C  C71  1  0.96737000  0.31426000  0.47243000  1.0
  C  C72  1  0.05974000  0.84653000  0.00576000  1.0
  C  C73  1  0.91219000  0.65341000  0.49466000  1.0
  C  C74  1  0.94026000  0.15347000  0.99423000  1.0
  C  C75  1  0.08782000  0.34659000  0.50534000  1.0
  C  C76  1  0.97268000  0.76316000  0.09277000  1.0
  C  C77  1  0.82870000  0.73679000  0.40770000  1.0
  C  C78  1  0.02732000  0.23684000  0.90722000  1.0
  C  C79  1  0.17131000  0.26320000  0.59230000  1.0
  C  C80  1  0.90410000  0.77481000  0.80350000  1.0
  C  C81  1  0.48241000  0.72516000  0.69669000  1.0
  C  C82  1  0.09590000  0.22519000  0.19650000  1.0
  C  C83  1  0.51759000  0.27484000  0.30331000  1.0
  C  C84  1  0.64730000  0.01378000  0.59115000  1.0
  C  C85  1  0.25307000  0.48602000  0.90883000  1.0
  C  C86  1  0.35269000  0.98622000  0.40885000  1.0
  C  C87  1  0.74693000  0.51397000  0.09117000  1.0
  C  C88  1  0.66429000  0.06882000  0.84534000  1.0
  C  C89  1  0.57877000  0.43099000  0.65450000  1.0
  C  C90  1  0.33570000  0.93118000  0.15466000  1.0
  C  C91  1  0.42123000  0.56901000  0.34550000  1.0
  N  N92  1  0.06218000  0.65220000  0.14456000  1.0
  N  N93  1  0.85917000  0.84772000  0.35579000  1.0
  N  N94  1  0.93781000  0.34781000  0.85544000  1.0
  N  N95  1  0.14083000  0.15228000  0.64421000  1.0
  O  O96  1  0.51812000  0.86159000  0.86355000  1.0
  O  O97  1  0.24370000  0.63847000  0.63663000  1.0
  O  O98  1  0.48188000  0.13841000  0.13645000  1.0
  O  O99  1  0.75630000  0.36153000  0.36338000  1.0
  O  O100  1  0.27298000  0.00900000  0.83817000  1.0
  O  O101  1  0.12122000  0.49083000  0.66178000  1.0
  O  O102  1  0.72701000  0.99100000  0.16182000  1.0
  O  O103  1  0.87878000  0.50917000  0.33822000  1.0
  O  O104  1  0.31381000  0.50752000  0.16750000  1.0
  O  O105  1  0.98934000  0.99237000  0.33272000  1.0
  O  O106  1  0.68619000  0.49248000  0.83250000  1.0
  O  O107  1  0.01066000  0.00763000  0.66728000  1.0
