# generated using pymatgen
data_CoH12C14(NO)4
_symmetry_space_group_name_H-M   'P 1'
_cell_length_a   8.06384000
_cell_length_b   11.56800000
_cell_length_c   16.62600000
_cell_angle_alpha   90.00000000
_cell_angle_beta   90.00000000
_cell_angle_gamma   100.99000000
_symmetry_Int_Tables_number   1
_chemical_formula_structural   CoH12C14(NO)4
_chemical_formula_sum   'Co4 H48 C56 N16 O16'
_cell_volume   1522.47181542
_cell_formula_units_Z   4
loop_
 _symmetry_equiv_pos_site_id
 _symmetry_equiv_pos_as_xyz
  1  'x, y, z'
loop_
 _atom_site_type_symbol
 _atom_site_label
 _atom_site_symmetry_multiplicity
 _atom_site_fract_x
 _atom_site_fract_y
 _atom_site_fract_z
 _atom_site_occupancy
  Co  Co0  1  0.84896000  0.42052000  0.30043000  1.0
  Co  Co1  1  0.15104000  0.07948000  0.80043000  1.0
  Co  Co2  1  0.15104000  0.57948000  0.69957000  1.0
  Co  Co3  1  0.84896000  0.92052000  0.19957000  1.0
  H  H4  1  0.97975000  0.18280000  0.53956000  1.0
  H  H5  1  0.02025000  0.31719000  0.03956000  1.0
  H  H6  1  0.02025000  0.81719000  0.46044000  1.0
  H  H7  1  0.97975000  0.68280000  0.96044000  1.0
  H  H8  1  0.88718000  0.01209000  0.42193000  1.0
  H  H9  1  0.11282000  0.48791000  0.92193000  1.0
  H  H10  1  0.11282000  0.98791000  0.57807000  1.0
  H  H11  1  0.88717000  0.51209000  0.07807000  1.0
  H  H12  1  0.80568000  0.13922000  0.29191000  1.0
  H  H13  1  0.19432000  0.36078000  0.79191000  1.0
  H  H14  1  0.19432000  0.86078000  0.70809000  1.0
  H  H15  1  0.80568000  0.63922000  0.20809000  1.0
  H  H16  1  0.37271000  0.74173000  0.30639000  1.0
  H  H17  1  0.62729000  0.75827000  0.80639000  1.0
  H  H18  1  0.62729000  0.25827000  0.69361000  1.0
  H  H19  1  0.37271000  0.24172000  0.19361000  1.0
  H  H20  1  0.48971000  0.54897000  0.24852000  1.0
  H  H21  1  0.51029000  0.95103000  0.74852000  1.0
  H  H22  1  0.51029000  0.45103000  0.75148000  1.0
  H  H23  1  0.48971000  0.04897000  0.25148000  1.0
  H  H24  1  0.19863000  0.38034000  0.23053000  1.0
  H  H25  1  0.80137000  0.11966000  0.73053000  1.0
  H  H26  1  0.80137000  0.61966000  0.76947000  1.0
  H  H27  1  0.19863000  0.88034000  0.26947000  1.0
  H  H28  1  0.56668000  0.42046000  0.07474000  1.0
  H  H29  1  0.43332000  0.07955000  0.57474000  1.0
  H  H30  1  0.43332000  0.57955000  0.92526000  1.0
  H  H31  1  0.56668000  0.92045000  0.42526000  1.0
  H  H32  1  0.44298000  0.37009000  0.93859000  1.0
  H  H33  1  0.55702000  0.12991000  0.43859000  1.0
  H  H34  1  0.55703000  0.62992000  0.06141000  1.0
  H  H35  1  0.44298000  0.87009000  0.56141000  1.0
  H  H36  1  0.48816000  0.18700000  0.87006000  1.0
  H  H37  1  0.51184000  0.31300000  0.37007000  1.0
  H  H38  1  0.51185000  0.81301000  0.12993000  1.0
  H  H39  1  0.48816000  0.68700000  0.62994000  1.0
  H  H40  1  0.64232000  0.05010000  0.94008000  1.0
  H  H41  1  0.35768000  0.44990000  0.44008000  1.0
  H  H42  1  0.35769000  0.94990000  0.05992000  1.0
  H  H43  1  0.64232000  0.55010000  0.55993000  1.0
  H  H44  1  0.96173000  0.37672000  0.47342000  1.0
  H  H45  1  0.03827000  0.12328000  0.97342000  1.0
  H  H46  1  0.03827000  0.62328000  0.52658000  1.0
  H  H47  1  0.96173000  0.87672000  0.02658000  1.0
  H  H48  1  0.04994000  0.67524000  0.31813000  1.0
  H  H49  1  0.95006000  0.82476000  0.81813000  1.0
  H  H50  1  0.95006000  0.32477000  0.68187000  1.0
  H  H51  1  0.04994000  0.17523000  0.18187000  1.0
  C  C52  1  0.93855000  0.18959000  0.47784000  1.0
  C  C53  1  0.06145000  0.31041000  0.97784000  1.0
  C  C54  1  0.06145000  0.81041000  0.52216000  1.0
  C  C55  1  0.93855000  0.68959000  0.02216000  1.0
  C  C56  1  0.89114000  0.10588000  0.41782000  1.0
  C  C57  1  0.10886000  0.39412000  0.91782000  1.0
  C  C58  1  0.10886000  0.89412000  0.58218000  1.0
  C  C59  1  0.89114000  0.60588000  0.08218000  1.0
  C  C60  1  0.84994000  0.16943000  0.35128000  1.0
  C  C61  1  0.15006000  0.33057000  0.85128000  1.0
  C  C62  1  0.15006000  0.83057000  0.64872000  1.0
  C  C63  1  0.84994000  0.66943000  0.14872000  1.0
  C  C64  1  0.30372000  0.65483000  0.29035000  1.0
  C  C65  1  0.69628000  0.84517000  0.79036000  1.0
  C  C66  1  0.69628000  0.34517000  0.70964000  1.0
  C  C67  1  0.30372000  0.15483000  0.20964000  1.0
  C  C68  1  0.36032000  0.55716000  0.25989000  1.0
  C  C69  1  0.63968000  0.94284000  0.75989000  1.0
  C  C70  1  0.63968000  0.44284000  0.74011000  1.0
  C  C71  1  0.36032000  0.05716000  0.24011000  1.0
  C  C72  1  0.21460000  0.47026000  0.25167000  1.0
  C  C73  1  0.78540000  0.02974000  0.75167000  1.0
  C  C74  1  0.78540000  0.52974000  0.74833000  1.0
  C  C75  1  0.21460000  0.97026000  0.24833000  1.0
  C  C76  1  0.76731000  0.30349000  0.15947000  1.0
  C  C77  1  0.23269000  0.19652000  0.65947000  1.0
  C  C78  1  0.23269000  0.69652000  0.84053000  1.0
  C  C79  1  0.76731000  0.80348000  0.34053000  1.0
  C  C80  1  0.67340000  0.26421000  0.08372000  1.0
  C  C81  1  0.32660000  0.23579000  0.58373000  1.0
  C  C82  1  0.32660000  0.73579000  0.91627000  1.0
  C  C83  1  0.67340000  0.76421000  0.41627000  1.0
  C  C84  1  0.58111000  0.33899000  0.04496000  1.0
  C  C85  1  0.41889000  0.16102000  0.54496000  1.0
  C  C86  1  0.41889000  0.66102000  0.95504000  1.0
  C  C87  1  0.58111000  0.83898000  0.45504000  1.0
  C  C88  1  0.51398000  0.31130000  0.96853000  1.0
  C  C89  1  0.48602000  0.18870000  0.46853000  1.0
  C  C90  1  0.48602000  0.68871000  0.03147000  1.0
  C  C91  1  0.51398000  0.81130000  0.53147000  1.0
  C  C92  1  0.53843000  0.20845000  0.93020000  1.0
  C  C93  1  0.46158000  0.29156000  0.43020000  1.0
  C  C94  1  0.46158000  0.79156000  0.06980000  1.0
  C  C95  1  0.53843000  0.70845000  0.56980000  1.0
  C  C96  1  0.62589000  0.13164000  0.96920000  1.0
  C  C97  1  0.37412000  0.36836000  0.46920000  1.0
  C  C98  1  0.37412000  0.86837000  0.03080000  1.0
  C  C99  1  0.62588000  0.63164000  0.53080000  1.0
  C  C100  1  0.69166000  0.15823000  0.04627000  1.0
  C  C101  1  0.30833000  0.34177000  0.54627000  1.0
  C  C102  1  0.30834000  0.84177000  0.95373000  1.0
  C  C103  1  0.69166000  0.65823000  0.45373000  1.0
  C  C104  1  0.77761000  0.07196000  0.08858000  1.0
  C  C105  1  0.22238000  0.42804000  0.58858000  1.0
  C  C106  1  0.22238000  0.92804000  0.91142000  1.0
  C  C107  1  0.77760000  0.57196000  0.41142000  1.0
  N  N108  1  0.87202000  0.28507000  0.36952000  1.0
  N  N109  1  0.12798000  0.21493000  0.86952000  1.0
  N  N110  1  0.12798000  0.71493000  0.63048000  1.0
  N  N111  1  0.87202000  0.78507000  0.13048000  1.0
  N  N112  1  0.92546000  0.29502000  0.44676000  1.0
  N  N113  1  0.07454000  0.20498000  0.94676000  1.0
  N  N114  1  0.07454000  0.70498000  0.55324000  1.0
  N  N115  1  0.92546000  0.79502000  0.05324000  1.0
  N  N116  1  0.07734000  0.51168000  0.27573000  1.0
  N  N117  1  0.92266000  0.98832000  0.77573000  1.0
  N  N118  1  0.92266000  0.48832000  0.72427000  1.0
  N  N119  1  0.07734000  0.01168000  0.22427000  1.0
  N  N120  1  0.13448000  0.62428000  0.29903000  1.0
  N  N121  1  0.86552000  0.87572000  0.79903000  1.0
  N  N122  1  0.86552000  0.37572000  0.70097000  1.0
  N  N123  1  0.13448000  0.12428000  0.20097000  1.0
  O  O124  1  0.69779000  0.36560000  0.20928000  1.0
  O  O125  1  0.30221000  0.13440000  0.70928000  1.0
  O  O126  1  0.30221000  0.63440000  0.79072000  1.0
  O  O127  1  0.69779000  0.86560000  0.29072000  1.0
  O  O128  1  0.91301000  0.28105000  0.17093000  1.0
  O  O129  1  0.08700000  0.21895000  0.67094000  1.0
  O  O130  1  0.08700000  0.71895000  0.82906000  1.0
  O  O131  1  0.91300000  0.78105000  0.32907000  1.0
  O  O132  1  0.90173000  0.03826000  0.05703000  1.0
  O  O133  1  0.09826000  0.46173000  0.55703000  1.0
  O  O134  1  0.09826000  0.96174000  0.94297000  1.0
  O  O135  1  0.90173000  0.53826000  0.44297000  1.0
  O  O136  1  0.71517000  0.03259000  0.15722000  1.0
  O  O137  1  0.28482000  0.46741000  0.65722000  1.0
  O  O138  1  0.28482000  0.96741000  0.84278000  1.0
  O  O139  1  0.71517000  0.53259000  0.34278000  1.0
