# generated using pymatgen
data_ZnH16(CO)10
_symmetry_space_group_name_H-M   'P 1'
_cell_length_a   7.28446000
_cell_length_b   8.49485000
_cell_length_c   11.30890000
_cell_angle_alpha   96.08670000
_cell_angle_beta   89.99890000
_cell_angle_gamma   89.99990000
_symmetry_Int_Tables_number   1
_chemical_formula_structural   ZnH16(CO)10
_chemical_formula_sum   'Zn2 H32 C20 O20'
_cell_volume   695.85414024
_cell_formula_units_Z   2
loop_
 _symmetry_equiv_pos_site_id
 _symmetry_equiv_pos_as_xyz
  1  'x, y, z'
loop_
 _atom_site_type_symbol
 _atom_site_label
 _atom_site_symmetry_multiplicity
 _atom_site_fract_x
 _atom_site_fract_y
 _atom_site_fract_z
 _atom_site_occupancy
  Zn  Zn0  1  0.50000000  0.50000000  0.49999000  1.0
  Zn  Zn1  1  0.99999000  0.00000000  0.50000000  1.0
  H  H2  1  0.15701000  0.80586000  0.16413000  1.0
  H  H3  1  0.65701000  0.69414000  0.83587000  1.0
  H  H4  1  0.84299000  0.19415000  0.83587000  1.0
  H  H5  1  0.34299000  0.30586000  0.16413000  1.0
  H  H6  1  0.81515000  0.47092000  0.42139000  1.0
  H  H7  1  0.31515000  0.02907000  0.57861000  1.0
  H  H8  1  0.18485000  0.52908000  0.57861000  1.0
  H  H9  1  0.68485000  0.97093000  0.42139000  1.0
  H  H10  1  0.84340000  0.57284000  0.55074000  1.0
  H  H11  1  0.34340000  0.92716000  0.44925000  1.0
  H  H12  1  0.15660000  0.42717000  0.44926000  1.0
  H  H13  1  0.65660000  0.07284000  0.55075000  1.0
  H  H14  1  0.50373000  0.74757000  0.66825000  1.0
  H  H15  1  0.00372000  0.75244000  0.33175000  1.0
  H  H16  1  0.49627000  0.25244000  0.33175000  1.0
  H  H17  1  0.99627000  0.24757000  0.66825000  1.0
  H  H18  1  0.59536000  0.81958000  0.55789000  1.0
  H  H19  1  0.09534000  0.68042000  0.44211000  1.0
  H  H20  1  0.40464000  0.18041000  0.44211000  1.0
  H  H21  1  0.90464000  0.31959000  0.55789000  1.0
  H  H22  1  0.55474000  0.57360000  0.09897000  1.0
  H  H23  1  0.05474000  0.92639000  0.90102000  1.0
  H  H24  1  0.44527000  0.42639000  0.90102000  1.0
  H  H25  1  0.94526000  0.07361000  0.09897000  1.0
  H  H26  1  0.67576000  0.74275000  0.16100000  1.0
  H  H27  1  0.17576000  0.75725000  0.83900000  1.0
  H  H28  1  0.32424000  0.25725000  0.83900000  1.0
  H  H29  1  0.82424000  0.24275000  0.16100000  1.0
  H  H30  1  0.69853000  0.36975000  0.96762000  1.0
  H  H31  1  0.19853000  0.13025000  0.03238000  1.0
  H  H32  1  0.30147000  0.63024000  0.03238000  1.0
  H  H33  1  0.80148000  0.86976000  0.96763000  1.0
  C  C34  1  0.68082000  0.55182000  0.26668000  1.0
  C  C35  1  0.18082000  0.94818000  0.73332000  1.0
  C  C36  1  0.31918000  0.44818000  0.73332000  1.0
  C  C37  1  0.81918000  0.05182000  0.26668000  1.0
  C  C38  1  0.68273000  0.61291000  0.14406000  1.0
  C  C39  1  0.18273000  0.88709000  0.85594000  1.0
  C  C40  1  0.31727000  0.38709000  0.85594000  1.0
  C  C41  1  0.81727000  0.11291000  0.14406000  1.0
  C  C42  1  0.84485000  0.55884000  0.06856000  1.0
  C  C43  1  0.34485000  0.94116000  0.93144000  1.0
  C  C44  1  0.15515000  0.44115000  0.93144000  1.0
  C  C45  1  0.65515000  0.05884000  0.06857000  1.0
  C  C46  1  0.83078000  0.42927000  0.98163000  1.0
  C  C47  1  0.33078000  0.07073000  0.01838000  1.0
  C  C48  1  0.16922000  0.57072000  0.01838000  1.0
  C  C49  1  0.66923000  0.92928000  0.98162000  1.0
  C  C50  1  0.01848000  0.62925000  0.08516000  1.0
  C  C51  1  0.51849000  0.87075000  0.91484000  1.0
  C  C52  1  0.98152000  0.37075000  0.91484000  1.0
  C  C53  1  0.48152000  0.12926000  0.08516000  1.0
  O  O54  1  0.53791000  0.58139000  0.32986000  1.0
  O  O55  1  0.03792000  0.91861000  0.67014000  1.0
  O  O56  1  0.46208000  0.41860000  0.67013000  1.0
  O  O57  1  0.96208000  0.08138000  0.32986000  1.0
  O  O58  1  0.82259000  0.47805000  0.29748000  1.0
  O  O59  1  0.32259000  0.02195000  0.70251000  1.0
  O  O60  1  0.17740000  0.52195000  0.70251000  1.0
  O  O61  1  0.67741000  0.97805000  0.29748000  1.0
  O  O62  1  0.03507000  0.75941000  0.16943000  1.0
  O  O63  1  0.53507000  0.74059000  0.83058000  1.0
  O  O64  1  0.96494000  0.24059000  0.83058000  1.0
  O  O65  1  0.46493000  0.25942000  0.16942000  1.0
  O  O66  1  0.79256000  0.47241000  0.51538000  1.0
  O  O67  1  0.29256000  0.02758000  0.48462000  1.0
  O  O68  1  0.20744000  0.52759000  0.48462000  1.0
  O  O69  1  0.70744000  0.97242000  0.51538000  1.0
  O  O70  1  0.51306000  0.73313000  0.58106000  1.0
  O  O71  1  0.01301000  0.76685000  0.41894000  1.0
  O  O72  1  0.48696000  0.26685000  0.41894000  1.0
  O  O73  1  0.98695000  0.23314000  0.58106000  1.0
