# generated using pymatgen
data_CuH11C13N3O4
_symmetry_space_group_name_H-M   'P 1'
_cell_length_a   13.40600000
_cell_length_b   13.48930000
_cell_length_c   20.22360000
_cell_angle_alpha   90.00000000
_cell_angle_beta   90.00000000
_cell_angle_gamma   90.00000000
_symmetry_Int_Tables_number   1
_chemical_formula_structural   CuH11C13N3O4
_chemical_formula_sum   'Cu8 H88 C104 N24 O32'
_cell_volume   3657.18639348
_cell_formula_units_Z   8
loop_
 _symmetry_equiv_pos_site_id
 _symmetry_equiv_pos_as_xyz
  1  'x, y, z'
loop_
 _atom_site_type_symbol
 _atom_site_label
 _atom_site_symmetry_multiplicity
 _atom_site_fract_x
 _atom_site_fract_y
 _atom_site_fract_z
 _atom_site_occupancy
  Cu  Cu0  1  0.16464000  0.43892000  0.30191000  1.0
  Cu  Cu1  1  0.33536000  0.06108000  0.80191000  1.0
  Cu  Cu2  1  0.33536000  0.93892000  0.69809000  1.0
  Cu  Cu3  1  0.16464000  0.56108000  0.19809000  1.0
  Cu  Cu4  1  0.83535000  0.56108000  0.69809000  1.0
  Cu  Cu5  1  0.66464000  0.93892000  0.19809000  1.0
  Cu  Cu6  1  0.66464000  0.06108000  0.30192000  1.0
  Cu  Cu7  1  0.83536000  0.43892000  0.80191000  1.0
  H  H8  1  0.42160000  0.74928000  0.25655000  1.0
  H  H9  1  0.07840000  0.75073000  0.75655000  1.0
  H  H10  1  0.07840000  0.24927000  0.74345000  1.0
  H  H11  1  0.42160000  0.25073000  0.24345000  1.0
  H  H12  1  0.57840000  0.25073000  0.74345000  1.0
  H  H13  1  0.92160000  0.24927000  0.24345000  1.0
  H  H14  1  0.92160000  0.75073000  0.25655000  1.0
  H  H15  1  0.57840000  0.74927000  0.75655000  1.0
  H  H16  1  0.49675000  0.89025000  0.44069000  1.0
  H  H17  1  0.00325000  0.60975000  0.94069000  1.0
  H  H18  1  0.00325000  0.39025000  0.55931000  1.0
  H  H19  1  0.49675000  0.10975000  0.05931000  1.0
  H  H20  1  0.50325000  0.10975000  0.55931000  1.0
  H  H21  1  0.99675000  0.39025000  0.05931000  1.0
  H  H22  1  0.99675000  0.60975000  0.44069000  1.0
  H  H23  1  0.50325000  0.89025000  0.94069000  1.0
  H  H24  1  0.29266000  0.64251000  0.43838000  1.0
  H  H25  1  0.20734000  0.85749000  0.93838000  1.0
  H  H26  1  0.20734000  0.14251000  0.56162000  1.0
  H  H27  1  0.29266000  0.35749000  0.06162000  1.0
  H  H28  1  0.70734000  0.35749000  0.56162000  1.0
  H  H29  1  0.79266000  0.14251000  0.06162000  1.0
  H  H30  1  0.79266000  0.85749000  0.43838000  1.0
  H  H31  1  0.70734000  0.64251000  0.93838000  1.0
  H  H32  1  0.26496000  0.98841000  0.55748000  1.0
  H  H33  1  0.23504000  0.51159000  0.05748000  1.0
  H  H34  1  0.23504000  0.48841000  0.44252000  1.0
  H  H35  1  0.26496000  0.01159000  0.94252000  1.0
  H  H36  1  0.73504000  0.01159000  0.44252000  1.0
  H  H37  1  0.76496000  0.48841000  0.94252000  1.0
  H  H38  1  0.76496000  0.51159000  0.55748000  1.0
  H  H39  1  0.73504000  0.98841000  0.05748000  1.0
  H  H40  1  0.25179000  0.92633000  0.47937000  1.0
  H  H41  1  0.24821000  0.57367000  0.97937000  1.0
  H  H42  1  0.24822000  0.42633000  0.52063000  1.0
  H  H43  1  0.25179000  0.07367000  0.02063000  1.0
  H  H44  1  0.74821000  0.07367000  0.52063000  1.0
  H  H45  1  0.75179000  0.42633000  0.02063000  1.0
  H  H46  1  0.75179000  0.57367000  0.47937000  1.0
  H  H47  1  0.74821000  0.92633000  0.97937000  1.0
  H  H48  1  0.36323000  0.99092000  0.49802000  1.0
  H  H49  1  0.13677000  0.50908000  0.99802000  1.0
  H  H50  1  0.13677000  0.49092000  0.50198000  1.0
  H  H51  1  0.36323000  0.00908000  0.00198000  1.0
  H  H52  1  0.63677000  0.00908000  0.50198000  1.0
  H  H53  1  0.86323000  0.49092000  0.00198000  1.0
  H  H54  1  0.86323000  0.50908000  0.49802000  1.0
  H  H55  1  0.63677000  0.99092000  0.99802000  1.0
  H  H56  1  0.50627000  0.61795000  0.50539000  1.0
  H  H57  1  0.99373000  0.88205000  0.00539000  1.0
  H  H58  1  0.99373000  0.11795000  0.49461000  1.0
  H  H59  1  0.50627000  0.38205000  0.99461000  1.0
  H  H60  1  0.49373000  0.38205000  0.49461000  1.0
  H  H61  1  0.00627000  0.11795000  0.99461000  1.0
  H  H62  1  0.00627000  0.88204000  0.50539000  1.0
  H  H63  1  0.49373000  0.61796000  0.00539000  1.0
  H  H64  1  0.40093000  0.55520000  0.53519000  1.0
  H  H65  1  0.09907000  0.94480000  0.03519000  1.0
  H  H66  1  0.09907000  0.05520000  0.46481000  1.0
  H  H67  1  0.40093000  0.44480000  0.96481000  1.0
  H  H68  1  0.59907000  0.44480000  0.46481000  1.0
  H  H69  1  0.90093000  0.05520000  0.96481000  1.0
  H  H70  1  0.90093000  0.94480000  0.53519000  1.0
  H  H71  1  0.59907000  0.55520000  0.03519000  1.0
  H  H72  1  0.58379000  0.61610000  0.61901000  1.0
  H  H73  1  0.91621000  0.88390000  0.11901000  1.0
  H  H74  1  0.91621000  0.11610000  0.38099000  1.0
  H  H75  1  0.58379000  0.38390000  0.88099000  1.0
  H  H76  1  0.41621000  0.38390000  0.38099000  1.0
  H  H77  1  0.08379000  0.11610000  0.88099000  1.0
  H  H78  1  0.08379000  0.88390000  0.61901000  1.0
  H  H79  1  0.41621000  0.61610000  0.11901000  1.0
  H  H80  1  0.54919000  0.49423000  0.59541000  1.0
  H  H81  1  0.95081000  0.00577000  0.09541000  1.0
  H  H82  1  0.95081000  0.99423000  0.40458000  1.0
  H  H83  1  0.54919000  0.50577000  0.90458000  1.0
  H  H84  1  0.45081000  0.50577000  0.40458000  1.0
  H  H85  1  0.04919000  0.99423000  0.90458000  1.0
  H  H86  1  0.04919000  0.00577000  0.59541000  1.0
  H  H87  1  0.45081000  0.49423000  0.09541000  1.0
  H  H88  1  0.47433000  0.56224000  0.65218000  1.0
  H  H89  1  0.02567000  0.93776000  0.15218000  1.0
  H  H90  1  0.02567000  0.06224000  0.34782000  1.0
  H  H91  1  0.47433000  0.43776000  0.84782000  1.0
  H  H92  1  0.52567000  0.43776000  0.34782000  1.0
  H  H93  1  0.97433000  0.06224000  0.84782000  1.0
  H  H94  1  0.97433000  0.93776000  0.65218000  1.0
  H  H95  1  0.52567000  0.56224000  0.15218000  1.0
  C  C96  1  0.29146000  0.61261000  0.30633000  1.0
  C  C97  1  0.20854000  0.88739000  0.80633000  1.0
  C  C98  1  0.20854000  0.11261000  0.69367000  1.0
  C  C99  1  0.29146000  0.38739000  0.19367000  1.0
  C  C100  1  0.70854000  0.38739000  0.69367000  1.0
  C  C101  1  0.79146000  0.11261000  0.19367000  1.0
  C  C102  1  0.79145000  0.88739000  0.30633000  1.0
  C  C103  1  0.70855000  0.61261000  0.80633000  1.0
  C  C104  1  0.35161000  0.68768000  0.34366000  1.0
  C  C105  1  0.14839000  0.81232000  0.84366000  1.0
  C  C106  1  0.14839000  0.18768000  0.65634000  1.0
  C  C107  1  0.35160000  0.31232000  0.15634000  1.0
  C  C108  1  0.64839000  0.31232000  0.65634000  1.0
  C  C109  1  0.85161000  0.18768000  0.15634000  1.0
  C  C110  1  0.85161000  0.81232000  0.34366000  1.0
  C  C111  1  0.64839000  0.68768000  0.84366000  1.0
  C  C112  1  0.41355000  0.75393000  0.31003000  1.0
  C  C113  1  0.08645000  0.74607000  0.81003000  1.0
  C  C114  1  0.08645000  0.25393000  0.68997000  1.0
  C  C115  1  0.41354000  0.24607000  0.18997000  1.0
  C  C116  1  0.58645000  0.24607000  0.68997000  1.0
  C  C117  1  0.91355000  0.25394000  0.18997000  1.0
  C  C118  1  0.91355000  0.74607000  0.31003000  1.0
  C  C119  1  0.58645000  0.75393000  0.81003000  1.0
  C  C120  1  0.46553000  0.82651000  0.34528000  1.0
  C  C121  1  0.03447000  0.67350000  0.84528000  1.0
  C  C122  1  0.03447000  0.32650000  0.65472000  1.0
  C  C123  1  0.46554000  0.17350000  0.15472000  1.0
  C  C124  1  0.53446000  0.17350000  0.65472000  1.0
  C  C125  1  0.96553000  0.32651000  0.15472000  1.0
  C  C126  1  0.96553000  0.67350000  0.34528000  1.0
  C  C127  1  0.53447000  0.82650000  0.84528000  1.0
  C  C128  1  0.45553000  0.83339000  0.41391000  1.0
  C  C129  1  0.04447000  0.66666667  0.91391000  1.0
  C  C130  1  0.04447000  0.33339000  0.58609000  1.0
  C  C131  1  0.45553000  0.16661000  0.08609000  1.0
  C  C132  1  0.54447000  0.16661000  0.58609000  1.0
  C  C133  1  0.95553000  0.33339000  0.08609000  1.0
  C  C134  1  0.95553000  0.66666667  0.41391000  1.0
  C  C135  1  0.54447000  0.83339000  0.91391000  1.0
  C  C136  1  0.39371000  0.76677000  0.44709000  1.0
  C  C137  1  0.10629000  0.73323000  0.94709000  1.0
  C  C138  1  0.10629000  0.26677000  0.55291000  1.0
  C  C139  1  0.39371000  0.23323000  0.05291000  1.0
  C  C140  1  0.60629000  0.23323000  0.55291000  1.0
  C  C141  1  0.89371000  0.26677000  0.05291000  1.0
  C  C142  1  0.89371000  0.73323000  0.44709000  1.0
  C  C143  1  0.60629000  0.76677000  0.94709000  1.0
  C  C144  1  0.34193000  0.69362000  0.41245000  1.0
  C  C145  1  0.15807000  0.80638000  0.91245000  1.0
  C  C146  1  0.15807000  0.19362000  0.58755000  1.0
  C  C147  1  0.34193000  0.30638000  0.08755000  1.0
  C  C148  1  0.65807000  0.30638000  0.58755000  1.0
  C  C149  1  0.84193000  0.19362000  0.08755000  1.0
  C  C150  1  0.84193000  0.80638000  0.41246000  1.0
  C  C151  1  0.65807000  0.69362000  0.91245000  1.0
  C  C152  1  0.53444000  0.89596000  0.30995000  1.0
  C  C153  1  0.96556000  0.60404000  0.80995000  1.0
  C  C154  1  0.96556000  0.39596000  0.69005000  1.0
  C  C155  1  0.53444000  0.10404000  0.19005000  1.0
  C  C156  1  0.46556000  0.10404000  0.69005000  1.0
  C  C157  1  0.03444000  0.39596000  0.19005000  1.0
  C  C158  1  0.03444000  0.60404000  0.30995000  1.0
  C  C159  1  0.46556000  0.89596000  0.80995000  1.0
  C  C160  1  0.34415000  0.85417000  0.55106000  1.0
  C  C161  1  0.15585000  0.64583000  0.05106000  1.0
  C  C162  1  0.15585000  0.35417000  0.44894000  1.0
  C  C163  1  0.34415000  0.14583000  0.94894000  1.0
  C  C164  1  0.65585000  0.14583000  0.44894000  1.0
  C  C165  1  0.84415000  0.35417000  0.94894000  1.0
  C  C166  1  0.84415000  0.64583000  0.55106000  1.0
  C  C167  1  0.65585000  0.85417000  0.05106000  1.0
  C  C168  1  0.41116000  0.70629000  0.56479000  1.0
  C  C169  1  0.08884000  0.79371000  0.06479000  1.0
  C  C170  1  0.08884000  0.20629000  0.43521000  1.0
  C  C171  1  0.41116000  0.29371000  0.93521000  1.0
  C  C172  1  0.58884000  0.29371000  0.43521000  1.0
  C  C173  1  0.91116000  0.20629000  0.93521000  1.0
  C  C174  1  0.91116000  0.79371000  0.56479000  1.0
  C  C175  1  0.58884000  0.70629000  0.06479000  1.0
  C  C176  1  0.30370000  0.94505000  0.51957000  1.0
  C  C177  1  0.19630000  0.55495000  0.01957000  1.0
  C  C178  1  0.19630000  0.44505000  0.48043000  1.0
  C  C179  1  0.30370000  0.05495000  0.98043000  1.0
  C  C180  1  0.69630000  0.05495000  0.48043000  1.0
  C  C181  1  0.80370000  0.44505000  0.98043000  1.0
  C  C182  1  0.80370000  0.55495000  0.51957000  1.0
  C  C183  1  0.69630000  0.94505000  0.01957000  1.0
  C  C184  1  0.45913000  0.60893000  0.54965000  1.0
  C  C185  1  0.04087000  0.89107000  0.04965000  1.0
  C  C186  1  0.04087000  0.10893000  0.45035000  1.0
  C  C187  1  0.45913000  0.39107000  0.95035000  1.0
  C  C188  1  0.54087000  0.39107000  0.45035000  1.0
  C  C189  1  0.95913000  0.10893000  0.95035000  1.0
  C  C190  1  0.95913000  0.89107000  0.54965000  1.0
  C  C191  1  0.54087000  0.60893000  0.04965000  1.0
  C  C192  1  0.52009000  0.56806000  0.60741000  1.0
  C  C193  1  0.97991000  0.93194000  0.10741000  1.0
  C  C194  1  0.97991000  0.06806000  0.39259000  1.0
  C  C195  1  0.52009000  0.43194000  0.89259000  1.0
  C  C196  1  0.47991000  0.43194000  0.39259000  1.0
  C  C197  1  0.02009000  0.06806000  0.89259000  1.0
  C  C198  1  0.02009000  0.93194000  0.60741000  1.0
  C  C199  1  0.47991000  0.56806000  0.10741000  1.0
  N  N200  1  0.34836000  0.83454000  0.61508000  1.0
  N  N201  1  0.15164000  0.66546000  0.11508000  1.0
  N  N202  1  0.15164000  0.33454000  0.38492000  1.0
  N  N203  1  0.34836000  0.16546000  0.88492000  1.0
  N  N204  1  0.65164000  0.16546000  0.38492000  1.0
  N  N205  1  0.84836000  0.33454000  0.88492000  1.0
  N  N206  1  0.84836000  0.66546000  0.61508000  1.0
  N  N207  1  0.65164000  0.83454000  0.11508000  1.0
  N  N208  1  0.39078000  0.74210000  0.62387000  1.0
  N  N209  1  0.10922000  0.75790000  0.12387000  1.0
  N  N210  1  0.10922000  0.24210000  0.37613000  1.0
  N  N211  1  0.39078000  0.25790000  0.87613000  1.0
  N  N212  1  0.60922000  0.25790000  0.37613000  1.0
  N  N213  1  0.89078000  0.24210000  0.87613000  1.0
  N  N214  1  0.89078000  0.75790000  0.62387000  1.0
  N  N215  1  0.60922000  0.74210000  0.12387000  1.0
  N  N216  1  0.38290000  0.77456000  0.51704000  1.0
  N  N217  1  0.11710000  0.72544000  0.01704000  1.0
  N  N218  1  0.11710000  0.27456000  0.48296000  1.0
  N  N219  1  0.38290000  0.22544000  0.98296000  1.0
  N  N220  1  0.61710000  0.22544000  0.48296000  1.0
  N  N221  1  0.88290000  0.27456000  0.98296000  1.0
  N  N222  1  0.88290000  0.72544000  0.51704000  1.0
  N  N223  1  0.61710000  0.77456000  0.01704000  1.0
  O  O224  1  0.26369000  0.53627000  0.33870000  1.0
  O  O225  1  0.23631000  0.96373000  0.83870000  1.0
  O  O226  1  0.23631000  0.03627000  0.66130000  1.0
  O  O227  1  0.26369000  0.46373000  0.16131000  1.0
  O  O228  1  0.73631000  0.46373000  0.66131000  1.0
  O  O229  1  0.76368000  0.03627000  0.16131000  1.0
  O  O230  1  0.76369000  0.96373000  0.33870000  1.0
  O  O231  1  0.73631000  0.53627000  0.83870000  1.0
  O  O232  1  0.27147000  0.63318000  0.24646000  1.0
  O  O233  1  0.22853000  0.86682000  0.74646000  1.0
  O  O234  1  0.22853000  0.13318000  0.75354000  1.0
  O  O235  1  0.27147000  0.36682000  0.25354000  1.0
  O  O236  1  0.72853000  0.36682000  0.75354000  1.0
  O  O237  1  0.77147000  0.13318000  0.25354000  1.0
  O  O238  1  0.77146000  0.86682000  0.24646000  1.0
  O  O239  1  0.72853000  0.63318000  0.74646000  1.0
  O  O240  1  0.56032000  0.97395000  0.34130000  1.0
  O  O241  1  0.93968000  0.52605000  0.84130000  1.0
  O  O242  1  0.93967000  0.47395000  0.65870000  1.0
  O  O243  1  0.56033000  0.02604000  0.15871000  1.0
  O  O244  1  0.43967000  0.02605000  0.65871000  1.0
  O  O245  1  0.06033000  0.47395000  0.15870000  1.0
  O  O246  1  0.06033000  0.52605000  0.34129000  1.0
  O  O247  1  0.43967000  0.97395000  0.84130000  1.0
  O  O248  1  0.56181000  0.86959000  0.25254000  1.0
  O  O249  1  0.93819000  0.63042000  0.75253000  1.0
  O  O250  1  0.93819000  0.36958000  0.74747000  1.0
  O  O251  1  0.56181000  0.13042000  0.24747000  1.0
  O  O252  1  0.43819000  0.13042000  0.74747000  1.0
  O  O253  1  0.06181000  0.36958000  0.24747000  1.0
  O  O254  1  0.06181000  0.63042000  0.25253000  1.0
  O  O255  1  0.43819000  0.86958000  0.75253000  1.0
