# generated using pymatgen
data_CuH7C7SIN
_symmetry_space_group_name_H-M   'P 1'
_cell_length_a   5.53972000
_cell_length_b   9.96176000
_cell_length_c   18.96380000
_cell_angle_alpha   89.99840000
_cell_angle_beta   89.99810000
_cell_angle_gamma   90.57730000
_symmetry_Int_Tables_number   1
_chemical_formula_structural   CuH7C7SIN
_chemical_formula_sum   'Cu4 H28 C28 S4 I4 N4'
_cell_volume   1046.47102809
_cell_formula_units_Z   4
loop_
 _symmetry_equiv_pos_site_id
 _symmetry_equiv_pos_as_xyz
  1  'x, y, z'
loop_
 _atom_site_type_symbol
 _atom_site_label
 _atom_site_symmetry_multiplicity
 _atom_site_fract_x
 _atom_site_fract_y
 _atom_site_fract_z
 _atom_site_occupancy
  Cu  Cu0  1  0.23321000  0.99020000  0.99293000  1.0
  Cu  Cu1  1  0.26680000  0.50977000  0.49296000  1.0
  Cu  Cu2  1  0.76676000  0.00978000  0.00706000  1.0
  Cu  Cu3  1  0.73316000  0.49018000  0.50705000  1.0
  H  H4  1  0.29700000  0.19816000  0.26401000  1.0
  H  H5  1  0.20300000  0.30189000  0.76401000  1.0
  H  H6  1  0.70302000  0.80184000  0.73598000  1.0
  H  H7  1  0.79701000  0.69817000  0.23600000  1.0
  H  H8  1  0.94672000  0.31766000  0.30863000  1.0
  H  H9  1  0.55330000  0.18238000  0.80863000  1.0
  H  H10  1  0.05333000  0.68234000  0.69136000  1.0
  H  H11  1  0.44670000  0.81768000  0.19139000  1.0
  H  H12  1  0.67012000  0.43555000  0.22682000  1.0
  H  H13  1  0.82986000  0.06447000  0.72681000  1.0
  H  H14  1  0.32989000  0.56445000  0.77318000  1.0
  H  H15  1  0.17016000  0.93559000  0.27322000  1.0
  H  H16  1  0.75172000  0.43182000  0.09689000  1.0
  H  H17  1  0.74821000  0.06818000  0.59688000  1.0
  H  H18  1  0.24826000  0.56815000  0.90310000  1.0
  H  H19  1  0.25182000  0.93183000  0.40314000  1.0
  H  H20  1  0.09497000  0.30110000  0.05022000  1.0
  H  H21  1  0.40497000  0.19892000  0.55022000  1.0
  H  H22  1  0.90502000  0.69888000  0.94977000  1.0
  H  H23  1  0.59499000  0.80103000  0.44979000  1.0
  H  H24  1  0.51248000  0.07726000  0.21946000  1.0
  H  H25  1  0.98748000  0.42275000  0.71947000  1.0
  H  H26  1  0.48754000  0.92274000  0.78053000  1.0
  H  H27  1  0.01253000  0.57728000  0.28053000  1.0
  H  H28  1  0.69792000  0.03379000  0.14873000  1.0
  H  H29  1  0.80202000  0.46622000  0.64875000  1.0
  H  H30  1  0.30208000  0.96620000  0.85125000  1.0
  H  H31  1  0.19796000  0.53377000  0.35126000  1.0
  C  C32  1  0.42469000  0.16203000  0.12434000  1.0
  C  C33  1  0.07527000  0.33797000  0.62434000  1.0
  C  C34  1  0.57533000  0.83796000  0.87565000  1.0
  C  C35  1  0.92471000  0.66201000  0.37566000  1.0
  C  C36  1  0.22120000  0.23918000  0.15277000  1.0
  C  C37  1  0.27877000  0.26084000  0.65277000  1.0
  C  C38  1  0.77881000  0.76082000  0.84722000  1.0
  C  C39  1  0.72122000  0.73915000  0.34724000  1.0
  C  C40  1  0.17727000  0.24538000  0.22590000  1.0
  C  C41  1  0.32274000  0.25465000  0.72591000  1.0
  C  C42  1  0.82276000  0.75462000  0.77409000  1.0
  C  C43  1  0.67727000  0.74538000  0.27410000  1.0
  C  C44  1  0.98006000  0.31505000  0.25198000  1.0
  C  C45  1  0.51994000  0.18499000  0.75197000  1.0
  C  C46  1  0.01997000  0.68495000  0.74802000  1.0
  C  C47  1  0.48006000  0.81506000  0.24805000  1.0
  C  C48  1  0.82642000  0.38284000  0.20586000  1.0
  C  C49  1  0.67354000  0.11718000  0.70586000  1.0
  C  C50  1  0.17358000  0.61715000  0.79413000  1.0
  C  C51  1  0.32646000  0.88286000  0.29416000  1.0
  C  C52  1  0.87127000  0.38014000  0.13331000  1.0
  C  C53  1  0.62869000  0.11987000  0.63331000  1.0
  C  C54  1  0.12873000  0.61984000  0.86668000  1.0
  C  C55  1  0.37132000  0.88014000  0.36671000  1.0
  C  C56  1  0.06477000  0.30747000  0.10691000  1.0
  C  C57  1  0.43519000  0.19254000  0.60691000  1.0
  C  C58  1  0.93523000  0.69251000  0.89307000  1.0
  C  C59  1  0.56479000  0.80744000  0.39310000  1.0
  S  S60  1  0.49169000  0.16676000  0.03663000  1.0
  S  S61  1  0.00827000  0.33323000  0.53663000  1.0
  S  S62  1  0.50830000  0.83323000  0.96336000  1.0
  S  S63  1  0.99170000  0.66674000  0.46337000  1.0
  I  I64  1  0.00956000  0.87061000  0.10031000  1.0
  I  I65  1  0.49048000  0.62939000  0.60031000  1.0
  I  I66  1  0.99044000  0.12940000  0.89969000  1.0
  I  I67  1  0.50951000  0.37061000  0.39969000  1.0
  N  N68  1  0.55703000  0.08939000  0.16795000  1.0
  N  N69  1  0.94292000  0.41062000  0.66796000  1.0
  N  N70  1  0.44296000  0.91061000  0.83204000  1.0
  N  N71  1  0.05708000  0.58938000  0.33205000  1.0
