# generated using pymatgen
data_ZnH16C23(N3O2)2
_symmetry_space_group_name_H-M   'P 1'
_cell_length_a   8.06690000
_cell_length_b   14.63360000
_cell_length_c   14.63330000
_cell_angle_alpha   94.48700000
_cell_angle_beta   103.41600000
_cell_angle_gamma   103.41600000
_symmetry_Int_Tables_number   1
_chemical_formula_structural   ZnH16C23(N3O2)2
_chemical_formula_sum   'Zn2 H32 C46 N12 O8'
_cell_volume   1618.43608416
_cell_formula_units_Z   2
loop_
 _symmetry_equiv_pos_site_id
 _symmetry_equiv_pos_as_xyz
  1  'x, y, z'
loop_
 _atom_site_type_symbol
 _atom_site_label
 _atom_site_symmetry_multiplicity
 _atom_site_fract_x
 _atom_site_fract_y
 _atom_site_fract_z
 _atom_site_occupancy
  Zn  Zn0  1  0.59411000  0.73173000  0.74791000  1.0
  Zn  Zn1  1  0.40589000  0.25209000  0.26827000  1.0
  H  H2  1  0.13777000  0.60623000  0.50309000  1.0
  H  H3  1  0.86222000  0.49692000  0.39376000  1.0
  H  H4  1  0.13251000  0.40858000  0.70411000  1.0
  H  H5  1  0.86749000  0.29590000  0.59143000  1.0
  H  H6  1  0.29100000  0.85435000  0.89548000  1.0
  H  H7  1  0.70900000  0.10451000  0.14565000  1.0
  H  H8  1  0.82386000  0.00373000  0.04050000  1.0
  H  H9  1  0.17613000  0.95950000  0.99627000  1.0
  H  H10  1  0.89727000  0.92753000  0.76547000  1.0
  H  H11  1  0.10274000  0.23453000  0.07246000  1.0
  H  H12  1  0.61072000  0.96224000  0.49302000  1.0
  H  H13  1  0.38928000  0.50698000  0.03776000  1.0
  H  H14  1  0.45139000  0.79077000  0.54395000  1.0
  H  H15  1  0.54861000  0.45604000  0.20924000  1.0
  H  H16  1  0.02313000  0.08383000  0.78277000  1.0
  H  H17  1  0.97687000  0.21724000  0.91616000  1.0
  H  H18  1  0.30233000  0.12139000  0.88744000  1.0
  H  H19  1  0.69768000  0.11257000  0.87861000  1.0
  H  H20  1  0.53768000  0.26799000  0.01701000  1.0
  H  H21  1  0.46234000  0.98300000  0.73200000  1.0
  H  H22  1  0.36332000  0.37825000  0.76597000  1.0
  H  H23  1  0.63668000  0.23403000  0.62173000  1.0
  H  H24  1  0.29687000  0.27551000  0.62401000  1.0
  H  H25  1  0.70313000  0.37599000  0.72448000  1.0
  H  H26  1  0.37448000  0.20862000  0.47201000  1.0
  H  H27  1  0.62551000  0.52799000  0.79138000  1.0
  H  H28  1  0.97869000  0.22005000  0.23120000  1.0
  H  H29  1  0.02130000  0.76879000  0.77995000  1.0
  H  H30  1  0.82087000  0.17916000  0.37833000  1.0
  H  H31  1  0.17913000  0.62167000  0.82084000  1.0
  H  H32  1  0.85811000  0.04385000  0.47639000  1.0
  H  H33  1  0.14188000  0.52361000  0.95615000  1.0
  C  C34  1  0.31403000  0.57611000  0.67686000  1.0
  C  C35  1  0.68597000  0.32314000  0.42389000  1.0
  C  C36  1  0.15170000  0.51289000  0.60933000  1.0
  C  C37  1  0.84830000  0.39067000  0.48712000  1.0
  C  C38  1  0.07591000  0.53845000  0.52198000  1.0
  C  C39  1  0.92409000  0.47802000  0.46155000  1.0
  C  C40  1  0.07440000  0.42615000  0.63505000  1.0
  C  C41  1  0.92559000  0.36496000  0.57386000  1.0
  C  C42  1  0.62934000  0.86335000  0.89740000  1.0
  C  C43  1  0.37066000  0.10260000  0.13665000  1.0
  C  C44  1  0.56308000  0.92383000  0.96096000  1.0
  C  C45  1  0.43693000  0.03904000  0.07617000  1.0
  C  C46  1  0.38100000  0.91085000  0.94939000  1.0
  C  C47  1  0.61900000  0.05061000  0.08915000  1.0
  C  C48  1  0.68241000  0.99440000  0.03139000  1.0
  C  C49  1  0.31759000  0.96861000  0.00560000  1.0
  C  C50  1  0.80109000  0.91232000  0.69724000  1.0
  C  C51  1  0.19891000  0.30276000  0.08767000  1.0
  C  C52  1  0.64937000  0.92788000  0.55429000  1.0
  C  C53  1  0.35063000  0.44570000  0.07212000  1.0
  C  C54  1  0.57007000  0.84469000  0.58081000  1.0
  C  C55  1  0.42993000  0.41919000  0.15531000  1.0
  C  C56  1  0.92611000  0.05478000  0.62978000  1.0
  C  C57  1  0.07389000  0.37023000  0.94522000  1.0
  C  C58  1  0.04009000  0.10504000  0.71522000  1.0
  C  C59  1  0.95991000  0.28479000  0.89496000  1.0
  C  C60  1  0.17484000  0.18420000  0.71305000  1.0
  C  C61  1  0.82517000  0.28696000  0.81579000  1.0
  C  C62  1  0.34702000  0.19602000  0.88193000  1.0
  C  C63  1  0.65300000  0.11808000  0.80397000  1.0
  C  C64  1  0.46633000  0.26979000  0.94473000  1.0
  C  C65  1  0.53367000  0.05528000  0.73020000  1.0
  C  C66  1  0.38433000  0.32899000  0.81661000  1.0
  C  C67  1  0.61567000  0.18339000  0.67099000  1.0
  C  C68  1  0.19200000  0.21457000  0.62651000  1.0
  C  C69  1  0.80800000  0.37350000  0.78542000  1.0
  C  C70  1  0.07367000  0.16439000  0.54278000  1.0
  C  C71  1  0.92633000  0.45722000  0.83561000  1.0
  C  C72  1  0.24684000  0.20918000  0.42752000  1.0
  C  C73  1  0.75316000  0.57247000  0.79082000  1.0
  C  C74  1  0.03714000  0.21163000  0.30350000  1.0
  C  C75  1  0.96285000  0.69650000  0.78837000  1.0
  C  C76  1  0.95691000  0.19042000  0.37483000  1.0
  C  C77  1  0.04308000  0.62517000  0.80957000  1.0
  C  C78  1  0.94151000  0.08439000  0.54328000  1.0
  C  C79  1  0.05849000  0.45673000  0.91560000  1.0
  N  N80  1  0.66618000  0.83604000  0.66979000  1.0
  N  N81  1  0.33383000  0.33021000  0.16396000  1.0
  N  N82  1  0.79702000  0.97027000  0.62851000  1.0
  N  N83  1  0.20298000  0.37149000  0.02973000  1.0
  N  N84  1  0.48770000  0.35233000  0.90361000  1.0
  N  N85  1  0.51231000  0.09639000  0.64767000  1.0
  N  N86  1  0.29494000  0.23376000  0.79880000  1.0
  N  N87  1  0.70507000  0.20121000  0.76623000  1.0
  N  N88  1  0.21675000  0.22270000  0.33708000  1.0
  N  N89  1  0.78324000  0.66292000  0.77730000  1.0
  N  N90  1  0.09222000  0.19006000  0.45346000  1.0
  N  N91  1  0.90777000  0.54654000  0.80994000  1.0
  O  O92  1  0.38473000  0.65375000  0.64857000  1.0
  O  O93  1  0.61527000  0.35143000  0.34625000  1.0
  O  O94  1  0.37213000  0.55153000  0.75623000  1.0
  O  O95  1  0.62786000  0.24378000  0.44847000  1.0
  O  O96  1  0.50950000  0.79007000  0.84642000  1.0
  O  O97  1  0.49050000  0.15357000  0.20994000  1.0
  O  O98  1  0.78737000  0.88521000  0.89424000  1.0
  O  O99  1  0.21264000  0.10576000  0.11479000  1.0
