# generated using pymatgen
data_FeH16C22(SN5)2
_symmetry_space_group_name_H-M   'P 1'
_cell_length_a   7.54937000
_cell_length_b   13.04066827
_cell_length_c   13.56110462
_cell_angle_alpha   74.77803484
_cell_angle_beta   74.27580260
_cell_angle_gamma   73.38276121
_symmetry_Int_Tables_number   1
_chemical_formula_structural   FeH16C22(SN5)2
_chemical_formula_sum   'Fe2 H32 C44 S4 N20'
_cell_volume   1206.40309558
_cell_formula_units_Z   2
loop_
 _symmetry_equiv_pos_site_id
 _symmetry_equiv_pos_as_xyz
  1  'x, y, z'
loop_
 _atom_site_type_symbol
 _atom_site_label
 _atom_site_symmetry_multiplicity
 _atom_site_fract_x
 _atom_site_fract_y
 _atom_site_fract_z
 _atom_site_occupancy
  Fe  Fe0  1  1.00000000  0.00000000  0.99999000  1.0
  Fe  Fe1  1  0.50000000  0.50000000  0.50000000  1.0
  H  H2  1  0.13801000  0.13592000  0.10576000  1.0
  H  H3  1  0.36014000  0.90974000  0.86294000  1.0
  H  H4  1  0.62778000  0.59008000  0.63973000  1.0
  H  H5  1  0.11503000  0.63695000  0.60639000  1.0
  H  H6  1  0.86198000  0.86408000  0.89424000  1.0
  H  H7  1  0.63984000  0.09026000  0.13706000  1.0
  H  H8  1  0.37222000  0.40992000  0.36027000  1.0
  H  H9  1  0.88496000  0.36305000  0.39361000  1.0
  H  H10  1  0.13898000  0.15895000  0.28504000  1.0
  H  H11  1  0.56577000  0.72492000  0.84298000  1.0
  H  H12  1  0.63290000  0.77459000  0.65882000  1.0
  H  H13  1  0.91403000  0.65918000  0.78511000  1.0
  H  H14  1  0.86103000  0.84105000  0.71496000  1.0
  H  H15  1  0.43422000  0.27508000  0.15702000  1.0
  H  H16  1  0.36709000  0.22542000  0.34118000  1.0
  H  H17  1  0.08596000  0.34082000  0.21489000  1.0
  H  H18  1  0.90058000  0.87615000  0.41570000  1.0
  H  H19  1  0.20590000  0.58806000  0.12330000  1.0
  H  H20  1  0.42070000  0.90994000  0.37490000  1.0
  H  H21  1  0.30430000  0.37704000  0.91669000  1.0
  H  H22  1  0.09943000  0.12385000  0.58431000  1.0
  H  H23  1  0.79411000  0.41194000  0.87670000  1.0
  H  H24  1  0.57930000  0.09006000  0.62510000  1.0
  H  H25  1  0.69569000  0.62296000  0.08331000  1.0
  H  H26  1  0.89410000  0.87002000  0.23534000  1.0
  H  H27  1  0.01005000  0.77463000  0.12909000  1.0
  H  H28  1  0.41758000  0.72380000  0.36882000  1.0
  H  H29  1  0.49559000  0.37230000  0.73722000  1.0
  H  H30  1  0.10589000  0.12998000  0.76467000  1.0
  H  H31  1  0.98996000  0.22537000  0.87091000  1.0
  H  H32  1  0.58241000  0.27620000  0.63119000  1.0
  H  H33  1  0.50440000  0.62771000  0.26277000  1.0
  C  C34  1  0.65351000  0.89919000  0.09828000  1.0
  C  C35  1  0.14899000  0.60120000  0.40262000  1.0
  C  C36  1  0.85101000  0.39880000  0.59738000  1.0
  C  C37  1  0.34650000  0.10081000  0.90171000  1.0
  C  C38  1  0.08490000  0.08170000  0.17692000  1.0
  C  C39  1  0.32995000  0.83633000  0.91791000  1.0
  C  C40  1  0.58178000  0.66307000  0.58355000  1.0
  C  C41  1  0.15293000  0.58248000  0.67751000  1.0
  C  C42  1  0.91509000  0.91830000  0.82309000  1.0
  C  C43  1  0.67006000  0.16366000  0.08208000  1.0
  C  C44  1  0.41821000  0.33693000  0.41646000  1.0
  C  C45  1  0.84706000  0.41752000  0.32249000  1.0
  C  C46  1  0.08604000  0.09364000  0.27540000  1.0
  C  C47  1  0.44354000  0.73426000  0.90748000  1.0
  C  C48  1  0.58450000  0.76534000  0.59365000  1.0
  C  C49  1  0.04193000  0.59444000  0.77550000  1.0
  C  C50  1  0.91397000  0.90636000  0.72460000  1.0
  C  C51  1  0.55645000  0.26574000  0.09252000  1.0
  C  C52  1  0.41549000  0.23467000  0.40635000  1.0
  C  C53  1  0.95806000  0.40557000  0.22449000  1.0
  C  C54  1  0.01882000  0.01996000  0.36405000  1.0
  C  C55  1  0.40164000  0.64111000  0.98056000  1.0
  C  C56  1  0.52369000  0.85849000  0.51981000  1.0
  C  C57  1  0.09461000  0.52069000  0.86446000  1.0
  C  C58  1  0.98121000  0.98003000  0.63595000  1.0
  C  C59  1  0.59836000  0.35889000  0.01944000  1.0
  C  C60  1  0.47631000  0.14151000  0.48019000  1.0
  C  C61  1  0.90539000  0.47930000  0.13554000  1.0
  C  C62  1  0.95259000  0.93587000  0.34959000  1.0
  C  C63  1  0.24412000  0.65689000  0.06368000  1.0
  C  C64  1  0.46611000  0.84185000  0.43584000  1.0
  C  C65  1  0.25913000  0.43716000  0.85042000  1.0
  C  C66  1  0.04743000  0.06413000  0.65041000  1.0
  C  C67  1  0.75589000  0.34311000  0.93632000  1.0
  C  C68  1  0.53389000  0.15815000  0.56416000  1.0
  C  C69  1  0.74087000  0.56284000  0.14957000  1.0
  C  C70  1  0.95113000  0.93162000  0.24877000  1.0
  C  C71  1  0.13567000  0.76115000  0.06767000  1.0
  C  C72  1  0.46557000  0.73725000  0.43187000  1.0
  C  C73  1  0.36427000  0.43403000  0.74984000  1.0
  C  C74  1  0.04888000  0.06838000  0.75123000  1.0
  C  C75  1  0.86433000  0.23885000  0.93233000  1.0
  C  C76  1  0.53442000  0.26276000  0.56813000  1.0
  C  C77  1  0.63573000  0.56597000  0.25016000  1.0
  S  S78  1  0.46754000  0.85207000  0.15437000  1.0
  S  S79  1  0.96860000  0.64916000  0.34990000  1.0
  S  S80  1  0.03139000  0.35084000  0.65010000  1.0
  S  S81  1  0.53246000  0.14793000  0.84563000  1.0
  N  N82  1  0.79055000  0.93443000  0.05732000  1.0
  N  N83  1  0.28388000  0.56492000  0.44144000  1.0
  N  N84  1  0.71614000  0.43508000  0.55855000  1.0
  N  N85  1  0.20945000  0.06557000  0.94267000  1.0
  N  N86  1  0.01615000  0.00257000  0.16415000  1.0
  N  N87  1  0.17428000  0.85117000  0.99613000  1.0
  N  N88  1  0.52037000  0.64779000  0.50443000  1.0
  N  N89  1  0.31375000  0.50433000  0.66424000  1.0
  N  N90  1  0.98385000  0.99743000  0.83586000  1.0
  N  N91  1  0.82572000  0.14883000  0.00386000  1.0
  N  N92  1  0.47963000  0.35221000  0.49558000  1.0
  N  N93  1  0.68625000  0.49568000  0.33575000  1.0
  N  N94  1  0.01783000  0.03874000  0.46182000  1.0
  N  N95  1  0.51823000  0.54048000  0.96337000  1.0
  N  N96  1  0.52328000  0.95947000  0.53674000  1.0
  N  N97  1  0.97954000  0.53830000  0.96169000  1.0
  N  N98  1  0.98219000  0.96126000  0.53818000  1.0
  N  N99  1  0.48177000  0.45952000  0.03663000  1.0
  N  N100  1  0.47671000  0.04053000  0.46327000  1.0
  N  N101  1  0.02045000  0.46170000  0.03831000  1.0
