# generated using pymatgen
data_ZnH18C21(NO3)2
_symmetry_space_group_name_H-M   'P 1'
_cell_length_a   8.12302000
_cell_length_b   10.58820000
_cell_length_c   11.98640000
_cell_angle_alpha   87.37290000
_cell_angle_beta   72.05350000
_cell_angle_gamma   88.12550000
_symmetry_Int_Tables_number   1
_chemical_formula_structural   ZnH18C21(NO3)2
_chemical_formula_sum   'Zn2 H36 C42 N4 O12'
_cell_volume   979.54984572
_cell_formula_units_Z   2
loop_
 _symmetry_equiv_pos_site_id
 _symmetry_equiv_pos_as_xyz
  1  'x, y, z'
loop_
 _atom_site_type_symbol
 _atom_site_label
 _atom_site_symmetry_multiplicity
 _atom_site_fract_x
 _atom_site_fract_y
 _atom_site_fract_z
 _atom_site_occupancy
  Zn  Zn0  1  0.04643000  0.76219000  0.23906000  1.0
  Zn  Zn1  1  0.95357000  0.23781000  0.76094000  1.0
  H  H2  1  0.73778000  0.32259000  0.30874000  1.0
  H  H3  1  0.26221000  0.67742000  0.69125000  1.0
  H  H4  1  0.40993000  0.27924000  0.66991000  1.0
  H  H5  1  0.59007000  0.72077000  0.33009000  1.0
  H  H6  1  0.79896000  0.56726000  0.56829000  1.0
  H  H7  1  0.20104000  0.43274000  0.43171000  1.0
  H  H8  1  0.24952000  0.19683000  0.57116000  1.0
  H  H9  1  0.75048000  0.80317000  0.42884000  1.0
  H  H10  1  0.39536000  0.07637000  0.59407000  1.0
  H  H11  1  0.60464000  0.92363000  0.40592000  1.0
  H  H12  1  0.38940000  0.13830000  0.29047000  1.0
  H  H13  1  0.61060000  0.86170000  0.70952000  1.0
  H  H14  1  0.25443000  0.99399000  0.18569000  1.0
  H  H15  1  0.74557000  0.00601000  0.81431000  1.0
  H  H16  1  0.05423000  0.76978000  0.48614000  1.0
  H  H17  1  0.94577000  0.23022000  0.51387000  1.0
  H  H18  1  0.15782000  0.91545000  0.60802000  1.0
  H  H19  1  0.84217000  0.08455000  0.39198000  1.0
  H  H20  1  0.61097000  0.64497000  0.70779000  1.0
  H  H21  1  0.38904000  0.35502000  0.29221000  1.0
  H  H22  1  0.73013000  0.55570000  0.78846000  1.0
  H  H23  1  0.26987000  0.44430000  0.21154000  1.0
  H  H24  1  0.24451000  0.54445000  0.85407000  1.0
  H  H25  1  0.75549000  0.45555000  0.14592000  1.0
  H  H26  1  0.04042000  0.62930000  0.03658000  1.0
  H  H27  1  0.95959000  0.37070000  0.96342000  1.0
  H  H28  1  0.43990000  0.77782000  0.13377000  1.0
  H  H29  1  0.56010000  0.22217000  0.86623000  1.0
  H  H30  1  0.66180000  0.70308000  0.95399000  1.0
  H  H31  1  0.33819000  0.29692000  0.04601000  1.0
  H  H32  1  0.76182000  0.97955000  0.01046000  1.0
  H  H33  1  0.23817000  0.02045000  0.98954000  1.0
  H  H34  1  0.69888000  0.09515000  0.11928000  1.0
  H  H35  1  0.30111000  0.90484000  0.88072000  1.0
  H  H36  1  0.59582000  0.94405000  0.14517000  1.0
  H  H37  1  0.40418000  0.05594000  0.85482000  1.0
  C  C38  1  0.90716000  0.52852000  0.33579000  1.0
  C  C39  1  0.09284000  0.47148000  0.66420000  1.0
  C  C40  1  0.77989000  0.45217000  0.43047000  1.0
  C  C41  1  0.22011000  0.54784000  0.56952000  1.0
  C  C42  1  0.69970000  0.35131000  0.39937000  1.0
  C  C43  1  0.30030000  0.64869000  0.60063000  1.0
  C  C44  1  0.56655000  0.28931000  0.48531000  1.0
  C  C45  1  0.43345000  0.71069000  0.51469000  1.0
  C  C46  1  0.51594000  0.32406000  0.60189000  1.0
  C  C47  1  0.48406000  0.67594000  0.39811000  1.0
  C  C48  1  0.60026000  0.42532000  0.63135000  1.0
  C  C49  1  0.39975000  0.57468000  0.36865000  1.0
  C  C50  1  0.73264000  0.48871000  0.54724000  1.0
  C  C51  1  0.26736000  0.51129000  0.45276000  1.0
  C  C52  1  0.35159000  0.12859000  0.52627000  1.0
  C  C53  1  0.64841000  0.87141000  0.47373000  1.0
  C  C54  1  0.28228000  0.03980000  0.45860000  1.0
  C  C55  1  0.71772000  0.96020000  0.54140000  1.0
  C  C56  1  0.31184000  0.05974000  0.33779000  1.0
  C  C57  1  0.68817000  0.94026000  0.66221000  1.0
  C  C58  1  0.24205000  0.97803000  0.27823000  1.0
  C  C59  1  0.75795000  0.02197000  0.72177000  1.0
  C  C60  1  0.12479000  0.85494000  0.44763000  1.0
  C  C61  1  0.87520000  0.14507000  0.55237000  1.0
  C  C62  1  0.18505000  0.93547000  0.51410000  1.0
  C  C63  1  0.81495000  0.06453000  0.48590000  1.0
  C  C64  1  0.60054000  0.57151000  0.77806000  1.0
  C  C65  1  0.39946000  0.42848000  0.22194000  1.0
  C  C66  1  0.47163000  0.61715000  0.88847000  1.0
  C  C67  1  0.52837000  0.38284000  0.11153000  1.0
  C  C68  1  0.29429000  0.59646000  0.91281000  1.0
  C  C69  1  0.70572000  0.40354000  0.08718000  1.0
  C  C70  1  0.17914000  0.64352000  0.01418000  1.0
  C  C71  1  0.82087000  0.35648000  0.98582000  1.0
  C  C72  1  0.40200000  0.72803000  0.06830000  1.0
  C  C73  1  0.59800000  0.27196000  0.93170000  1.0
  C  C74  1  0.52526000  0.68546000  0.96789000  1.0
  C  C75  1  0.47474000  0.31453000  0.03211000  1.0
  C  C76  1  0.85906000  0.94106000  0.15348000  1.0
  C  C77  1  0.14094000  0.05894000  0.84652000  1.0
  C  C78  1  0.71762000  0.99339000  0.10558000  1.0
  C  C79  1  0.28238000  0.00661000  0.89442000  1.0
  N  N80  1  0.15085000  0.87634000  0.33176000  1.0
  N  N81  1  0.84915000  0.12366000  0.66824000  1.0
  N  N82  1  0.23180000  0.70751000  0.09159000  1.0
  N  N83  1  0.76820000  0.29248000  0.90842000  1.0
  O  O84  1  0.96742000  0.48848000  0.23433000  1.0
  O  O85  1  0.03259000  0.51151000  0.76567000  1.0
  O  O86  1  0.94210000  0.63804000  0.36759000  1.0
  O  O87  1  0.05790000  0.36196000  0.63240000  1.0
  O  O88  1  0.49160000  0.19440000  0.44468000  1.0
  O  O89  1  0.50839000  0.80561000  0.55532000  1.0
  O  O90  1  0.53828000  0.45780000  0.74652000  1.0
  O  O91  1  0.46172000  0.54220000  0.25348000  1.0
  O  O92  1  0.84596000  0.82197000  0.18834000  1.0
  O  O93  1  0.15404000  0.17803000  0.81166000  1.0
  O  O94  1  0.98013000  0.00941000  0.15623000  1.0
  O  O95  1  0.01986000  0.99059000  0.84378000  1.0
