# generated using pymatgen
data_MgH5C5O6
_symmetry_space_group_name_H-M   'P 1'
_cell_length_a   7.07076000
_cell_length_b   7.29991000
_cell_length_c   8.32036000
_cell_angle_alpha   90.46420000
_cell_angle_beta   109.88800000
_cell_angle_gamma   95.20700000
_symmetry_Int_Tables_number   1
_chemical_formula_structural   MgH5C5O6
_chemical_formula_sum   'Mg2 H10 C10 O12'
_cell_volume   401.83451732
_cell_formula_units_Z   2
loop_
 _symmetry_equiv_pos_site_id
 _symmetry_equiv_pos_as_xyz
  1  'x, y, z'
loop_
 _atom_site_type_symbol
 _atom_site_label
 _atom_site_symmetry_multiplicity
 _atom_site_fract_x
 _atom_site_fract_y
 _atom_site_fract_z
 _atom_site_occupancy
  Mg  Mg0  1  0.50000000  0.50000000  0.00000000  1.0
  Mg  Mg1  1  0.00000000  0.00000000  0.00000000  1.0
  H  H2  1  0.42057000  0.31293000  0.55750000  1.0
  H  H3  1  0.57943000  0.68707000  0.44250000  1.0
  H  H4  1  0.14393000  0.42370000  0.98281000  1.0
  H  H5  1  0.85607000  0.57630000  0.01720000  1.0
  H  H6  1  0.15575000  0.63243000  0.92220000  1.0
  H  H7  1  0.84425000  0.36757000  0.07781000  1.0
  H  H8  1  0.81116000  0.84613000  0.20744000  1.0
  H  H9  1  0.18884000  0.15387000  0.79256000  1.0
  H  H10  1  0.04175000  0.82775000  0.30456000  1.0
  H  H11  1  0.95825000  0.17226000  0.69545000  1.0
  C  C12  1  0.57607000  0.14696000  0.84373000  1.0
  C  C13  1  0.42391000  0.85305000  0.15627000  1.0
  C  C14  1  0.53300000  0.06230000  0.66840000  1.0
  C  C15  1  0.46699000  0.93769000  0.33161000  1.0
  C  C16  1  0.45391000  0.17507000  0.53082000  1.0
  C  C17  1  0.54608000  0.82493000  0.46918000  1.0
  C  C18  1  0.57905000  0.88470000  0.63713000  1.0
  C  C19  1  0.42095000  0.11530000  0.36287000  1.0
  C  C20  1  0.64695000  0.74819000  0.77511000  1.0
  C  C21  1  0.35304000  0.25179000  0.22488000  1.0
  O  O22  1  0.44426000  0.24186000  0.86678000  1.0
  O  O23  1  0.55574000  0.75813000  0.13322000  1.0
  O  O24  1  0.51527000  0.62175000  0.77938000  1.0
  O  O25  1  0.48475000  0.37825000  0.22062000  1.0
  O  O26  1  0.83076000  0.76420000  0.87636000  1.0
  O  O27  1  0.16924000  0.23580000  0.12364000  1.0
  O  O28  1  0.74699000  0.13251000  0.95778000  1.0
  O  O29  1  0.25301000  0.86749000  0.04223000  1.0
  O  O30  1  0.18633000  0.50657000  0.90433000  1.0
  O  O31  1  0.81367000  0.49344000  0.09567000  1.0
  O  O32  1  0.95030000  0.90474000  0.22620000  1.0
  O  O33  1  0.04969000  0.09527000  0.77381000  1.0
