# generated using pymatgen
data_ZnH4C10O4F
_symmetry_space_group_name_H-M   'P 1'
_cell_length_a   18.99620000
_cell_length_b   19.00401958
_cell_length_c   30.86120000
_cell_angle_alpha   89.96938339
_cell_angle_beta   89.79980000
_cell_angle_gamma   119.94780057
_symmetry_Int_Tables_number   1
_chemical_formula_structural   ZnH4C10O4F
_chemical_formula_sum   'Zn12 H48 C120 O48 F12'
_cell_volume   9653.38633827
_cell_formula_units_Z   12
loop_
 _symmetry_equiv_pos_site_id
 _symmetry_equiv_pos_as_xyz
  1  'x, y, z'
loop_
 _atom_site_type_symbol
 _atom_site_label
 _atom_site_symmetry_multiplicity
 _atom_site_fract_x
 _atom_site_fract_y
 _atom_site_fract_z
 _atom_site_occupancy
  Zn  Zn0  1  0.99989000  0.56796000  0.49997000  1.0
  Zn  Zn1  1  0.00006000  0.43312000  0.50002000  1.0
  Zn  Zn2  1  0.43194000  0.43199000  0.50045000  1.0
  Zn  Zn3  1  0.56685000  0.56682000  0.50033000  1.0
  Zn  Zn4  1  0.56791000  0.99993000  0.50051000  1.0
  Zn  Zn5  1  0.43301000  0.00005000  0.50061000  1.0
  Zn  Zn6  1  0.00192000  0.43298000  0.00001000  1.0
  Zn  Zn7  1  0.00175000  0.56782000  0.99996000  1.0
  Zn  Zn8  1  0.56949000  0.56853000  0.00007000  1.0
  Zn  Zn9  1  0.43465000  0.43374000  0.00062000  1.0
  Zn  Zn10  1  0.43353000  0.00108000  0.00075000  1.0
  Zn  Zn11  1  0.56847000  0.00095000  0.00028000  1.0
  H  H12  1  0.74244000  0.48428000  0.50008000  1.0
  H  H13  1  0.51560000  0.25820000  0.50032000  1.0
  H  H14  1  0.74192000  0.25742000  0.50015000  1.0
  H  H15  1  0.25744000  0.74196000  0.50042000  1.0
  H  H16  1  0.48434000  0.74238000  0.50082000  1.0
  H  H17  1  0.25812000  0.51570000  0.50026000  1.0
  H  H18  1  0.00025000  0.61455000  0.36091000  1.0
  H  H19  1  0.00126000  0.38625000  0.13907000  1.0
  H  H20  1  0.00057000  0.61230000  0.13827000  1.0
  H  H21  1  0.00032000  0.61249000  0.21721000  1.0
  H  H22  1  0.00100000  0.38853000  0.36173000  1.0
  H  H23  1  0.00104000  0.38822000  0.28278000  1.0
  H  H24  1  0.99898000  0.61382000  0.63898000  1.0
  H  H25  1  0.00061000  0.38599000  0.86101000  1.0
  H  H26  1  0.99943000  0.61179000  0.86162000  1.0
  H  H27  1  0.99918000  0.61193000  0.78267000  1.0
  H  H28  1  0.00014000  0.38800000  0.63837000  1.0
  H  H29  1  0.00034000  0.38784000  0.71732000  1.0
  H  H30  1  0.38663000  0.38581000  0.36139000  1.0
  H  H31  1  0.61643000  0.61510000  0.13922000  1.0
  H  H32  1  0.39052000  0.38844000  0.13878000  1.0
  H  H33  1  0.38989000  0.38792000  0.21773000  1.0
  H  H34  1  0.61252000  0.61242000  0.36197000  1.0
  H  H35  1  0.61347000  0.61288000  0.28301000  1.0
  H  H36  1  0.38505000  0.38508000  0.63966000  1.0
  H  H37  1  0.61290000  0.61470000  0.86095000  1.0
  H  H38  1  0.38708000  0.38800000  0.86251000  1.0
  H  H39  1  0.38590000  0.38806000  0.78353000  1.0
  H  H40  1  0.61075000  0.61190000  0.63851000  1.0
  H  H41  1  0.61043000  0.61258000  0.71744000  1.0
  H  H42  1  0.61534000  0.00077000  0.36145000  1.0
  H  H43  1  0.38771000  0.00144000  0.13970000  1.0
  H  H44  1  0.61455000  0.00213000  0.13876000  1.0
  H  H45  1  0.61455000  0.00205000  0.21771000  1.0
  H  H46  1  0.38848000  0.00007000  0.36233000  1.0
  H  H47  1  0.38877000  0.00064000  0.28338000  1.0
  H  H48  1  0.61367000  0.99994000  0.63934000  1.0
  H  H49  1  0.38445000  0.99832000  0.86189000  1.0
  H  H50  1  0.61127000  0.99899000  0.86180000  1.0
  H  H51  1  0.61063000  0.99767000  0.78287000  1.0
  H  H52  1  0.38659000  0.99879000  0.63908000  1.0
  H  H53  1  0.38573000  0.99770000  0.71805000  1.0
  H  H54  1  0.74442000  0.25874000  0.00094000  1.0
  H  H55  1  0.51752000  0.25829000  0.00137000  1.0
  H  H56  1  0.74375000  0.48499000  0.00083000  1.0
  H  H57  1  0.25946000  0.51700000  0.99880000  1.0
  H  H58  1  0.48628000  0.74316000  0.99833000  1.0
  H  H59  1  0.25993000  0.74383000  0.99897000  1.0
  C  C60  1  0.99948000  0.50124000  0.58431000  1.0
  C  C61  1  0.84238000  0.42056000  0.50004000  1.0
  C  C62  1  0.00054000  0.50188000  0.41569000  1.0
  C  C63  1  0.15758000  0.57843000  0.50012000  1.0
  C  C64  1  0.49789000  0.49803000  0.58472000  1.0
  C  C65  1  0.57929000  0.42170000  0.50022000  1.0
  C  C66  1  0.49873000  0.49861000  0.41604000  1.0
  C  C67  1  0.42171000  0.57932000  0.50051000  1.0
  C  C68  1  0.50085000  0.99985000  0.58486000  1.0
  C  C69  1  0.57829000  0.15759000  0.50030000  1.0
  C  C70  1  0.50190000  0.00009000  0.41625000  1.0
  C  C71  1  0.42064000  0.84238000  0.50068000  1.0
  C  C72  1  0.00071000  0.49888000  0.91568000  1.0
  C  C73  1  0.84426000  0.42224000  0.00066000  1.0
  C  C74  1  0.00164000  0.49928000  0.08430000  1.0
  C  C75  1  0.15946000  0.58069000  0.99911000  1.0
  C  C76  1  0.50166000  0.50082000  0.91604000  1.0
  C  C77  1  0.58023000  0.42154000  0.00086000  1.0
  C  C78  1  0.50324000  0.50259000  0.08464000  1.0
  C  C79  1  0.42284000  0.57970000  0.99932000  1.0
  C  C80  1  0.49879000  0.00088000  0.91618000  1.0
  C  C81  1  0.58134000  0.15843000  0.00093000  1.0
  C  C82  1  0.50026000  0.00078000  0.08486000  1.0
  C  C83  1  0.42353000  0.84358000  0.99947000  1.0
  C  C84  1  0.62438000  0.37602000  0.50019000  1.0
  C  C85  1  0.70933000  0.41819000  0.50011000  1.0
  C  C86  1  0.75164000  0.37550000  0.50010000  1.0
  C  C87  1  0.70893000  0.29058000  0.50014000  1.0
  C  C88  1  0.62395000  0.24831000  0.50021000  1.0
  C  C89  1  0.58173000  0.29109000  0.50024000  1.0
  C  C90  1  0.37556000  0.75166000  0.50062000  1.0
  C  C91  1  0.29060000  0.70897000  0.50046000  1.0
  C  C92  1  0.24832000  0.62404000  0.50031000  1.0
  C  C93  1  0.29107000  0.58179000  0.50035000  1.0
  C  C94  1  0.37602000  0.62441000  0.50053000  1.0
  C  C95  1  0.41823000  0.70932000  0.50067000  1.0
  C  C96  1  0.00064000  0.50127000  0.36735000  1.0
  C  C97  1  0.00107000  0.49963000  0.13264000  1.0
  C  C98  1  0.00044000  0.56425000  0.34415000  1.0
  C  C99  1  0.00045000  0.56312000  0.29929000  1.0
  C  C100  1  0.00109000  0.43656000  0.15583000  1.0
  C  C101  1  0.00094000  0.43761000  0.20069000  1.0
  C  C102  1  0.00071000  0.56268000  0.15583000  1.0
  C  C103  1  0.00055000  0.56231000  0.20079000  1.0
  C  C104  1  0.00087000  0.43815000  0.34417000  1.0
  C  C105  1  0.00089000  0.43844000  0.29920000  1.0
  C  C106  1  0.00069000  0.50093000  0.27404000  1.0
  C  C107  1  0.00072000  0.49980000  0.22595000  1.0
  C  C108  1  0.99953000  0.50062000  0.63265000  1.0
  C  C109  1  0.00010000  0.49921000  0.86734000  1.0
  C  C110  1  0.99928000  0.56359000  0.65579000  1.0
  C  C111  1  0.99941000  0.56255000  0.70065000  1.0
  C  C112  1  0.00027000  0.43620000  0.84421000  1.0
  C  C113  1  0.00015000  0.43724000  0.79935000  1.0
  C  C114  1  0.99961000  0.56219000  0.84410000  1.0
  C  C115  1  0.99948000  0.56180000  0.79914000  1.0
  C  C116  1  0.99992000  0.43758000  0.65589000  1.0
  C  C117  1  0.00002000  0.43796000  0.70085000  1.0
  C  C118  1  0.99976000  0.50044000  0.72595000  1.0
  C  C119  1  0.99979000  0.49934000  0.77404000  1.0
  C  C120  1  0.49982000  0.49936000  0.36769000  1.0
  C  C121  1  0.50304000  0.50162000  0.13298000  1.0
  C  C122  1  0.43706000  0.43625000  0.34457000  1.0
  C  C123  1  0.43856000  0.43743000  0.29971000  1.0
  C  C124  1  0.56604000  0.56463000  0.15605000  1.0
  C  C125  1  0.56475000  0.56336000  0.20093000  1.0
  C  C126  1  0.44000000  0.43815000  0.15627000  1.0
  C  C127  1  0.44014000  0.43831000  0.20123000  1.0
  C  C128  1  0.56310000  0.56271000  0.34445000  1.0
  C  C129  1  0.56316000  0.56249000  0.29948000  1.0
  C  C130  1  0.50093000  0.49983000  0.27438000  1.0
  C  C131  1  0.50243000  0.50098000  0.22628000  1.0
  C  C132  1  0.49818000  0.49878000  0.63307000  1.0
  C  C133  1  0.50004000  0.50077000  0.86773000  1.0
  C  C134  1  0.43512000  0.43566000  0.65636000  1.0
  C  C135  1  0.43587000  0.43701000  0.70122000  1.0
  C  C136  1  0.56253000  0.56425000  0.84435000  1.0
  C  C137  1  0.56087000  0.56339000  0.79951000  1.0
  C  C138  1  0.43651000  0.43773000  0.84477000  1.0
  C  C139  1  0.43634000  0.43825000  0.79980000  1.0
  C  C140  1  0.56106000  0.56223000  0.65614000  1.0
  C  C141  1  0.56037000  0.56216000  0.70110000  1.0
  C  C142  1  0.49774000  0.49960000  0.72636000  1.0
  C  C143  1  0.49871000  0.50091000  0.77445000  1.0
  C  C144  1  0.50159000  0.00037000  0.36792000  1.0
  C  C145  1  0.50130000  0.00156000  0.13320000  1.0
  C  C146  1  0.56499000  0.00075000  0.34471000  1.0
  C  C147  1  0.56422000  0.00112000  0.29985000  1.0
  C  C148  1  0.43811000  0.00154000  0.15644000  1.0
  C  C149  1  0.43906000  0.00151000  0.20129000  1.0
  C  C150  1  0.56467000  0.00193000  0.15634000  1.0
  C  C151  1  0.56422000  0.00191000  0.20132000  1.0
  C  C152  1  0.43840000  0.00034000  0.34476000  1.0
  C  C153  1  0.43907000  0.00071000  0.29978000  1.0
  C  C154  1  0.50202000  0.00115000  0.27461000  1.0
  C  C155  1  0.50132000  0.00154000  0.22651000  1.0
  C  C156  1  0.49986000  0.99938000  0.63319000  1.0
  C  C157  1  0.49845000  0.99928000  0.86785000  1.0
  C  C158  1  0.56297000  0.99940000  0.65621000  1.0
  C  C159  1  0.56156000  0.99880000  0.70107000  1.0
  C  C160  1  0.43480000  0.99837000  0.84491000  1.0
  C  C161  1  0.43534000  0.99754000  0.80004000  1.0
  C  C162  1  0.56136000  0.99872000  0.84444000  1.0
  C  C163  1  0.56054000  0.99800000  0.79948000  1.0
  C  C164  1  0.43629000  0.99878000  0.65652000  1.0
  C  C165  1  0.43626000  0.99813000  0.70149000  1.0
  C  C166  1  0.49887000  0.99807000  0.72648000  1.0
  C  C167  1  0.49771000  0.99776000  0.77457000  1.0
  C  C168  1  0.62633000  0.24910000  0.00113000  1.0
  C  C169  1  0.71126000  0.29174000  0.00103000  1.0
  C  C170  1  0.75354000  0.37666000  0.00095000  1.0
  C  C171  1  0.71080000  0.41891000  0.00096000  1.0
  C  C172  1  0.62584000  0.37636000  0.00108000  1.0
  C  C173  1  0.58363000  0.29143000  0.00123000  1.0
  C  C174  1  0.37759000  0.62526000  0.99861000  1.0
  C  C175  1  0.29261000  0.58309000  0.99865000  1.0
  C  C176  1  0.25022000  0.62574000  0.99867000  1.0
  C  C177  1  0.29291000  0.71066000  0.99874000  1.0
  C  C178  1  0.37789000  0.75291000  0.99868000  1.0
  C  C179  1  0.42016000  0.71019000  0.99845000  1.0
  O  O180  1  0.99937000  0.56124000  0.56552000  1.0
  O  O181  1  0.99961000  0.44152000  0.56527000  1.0
  O  O182  1  0.87764000  0.37821000  0.50005000  1.0
  O  O183  1  0.87785000  0.49814000  0.49998000  1.0
  O  O184  1  0.00051000  0.44208000  0.43478000  1.0
  O  O185  1  0.00046000  0.56190000  0.43444000  1.0
  O  O186  1  0.12199000  0.62048000  0.50005000  1.0
  O  O187  1  0.12246000  0.50089000  0.50003000  1.0
  O  O188  1  0.43803000  0.43799000  0.56601000  1.0
  O  O189  1  0.55776000  0.55781000  0.56559000  1.0
  O  O190  1  0.62167000  0.49924000  0.50021000  1.0
  O  O191  1  0.50169000  0.37968000  0.50025000  1.0
  O  O192  1  0.55833000  0.55831000  0.43507000  1.0
  O  O193  1  0.43854000  0.43858000  0.43485000  1.0
  O  O194  1  0.37964000  0.50175000  0.50055000  1.0
  O  O195  1  0.49927000  0.62165000  0.50043000  1.0
  O  O196  1  0.56110000  0.00006000  0.56603000  1.0
  O  O197  1  0.44115000  0.99993000  0.56585000  1.0
  O  O198  1  0.50072000  0.12246000  0.50040000  1.0
  O  O199  1  0.62038000  0.12203000  0.50026000  1.0
  O  O200  1  0.44201000  0.00005000  0.43536000  1.0
  O  O201  1  0.56183000  0.99992000  0.43498000  1.0
  O  O202  1  0.49824000  0.87784000  0.50069000  1.0
  O  O203  1  0.37826000  0.87762000  0.50068000  1.0
  O  O204  1  0.00104000  0.43899000  0.93447000  1.0
  O  O205  1  0.00097000  0.55880000  0.93471000  1.0
  O  O206  1  0.87937000  0.49977000  0.00047000  1.0
  O  O207  1  0.87980000  0.38015000  0.00057000  1.0
  O  O208  1  0.00180000  0.55914000  0.06521000  1.0
  O  O209  1  0.00204000  0.43943000  0.06555000  1.0
  O  O210  1  0.12398000  0.50313000  0.99935000  1.0
  O  O211  1  0.12419000  0.62305000  0.99932000  1.0
  O  O212  1  0.56209000  0.56060000  0.93456000  1.0
  O  O213  1  0.44231000  0.44083000  0.93535000  1.0
  O  O214  1  0.50267000  0.37922000  0.00099000  1.0
  O  O215  1  0.62228000  0.49911000  0.00050000  1.0
  O  O216  1  0.44325000  0.44298000  0.06577000  1.0
  O  O217  1  0.56304000  0.56271000  0.06564000  1.0
  O  O218  1  0.50044000  0.62176000  0.99943000  1.0
  O  O219  1  0.38054000  0.50218000  0.99993000  1.0
  O  O220  1  0.43913000  0.00159000  0.93516000  1.0
  O  O221  1  0.55896000  0.00149000  0.93503000  1.0
  O  O222  1  0.62375000  0.12323000  0.00058000  1.0
  O  O223  1  0.50375000  0.12297000  0.00108000  1.0
  O  O224  1  0.55982000  0.00040000  0.06562000  1.0
  O  O225  1  0.43994000  0.00039000  0.06626000  1.0
  O  O226  1  0.38143000  0.87911000  0.00005000  1.0
  O  O227  1  0.50109000  0.87869000  0.99968000  1.0
  F  F228  1  0.00020000  0.62829000  0.28042000  1.0
  F  F229  1  0.00102000  0.37235000  0.21956000  1.0
  F  F230  1  0.99915000  0.62774000  0.71946000  1.0
  F  F231  1  0.00046000  0.37208000  0.78054000  1.0
  F  F232  1  0.37354000  0.37209000  0.28092000  1.0
  F  F233  1  0.62982000  0.62867000  0.21972000  1.0
  F  F234  1  0.37072000  0.37162000  0.72023000  1.0
  F  F235  1  0.62554000  0.62918000  0.78046000  1.0
  F  F236  1  0.62975000  0.00142000  0.28094000  1.0
  F  F237  1  0.37356000  0.00129000  0.22019000  1.0
  F  F238  1  0.62702000  0.99905000  0.71975000  1.0
  F  F239  1  0.36946000  0.99650000  0.78140000  1.0
