# generated using pymatgen
data_Zn4H26C40I8N4O21
_symmetry_space_group_name_H-M   'P 1'
_cell_length_a   10.72660000
_cell_length_b   19.10030000
_cell_length_c   19.29220000
_cell_angle_alpha   93.79850000
_cell_angle_beta   92.75290000
_cell_angle_gamma   96.41680000
_symmetry_Int_Tables_number   1
_chemical_formula_structural   Zn4H26C40I8N4O21
_chemical_formula_sum   'Zn4 H26 C40 I8 N4 O21'
_cell_volume   3913.09029974
_cell_formula_units_Z   1
loop_
 _symmetry_equiv_pos_site_id
 _symmetry_equiv_pos_as_xyz
  1  'x, y, z'
loop_
 _atom_site_type_symbol
 _atom_site_label
 _atom_site_symmetry_multiplicity
 _atom_site_fract_x
 _atom_site_fract_y
 _atom_site_fract_z
 _atom_site_occupancy
  Zn  Zn0  1  0.39335000  0.45007000  0.43572000  1.0
  Zn  Zn1  1  0.61864000  0.57477000  0.45352000  1.0
  Zn  Zn2  1  0.60622000  0.44808000  0.55754000  1.0
  Zn  Zn3  1  0.41736000  0.56225000  0.56994000  1.0
  H  H4  1  0.33823000  0.46636000  0.22760000  1.0
  H  H5  1  0.14778000  0.48508000  0.68904000  1.0
  H  H6  1  0.26264000  0.55434000  0.72588000  1.0
  H  H7  1  0.84491000  0.45847000  0.23127000  1.0
  H  H8  1  0.76025000  0.46920000  0.30902000  1.0
  H  H9  1  0.90392000  0.52364000  0.30010000  1.0
  H  H10  1  0.87997000  0.62679000  0.63797000  1.0
  H  H11  1  0.94538000  0.68261000  0.57380000  1.0
  H  H12  1  0.02822000  0.67987000  0.65659000  1.0
  H  H13  1  0.26379000  0.86948000  0.33188000  1.0
  H  H14  1  0.27333000  0.95738000  0.37393000  1.0
  H  H15  1  0.71832000  0.55048000  0.10846000  1.0
  H  H16  1  0.12423000  0.90416000  0.36002000  1.0
  H  H17  1  0.71299000  0.71137000  0.58193000  1.0
  H  H18  1  0.62357000  0.76745000  0.63332000  1.0
  H  H19  1  0.79126000  0.78692000  0.63249000  1.0
  H  H20  1  0.81614000  0.92396000  0.58036000  1.0
  H  H21  1  0.67552000  0.93854000  0.62416000  1.0
  H  H22  1  0.76869000  0.01132000  0.59083000  1.0
  H  H23  1  0.90805000  0.37353000  0.51226000  1.0
  H  H24  1  0.04510000  0.36333000  0.46320000  1.0
  H  H25  1  0.89203000  0.35647000  0.41949000  1.0
  H  H26  1  0.17479000  0.49420000  0.15706000  1.0
  H  H27  1  0.11842000  0.43940000  0.08004000  1.0
  H  H28  1  0.19479000  0.40176000  0.15107000  1.0
  H  H29  1  0.15181000  0.51009000  0.78093000  1.0
  C  C30  1  0.49778000  0.69587000  0.51161000  1.0
  C  C31  1  0.47881000  0.77197000  0.50503000  1.0
  C  C32  1  0.58087000  0.82448000  0.51980000  1.0
  C  C33  1  0.50277000  0.32212000  0.47334000  1.0
  C  C34  1  0.57000000  0.89468000  0.50369000  1.0
  C  C35  1  0.51005000  0.48777000  0.76618000  1.0
  C  C36  1  0.61850000  0.50060000  0.81068000  1.0
  C  C37  1  0.61041000  0.49669000  0.88280000  1.0
  C  C38  1  0.49108000  0.47881000  0.90973000  1.0
  C  C39  1  0.38376000  0.46264000  0.86380000  1.0
  C  C40  1  0.39214000  0.46842000  0.79222000  1.0
  C  C41  1  0.44803000  0.20303000  0.51892000  1.0
  C  C42  1  0.41385000  0.48337000  0.12741000  1.0
  C  C43  1  0.42072000  0.48355000  0.19981000  1.0
  C  C44  1  0.52465000  0.50779000  0.09404000  1.0
  C  C45  1  0.52434000  0.50769000  0.31728000  1.0
  C  C46  1  0.53244000  0.50565000  0.24020000  1.0
  C  C47  1  0.64277000  0.52854000  0.20668000  1.0
  C  C48  1  0.63501000  0.53121000  0.13475000  1.0
  C  C49  1  0.51284000  0.49361000  0.68883000  1.0
  C  C50  1  0.84021000  0.53735000  0.53089000  1.0
  C  C51  1  0.17685000  0.49647000  0.50315000  1.0
  C  C52  1  0.44741000  0.12933000  0.51481000  1.0
  C  C53  1  0.04071000  0.49932000  0.50174000  1.0
  C  C54  1  0.98163000  0.54498000  0.54230000  1.0
  C  C55  1  0.49767000  0.24280000  0.46580000  1.0
  C  C56  1  0.95259000  0.38304000  0.46299000  1.0
  C  C57  1  0.19263000  0.44916000  0.12169000  1.0
  C  C58  1  0.20837000  0.50395000  0.73532000  1.0
  C  C59  1  0.81902000  0.49684000  0.27187000  1.0
  C  C60  1  0.96726000  0.64902000  0.61575000  1.0
  C  C61  1  0.22499000  0.90343000  0.37179000  1.0
  C  C62  1  0.70528000  0.76612000  0.60120000  1.0
  C  C63  1  0.49800000  0.09587000  0.45667000  1.0
  C  C64  1  0.73597000  0.95480000  0.58225000  1.0
  C  C65  1  0.54524000  0.13613000  0.40293000  1.0
  C  C66  1  0.54502000  0.20936000  0.40737000  1.0
  C  C67  1  0.34951000  0.85832000  0.46181000  1.0
  C  C68  1  0.36350000  0.78905000  0.47712000  1.0
  C  C69  1  0.45378000  0.91134000  0.47391000  1.0
  I  I70  1  0.37646000  0.25870000  0.60362000  1.0
  I  I71  1  0.20919000  0.42916000  0.90293000  1.0
  I  I72  1  0.77813000  0.51043000  0.94664000  1.0
  I  I73  1  0.79049000  0.52694000  0.76408000  1.0
  I  I74  1  0.21075000  0.71065000  0.45188000  1.0
  I  I75  1  0.60693000  0.07939000  0.31673000  1.0
  I  I76  1  0.61867000  0.27216000  0.32990000  1.0
  I  I77  1  0.38039000  0.07069000  0.59686000  1.0
  N  N78  1  0.51859000  0.02414000  0.45141000  1.0
  N  N79  1  0.42797000  0.98050000  0.46626000  1.0
  N  N80  1  0.46957000  0.47015000  0.98087000  1.0
  N  N81  1  0.53659000  0.51414000  0.02265000  1.0
  O  O82  1  0.50977000  0.50879000  0.50355000  1.0
  O  O83  1  0.79401000  0.58003000  0.49185000  1.0
  O  O84  1  0.24068000  0.52767000  0.55639000  1.0
  O  O85  1  0.78339000  0.48881000  0.56337000  1.0
  O  O86  1  0.21923000  0.46276000  0.45143000  1.0
  O  O87  1  0.96400000  0.45746000  0.45189000  1.0
  O  O88  1  0.30673000  0.46423000  0.08723000  1.0
  O  O89  1  0.29229000  0.45048000  0.74484000  1.0
  O  O90  1  0.75738000  0.55079000  0.24039000  1.0
  O  O91  1  0.03896000  0.59401000  0.59037000  1.0
  O  O92  1  0.23456000  0.87385000  0.43848000  1.0
  O  O93  1  0.43022000  0.47077000  0.34009000  1.0
  O  O94  1  0.69703000  0.81078000  0.54444000  1.0
  O  O95  1  0.66509000  0.94760000  0.51609000  1.0
  O  O96  1  0.47535000  0.54937000  0.66666667  1.0
  O  O97  1  0.56766000  0.67045000  0.46734000  1.0
  O  O98  1  0.59745000  0.35406000  0.50929000  1.0
  O  O99  1  0.44384000  0.66458000  0.56012000  1.0
  O  O100  1  0.41281000  0.34876000  0.44395000  1.0
  O  O101  1  0.60972000  0.54712000  0.35438000  1.0
  O  O102  1  0.55076000  0.44266000  0.65304000  1.0
