# generated using pymatgen
data_Al2H10C22Br3O10F
_symmetry_space_group_name_H-M   'P 1'
_cell_length_a   6.67797000
_cell_length_b   16.42050000
_cell_length_c   17.07580000
_cell_angle_alpha   79.09610000
_cell_angle_beta   90.00140000
_cell_angle_gamma   90.00020000
_symmetry_Int_Tables_number   1
_chemical_formula_structural   Al2H10C22Br3O10F
_chemical_formula_sum   'Al4 H20 C44 Br6 O20 F2'
_cell_volume   1838.65155933
_cell_formula_units_Z   2
loop_
 _symmetry_equiv_pos_site_id
 _symmetry_equiv_pos_as_xyz
  1  'x, y, z'
loop_
 _atom_site_type_symbol
 _atom_site_label
 _atom_site_symmetry_multiplicity
 _atom_site_fract_x
 _atom_site_fract_y
 _atom_site_fract_z
 _atom_site_occupancy
  Al  Al0  1  0.08758000  0.49760000  0.50106000  1.0
  Al  Al1  1  0.58758000  0.50240000  0.49894000  1.0
  Al  Al2  1  0.63372000  0.99996000  0.99919000  1.0
  Al  Al3  1  0.13372000  0.00004000  0.00080000  1.0
  H  H4  1  0.57116000  0.74140000  0.34537000  1.0
  H  H5  1  0.07121000  0.25862000  0.65462000  1.0
  H  H6  1  0.59185000  0.85987000  0.23038000  1.0
  H  H7  1  0.09185000  0.14015000  0.76962000  1.0
  H  H8  1  0.35759000  0.78887000  0.19567000  1.0
  H  H9  1  0.85760000  0.21113000  0.80436000  1.0
  H  H10  1  0.33505000  0.65806000  0.30104000  1.0
  H  H11  1  0.83506000  0.34193000  0.69899000  1.0
  H  H12  1  0.21341000  0.60756000  0.23020000  1.0
  H  H13  1  0.71347000  0.39244000  0.76981000  1.0
  H  H14  1  0.55977000  0.57881000  0.70896000  1.0
  H  H15  1  0.05972000  0.42118000  0.29103000  1.0
  H  H16  1  0.21116000  0.82590000  0.69377000  1.0
  H  H17  1  0.71111000  0.17409000  0.30624000  1.0
  H  H18  1  0.17454000  0.91006000  0.79886000  1.0
  H  H19  1  0.67454000  0.08993000  0.20115000  1.0
  H  H20  1  0.33062000  0.59642000  0.52784000  1.0
  H  H21  1  0.83061000  0.40358000  0.47215000  1.0
  H  H22  1  0.38180000  0.88978000  0.01787000  1.0
  H  H23  1  0.88181000  0.11022000  0.98214000  1.0
  C  C24  1  0.33951000  0.41674000  0.39719000  1.0
  C  C25  1  0.83954000  0.58325000  0.60280000  1.0
  C  C26  1  0.34270000  0.38214000  0.60927000  1.0
  C  C27  1  0.84263000  0.61787000  0.39073000  1.0
  C  C28  1  0.02039000  0.70053000  0.27157000  1.0
  C  C29  1  0.52043000  0.29949000  0.72844000  1.0
  C  C30  1  0.85531000  0.68872000  0.32248000  1.0
  C  C31  1  0.35533000  0.31129000  0.67752000  1.0
  C  C32  1  0.70140000  0.74823000  0.30615000  1.0
  C  C33  1  0.20141000  0.25179000  0.69385000  1.0
  C  C34  1  0.71274000  0.81457000  0.24180000  1.0
  C  C35  1  0.21275000  0.18545000  0.75820000  1.0
  C  C36  1  0.87888000  0.82580000  0.19013000  1.0
  C  C37  1  0.37889000  0.17421000  0.80989000  1.0
  C  C38  1  0.03218000  0.76787000  0.20813000  1.0
  C  C39  1  0.53220000  0.23214000  0.79189000  1.0
  C  C40  1  0.24060000  0.74518000  0.18633000  1.0
  C  C41  1  0.74060000  0.25482000  0.81369000  1.0
  C  C42  1  0.22183000  0.66533000  0.25359000  1.0
  C  C43  1  0.72188000  0.33468000  0.74642000  1.0
  C  C44  1  0.83245000  0.63918000  0.66268000  1.0
  C  C45  1  0.33241000  0.36081000  0.33732000  1.0
  C  C46  1  0.89626000  0.85380000  0.84363000  1.0
  C  C47  1  0.39627000  0.14621000  0.15635000  1.0
  C  C48  1  0.08311000  0.81660000  0.73381000  1.0
  C  C49  1  0.58309000  0.18340000  0.26620000  1.0
  C  C50  1  0.06253000  0.86390000  0.79143000  1.0
  C  C51  1  0.56253000  0.13610000  0.20857000  1.0
  C  C52  1  0.75634000  0.79338000  0.83646000  1.0
  C  C53  1  0.25635000  0.20663000  0.16351000  1.0
  C  C54  1  0.77324000  0.73984000  0.78012000  1.0
  C  C55  1  0.27323000  0.26016000  0.21987000  1.0
  C  C56  1  0.94345000  0.75338000  0.72639000  1.0
  C  C57  1  0.44343000  0.24662000  0.27360000  1.0
  C  C58  1  0.96846000  0.70154000  0.66866000  1.0
  C  C59  1  0.46844000  0.29845000  0.33134000  1.0
  C  C60  1  0.66650000  0.62723000  0.71522000  1.0
  C  C61  1  0.16645000  0.37275000  0.28478000  1.0
  C  C62  1  0.63754000  0.67445000  0.77270000  1.0
  C  C63  1  0.13750000  0.32555000  0.22729000  1.0
  C  C64  1  0.38302000  0.10636000  0.88110000  1.0
  C  C65  1  0.88302000  0.89365000  0.11889000  1.0
  C  C66  1  0.38445000  0.09308000  0.09427000  1.0
  C  C67  1  0.88442000  0.90693000  0.90571000  1.0
  Br  Br68  1  0.40885000  0.64466000  0.83873000  1.0
  Br  Br69  1  0.90880000  0.35532000  0.16126000  1.0
  Br  Br70  1  0.29008000  0.72772000  0.07693000  1.0
  Br  Br71  1  0.79010000  0.27227000  0.92309000  1.0
  Br  Br72  1  0.18853000  0.72456000  0.59625000  1.0
  Br  Br73  1  0.68849000  0.27543000  0.40375000  1.0
  O  O74  1  0.50996000  0.41270000  0.58259000  1.0
  O  O75  1  0.00991000  0.58732000  0.41745000  1.0
  O  O76  1  0.16940000  0.43579000  0.42215000  1.0
  O  O77  1  0.66946000  0.56424000  0.57781000  1.0
  O  O78  1  0.16927000  0.40566000  0.58289000  1.0
  O  O79  1  0.66922000  0.59432000  0.41707000  1.0
  O  O80  1  0.00768000  0.55821000  0.58225000  1.0
  O  O81  1  0.50764000  0.44174000  0.41778000  1.0
  O  O82  1  0.33552000  0.54951000  0.50067000  1.0
  O  O83  1  0.83552000  0.45049000  0.49932000  1.0
  O  O84  1  0.21339000  0.07291000  0.07171000  1.0
  O  O85  1  0.71338000  0.92709000  0.92828000  1.0
  O  O86  1  0.55428000  0.08208000  0.90862000  1.0
  O  O87  1  0.05431000  0.91792000  0.09138000  1.0
  O  O88  1  0.55325000  0.07202000  0.07004000  1.0
  O  O89  1  0.05324000  0.92798000  0.92996000  1.0
  O  O90  1  0.71370000  0.92003000  0.09080000  1.0
  O  O91  1  0.21371000  0.07998000  0.90919000  1.0
  O  O92  1  0.38372000  0.95015000  0.00690000  1.0
  O  O93  1  0.88373000  0.04985000  0.99309000  1.0
  F  F94  1  0.59910000  0.78291000  0.88715000  1.0
  F  F95  1  0.09916000  0.21712000  0.11281000  1.0
