# generated using pymatgen
data_CuH20C16(NO2)2
_symmetry_space_group_name_H-M   'P 1'
_cell_length_a   8.60009000
_cell_length_b   8.78090000
_cell_length_c   11.96950000
_cell_angle_alpha   96.60010000
_cell_angle_beta   104.49200000
_cell_angle_gamma   106.63200000
_symmetry_Int_Tables_number   1
_chemical_formula_structural   CuH20C16(NO2)2
_chemical_formula_sum   'Cu2 H40 C32 N4 O8'
_cell_volume   821.39025213
_cell_formula_units_Z   2
loop_
 _symmetry_equiv_pos_site_id
 _symmetry_equiv_pos_as_xyz
  1  'x, y, z'
loop_
 _atom_site_type_symbol
 _atom_site_label
 _atom_site_symmetry_multiplicity
 _atom_site_fract_x
 _atom_site_fract_y
 _atom_site_fract_z
 _atom_site_occupancy
  Cu  Cu0  1  0.46880000  0.02339000  0.39236000  1.0
  Cu  Cu1  1  0.53121000  0.97661000  0.60766000  1.0
  H  H2  1  0.48266000  0.50181000  0.62236000  1.0
  H  H3  1  0.51734000  0.49820000  0.37762000  1.0
  H  H4  1  0.22659000  0.54668000  0.52782000  1.0
  H  H5  1  0.77340000  0.45332000  0.47218000  1.0
  H  H6  1  0.27392000  0.42883000  0.41924000  1.0
  H  H7  1  0.72607000  0.57120000  0.58075000  1.0
  H  H8  1  0.96311000  0.32732000  0.40256000  1.0
  H  H9  1  0.03689000  0.67270000  0.59744000  1.0
  H  H10  1  0.05981000  0.17877000  0.43246000  1.0
  H  H11  1  0.94018000  0.82123000  0.56752000  1.0
  H  H12  1  0.99270000  0.40439000  0.61605000  1.0
  H  H13  1  0.00729000  0.59562000  0.38394000  1.0
  H  H14  1  0.13922000  0.12720000  0.64216000  1.0
  H  H15  1  0.86078000  0.87281000  0.35784000  1.0
  H  H16  1  0.08596000  0.23193000  0.75386000  1.0
  H  H17  1  0.91405000  0.76808000  0.24614000  1.0
  H  H18  1  0.29149000  0.49508000  0.74026000  1.0
  H  H19  1  0.70852000  0.50494000  0.25973000  1.0
  H  H20  1  0.39609000  0.35296000  0.77580000  1.0
  H  H21  1  0.60391000  0.64704000  0.22418000  1.0
  H  H22  1  0.69252000  0.00220000  0.24286000  1.0
  H  H23  1  0.30747000  0.99779000  0.75715000  1.0
  H  H24  1  0.79997000  0.13991000  0.09132000  1.0
  H  H25  1  0.20000000  0.86008000  0.90868000  1.0
  H  H26  1  0.36836000  0.30899000  0.02656000  1.0
  H  H27  1  0.63164000  0.69102000  0.97346000  1.0
  H  H28  1  0.28066000  0.16775000  0.18166000  1.0
  H  H29  1  0.71934000  0.83225000  0.81836000  1.0
  H  H30  1  0.60040000  0.24097000  0.87002000  1.0
  H  H31  1  0.39960000  0.75902000  0.12999000  1.0
  H  H32  1  0.59970000  0.42487000  0.94754000  1.0
  H  H33  1  0.40031000  0.57513000  0.05246000  1.0
  H  H34  1  0.88159000  0.46631000  0.16267000  1.0
  H  H35  1  0.11841000  0.53367000  0.83734000  1.0
  H  H36  1  0.87457000  0.61716000  0.07535000  1.0
  H  H37  1  0.12545000  0.38282000  0.92466000  1.0
  H  H38  1  0.84447000  0.53680000  0.85867000  1.0
  H  H39  1  0.15554000  0.46318000  0.14134000  1.0
  H  H40  1  0.83173000  0.33273000  0.80676000  1.0
  H  H41  1  0.16828000  0.66725000  0.19325000  1.0
  C  C42  1  0.41985000  0.25109000  0.55925000  1.0
  C  C43  1  0.58016000  0.74891000  0.44075000  1.0
  C  C44  1  0.36569000  0.39566000  0.59797000  1.0
  C  C45  1  0.63431000  0.60435000  0.40202000  1.0
  C  C46  1  0.23247000  0.42549000  0.49877000  1.0
  C  C47  1  0.76753000  0.57452000  0.50123000  1.0
  C  C48  1  0.05648000  0.29807000  0.47010000  1.0
  C  C49  1  0.94351000  0.70193000  0.52989000  1.0
  C  C50  1  0.99867000  0.28448000  0.58081000  1.0
  C  C51  1  0.00133000  0.71553000  0.41918000  1.0
  C  C52  1  0.12918000  0.24531000  0.67567000  1.0
  C  C53  1  0.87083000  0.75470000  0.32433000  1.0
  C  C54  1  0.30221000  0.37775000  0.70621000  1.0
  C  C55  1  0.69780000  0.62226000  0.29378000  1.0
  C  C56  1  0.81649000  0.17095000  0.55539000  1.0
  C  C57  1  0.18351000  0.82905000  0.44461000  1.0
  C  C58  1  0.62432000  0.07158000  0.19251000  1.0
  C  C59  1  0.37567000  0.92843000  0.80751000  1.0
  C  C60  1  0.68363000  0.14768000  0.10861000  1.0
  C  C61  1  0.31635000  0.85230000  0.89140000  1.0
  C  C62  1  0.59335000  0.23704000  0.04707000  1.0
  C  C63  1  0.40665000  0.76296000  0.95293000  1.0
  C  C64  1  0.44427000  0.24174000  0.07228000  1.0
  C  C65  1  0.55573000  0.75827000  0.92773000  1.0
  C  C66  1  0.39416000  0.16264000  0.15813000  1.0
  C  C67  1  0.60583000  0.83737000  0.84187000  1.0
  C  C68  1  0.65354000  0.32412000  0.95666000  1.0
  C  C69  1  0.34646000  0.67587000  0.04335000  1.0
  C  C70  1  0.91855000  0.51095000  0.08794000  1.0
  C  C71  1  0.08146000  0.48903000  0.91206000  1.0
  C  C72  1  0.88915000  0.43432000  0.88304000  1.0
  C  C73  1  0.11086000  0.56566000  0.11697000  1.0
  N  N74  1  0.48303000  0.07948000  0.21867000  1.0
  N  N75  1  0.51696000  0.92051000  0.78134000  1.0
  N  N76  1  0.83746000  0.38134000  0.98328000  1.0
  N  N77  1  0.16253000  0.61864000  0.01672000  1.0
  O  O78  1  0.47371000  0.17917000  0.63977000  1.0
  O  O79  1  0.52632000  0.82086000  0.36023000  1.0
  O  O80  1  0.41001000  0.21572000  0.45098000  1.0
  O  O81  1  0.58997000  0.78426000  0.54901000  1.0
  O  O82  1  0.77506000  0.11105000  0.63989000  1.0
  O  O83  1  0.22496000  0.88894000  0.36010000  1.0
  O  O84  1  0.71834000  0.15076000  0.45190000  1.0
  O  O85  1  0.28165000  0.84926000  0.54810000  1.0
