# generated using pymatgen
data_Zn4H34C46O13
_symmetry_space_group_name_H-M   'P 1'
_cell_length_a   15.11980000
_cell_length_b   15.17660000
_cell_length_c   19.63520000
_cell_angle_alpha   88.97520000
_cell_angle_beta   88.38470000
_cell_angle_gamma   88.90120000
_symmetry_Int_Tables_number   1
_chemical_formula_structural   Zn4H34C46O13
_chemical_formula_sum   'Zn4 H34 C46 O13'
_cell_volume   4502.33671401
_cell_formula_units_Z   1
loop_
 _symmetry_equiv_pos_site_id
 _symmetry_equiv_pos_as_xyz
  1  'x, y, z'
loop_
 _atom_site_type_symbol
 _atom_site_label
 _atom_site_symmetry_multiplicity
 _atom_site_fract_x
 _atom_site_fract_y
 _atom_site_fract_z
 _atom_site_occupancy
  Zn  Zn0  1  0.57223000  0.56737000  0.43358000  1.0
  Zn  Zn1  1  0.43368000  0.58283000  0.55821000  1.0
  Zn  Zn2  1  0.57123000  0.42377000  0.55850000  1.0
  Zn  Zn3  1  0.41917000  0.42701000  0.44754000  1.0
  H  H4  1  0.59130000  0.57998000  0.22440000  1.0
  H  H5  1  0.56440000  0.00062000  0.36740000  1.0
  H  H6  1  0.52670000  0.14753000  0.41713000  1.0
  H  H7  1  0.45880000  0.64715000  0.76378000  1.0
  H  H8  1  0.52101000  0.59456000  0.99856000  1.0
  H  H9  1  0.57353000  0.39140000  0.89893000  1.0
  H  H10  1  0.39556000  0.37860000  0.23806000  1.0
  H  H11  1  0.48443000  0.39599000  0.00118000  1.0
  H  H12  1  0.59781000  0.56796000  0.09809000  1.0
  H  H13  1  0.46444000  0.65579000  0.89031000  1.0
  H  H14  1  0.74296000  0.68747000  0.68791000  1.0
  H  H15  1  0.14462000  0.42416000  0.44306000  1.0
  H  H16  1  0.75206000  0.76653000  0.62033000  1.0
  H  H17  1  0.64863000  0.71698000  0.63990000  1.0
  H  H18  1  0.71883000  0.64969000  0.53606000  1.0
  H  H19  1  0.70907000  0.57089000  0.60350000  1.0
  H  H20  1  0.86584000  0.59550000  0.63341000  1.0
  H  H21  1  0.87508000  0.67646000  0.56920000  1.0
  H  H22  1  0.45837000  0.85403000  0.58323000  1.0
  H  H23  1  0.41415000  0.24065000  0.77610000  1.0
  H  H24  1  0.30557000  0.24334000  0.74419000  1.0
  H  H25  1  0.33451000  0.16475000  0.80822000  1.0
  H  H26  1  0.16484000  0.62287000  0.59463000  1.0
  H  H27  1  0.33188000  0.09244000  0.69430000  1.0
  H  H28  1  0.43978000  0.08912000  0.72647000  1.0
  H  H29  1  0.47840000  0.22318000  0.65553000  1.0
  H  H30  1  0.37123000  0.22793000  0.62432000  1.0
  H  H31  1  0.40218000  0.36493000  0.11159000  1.0
  H  H32  1  0.99957000  0.37676000  0.40722000  1.0
  H  H33  1  0.00290000  0.63664000  0.60448000  1.0
  H  H34  1  0.83552000  0.38922000  0.41610000  1.0
  H  H35  1  0.56966000  0.83687000  0.37979000  1.0
  H  H36  1  0.43016000  0.99976000  0.63444000  1.0
  H  H37  1  0.57252000  0.38572000  0.77218000  1.0
  C  C38  1  0.26300000  0.51555000  0.51216000  1.0
  C  C39  1  0.50022000  0.46027000  0.02163000  1.0
  C  C40  1  0.51464000  0.52856000  0.97783000  1.0
  C  C41  1  0.73505000  0.48920000  0.49163000  1.0
  C  C42  1  0.51420000  0.51547000  0.76048000  1.0
  C  C43  1  0.16470000  0.52260000  0.51774000  1.0
  C  C44  1  0.83433000  0.49089000  0.49230000  1.0
  C  C45  1  0.96704000  0.42321000  0.44202000  1.0
  C  C46  1  0.87660000  0.43021000  0.44699000  1.0
  C  C47  1  0.88223000  0.54555000  0.53303000  1.0
  C  C48  1  0.97722000  0.53807000  0.52851000  1.0
  C  C49  1  0.49877000  0.46704000  0.09571000  1.0
  C  C50  1  0.01957000  0.47683000  0.48260000  1.0
  C  C51  1  0.11294000  0.47062000  0.47823000  1.0
  C  C52  1  0.12335000  0.58268000  0.56358000  1.0
  C  C53  1  0.51262000  0.73843000  0.48831000  1.0
  C  C54  1  0.03253000  0.59002000  0.56866000  1.0
  C  C55  1  0.51333000  0.83645000  0.48247000  1.0
  C  C56  1  0.48026000  0.16432000  0.52029000  1.0
  C  C57  1  0.45245000  0.03305000  0.58751000  1.0
  C  C58  1  0.45256000  0.12400000  0.58368000  1.0
  C  C59  1  0.50675000  0.11464000  0.46488000  1.0
  C  C60  1  0.44342000  0.41248000  0.13629000  1.0
  C  C61  1  0.51036000  0.02150000  0.46942000  1.0
  C  C62  1  0.48140000  0.97992000  0.53203000  1.0
  C  C63  1  0.48219000  0.88685000  0.53654000  1.0
  C  C64  1  0.54464000  0.87795000  0.42125000  1.0
  C  C65  1  0.48495000  0.26260000  0.51314000  1.0
  C  C66  1  0.54183000  0.96840000  0.41474000  1.0
  C  C67  1  0.51113000  0.51087000  0.68488000  1.0
  C  C68  1  0.49077000  0.48788000  0.31432000  1.0
  C  C69  1  0.49235000  0.48085000  0.23873000  1.0
  C  C70  1  0.54908000  0.53429000  0.19889000  1.0
  C  C71  1  0.43934000  0.41989000  0.20679000  1.0
  C  C72  1  0.55199000  0.52770000  0.12847000  1.0
  C  C73  1  0.84316000  0.61319000  0.58184000  1.0
  C  C74  1  0.74338000  0.63091000  0.58655000  1.0
  C  C75  1  0.72045000  0.70458000  0.63646000  1.0
  C  C76  1  0.42282000  0.18130000  0.64245000  1.0
  C  C77  1  0.38799000  0.13403000  0.70672000  1.0
  C  C78  1  0.35897000  0.19911000  0.76190000  1.0
  C  C79  1  0.54724000  0.44712000  0.86950000  1.0
  C  C80  1  0.54708000  0.44370000  0.79883000  1.0
  C  C81  1  0.48406000  0.59173000  0.79397000  1.0
  C  C82  1  0.48710000  0.59607000  0.86444000  1.0
  C  C83  1  0.51662000  0.52321000  0.90369000  1.0
  O  O84  1  0.49920000  0.49959000  0.49920000  1.0
  O  O85  1  0.46270000  0.56853000  0.65482000  1.0
  O  O86  1  0.43647000  0.43945000  0.34831000  1.0
  O  O87  1  0.55679000  0.44953000  0.65606000  1.0
  O  O88  1  0.54446000  0.54196000  0.33926000  1.0
  O  O89  1  0.55835000  0.69541000  0.44380000  1.0
  O  O90  1  0.43776000  0.29995000  0.46790000  1.0
  O  O91  1  0.30633000  0.56739000  0.54895000  1.0
  O  O92  1  0.69756000  0.43719000  0.53464000  1.0
  O  O93  1  0.29609000  0.45844000  0.47119000  1.0
  O  O94  1  0.69806000  0.53604000  0.44576000  1.0
  O  O95  1  0.46605000  0.70504000  0.53719000  1.0
  O  O96  1  0.53771000  0.29986000  0.55266000  1.0
