# generated using pymatgen
data_Zn2H42C38N9O11
_symmetry_space_group_name_H-M   'P 1'
_cell_length_a   10.41220000
_cell_length_b   12.51220000
_cell_length_c   19.65860000
_cell_angle_alpha   74.99870000
_cell_angle_beta   82.15120000
_cell_angle_gamma   81.42960000
_symmetry_Int_Tables_number   1
_chemical_formula_structural   Zn2H42C38N9O11
_chemical_formula_sum   'Zn4 H84 C76 N18 O22'
_cell_volume   2433.29980730
_cell_formula_units_Z   2
loop_
 _symmetry_equiv_pos_site_id
 _symmetry_equiv_pos_as_xyz
  1  'x, y, z'
loop_
 _atom_site_type_symbol
 _atom_site_label
 _atom_site_symmetry_multiplicity
 _atom_site_fract_x
 _atom_site_fract_y
 _atom_site_fract_z
 _atom_site_occupancy
  Zn  Zn0  1  0.31511000  0.87518000  0.15048000  1.0
  Zn  Zn1  1  0.68485000  0.12481000  0.84951000  1.0
  Zn  Zn2  1  0.37162000  0.88013000  0.66600000  1.0
  Zn  Zn3  1  0.62839000  0.11980000  0.33403000  1.0
  H  H4  1  0.58349000  0.98959000  0.09909000  1.0
  H  H5  1  0.41651000  0.01039000  0.90088000  1.0
  H  H6  1  0.14952000  0.58003000  0.37777000  1.0
  H  H7  1  0.85061000  0.42000000  0.62235000  1.0
  H  H8  1  0.41429000  0.08107000  0.02071000  1.0
  H  H9  1  0.58567000  0.91892000  0.97928000  1.0
  H  H10  1  0.90411000  0.86853000  0.18042000  1.0
  H  H11  1  0.09587000  0.13145000  0.81956000  1.0
  H  H12  1  0.81981000  0.00470000  0.15989000  1.0
  H  H13  1  0.18018000  0.99528000  0.84009000  1.0
  H  H14  1  0.15205000  0.63773000  0.07341000  1.0
  H  H15  1  0.84790000  0.36223000  0.92658000  1.0
  H  H16  1  0.35027000  0.83200000  0.88640000  1.0
  H  H17  1  0.64968000  0.16796000  0.11360000  1.0
  H  H18  1  0.78433000  0.97457000  0.04052000  1.0
  H  H19  1  0.21563000  0.02541000  0.95948000  1.0
  H  H20  1  0.88417000  0.84550000  0.06056000  1.0
  H  H21  1  0.11579000  0.15448000  0.93943000  1.0
  H  H22  1  0.10460000  0.59803000  0.86587000  1.0
  H  H23  1  0.89531000  0.40195000  0.13414000  1.0
  H  H24  1  0.53969000  0.42878000  0.94584000  1.0
  H  H25  1  0.46025000  0.57123000  0.05415000  1.0
  H  H26  1  0.39748000  0.52452000  0.94710000  1.0
  H  H27  1  0.60245000  0.47547000  0.05289000  1.0
  H  H28  1  0.97205000  0.07230000  0.05383000  1.0
  H  H29  1  0.02790000  0.92769000  0.94613000  1.0
  H  H30  1  0.07268000  0.94393000  0.06544000  1.0
  H  H31  1  0.92728000  0.05607000  0.93453000  1.0
  H  H32  1  0.24881000  0.36051000  0.96865000  1.0
  H  H33  1  0.75113000  0.63947000  0.03135000  1.0
  H  H34  1  0.39932000  0.27581000  0.95850000  1.0
  H  H35  1  0.60062000  0.72418000  0.04150000  1.0
  H  H36  1  0.46455000  0.31923000  0.06760000  1.0
  H  H37  1  0.53542000  0.68077000  0.93239000  1.0
  H  H38  1  0.32107000  0.41445000  0.06919000  1.0
  H  H39  1  0.67890000  0.58553000  0.93081000  1.0
  H  H40  1  0.76457000  0.69098000  0.46800000  1.0
  H  H41  1  0.23555000  0.30906000  0.53212000  1.0
  H  H42  1  0.11864000  0.29391000  0.10618000  1.0
  H  H43  1  0.88132000  0.70608000  0.89382000  1.0
  H  H44  1  0.48880000  0.85472000  0.51055000  1.0
  H  H45  1  0.51130000  0.14519000  0.48948000  1.0
  H  H46  1  0.49701000  0.70312000  0.25862000  1.0
  H  H47  1  0.50296000  0.29687000  0.74135000  1.0
  H  H48  1  0.75956000  0.73482000  0.25740000  1.0
  H  H49  1  0.24040000  0.26519000  0.74260000  1.0
  H  H50  1  0.13413000  0.77124000  0.63150000  1.0
  H  H51  1  0.86578000  0.22891000  0.36841000  1.0
  H  H52  1  0.48395000  0.79058000  0.40685000  1.0
  H  H53  1  0.51608000  0.20955000  0.59310000  1.0
  H  H54  1  0.32910000  0.78747000  0.37877000  1.0
  H  H55  1  0.67094000  0.21262000  0.62119000  1.0
  H  H56  1  0.58387000  0.59374000  0.49389000  1.0
  H  H57  1  0.41623000  0.40638000  0.50605000  1.0
  H  H58  1  0.43006000  0.58026000  0.54391000  1.0
  H  H59  1  0.57005000  0.41985000  0.45603000  1.0
  H  H60  1  0.15010000  0.71150000  0.50219000  1.0
  H  H61  1  0.84983000  0.28877000  0.49767000  1.0
  H  H62  1  0.32861000  0.59050000  0.43288000  1.0
  H  H63  1  0.67150000  0.40959000  0.56706000  1.0
  H  H64  1  0.48007000  0.60963000  0.38252000  1.0
  H  H65  1  0.52004000  0.39051000  0.61741000  1.0
  H  H66  1  0.87834000  0.84669000  0.55521000  1.0
  H  H67  1  0.12169000  0.15330000  0.44481000  1.0
  H  H68  1  0.82859000  0.98708000  0.51024000  1.0
  H  H69  1  0.17143000  0.01289000  0.48977000  1.0
  H  H70  1  0.71283000  0.88831000  0.53477000  1.0
  H  H71  1  0.28720000  0.11165000  0.46524000  1.0
  H  H72  1  0.90604000  0.05383000  0.59745000  1.0
  H  H73  1  0.09393000  0.94619000  0.40256000  1.0
  H  H74  1  0.95067000  0.92082000  0.65388000  1.0
  H  H75  1  0.04932000  0.07921000  0.34613000  1.0
  H  H76  1  0.83798000  0.02199000  0.68719000  1.0
  H  H77  1  0.16199000  0.97803000  0.31281000  1.0
  H  H78  1  0.53343000  0.03902000  0.71305000  1.0
  H  H79  1  0.46657000  0.96095000  0.28694000  1.0
  H  H80  1  0.68604000  0.98434000  0.74696000  1.0
  H  H81  1  0.31394000  0.01564000  0.25304000  1.0
  H  H82  1  0.55854000  0.89794000  0.76039000  1.0
  H  H83  1  0.44145000  0.10205000  0.23963000  1.0
  H  H84  1  0.95627000  0.90345000  0.28696000  1.0
  H  H85  1  0.04373000  0.09649000  0.71305000  1.0
  H  H86  1  0.10156000  0.07398000  0.18282000  1.0
  H  H87  1  0.89839000  0.92600000  0.81717000  1.0
  C  C88  1  0.18202000  0.76350000  0.27363000  1.0
  C  C89  1  0.81801000  0.23646000  0.72640000  1.0
  C  C90  1  0.59319000  0.91544000  0.14243000  1.0
  C  C91  1  0.40680000  0.08455000  0.85755000  1.0
  C  C92  1  0.30867000  0.80368000  0.02889000  1.0
  C  C93  1  0.69129000  0.19629000  0.97111000  1.0
  C  C94  1  0.25445000  0.74285000  0.98449000  1.0
  C  C95  1  0.74549000  0.25712000  0.01551000  1.0
  C  C96  1  0.06529000  0.64270000  0.37856000  1.0
  C  C97  1  0.93483000  0.35732000  0.62155000  1.0
  C  C98  1  0.33041000  0.10596000  0.05467000  1.0
  C  C99  1  0.66955000  0.89402000  0.94533000  1.0
  C  C100  1  0.82996000  0.92219000  0.14841000  1.0
  C  C101  1  0.17003000  0.07779000  0.85158000  1.0
  C  C102  1  0.17318000  0.66064000  0.01615000  1.0
  C  C103  1  0.82676000  0.33935000  0.98385000  1.0
  C  C104  1  0.28454000  0.76962000  0.91102000  1.0
  C  C105  1  0.71541000  0.23033000  0.08898000  1.0
  C  C106  1  0.86716000  0.93007000  0.06960000  1.0
  C  C107  1  0.13281000  0.06990000  0.93039000  1.0
  C  C108  1  0.14672000  0.63617000  0.89987000  1.0
  C  C109  1  0.85320000  0.36380000  0.10013000  1.0
  C  C110  1  0.25232000  0.75613000  0.78918000  1.0
  C  C111  1  0.74766000  0.24380000  0.21082000  1.0
  C  C112  1  0.95763000  0.62636000  0.42905000  1.0
  C  C113  1  0.04252000  0.37367000  0.57106000  1.0
  C  C114  1  0.12045000  0.60688000  0.97389000  1.0
  C  C115  1  0.87947000  0.39310000  0.02611000  1.0
  C  C116  1  0.46638000  0.46693000  0.98138000  1.0
  C  C117  1  0.53355000  0.53306000  0.01861000  1.0
  C  C118  1  0.98660000  0.99096000  0.04013000  1.0
  C  C119  1  0.01336000  0.00902000  0.95984000  1.0
  C  C120  1  0.32916000  0.30904000  0.99720000  1.0
  C  C121  1  0.67080000  0.69095000  0.00280000  1.0
  C  C122  1  0.39496000  0.37675000  0.03386000  1.0
  C  C123  1  0.60499000  0.62324000  0.96613000  1.0
  C  C124  1  0.06457000  0.74345000  0.32709000  1.0
  C  C125  1  0.93553000  0.25654000  0.67297000  1.0
  C  C126  1  0.22951000  0.71808000  0.86884000  1.0
  C  C127  1  0.77044000  0.28187000  0.13116000  1.0
  C  C128  1  0.84813000  0.80623000  0.37680000  1.0
  C  C129  1  0.15197000  0.19374000  0.62326000  1.0
  C  C130  1  0.84854000  0.70605000  0.42870000  1.0
  C  C131  1  0.15159000  0.29397000  0.57139000  1.0
  C  C132  1  0.17529000  0.21616000  0.10047000  1.0
  C  C133  1  0.82468000  0.78382000  0.89953000  1.0
  C  C134  1  0.39379000  0.82550000  0.52699000  1.0
  C  C135  1  0.60627000  0.17449000  0.47300000  1.0
  C  C136  1  0.55514000  0.76623000  0.22593000  1.0
  C  C137  1  0.44483000  0.23376000  0.77405000  1.0
  C  C138  1  0.64524000  0.93129000  0.65441000  1.0
  C  C139  1  0.35478000  0.06865000  0.34560000  1.0
  C  C140  1  0.68353000  0.78111000  0.22525000  1.0
  C  C141  1  0.31644000  0.21888000  0.77474000  1.0
  C  C142  1  0.20696000  0.78275000  0.58603000  1.0
  C  C143  1  0.79300000  0.21737000  0.41389000  1.0
  C  C144  1  0.39338000  0.75119000  0.42090000  1.0
  C  C145  1  0.60667000  0.24891000  0.57906000  1.0
  C  C146  1  0.48910000  0.56302000  0.49612000  1.0
  C  C147  1  0.51102000  0.43708000  0.50383000  1.0
  C  C148  1  0.21365000  0.75415000  0.52262000  1.0
  C  C149  1  0.78633000  0.24602000  0.47729000  1.0
  C  C150  1  0.42069000  0.62472000  0.43066000  1.0
  C  C151  1  0.57942000  0.37539000  0.56929000  1.0
  C  C152  1  0.79705000  0.91449000  0.55079000  1.0
  C  C153  1  0.20298000  0.08548000  0.44922000  1.0
  C  C154  1  0.86941000  0.98743000  0.64119000  1.0
  C  C155  1  0.13058000  0.01259000  0.35882000  1.0
  C  C156  1  0.60667000  0.96520000  0.72288000  1.0
  C  C157  1  0.39332000  0.03477000  0.27712000  1.0
  C  C158  1  0.95645000  0.82459000  0.32660000  1.0
  C  C159  1  0.04360000  0.17537000  0.67345000  1.0
  C  C160  1  0.16902000  0.10780000  0.13803000  1.0
  C  C161  1  0.83093000  0.89218000  0.86196000  1.0
  C  C162  1  0.73258000  0.89460000  0.37629000  1.0
  C  C163  1  0.26746000  0.10535000  0.62377000  1.0
  N  N164  1  0.26679000  0.03980000  0.10902000  1.0
  N  N165  1  0.73316000  0.96019000  0.89098000  1.0
  N  N166  1  0.31993000  0.82734000  0.58792000  1.0
  N  N167  1  0.68009000  0.17266000  0.41206000  1.0
  N  N168  1  0.50003000  0.85085000  0.17394000  1.0
  N  N169  1  0.49995000  0.14914000  0.82604000  1.0
  N  N170  1  0.27750000  0.21326000  0.04772000  1.0
  N  N171  1  0.72248000  0.78673000  0.95228000  1.0
  N  N172  1  0.70584000  0.87532000  0.17230000  1.0
  N  N173  1  0.29414000  0.12468000  0.82769000  1.0
  N  N174  1  0.94914000  0.52189000  0.48133000  1.0
  N  N175  1  0.05102000  0.47814000  0.51878000  1.0
  N  N176  1  0.04587000  0.51723000  0.01454000  1.0
  N  N177  1  0.95403000  0.48276000  0.98547000  1.0
  N  N178  1  0.33232000  0.78158000  0.48613000  1.0
  N  N179  1  0.66772000  0.21851000  0.51382000  1.0
  N  N180  1  0.76366000  0.94491000  0.61845000  1.0
  N  N181  1  0.23634000  0.05508000  0.38155000  1.0
  O  O182  1  0.26976000  0.77733000  0.09558000  1.0
  O  O183  1  0.73019000  0.22266000  0.90442000  1.0
  O  O184  1  0.17447000  0.86192000  0.23017000  1.0
  O  O185  1  0.82556000  0.13805000  0.76986000  1.0
  O  O186  1  0.38446000  0.87569000  0.99994000  1.0
  O  O187  1  0.61551000  0.12427000  0.00006000  1.0
  O  O188  1  0.27657000  0.68959000  0.27404000  1.0
  O  O189  1  0.72344000  0.31034000  0.72596000  1.0
  O  O190  1  0.36245000  0.79687000  0.76583000  1.0
  O  O191  1  0.63759000  0.20296000  0.23417000  1.0
  O  O192  1  0.56272000  0.89031000  0.62955000  1.0
  O  O193  1  0.43732000  0.10956000  0.37048000  1.0
  O  O194  1  0.16618000  0.75022000  0.75251000  1.0
  O  O195  1  0.83379000  0.24978000  0.24748000  1.0
  O  O196  1  0.06686000  0.47445000  0.07891000  1.0
  O  O197  1  0.93304000  0.52556000  0.92109000  1.0
  O  O198  1  0.84445000  0.47604000  0.49171000  1.0
  O  O199  1  0.15571000  0.52397000  0.50838000  1.0
  O  O200  1  0.64206000  0.88105000  0.42543000  1.0
  O  O201  1  0.35802000  0.11889000  0.57463000  1.0
  O  O202  1  0.73851000  0.98063000  0.32318000  1.0
  O  O203  1  0.26151000  0.01929000  0.67686000  1.0
