# generated using pymatgen
data_AlH24C27(NO2)3
_symmetry_space_group_name_H-M   'P 1'
_cell_length_a   3.96003000
_cell_length_b   27.93430000
_cell_length_c   27.93440000
_cell_angle_alpha   60.00035526
_cell_angle_beta   89.99800000
_cell_angle_gamma   89.99860000
_symmetry_Int_Tables_number   1
_chemical_formula_structural   AlH24C27(NO2)3
_chemical_formula_sum   'Al2 H48 C54 N6 O12'
_cell_volume   2676.13367319
_cell_formula_units_Z   2
loop_
 _symmetry_equiv_pos_site_id
 _symmetry_equiv_pos_as_xyz
  1  'x, y, z'
loop_
 _atom_site_type_symbol
 _atom_site_label
 _atom_site_symmetry_multiplicity
 _atom_site_fract_x
 _atom_site_fract_y
 _atom_site_fract_z
 _atom_site_occupancy
  Al  Al0  1  0.99779000  0.00000000  0.50000000  1.0
  Al  Al1  1  0.02696000  0.66667000  0.16666000  1.0
  H  H2  1  0.44607000  0.51014000  0.31211000  1.0
  H  H3  1  0.44854000  0.40630000  0.35938000  1.0
  H  H4  1  0.44758000  0.25250000  0.46298000  1.0
  H  H5  1  0.54755000  0.26113000  0.30613000  1.0
  H  H6  1  0.44597000  0.81211000  0.17775000  1.0
  H  H7  1  0.44852000  0.85939000  0.23432000  1.0
  H  H8  1  0.44758000  0.96298000  0.28452000  1.0
  H  H9  1  0.54752000  0.80614000  0.43274000  1.0
  H  H10  1  0.44600000  0.67775000  0.01014000  1.0
  H  H11  1  0.44850000  0.73432000  0.90630000  1.0
  H  H12  1  0.44749000  0.78452000  0.75250000  1.0
  H  H13  1  0.54746000  0.93275000  0.76112000  1.0
  H  H14  1  0.76830000  0.52612000  0.11997000  1.0
  H  H15  1  0.45940000  0.57186000  0.12013000  1.0
  H  H16  1  0.33607000  0.51167000  0.11811000  1.0
  H  H17  1  0.28047000  0.41823000  0.16514000  1.0
  H  H18  1  0.52544000  0.36369000  0.21724000  1.0
  H  H19  1  0.72427000  0.42300000  0.16193000  1.0
  H  H20  1  0.70486000  0.12767000  0.54744000  1.0
  H  H21  1  0.30381000  0.10255000  0.54316000  1.0
  H  H22  1  0.33704000  0.16531000  0.54488000  1.0
  H  H23  1  0.29962000  0.13939000  0.33449000  1.0
  H  H24  1  0.70434000  0.11376000  0.36167000  1.0
  H  H25  1  0.66182000  0.18013000  0.30138000  1.0
  H  H26  1  0.76834000  0.61997000  0.35391000  1.0
  H  H27  1  0.45941000  0.62013000  0.30802000  1.0
  H  H28  1  0.33613000  0.61811000  0.37023000  1.0
  H  H29  1  0.28072000  0.66515000  0.41664000  1.0
  H  H30  1  0.52566000  0.71724000  0.41908000  1.0
  H  H31  1  0.72449000  0.66194000  0.41506000  1.0
  H  H32  1  0.70488000  0.04745000  0.32489000  1.0
  H  H33  1  0.30382000  0.04317000  0.35429000  1.0
  H  H34  1  0.33705000  0.04489000  0.28981000  1.0
  H  H35  1  0.29964000  0.83449000  0.52613000  1.0
  H  H36  1  0.70435000  0.86168000  0.52456000  1.0
  H  H37  1  0.66185000  0.80139000  0.51848000  1.0
  H  H38  1  0.76835000  0.85391000  0.02612000  1.0
  H  H39  1  0.45944000  0.80802000  0.07185000  1.0
  H  H40  1  0.33613000  0.87022000  0.01166000  1.0
  H  H41  1  0.28062000  0.91665000  0.91821000  1.0
  H  H42  1  0.52559000  0.91907000  0.86368000  1.0
  H  H43  1  0.72441000  0.91507000  0.92300000  1.0
  H  H44  1  0.70484000  0.82489000  0.62767000  1.0
  H  H45  1  0.30379000  0.85428000  0.60255000  1.0
  H  H46  1  0.33702000  0.78981000  0.66531000  1.0
  H  H47  1  0.29960000  0.02613000  0.63938000  1.0
  H  H48  1  0.70430000  0.02457000  0.61376000  1.0
  H  H49  1  0.66178000  0.01848000  0.68013000  1.0
  C  C50  1  0.49843000  0.95193000  0.58561000  1.0
  C  C51  1  0.49846000  0.08562000  0.46245000  1.0
  C  C52  1  0.49845000  0.96246000  0.45193000  1.0
  C  C53  1  0.52055000  0.58151000  0.20549000  1.0
  C  C54  1  0.52053000  0.70549000  0.21300000  1.0
  C  C55  1  0.52055000  0.71300000  0.08151000  1.0
  C  C56  1  0.49642000  0.52039000  0.23058000  1.0
  C  C57  1  0.46443000  0.48885000  0.28843000  1.0
  C  C58  1  0.46483000  0.43187000  0.31460000  1.0
  C  C59  1  0.48583000  0.40545000  0.28304000  1.0
  C  C60  1  0.50122000  0.43665000  0.22464000  1.0
  C  C61  1  0.50917000  0.49490000  0.19811000  1.0
  C  C62  1  0.47113000  0.23086000  0.43969000  1.0
  C  C63  1  0.49452000  0.26245000  0.38208000  1.0
  C  C64  1  0.52421000  0.23594000  0.35088000  1.0
  C  C65  1  0.52330000  0.17862000  0.37642000  1.0
  C  C66  1  0.49966000  0.14731000  0.43472000  1.0
  C  C67  1  0.47581000  0.17321000  0.46682000  1.0
  C  C68  1  0.49637000  0.73058000  0.24903000  1.0
  C  C69  1  0.46437000  0.78843000  0.22272000  1.0
  C  C70  1  0.46484000  0.81461000  0.25353000  1.0
  C  C71  1  0.48591000  0.78305000  0.31151000  1.0
  C  C72  1  0.50131000  0.72464000  0.33872000  1.0
  C  C73  1  0.50924000  0.69811000  0.30699000  1.0
  C  C74  1  0.47110000  0.93969000  0.32945000  1.0
  C  C75  1  0.49451000  0.88209000  0.35547000  1.0
  C  C76  1  0.52418000  0.85088000  0.41318000  1.0
  C  C77  1  0.52327000  0.87642000  0.44496000  1.0
  C  C78  1  0.49965000  0.93473000  0.41797000  1.0
  C  C79  1  0.47582000  0.96682000  0.35997000  1.0
  C  C80  1  0.49642000  0.74903000  0.02039000  1.0
  C  C81  1  0.46439000  0.72272000  0.98885000  1.0
  C  C82  1  0.46481000  0.75353000  0.93187000  1.0
  C  C83  1  0.48589000  0.81152000  0.90544000  1.0
  C  C84  1  0.50131000  0.83871000  0.93664000  1.0
  C  C85  1  0.50922000  0.80699000  0.99490000  1.0
  C  C86  1  0.47105000  0.82945000  0.73086000  1.0
  C  C87  1  0.49441000  0.85547000  0.76244000  1.0
  C  C88  1  0.52411000  0.91318000  0.73594000  1.0
  C  C89  1  0.52324000  0.94496000  0.67862000  1.0
  C  C90  1  0.49959000  0.91798000  0.64730000  1.0
  C  C91  1  0.47574000  0.85997000  0.67320000  1.0
  C  C92  1  0.51785000  0.52821000  0.13592000  1.0
  C  C93  1  0.50945000  0.40855000  0.19071000  1.0
  C  C94  1  0.45262000  0.14043000  0.52884000  1.0
  C  C95  1  0.55036000  0.15144000  0.34172000  1.0
  C  C96  1  0.51789000  0.63592000  0.33588000  1.0
  C  C97  1  0.50966000  0.69071000  0.40074000  1.0
  C  C98  1  0.45264000  0.02884000  0.33073000  1.0
  C  C99  1  0.55036000  0.84172000  0.50683000  1.0
  C  C100  1  0.51790000  0.83588000  0.02820000  1.0
  C  C101  1  0.50959000  0.90074000  0.90855000  1.0
  C  C102  1  0.45259000  0.83073000  0.64043000  1.0
  C  C103  1  0.55031000  0.00683000  0.65145000  1.0
  N  N104  1  0.49005000  0.34751000  0.30695000  1.0
  N  N105  1  0.48761000  0.32038000  0.35936000  1.0
  N  N106  1  0.49015000  0.80696000  0.34554000  1.0
  N  N107  1  0.48758000  0.85936000  0.32026000  1.0
  N  N108  1  0.49009000  0.84555000  0.84750000  1.0
  N  N109  1  0.48754000  0.82026000  0.82038000  1.0
  O  O110  1  0.73328000  0.99708000  0.44385000  1.0
  O  O111  1  0.73326000  0.94385000  0.55907000  1.0
  O  O112  1  0.73326000  0.05907000  0.49708000  1.0
  O  O113  1  0.26240000  0.94978000  0.48745000  1.0
  O  O114  1  0.26241000  0.06278000  0.44977000  1.0
  O  O115  1  0.26239000  0.98745000  0.56278000  1.0
  O  O116  1  0.76672000  0.72110000  0.10605000  1.0
  O  O117  1  0.76673000  0.60606000  0.17285000  1.0
  O  O118  1  0.76671000  0.67285000  0.22110000  1.0
  O  O119  1  0.29656000  0.67539000  0.10563000  1.0
  O  O120  1  0.29651000  0.71899000  0.17538000  1.0
  O  O121  1  0.29654000  0.60564000  0.21898000  1.0
