# generated using pymatgen
data_MnH14C14S2(N2O3)2
_symmetry_space_group_name_H-M   'P 1'
_cell_length_a   9.61786000
_cell_length_b   9.84095000
_cell_length_c   11.17180000
_cell_angle_alpha   101.11200000
_cell_angle_beta   106.67900000
_cell_angle_gamma   109.35700000
_symmetry_Int_Tables_number   1
_chemical_formula_structural   MnH14C14S2(N2O3)2
_chemical_formula_sum   'Mn2 H28 C28 S4 N8 O12'
_cell_volume   905.88378767
_cell_formula_units_Z   2
loop_
 _symmetry_equiv_pos_site_id
 _symmetry_equiv_pos_as_xyz
  1  'x, y, z'
loop_
 _atom_site_type_symbol
 _atom_site_label
 _atom_site_symmetry_multiplicity
 _atom_site_fract_x
 _atom_site_fract_y
 _atom_site_fract_z
 _atom_site_occupancy
  Mn  Mn0  1  0.18391000  0.19950000  0.71219000  1.0
  Mn  Mn1  1  0.81615000  0.80057000  0.28777000  1.0
  H  H2  1  0.15123000  0.94528000  0.54977000  1.0
  H  H3  1  0.84879000  0.05475000  0.45027000  1.0
  H  H4  1  0.08302000  0.87664000  0.64623000  1.0
  H  H5  1  0.91697000  0.12329000  0.35374000  1.0
  H  H6  1  0.02058000  0.09749000  0.85803000  1.0
  H  H7  1  0.97943000  0.90249000  0.14188000  1.0
  H  H8  1  0.14846000  0.02612000  0.88381000  1.0
  H  H9  1  0.85154000  0.97388000  0.11618000  1.0
  H  H10  1  0.40123000  0.02487000  0.76680000  1.0
  H  H11  1  0.59876000  0.97518000  0.23318000  1.0
  H  H12  1  0.60051000  0.05814000  0.83197000  1.0
  H  H13  1  0.39951000  0.94190000  0.16802000  1.0
  H  H14  1  0.95572000  0.36698000  0.63976000  1.0
  H  H15  1  0.04426000  0.63303000  0.36027000  1.0
  H  H16  1  0.96839000  0.55557000  0.64705000  1.0
  H  H17  1  0.03161000  0.44444000  0.35296000  1.0
  H  H18  1  0.76571000  0.64041000  0.95368000  1.0
  H  H19  1  0.23428000  0.35962000  0.04636000  1.0
  H  H20  1  0.58197000  0.78268000  0.90280000  1.0
  H  H21  1  0.41804000  0.21732000  0.09715000  1.0
  H  H22  1  0.46943000  0.30601000  0.61353000  1.0
  H  H23  1  0.53059000  0.69396000  0.38649000  1.0
  H  H24  1  0.26100000  0.49972000  0.33738000  1.0
  H  H25  1  0.73901000  0.50029000  0.66263000  1.0
  H  H26  1  0.56075000  0.85713000  0.65385000  1.0
  H  H27  1  0.43925000  0.14287000  0.34616000  1.0
  H  H28  1  0.71583000  0.22572000  0.50109000  1.0
  H  H29  1  0.28417000  0.77428000  0.49892000  1.0
  C  C30  1  0.52072000  0.46073000  0.86137000  1.0
  C  C31  1  0.47927000  0.53927000  0.13864000  1.0
  C  C32  1  0.68358000  0.52147000  0.91765000  1.0
  C  C33  1  0.31643000  0.47853000  0.08230000  1.0
  C  C34  1  0.55249000  0.24415000  0.85555000  1.0
  C  C35  1  0.44751000  0.75586000  0.14447000  1.0
  C  C36  1  0.41875000  0.53957000  0.82821000  1.0
  C  C37  1  0.58126000  0.46045000  0.17177000  1.0
  C  C38  1  0.46333000  0.69239000  0.85152000  1.0
  C  C39  1  0.53666000  0.30762000  0.14846000  1.0
  C  C40  1  0.17694000  0.53492000  0.73143000  1.0
  C  C41  1  0.82306000  0.46509000  0.26860000  1.0
  C  C42  1  0.18726000  0.27569000  0.45165000  1.0
  C  C43  1  0.81271000  0.72430000  0.54835000  1.0
  C  C44  1  0.34777000  0.39161000  0.47493000  1.0
  C  C45  1  0.65225000  0.60837000  0.52506000  1.0
  C  C46  1  0.48419000  0.39189000  0.56447000  1.0
  C  C47  1  0.51580000  0.60808000  0.43552000  1.0
  C  C48  1  0.36517000  0.50071000  0.40989000  1.0
  C  C49  1  0.63482000  0.49924000  0.59009000  1.0
  C  C50  1  0.82131000  0.09631000  0.68452000  1.0
  C  C51  1  0.17867000  0.90368000  0.31549000  1.0
  C  C52  1  0.65565000  0.04792000  0.58937000  1.0
  C  C53  1  0.34436000  0.95205000  0.41063000  1.0
  C  C54  1  0.53297000  0.92042000  0.58728000  1.0
  C  C55  1  0.46703000  0.07955000  0.41273000  1.0
  C  C56  1  0.62166000  0.12688000  0.50122000  1.0
  C  C57  1  0.37833000  0.87309000  0.49878000  1.0
  S  S58  1  0.74949000  0.37946000  0.92623000  1.0
  S  S59  1  0.25050000  0.62053000  0.07372000  1.0
  S  S60  1  0.29908000  0.72964000  0.78742000  1.0
  S  S61  1  0.70092000  0.27037000  0.21260000  1.0
  N  N62  1  0.44684000  0.30343000  0.82642000  1.0
  N  N63  1  0.55317000  0.69659000  0.17362000  1.0
  N  N64  1  0.25643000  0.45047000  0.76088000  1.0
  N  N65  1  0.74360000  0.54954000  0.23908000  1.0
  N  N66  1  0.51342000  0.09378000  0.83615000  1.0
  N  N67  1  0.48655000  0.90621000  0.16385000  1.0
  N  N68  1  0.01943000  0.48141000  0.66622000  1.0
  N  N69  1  0.98056000  0.51860000  0.33380000  1.0
  O  O70  1  0.17346000  0.96679000  0.64491000  1.0
  O  O71  1  0.82652000  0.03320000  0.35513000  1.0
  O  O72  1  0.13950000  0.12183000  0.88391000  1.0
  O  O73  1  0.86052000  0.87820000  0.11613000  1.0
  O  O74  1  0.18072000  0.18534000  0.52005000  1.0
  O  O75  1  0.81926000  0.81469000  0.47996000  1.0
  O  O76  1  0.06385000  0.27060000  0.36441000  1.0
  O  O77  1  0.93614000  0.72940000  0.63559000  1.0
  O  O78  1  0.93427000  0.16241000  0.64755000  1.0
  O  O79  1  0.06574000  0.83758000  0.35248000  1.0
  O  O80  1  0.84055000  0.06932000  0.79313000  1.0
  O  O81  1  0.15942000  0.93068000  0.20689000  1.0
