# generated using pymatgen
data_AgH3C5(NO)3
_symmetry_space_group_name_H-M   'P 1'
_cell_length_a   6.71132000
_cell_length_b   9.77799000
_cell_length_c   19.81810000
_cell_angle_alpha   89.99990000
_cell_angle_beta   90.00000000
_cell_angle_gamma   97.80630000
_symmetry_Int_Tables_number   1
_chemical_formula_structural   AgH3C5(NO)3
_chemical_formula_sum   'Ag8 H24 C40 N24 O24'
_cell_volume   1288.47542986
_cell_formula_units_Z   8
loop_
 _symmetry_equiv_pos_site_id
 _symmetry_equiv_pos_as_xyz
  1  'x, y, z'
loop_
 _atom_site_type_symbol
 _atom_site_label
 _atom_site_symmetry_multiplicity
 _atom_site_fract_x
 _atom_site_fract_y
 _atom_site_fract_z
 _atom_site_occupancy
  Ag  Ag0  1  0.24450000  0.36568000  0.67179000  1.0
  Ag  Ag1  1  0.75550000  0.13432000  0.17179000  1.0
  Ag  Ag2  1  0.75550000  0.63431000  0.32821000  1.0
  Ag  Ag3  1  0.24450000  0.86569000  0.82821000  1.0
  Ag  Ag4  1  0.28948000  0.23047000  0.30296000  1.0
  Ag  Ag5  1  0.71054000  0.26953000  0.80296000  1.0
  Ag  Ag6  1  0.71053000  0.76953000  0.69704000  1.0
  Ag  Ag7  1  0.28947000  0.73047000  0.19704000  1.0
  H  H8  1  0.30497000  0.09898000  0.56166000  1.0
  H  H9  1  0.69505000  0.40102000  0.06167000  1.0
  H  H10  1  0.69502000  0.90101000  0.43833000  1.0
  H  H11  1  0.30497000  0.59898000  0.93834000  1.0
  H  H12  1  0.32094000  0.06591000  0.43540000  1.0
  H  H13  1  0.67907000  0.43411000  0.93540000  1.0
  H  H14  1  0.67905000  0.93409000  0.56459000  1.0
  H  H15  1  0.32094000  0.56590000  0.06460000  1.0
  H  H16  1  0.28269000  0.49676000  0.34309000  1.0
  H  H17  1  0.71729000  0.00324000  0.84309000  1.0
  H  H18  1  0.71730000  0.50324000  0.65691000  1.0
  H  H19  1  0.28271000  0.99676000  0.15691000  1.0
  H  H20  1  0.24399000  0.72856000  0.39008000  1.0
  H  H21  1  0.75599000  0.77144000  0.89009000  1.0
  H  H22  1  0.75598000  0.27144000  0.60991000  1.0
  H  H23  1  0.24401000  0.22855000  0.10992000  1.0
  H  H24  1  0.17471000  0.69790000  0.68315000  1.0
  H  H25  1  0.82530000  0.80211000  0.18315000  1.0
  H  H26  1  0.82529000  0.30209000  0.31685000  1.0
  H  H27  1  0.17470000  0.19790000  0.81685000  1.0
  H  H28  1  0.15311000  0.89578000  0.60507000  1.0
  H  H29  1  0.84691000  0.60423000  0.10507000  1.0
  H  H30  1  0.84690000  0.10421000  0.39494000  1.0
  H  H31  1  0.15310000  0.39578000  0.89494000  1.0
  C  C32  1  0.26355000  0.41278000  0.51195000  1.0
  C  C33  1  0.73645000  0.08723000  0.01195000  1.0
  C  C34  1  0.73645000  0.58722000  0.48805000  1.0
  C  C35  1  0.26355000  0.91278000  0.98805000  1.0
  C  C36  1  0.29319000  0.18431000  0.52736000  1.0
  C  C37  1  0.70681000  0.31569000  0.02736000  1.0
  C  C38  1  0.70680000  0.81568000  0.47264000  1.0
  C  C39  1  0.29319000  0.68431000  0.97264000  1.0
  C  C40  1  0.30501000  0.16638000  0.45701000  1.0
  C  C41  1  0.69499000  0.33363000  0.95701000  1.0
  C  C42  1  0.69498000  0.83362000  0.54299000  1.0
  C  C43  1  0.30501000  0.66638000  0.04299000  1.0
  C  C44  1  0.27920000  0.39749000  0.44080000  1.0
  C  C45  1  0.72080000  0.10251000  0.94080000  1.0
  C  C46  1  0.72080000  0.60251000  0.55920000  1.0
  C  C47  1  0.27921000  0.89749000  0.05920000  1.0
  C  C48  1  0.27267000  0.51313000  0.39736000  1.0
  C  C49  1  0.72732000  0.98687000  0.89736000  1.0
  C  C50  1  0.72732000  0.48687000  0.60264000  1.0
  C  C51  1  0.27269000  0.01313000  0.10264000  1.0
  C  C52  1  0.24846000  0.63977000  0.42297000  1.0
  C  C53  1  0.75153000  0.86023000  0.92297000  1.0
  C  C54  1  0.75153000  0.36023000  0.57703000  1.0
  C  C55  1  0.24847000  0.13977000  0.07703000  1.0
  C  C56  1  0.22856000  0.65920000  0.49406000  1.0
  C  C57  1  0.77143000  0.84081000  0.99406000  1.0
  C  C58  1  0.77143000  0.34081000  0.50594000  1.0
  C  C59  1  0.22857000  0.15919000  0.00594000  1.0
  C  C60  1  0.23648000  0.54625000  0.53884000  1.0
  C  C61  1  0.76352000  0.95376000  0.03884000  1.0
  C  C62  1  0.76352000  0.45375000  0.46116000  1.0
  C  C63  1  0.23647000  0.04624000  0.96116000  1.0
  C  C64  1  0.18920000  0.68486000  0.62897000  1.0
  C  C65  1  0.81080000  0.81515000  0.12897000  1.0
  C  C66  1  0.81079000  0.31514000  0.37104000  1.0
  C  C67  1  0.18920000  0.18486000  0.87104000  1.0
  C  C68  1  0.18032000  0.79664000  0.58439000  1.0
  C  C69  1  0.81968000  0.70337000  0.08439000  1.0
  C  C70  1  0.81968000  0.20336000  0.41561000  1.0
  C  C71  1  0.18032000  0.29663000  0.91561000  1.0
  N  N72  1  0.27294000  0.30571000  0.55461000  1.0
  N  N73  1  0.72706000  0.19429000  0.05461000  1.0
  N  N74  1  0.72705000  0.69428000  0.44539000  1.0
  N  N75  1  0.27294000  0.80571000  0.94539000  1.0
  N  N76  1  0.29930000  0.27091000  0.41422000  1.0
  N  N77  1  0.70069000  0.22910000  0.91422000  1.0
  N  N78  1  0.70070000  0.72910000  0.58578000  1.0
  N  N79  1  0.29931000  0.77091000  0.08578000  1.0
  N  N80  1  0.21745000  0.56129000  0.60639000  1.0
  N  N81  1  0.78256000  0.93872000  0.10639000  1.0
  N  N82  1  0.78254000  0.43871000  0.39361000  1.0
  N  N83  1  0.21744000  0.06128000  0.89361000  1.0
  N  N84  1  0.20089000  0.78596000  0.51813000  1.0
  N  N85  1  0.79910000  0.71404000  0.01813000  1.0
  N  N86  1  0.79910000  0.21405000  0.48188000  1.0
  N  N87  1  0.20089000  0.28595000  0.98188000  1.0
  N  N88  1  0.45188000  0.52903000  0.79702000  1.0
  N  N89  1  0.54812000  0.97097000  0.29701000  1.0
  N  N90  1  0.54812000  0.47097000  0.20299000  1.0
  N  N91  1  0.45189000  0.02903000  0.70299000  1.0
  N  N92  1  0.94450000  0.09564000  0.70288000  1.0
  N  N93  1  0.05551000  0.40435000  0.20287000  1.0
  N  N94  1  0.05550000  0.90436000  0.29712000  1.0
  N  N95  1  0.94449000  0.59564000  0.79713000  1.0
  O  O96  1  0.41571000  0.40350000  0.77489000  1.0
  O  O97  1  0.58428000  0.09650000  0.27488000  1.0
  O  O98  1  0.58428000  0.59650000  0.22511000  1.0
  O  O99  1  0.41572000  0.90350000  0.72511000  1.0
  O  O100  1  0.41231000  0.62666000  0.75976000  1.0
  O  O101  1  0.58769000  0.87334000  0.25976000  1.0
  O  O102  1  0.58769000  0.37333000  0.24024000  1.0
  O  O103  1  0.41234000  0.12667000  0.74024000  1.0
  O  O104  1  0.52651000  0.55052000  0.85465000  1.0
  O  O105  1  0.47348000  0.94947000  0.35464000  1.0
  O  O106  1  0.47349000  0.44947000  0.14535000  1.0
  O  O107  1  0.52652000  0.05053000  0.64535000  1.0
  O  O108  1  0.94786000  0.22463000  0.71959000  1.0
  O  O109  1  0.05219000  0.27536000  0.21958000  1.0
  O  O110  1  0.05215000  0.77537000  0.28041000  1.0
  O  O111  1  0.94785000  0.72463000  0.78041000  1.0
  O  O112  1  0.85671000  0.00482000  0.74205000  1.0
  O  O113  1  0.14328000  0.49517000  0.24205000  1.0
  O  O114  1  0.14328000  0.99518000  0.25795000  1.0
  O  O115  1  0.85671000  0.50482000  0.75796000  1.0
  O  O116  1  0.02757000  0.06653000  0.64957000  1.0
  O  O117  1  0.97244000  0.43347000  0.14957000  1.0
  O  O118  1  0.97243000  0.93347000  0.35043000  1.0
  O  O119  1  0.02756000  0.56653000  0.85043000  1.0
