# generated using pymatgen
data_CoH6C8(SN2)2
_symmetry_space_group_name_H-M   'P 1'
_cell_length_a   7.68921000
_cell_length_b   7.75520000
_cell_length_c   16.16070000
_cell_angle_alpha   90.00020000
_cell_angle_beta   89.99980000
_cell_angle_gamma   89.99920000
_symmetry_Int_Tables_number   1
_chemical_formula_structural   CoH6C8(SN2)2
_chemical_formula_sum   'Co4 H24 C32 S8 N16'
_cell_volume   963.68454194
_cell_formula_units_Z   4
loop_
 _symmetry_equiv_pos_site_id
 _symmetry_equiv_pos_as_xyz
  1  'x, y, z'
loop_
 _atom_site_type_symbol
 _atom_site_label
 _atom_site_symmetry_multiplicity
 _atom_site_fract_x
 _atom_site_fract_y
 _atom_site_fract_z
 _atom_site_occupancy
  Co  Co0  1  0.18371000  0.91717000  0.62662000  1.0
  Co  Co1  1  0.81629000  0.58283000  0.12662000  1.0
  Co  Co2  1  0.68372000  0.08281000  0.87338000  1.0
  Co  Co3  1  0.31628000  0.41718000  0.37338000  1.0
  H  H4  1  0.25481000  0.57812000  0.70675000  1.0
  H  H5  1  0.74519000  0.92189000  0.20675000  1.0
  H  H6  1  0.75480000  0.42187000  0.79325000  1.0
  H  H7  1  0.24520000  0.07812000  0.29324000  1.0
  H  H8  1  0.44284000  0.46700000  0.82254000  1.0
  H  H9  1  0.55715000  0.03300000  0.32255000  1.0
  H  H10  1  0.94282000  0.53300000  0.67746000  1.0
  H  H11  1  0.05718000  0.96699000  0.17745000  1.0
  H  H12  1  0.62796000  0.68738000  0.89908000  1.0
  H  H13  1  0.37204000  0.81262000  0.39908000  1.0
  H  H14  1  0.12794000  0.31262000  0.60092000  1.0
  H  H15  1  0.87205000  0.18737000  0.10093000  1.0
  H  H16  1  0.57322000  0.95837000  0.62749000  1.0
  H  H17  1  0.42677000  0.54165000  0.12750000  1.0
  H  H18  1  0.07325000  0.04164000  0.87251000  1.0
  H  H19  1  0.92676000  0.45837000  0.37250000  1.0
  H  H20  1  0.79490000  0.12114000  0.54077000  1.0
  H  H21  1  0.20510000  0.37887000  0.04077000  1.0
  H  H22  1  0.29491000  0.87886000  0.95923000  1.0
  H  H23  1  0.70509000  0.62114000  0.45923000  1.0
  H  H24  1  0.67684000  0.30515000  0.42462000  1.0
  H  H25  1  0.32316000  0.19485000  0.92462000  1.0
  H  H26  1  0.17685000  0.69486000  0.07539000  1.0
  H  H27  1  0.82316000  0.80514000  0.57539000  1.0
  C  C28  1  0.41160000  0.94865000  0.77404000  1.0
  C  C29  1  0.58840000  0.55135000  0.27404000  1.0
  C  C30  1  0.91158000  0.05135000  0.72597000  1.0
  C  C31  1  0.08841000  0.44865000  0.22596000  1.0
  C  C32  1  0.33082000  0.66519000  0.74523000  1.0
  C  C33  1  0.66919000  0.83480000  0.24523000  1.0
  C  C34  1  0.83080000  0.33480000  0.75477000  1.0
  C  C35  1  0.16921000  0.16520000  0.25476000  1.0
  C  C36  1  0.43577000  0.60399000  0.80881000  1.0
  C  C37  1  0.56422000  0.89601000  0.30881000  1.0
  C  C38  1  0.93574000  0.39600000  0.69119000  1.0
  C  C39  1  0.06425000  0.10399000  0.19119000  1.0
  C  C40  1  0.53550000  0.72443000  0.85116000  1.0
  C  C41  1  0.46449000  0.77557000  0.35117000  1.0
  C  C42  1  0.03548000  0.27557000  0.64884000  1.0
  C  C43  1  0.96451000  0.22443000  0.14883000  1.0
  C  C44  1  0.30929000  0.12781000  0.48777000  1.0
  C  C45  1  0.69070000  0.37220000  0.98777000  1.0
  C  C46  1  0.80931000  0.87220000  0.01222000  1.0
  C  C47  1  0.19070000  0.62780000  0.51222000  1.0
  C  C48  1  0.53503000  0.03605000  0.57433000  1.0
  C  C49  1  0.46498000  0.46396000  0.07433000  1.0
  C  C50  1  0.03504000  0.96396000  0.92567000  1.0
  C  C51  1  0.96496000  0.53605000  0.42567000  1.0
  C  C52  1  0.65633000  0.12636000  0.52770000  1.0
  C  C53  1  0.34367000  0.37365000  0.02771000  1.0
  C  C54  1  0.15635000  0.87363000  0.97229000  1.0
  C  C55  1  0.84365000  0.62638000  0.47230000  1.0
  C  C56  1  0.59218000  0.22699000  0.46352000  1.0
  C  C57  1  0.40783000  0.27302000  0.96352000  1.0
  C  C58  1  0.09218000  0.77302000  0.03648000  1.0
  C  C59  1  0.90782000  0.72699000  0.53648000  1.0
  S  S60  1  0.39726000  0.16389000  0.75854000  1.0
  S  S61  1  0.60274000  0.33612000  0.25854000  1.0
  S  S62  1  0.89728000  0.83610000  0.74146000  1.0
  S  S63  1  0.10273000  0.66389000  0.24145000  1.0
  S  S64  1  0.10092000  0.10995000  0.45563000  1.0
  S  S65  1  0.89908000  0.39005000  0.95563000  1.0
  S  S66  1  0.60092000  0.89005000  0.04437000  1.0
  S  S67  1  0.39908000  0.60995000  0.54436000  1.0
  N  N68  1  0.31980000  0.83372000  0.72676000  1.0
  N  N69  1  0.68021000  0.66629000  0.22676000  1.0
  N  N70  1  0.81979000  0.16629000  0.77324000  1.0
  N  N71  1  0.18022000  0.33369000  0.27323000  1.0
  N  N72  1  0.52326000  0.89326000  0.83449000  1.0
  N  N73  1  0.47675000  0.60674000  0.33449000  1.0
  N  N74  1  0.02326000  0.10673000  0.66551000  1.0
  N  N75  1  0.97675000  0.39327000  0.16550000  1.0
  N  N76  1  0.36501000  0.03727000  0.55560000  1.0
  N  N77  1  0.63500000  0.46273000  0.05560000  1.0
  N  N78  1  0.86502000  0.96274000  0.94440000  1.0
  N  N79  1  0.13498000  0.53726000  0.44439000  1.0
  N  N80  1  0.42244000  0.23177000  0.44467000  1.0
  N  N81  1  0.57756000  0.26823000  0.94467000  1.0
  N  N82  1  0.92245000  0.76823000  0.05534000  1.0
  N  N83  1  0.07755000  0.73177000  0.55534000  1.0
