# generated using pymatgen
data_TbH7(C3O4)2
_symmetry_space_group_name_H-M   'P 1'
_cell_length_a   9.38763000
_cell_length_b   12.15200000
_cell_length_c   12.15210000
_cell_angle_alpha   94.95780000
_cell_angle_beta   94.46050000
_cell_angle_gamma   94.45960000
_symmetry_Int_Tables_number   1
_chemical_formula_structural   TbH7(C3O4)2
_chemical_formula_sum   'Tb4 H28 C24 O32'
_cell_volume   1371.93404763
_cell_formula_units_Z   4
loop_
 _symmetry_equiv_pos_site_id
 _symmetry_equiv_pos_as_xyz
  1  'x, y, z'
loop_
 _atom_site_type_symbol
 _atom_site_label
 _atom_site_symmetry_multiplicity
 _atom_site_fract_x
 _atom_site_fract_y
 _atom_site_fract_z
 _atom_site_occupancy
  Tb  Tb0  1  0.46197000  0.26294000  0.23278000  1.0
  Tb  Tb1  1  0.03802000  0.76723000  0.73706000  1.0
  Tb  Tb2  1  0.53803000  0.73706000  0.76723000  1.0
  Tb  Tb3  1  0.96198000  0.23277000  0.26294000  1.0
  H  H4  1  0.57402000  0.48664000  0.22578000  1.0
  H  H5  1  0.70300000  0.42732000  0.17917000  1.0
  H  H6  1  0.21684000  0.33680000  0.08320000  1.0
  H  H7  1  0.36444000  0.40203000  0.05694000  1.0
  H  H8  1  0.40308000  0.07120000  0.56869000  1.0
  H  H9  1  0.59144000  0.42103000  0.50266000  1.0
  H  H10  1  0.58621000  0.01951000  0.93236000  1.0
  H  H11  1  0.92598000  0.77422000  0.51336000  1.0
  H  H12  1  0.79700000  0.82083000  0.57267000  1.0
  H  H13  1  0.28316000  0.91680000  0.66320000  1.0
  H  H14  1  0.13557000  0.94307000  0.59796000  1.0
  H  H15  1  0.09693000  0.43132000  0.92880000  1.0
  H  H16  1  0.90856000  0.49734000  0.57897000  1.0
  H  H17  1  0.91378000  0.06764000  0.98049000  1.0
  H  H18  1  0.42598000  0.51336000  0.77422000  1.0
  H  H19  1  0.29700000  0.57267000  0.82083000  1.0
  H  H20  1  0.78316000  0.66320000  0.91680000  1.0
  H  H21  1  0.63557000  0.59796000  0.94306000  1.0
  H  H22  1  0.59692000  0.92880000  0.43132000  1.0
  H  H23  1  0.40856000  0.57896000  0.49734000  1.0
  H  H24  1  0.41379000  0.98049000  0.06764000  1.0
  H  H25  1  0.07402000  0.22578000  0.48664000  1.0
  H  H26  1  0.20301000  0.17917000  0.42733000  1.0
  H  H27  1  0.71684000  0.08320000  0.33681000  1.0
  H  H28  1  0.86444000  0.05693000  0.40203000  1.0
  H  H29  1  0.90307000  0.56868000  0.07120000  1.0
  H  H30  1  0.09144000  0.50266000  0.42104000  1.0
  H  H31  1  0.08622000  0.93236000  0.01950000  1.0
  C  C32  1  0.46498000  0.11696000  0.40664000  1.0
  C  C33  1  0.46432000  0.04566000  0.49949000  1.0
  C  C34  1  0.76787000  0.34702000  0.42193000  1.0
  C  C35  1  0.70806000  0.42168000  0.50647000  1.0
  C  C36  1  0.67926000  0.14609000  0.06539000  1.0
  C  C37  1  0.68732000  0.05933000  0.97250000  1.0
  C  C38  1  0.03503000  0.59336000  0.88305000  1.0
  C  C39  1  0.03568000  0.50051000  0.95434000  1.0
  C  C40  1  0.73213000  0.57807000  0.65298000  1.0
  C  C41  1  0.79195000  0.49353000  0.57832000  1.0
  C  C42  1  0.82074000  0.93462000  0.85391000  1.0
  C  C43  1  0.81268000  0.02750000  0.94067000  1.0
  C  C44  1  0.53502000  0.88305000  0.59336000  1.0
  C  C45  1  0.53568000  0.95434000  0.50052000  1.0
  C  C46  1  0.23213000  0.65298000  0.57807000  1.0
  C  C47  1  0.29194000  0.57832000  0.49353000  1.0
  C  C48  1  0.32074000  0.85391000  0.93461000  1.0
  C  C49  1  0.31268000  0.94068000  0.02749000  1.0
  C  C50  1  0.96498000  0.40664000  0.11696000  1.0
  C  C51  1  0.96432000  0.49949000  0.04566000  1.0
  C  C52  1  0.26787000  0.42193000  0.34702000  1.0
  C  C53  1  0.20805000  0.50647000  0.42168000  1.0
  C  C54  1  0.17926000  0.06539000  0.14608000  1.0
  C  C55  1  0.18732000  0.97251000  0.05932000  1.0
  O  O56  1  0.38695000  0.19911000  0.40973000  1.0
  O  O57  1  0.54162000  0.09762000  0.32602000  1.0
  O  O58  1  0.68308000  0.30306000  0.33989000  1.0
  O  O59  1  0.90087000  0.33072000  0.43041000  1.0
  O  O60  1  0.55634000  0.17886000  0.08155000  1.0
  O  O61  1  0.79276000  0.18180000  0.12540000  1.0
  O  O62  1  0.59705000  0.43125000  0.16825000  1.0
  O  O63  1  0.32346000  0.33533000  0.08516000  1.0
  O  O64  1  0.11305000  0.59028000  0.80090000  1.0
  O  O65  1  0.95838000  0.67398000  0.90238000  1.0
  O  O66  1  0.81692000  0.66011000  0.69694000  1.0
  O  O67  1  0.59913000  0.56959000  0.66928000  1.0
  O  O68  1  0.94366000  0.91846000  0.82113000  1.0
  O  O69  1  0.70724000  0.87460000  0.81820000  1.0
  O  O70  1  0.90294000  0.83175000  0.56875000  1.0
  O  O71  1  0.17654000  0.91484000  0.66467000  1.0
  O  O72  1  0.61305000  0.80089000  0.59028000  1.0
  O  O73  1  0.45838000  0.90238000  0.67399000  1.0
  O  O74  1  0.31691000  0.69694000  0.66011000  1.0
  O  O75  1  0.09913000  0.66928000  0.56959000  1.0
  O  O76  1  0.44366000  0.82114000  0.91845000  1.0
  O  O77  1  0.20724000  0.81820000  0.87460000  1.0
  O  O78  1  0.40294000  0.56875000  0.83175000  1.0
  O  O79  1  0.67654000  0.66467000  0.91484000  1.0
  O  O80  1  0.88695000  0.40972000  0.19911000  1.0
  O  O81  1  0.04162000  0.32602000  0.09762000  1.0
  O  O82  1  0.18308000  0.33989000  0.30306000  1.0
  O  O83  1  0.40087000  0.43041000  0.33072000  1.0
  O  O84  1  0.05634000  0.08155000  0.17886000  1.0
  O  O85  1  0.29275000  0.12540000  0.18180000  1.0
  O  O86  1  0.09706000  0.16825000  0.43125000  1.0
  O  O87  1  0.82346000  0.08516000  0.33533000  1.0
