# generated using pymatgen
data_CdH4C3SN4O3
_symmetry_space_group_name_H-M   'P 1'
_cell_length_a   7.04786000
_cell_length_b   7.46971000
_cell_length_c   8.17777000
_cell_angle_alpha   108.23900000
_cell_angle_beta   115.50500000
_cell_angle_gamma   90.00380000
_symmetry_Int_Tables_number   1
_chemical_formula_structural   CdH4C3SN4O3
_chemical_formula_sum   'Cd2 H8 C6 S2 N8 O6'
_cell_volume   364.45128201
_cell_formula_units_Z   2
loop_
 _symmetry_equiv_pos_site_id
 _symmetry_equiv_pos_as_xyz
  1  'x, y, z'
loop_
 _atom_site_type_symbol
 _atom_site_label
 _atom_site_symmetry_multiplicity
 _atom_site_fract_x
 _atom_site_fract_y
 _atom_site_fract_z
 _atom_site_occupancy
  Cd  Cd0  1  0.95706000  0.17278000  0.18281000  1.0
  Cd  Cd1  1  0.22582000  0.67274000  0.18285000  1.0
  H  H2  1  0.76188000  0.46201000  0.29730000  1.0
  H  H3  1  0.53542000  0.96206000  0.29724000  1.0
  H  H4  1  0.99782000  0.53242000  0.45618000  1.0
  H  H5  1  0.45819000  0.03240000  0.45612000  1.0
  H  H6  1  0.08319000  0.18635000  0.62900000  1.0
  H  H7  1  0.54595000  0.68613000  0.62903000  1.0
  H  H8  1  0.92714000  0.01720000  0.65158000  1.0
  H  H9  1  0.72433000  0.51680000  0.65129000  1.0
  C  C10  1  0.04639000  0.89734000  0.44536000  1.0
  C  C11  1  0.39883000  0.39727000  0.44544000  1.0
  C  C12  1  0.07065000  0.04254000  0.63530000  1.0
  C  C13  1  0.56467000  0.54231000  0.63524000  1.0
  C  C14  1  0.25892000  0.97888000  0.95052000  1.0
  C  C15  1  0.69176000  0.47883000  0.95054000  1.0
  S  S16  1  0.04201000  0.88134000  0.95530000  1.0
  S  S17  1  0.91340000  0.38135000  0.95525000  1.0
  N  N18  1  0.25317000  0.03411000  0.80466000  1.0
  N  N19  1  0.55160000  0.53396000  0.80471000  1.0
  N  N20  1  0.45321000  0.08766000  0.83925000  1.0
  N  N21  1  0.38624000  0.58755000  0.83946000  1.0
  N  N22  1  0.57630000  0.06872000  0.00370000  1.0
  N  N23  1  0.42766000  0.56864000  0.00396000  1.0
  N  N24  1  0.46492000  0.00467000  0.07790000  1.0
  N  N25  1  0.61321000  0.50461000  0.07804000  1.0
  O  O26  1  0.92043000  0.92538000  0.29342000  1.0
  O  O27  1  0.37267000  0.42529000  0.29338000  1.0
  O  O28  1  0.15162000  0.75841000  0.45121000  1.0
  O  O29  1  0.29947000  0.25848000  0.45148000  1.0
  O  O30  1  0.88174000  0.42452000  0.39744000  1.0
  O  O31  1  0.51546000  0.92450000  0.39728000  1.0
