# generated using pymatgen
data_CdH12C14SO8
_symmetry_space_group_name_H-M   'P 1'
_cell_length_a   5.26029000
_cell_length_b   12.10270000
_cell_length_c   13.16570000
_cell_angle_alpha   64.01600000
_cell_angle_beta   89.99830000
_cell_angle_gamma   89.99850000
_symmetry_Int_Tables_number   1
_chemical_formula_structural   CdH12C14SO8
_chemical_formula_sum   'Cd2 H24 C28 S2 O16'
_cell_volume   753.45137094
_cell_formula_units_Z   2
loop_
 _symmetry_equiv_pos_site_id
 _symmetry_equiv_pos_as_xyz
  1  'x, y, z'
loop_
 _atom_site_type_symbol
 _atom_site_label
 _atom_site_symmetry_multiplicity
 _atom_site_fract_x
 _atom_site_fract_y
 _atom_site_fract_z
 _atom_site_occupancy
  Cd  Cd0  1  0.96021000  0.75000000  0.00000000  1.0
  Cd  Cd1  1  0.03979000  0.25000000  1.00000000  1.0
  H  H2  1  0.24796000  0.60319000  0.91115000  1.0
  H  H3  1  0.24797000  0.89681000  0.08884000  1.0
  H  H4  1  0.75204000  0.39681000  0.08884000  1.0
  H  H5  1  0.75203000  0.10319000  0.91115000  1.0
  H  H6  1  0.39714000  0.73197000  0.88413000  1.0
  H  H7  1  0.39713000  0.76802000  0.11586000  1.0
  H  H8  1  0.60286000  0.26802000  0.11586000  1.0
  H  H9  1  0.60287000  0.23198000  0.88414000  1.0
  H  H10  1  0.47589000  0.90973000  0.66442000  1.0
  H  H11  1  0.47592000  0.59026000  0.33558000  1.0
  H  H12  1  0.52411000  0.09027000  0.33558000  1.0
  H  H13  1  0.52409000  0.40974000  0.66442000  1.0
  H  H14  1  0.17381000  0.04228000  0.51823000  1.0
  H  H15  1  0.17384000  0.45772000  0.48178000  1.0
  H  H16  1  0.82618000  0.95772000  0.48177000  1.0
  H  H17  1  0.82617000  0.54228000  0.51822000  1.0
  H  H18  1  0.02279000  0.24556000  0.71227000  1.0
  H  H19  1  0.02276000  0.25446000  0.28773000  1.0
  H  H20  1  0.97722000  0.75445000  0.28773000  1.0
  H  H21  1  0.97723000  0.74554000  0.71227000  1.0
  H  H22  1  0.32790000  0.11148000  0.85882000  1.0
  H  H23  1  0.32789000  0.38852000  0.14118000  1.0
  H  H24  1  0.67210000  0.88852000  0.14118000  1.0
  H  H25  1  0.67211000  0.61148000  0.85882000  1.0
  C  C26  1  0.61969000  0.92750000  0.85337000  1.0
  C  C27  1  0.61969000  0.57250000  0.14662000  1.0
  C  C28  1  0.38031000  0.07250000  0.14663000  1.0
  C  C29  1  0.38031000  0.42750000  0.85338000  1.0
  C  C30  1  0.42756000  0.00508000  0.76915000  1.0
  C  C31  1  0.42757000  0.49491000  0.23085000  1.0
  C  C32  1  0.57244000  0.99492000  0.23085000  1.0
  C  C33  1  0.57243000  0.50509000  0.76915000  1.0
  C  C34  1  0.37861000  0.98365000  0.67448000  1.0
  C  C35  1  0.37863000  0.51635000  0.32553000  1.0
  C  C36  1  0.62139000  0.01635000  0.32552000  1.0
  C  C37  1  0.62137000  0.48365000  0.67447000  1.0
  C  C38  1  0.20754000  0.05781000  0.59251000  1.0
  C  C39  1  0.20756000  0.44219000  0.40750000  1.0
  C  C40  1  0.79246000  0.94218000  0.40749000  1.0
  C  C41  1  0.79244000  0.55781000  0.59250000  1.0
  C  C42  1  0.08321000  0.15206000  0.60689000  1.0
  C  C43  1  0.08321000  0.34795000  0.39312000  1.0
  C  C44  1  0.91679000  0.84794000  0.39311000  1.0
  C  C45  1  0.91679000  0.65205000  0.60688000  1.0
  C  C46  1  0.12556000  0.17324000  0.70161000  1.0
  C  C47  1  0.12555000  0.32677000  0.29839000  1.0
  C  C48  1  0.87444000  0.82677000  0.29839000  1.0
  C  C49  1  0.87445000  0.67323000  0.70161000  1.0
  C  C50  1  0.29818000  0.09876000  0.78294000  1.0
  C  C51  1  0.29818000  0.40125000  0.21706000  1.0
  C  C52  1  0.70182000  0.90124000  0.21706000  1.0
  C  C53  1  0.70182000  0.59875000  0.78294000  1.0
  S  S54  1  0.87047000  0.25001000  0.50000000  1.0
  S  S55  1  0.12952000  0.74999000  0.49999000  1.0
  O  O56  1  0.66176000  0.81944000  0.85990000  1.0
  O  O57  1  0.66176000  0.68056000  0.14009000  1.0
  O  O58  1  0.33824000  0.18056000  0.14010000  1.0
  O  O59  1  0.33824000  0.31945000  0.85990000  1.0
  O  O60  1  0.73966000  0.96505000  0.91595000  1.0
  O  O61  1  0.73966000  0.53494000  0.08405000  1.0
  O  O62  1  0.26034000  0.03495000  0.08405000  1.0
  O  O63  1  0.26033000  0.46506000  0.91595000  1.0
  O  O64  1  0.73269000  0.32299000  0.54463000  1.0
  O  O65  1  0.73269000  0.17703000  0.45538000  1.0
  O  O66  1  0.26730000  0.67702000  0.45537000  1.0
  O  O67  1  0.26731000  0.82297000  0.54462000  1.0
  O  O68  1  0.23222000  0.68761000  0.90748000  1.0
  O  O69  1  0.23222000  0.81239000  0.09251000  1.0
  O  O70  1  0.76778000  0.31238000  0.09252000  1.0
  O  O71  1  0.76778000  0.18761000  0.90749000  1.0
