# generated using pymatgen
data_TbH18C24NO7
_symmetry_space_group_name_H-M   'P 1'
_cell_length_a   8.72142000
_cell_length_b   10.79890000
_cell_length_c   12.09930000
_cell_angle_alpha   70.10460000
_cell_angle_beta   84.33690000
_cell_angle_gamma   77.82550000
_symmetry_Int_Tables_number   1
_chemical_formula_structural   TbH18C24NO7
_chemical_formula_sum   'Tb2 H36 C48 N2 O14'
_cell_volume   1046.97292340
_cell_formula_units_Z   2
loop_
 _symmetry_equiv_pos_site_id
 _symmetry_equiv_pos_as_xyz
  1  'x, y, z'
loop_
 _atom_site_type_symbol
 _atom_site_label
 _atom_site_symmetry_multiplicity
 _atom_site_fract_x
 _atom_site_fract_y
 _atom_site_fract_z
 _atom_site_occupancy
  Tb  Tb0  1  0.28407000  0.02319000  0.55758000  1.0
  Tb  Tb1  1  0.71593000  0.97680000  0.44242000  1.0
  H  H2  1  0.77024000  0.36358000  0.23692000  1.0
  H  H3  1  0.22976000  0.63642000  0.76307000  1.0
  H  H4  1  0.00305000  0.70106000  0.14897000  1.0
  H  H5  1  0.99695000  0.29894000  0.85102000  1.0
  H  H6  1  0.14315000  0.35227000  0.44902000  1.0
  H  H7  1  0.85685000  0.64773000  0.55097000  1.0
  H  H8  1  0.03584000  0.78599000  0.30752000  1.0
  H  H9  1  0.96415000  0.21400000  0.69249000  1.0
  H  H10  1  0.22132000  0.90249000  0.35418000  1.0
  H  H11  1  0.77868000  0.09750000  0.64583000  1.0
  H  H12  1  0.59110000  0.55845000  0.38731000  1.0
  H  H13  1  0.40891000  0.44156000  0.61269000  1.0
  H  H14  1  0.40153000  0.43695000  0.34623000  1.0
  H  H15  1  0.59848000  0.56305000  0.65377000  1.0
  H  H16  1  0.00852000  0.66922000  0.97563000  1.0
  H  H17  1  0.99149000  0.33077000  0.02437000  1.0
  H  H18  1  0.88398000  0.79709000  0.78332000  1.0
  H  H19  1  0.11602000  0.20291000  0.21668000  1.0
  H  H20  1  0.44548000  0.68432000  0.92939000  1.0
  H  H21  1  0.55451000  0.31570000  0.07061000  1.0
  H  H22  1  0.56677000  0.56071000  0.12391000  1.0
  H  H23  1  0.43322000  0.43930000  0.87609000  1.0
  H  H24  1  0.09203000  0.86814000  0.88758000  1.0
  H  H25  1  0.90796000  0.13185000  0.11243000  1.0
  H  H26  1  0.45797000  0.03194000  0.87608000  1.0
  H  H27  1  0.54203000  0.96805000  0.12392000  1.0
  H  H28  1  0.32218000  0.12920000  0.94995000  1.0
  H  H29  1  0.67782000  0.87080000  0.05004000  1.0
  H  H30  1  0.29554000  0.14973000  0.79910000  1.0
  H  H31  1  0.70446000  0.85027000  0.20089000  1.0
  H  H32  1  0.17252000  0.81472000  0.06174000  1.0
  H  H33  1  0.82749000  0.18528000  0.93826000  1.0
  H  H34  1  0.20209000  0.95170000  0.10275000  1.0
  H  H35  1  0.79792000  0.04830000  0.89725000  1.0
  H  H36  1  0.36614000  0.83895000  0.06897000  1.0
  H  H37  1  0.63386000  0.16105000  0.93103000  1.0
  C  C38  1  0.93850000  0.20713000  0.42433000  1.0
  C  C39  1  0.06150000  0.79287000  0.57567000  1.0
  C  C40  1  0.95224000  0.34779000  0.35089000  1.0
  C  C41  1  0.04777000  0.65222000  0.64911000  1.0
  C  C42  1  0.85563000  0.41500000  0.25411000  1.0
  C  C43  1  0.14437000  0.58500000  0.74589000  1.0
  C  C44  1  0.87698000  0.54108000  0.17757000  1.0
  C  C45  1  0.12302000  0.45892000  0.82243000  1.0
  C  C46  1  0.99003000  0.60047000  0.20509000  1.0
  C  C47  1  0.00998000  0.39953000  0.79490000  1.0
  C  C48  1  0.08734000  0.53485000  0.30132000  1.0
  C  C49  1  0.91267000  0.46515000  0.69867000  1.0
  C  C50  1  0.06857000  0.40651000  0.37391000  1.0
  C  C51  1  0.93144000  0.59349000  0.62609000  1.0
  C  C52  1  0.20501000  0.60297000  0.32446000  1.0
  C  C53  1  0.79500000  0.39703000  0.67553000  1.0
  C  C54  1  0.15757000  0.73572000  0.32375000  1.0
  C  C55  1  0.84244000  0.26428000  0.67625000  1.0
  C  C56  1  0.26205000  0.80131000  0.35079000  1.0
  C  C57  1  0.73796000  0.19868000  0.64921000  1.0
  C  C58  1  0.41778000  0.73691000  0.37666000  1.0
  C  C59  1  0.58222000  0.26309000  0.62334000  1.0
  C  C60  1  0.46888000  0.60706000  0.37038000  1.0
  C  C61  1  0.53113000  0.39295000  0.62961000  1.0
  C  C62  1  0.36265000  0.53967000  0.34686000  1.0
  C  C63  1  0.63735000  0.46033000  0.65314000  1.0
  C  C64  1  0.52380000  0.80500000  0.41464000  1.0
  C  C65  1  0.47621000  0.19500000  0.58537000  1.0
  C  C66  1  0.79618000  0.60938000  0.06489000  1.0
  C  C67  1  0.20382000  0.39063000  0.93511000  1.0
  C  C68  1  0.88341000  0.67663000  0.96680000  1.0
  C  C69  1  0.11659000  0.32337000  0.03320000  1.0
  C  C70  1  0.81517000  0.74657000  0.85889000  1.0
  C  C71  1  0.18483000  0.25343000  0.14111000  1.0
  C  C72  1  0.65644000  0.75096000  0.84424000  1.0
  C  C73  1  0.34356000  0.24904000  0.15576000  1.0
  C  C74  1  0.56865000  0.68234000  0.94065000  1.0
  C  C75  1  0.43135000  0.31767000  0.05935000  1.0
  C  C76  1  0.63754000  0.61174000  0.04946000  1.0
  C  C77  1  0.36245000  0.38827000  0.95054000  1.0
  C  C78  1  0.58926000  0.82740000  0.72486000  1.0
  C  C79  1  0.41075000  0.17260000  0.27514000  1.0
  C  C80  1  0.15598000  0.95174000  0.84681000  1.0
  C  C81  1  0.84400000  0.04825000  0.15320000  1.0
  C  C82  1  0.33410000  0.07777000  0.88459000  1.0
  C  C83  1  0.66589000  0.92222000  0.11541000  1.0
  C  C84  1  0.24518000  0.89069000  0.04570000  1.0
  C  C85  1  0.75483000  0.10931000  0.95430000  1.0
  N  N86  1  0.23864000  0.97435000  0.92287000  1.0
  N  N87  1  0.76136000  0.02565000  0.07713000  1.0
  O  O88  1  0.04054000  0.13954000  0.50087000  1.0
  O  O89  1  0.95946000  0.86046000  0.49913000  1.0
  O  O90  1  0.82351000  0.16291000  0.40493000  1.0
  O  O91  1  0.17649000  0.83709000  0.59508000  1.0
  O  O92  1  0.67194000  0.77557000  0.40302000  1.0
  O  O93  1  0.32806000  0.22442000  0.59699000  1.0
  O  O94  1  0.46210000  0.89917000  0.45772000  1.0
  O  O95  1  0.53790000  0.10082000  0.54229000  1.0
  O  O96  1  0.68863000  0.84720000  0.63925000  1.0
  O  O97  1  0.31138000  0.15281000  0.36076000  1.0
  O  O98  1  0.44138000  0.86781000  0.71758000  1.0
  O  O99  1  0.55862000  0.13220000  0.28241000  1.0
  O  O100  1  0.14523000  0.01790000  0.73993000  1.0
  O  O101  1  0.85475000  0.98209000  0.26007000  1.0
