# generated using pymatgen
data_H8PbC7(N2Cl)2
_symmetry_space_group_name_H-M   'P 1'
_cell_length_a   8.96502000
_cell_length_b   8.96656000
_cell_length_c   14.52860455
_cell_angle_alpha   101.35566303
_cell_angle_beta   107.46238800
_cell_angle_gamma   101.21800000
_symmetry_Int_Tables_number   1
_chemical_formula_structural   H8PbC7(N2Cl)2
_chemical_formula_sum   'H32 Pb4 C28 N16 Cl8'
_cell_volume   1051.32396235
_cell_formula_units_Z   4
loop_
 _symmetry_equiv_pos_site_id
 _symmetry_equiv_pos_as_xyz
  1  'x, y, z'
loop_
 _atom_site_type_symbol
 _atom_site_label
 _atom_site_symmetry_multiplicity
 _atom_site_fract_x
 _atom_site_fract_y
 _atom_site_fract_z
 _atom_site_occupancy
  H  H0  1  0.95424000  0.03344000  0.21432000  1.0
  H  H1  1  0.31880000  0.73970000  0.28551000  1.0
  H  H2  1  0.04560000  0.96646000  0.78568000  1.0
  H  H3  1  0.68127000  0.26049000  0.71451000  1.0
  H  H4  1  0.79566000  0.81031000  0.28808000  1.0
  H  H5  1  0.02184000  0.50744000  0.21162000  1.0
  H  H6  1  0.20423000  0.18963000  0.71196000  1.0
  H  H7  1  0.97826000  0.49270000  0.78845000  1.0
  H  H8  1  0.28376000  0.00845000  0.48562000  1.0
  H  H9  1  0.02276000  0.79809000  0.01418000  1.0
  H  H10  1  0.71621000  0.99137000  0.51431000  1.0
  H  H11  1  0.97724000  0.20185000  0.98577000  1.0
  H  H12  1  0.88665000  0.76012000  0.46966000  1.0
  H  H13  1  0.79008000  0.41703000  0.03020000  1.0
  H  H14  1  0.11333000  0.23973000  0.53033000  1.0
  H  H15  1  0.20994000  0.58303000  0.96991000  1.0
  H  H16  1  0.10242000  0.82330000  0.53927000  1.0
  H  H17  1  0.78355000  0.56315000  0.96057000  1.0
  H  H18  1  0.89755000  0.17658000  0.46070000  1.0
  H  H19  1  0.21645000  0.43680000  0.03946000  1.0
  H  H20  1  0.76635000  0.49025000  0.35393000  1.0
  H  H21  1  0.63641000  0.41266000  0.14617000  1.0
  H  H22  1  0.23364000  0.50959000  0.64604000  1.0
  H  H23  1  0.36367000  0.58760000  0.85398000  1.0
  H  H24  1  0.89755000  0.24852000  0.29078000  1.0
  H  H25  1  0.45751000  0.60663000  0.20919000  1.0
  H  H26  1  0.10248000  0.75138000  0.70917000  1.0
  H  H27  1  0.54259000  0.39372000  0.79088000  1.0
  H  H28  1  0.27939000  0.65956000  0.46305000  1.0
  H  H29  1  0.69625000  0.81651000  0.03702000  1.0
  H  H30  1  0.72060000  0.34034000  0.53696000  1.0
  H  H31  1  0.30378000  0.18352000  0.96291000  1.0
  Pb  Pb32  1  0.36271000  0.30576000  0.36269000  1.0
  Pb  Pb33  1  0.44303000  0.00027000  0.13750000  1.0
  Pb  Pb34  1  0.63725000  0.69412000  0.63729000  1.0
  Pb  Pb35  1  0.55697000  0.99983000  0.86247000  1.0
  C  C36  1  0.99928000  0.99531000  0.28146000  1.0
  C  C37  1  0.21353000  0.71768000  0.21838000  1.0
  C  C38  1  0.00060000  0.00460000  0.71854000  1.0
  C  C39  1  0.78652000  0.28246000  0.78164000  1.0
  C  C40  1  0.91963000  0.88377000  0.31565000  1.0
  C  C41  1  0.06782000  0.60386000  0.18409000  1.0
  C  C42  1  0.08026000  0.11615000  0.68436000  1.0
  C  C43  1  0.93224000  0.39627000  0.81595000  1.0
  C  C44  1  0.17497000  0.98687000  0.42059000  1.0
  C  C45  1  0.06615000  0.75434000  0.07922000  1.0
  C  C46  1  0.82497000  0.01298000  0.57937000  1.0
  C  C47  1  0.93387000  0.24565000  0.92075000  1.0
  C  C48  1  0.00800000  0.77353000  0.46464000  1.0
  C  C49  1  0.80860000  0.54339000  0.03522000  1.0
  C  C50  1  0.99197000  0.22634000  0.53535000  1.0
  C  C51  1  0.19143000  0.45665000  0.96484000  1.0
  C  C52  1  0.89048000  0.48642000  0.36493000  1.0
  C  C53  1  0.62133000  0.52565000  0.13504000  1.0
  C  C54  1  0.10951000  0.51346000  0.63503000  1.0
  C  C55  1  0.37872000  0.47456000  0.86504000  1.0
  C  C56  1  0.95833000  0.36895000  0.33588000  1.0
  C  C57  1  0.53286000  0.62245000  0.16410000  1.0
  C  C58  1  0.04169000  0.63094000  0.66408000  1.0
  C  C59  1  0.46720000  0.37781000  0.83594000  1.0
  C  C60  1  0.15950000  0.57753000  0.42427000  1.0
  C  C61  1  0.65307000  0.73535000  0.07577000  1.0
  C  C62  1  0.84050000  0.42237000  0.57573000  1.0
  C  C63  1  0.34698000  0.26476000  0.92421000  1.0
  N  N64  1  0.15740000  0.05910000  0.34798000  1.0
  N  N65  1  0.21094000  0.80933000  0.15190000  1.0
  N  N66  1  0.84250000  0.94077000  0.65198000  1.0
  N  N67  1  0.78909000  0.19072000  0.84807000  1.0
  N  N68  1  0.03237000  0.88031000  0.40393000  1.0
  N  N69  1  0.97616000  0.62837000  0.09582000  1.0
  N  N70  1  0.96756000  0.11957000  0.59605000  1.0
  N  N71  1  0.02388000  0.37167000  0.90420000  1.0
  N  N72  1  0.01961000  0.61760000  0.42113000  1.0
  N  N73  1  0.69633000  0.59864000  0.07887000  1.0
  N  N74  1  0.98037000  0.38229000  0.57885000  1.0
  N  N75  1  0.30373000  0.40150000  0.92119000  1.0
  N  N76  1  0.12616000  0.42734000  0.37339000  1.0
  N  N77  1  0.55366000  0.75277000  0.12661000  1.0
  N  N78  1  0.87385000  0.57257000  0.62659000  1.0
  N  N79  1  0.44639000  0.24742000  0.87337000  1.0
  Cl  Cl80  1  0.23844000  0.22895000  0.14690000  1.0
  Cl  Cl81  1  0.58196000  0.09150000  0.35330000  1.0
  Cl  Cl82  1  0.76152000  0.77112000  0.85311000  1.0
  Cl  Cl83  1  0.41808000  0.90840000  0.64663000  1.0
  Cl  Cl84  1  0.43370000  0.34649000  0.57534000  1.0
  Cl  Cl85  1  0.27142000  0.85868000  0.92468000  1.0
  Cl  Cl86  1  0.56626000  0.65341000  0.42464000  1.0
  Cl  Cl87  1  0.72855000  0.14139000  0.07527000  1.0
