# generated using pymatgen
data_CdH12C15N3O7
_symmetry_space_group_name_H-M   'P 1'
_cell_length_a   8.18023000
_cell_length_b   10.26020000
_cell_length_c   11.39190000
_cell_angle_alpha   69.81600000
_cell_angle_beta   69.68310000
_cell_angle_gamma   68.41620000
_symmetry_Int_Tables_number   1
_chemical_formula_structural   CdH12C15N3O7
_chemical_formula_sum   'Cd2 H24 C30 N6 O14'
_cell_volume   807.47065532
_cell_formula_units_Z   2
loop_
 _symmetry_equiv_pos_site_id
 _symmetry_equiv_pos_as_xyz
  1  'x, y, z'
loop_
 _atom_site_type_symbol
 _atom_site_label
 _atom_site_symmetry_multiplicity
 _atom_site_fract_x
 _atom_site_fract_y
 _atom_site_fract_z
 _atom_site_occupancy
  Cd  Cd0  1  0.15511000  0.07996000  0.06210000  1.0
  Cd  Cd1  1  0.84489000  0.92004000  0.93790000  1.0
  H  H2  1  0.46888000  0.04908000  0.13552000  1.0
  H  H3  1  0.53112000  0.95092000  0.86449000  1.0
  H  H4  1  0.40508000  0.27565000  0.61959000  1.0
  H  H5  1  0.59492000  0.72434000  0.38041000  1.0
  H  H6  1  0.40205000  0.64688000  0.22693000  1.0
  H  H7  1  0.59795000  0.35312000  0.77307000  1.0
  H  H8  1  0.43857000  0.22165000  0.21768000  1.0
  H  H9  1  0.56144000  0.77835000  0.78232000  1.0
  H  H10  1  0.86317000  0.42181000  0.97307000  1.0
  H  H11  1  0.13683000  0.57819000  0.02693000  1.0
  H  H12  1  0.90078000  0.23817000  0.53626000  1.0
  H  H13  1  0.09922000  0.76183000  0.46374000  1.0
  H  H14  1  0.72943000  0.14920000  0.63098000  1.0
  H  H15  1  0.27057000  0.85079000  0.36902000  1.0
  H  H16  1  0.00571000  0.25130000  0.28531000  1.0
  H  H17  1  0.99429000  0.74870000  0.71469000  1.0
  H  H18  1  0.66726000  0.98697000  0.53876000  1.0
  H  H19  1  0.33274000  0.01303000  0.46123000  1.0
  H  H20  1  0.82776000  0.48819000  0.41337000  1.0
  H  H21  1  0.17223000  0.51180000  0.58663000  1.0
  H  H22  1  0.83080000  0.90296000  0.30622000  1.0
  H  H23  1  0.16919000  0.09705000  0.69378000  1.0
  H  H24  1  0.47094000  0.89286000  0.15825000  1.0
  H  H25  1  0.52906000  0.10714000  0.84175000  1.0
  C  C26  1  0.44723000  0.37366000  0.56569000  1.0
  C  C27  1  0.55276000  0.62634000  0.43431000  1.0
  C  C28  1  0.66407000  0.30641000  0.08976000  1.0
  C  C29  1  0.33593000  0.69359000  0.91024000  1.0
  C  C30  1  0.72204000  0.67212000  0.04442000  1.0
  C  C31  1  0.27797000  0.32788000  0.95558000  1.0
  C  C32  1  0.47849000  0.55140000  0.18998000  1.0
  C  C33  1  0.52151000  0.44860000  0.81002000  1.0
  C  C34  1  0.64504000  0.54552000  0.09792000  1.0
  C  C35  1  0.35497000  0.45448000  0.90208000  1.0
  C  C36  1  0.49963000  0.31003000  0.18407000  1.0
  C  C37  1  0.50037000  0.68998000  0.81593000  1.0
  C  C38  1  0.73626000  0.42367000  0.04768000  1.0
  C  C39  1  0.26374000  0.57633000  0.95232000  1.0
  C  C40  1  0.40903000  0.43326000  0.23107000  1.0
  C  C41  1  0.59097000  0.56675000  0.76893000  1.0
  C  C42  1  0.77504000  0.22153000  0.53766000  1.0
  C  C43  1  0.22495000  0.77847000  0.46234000  1.0
  C  C44  1  0.93603000  0.16822000  0.32071000  1.0
  C  C45  1  0.06397000  0.83178000  0.67929000  1.0
  C  C46  1  0.75798000  0.18273000  0.02682000  1.0
  C  C47  1  0.24202000  0.81727000  0.97318000  1.0
  C  C48  1  0.63229000  0.36533000  0.51647000  1.0
  C  C49  1  0.36771000  0.63467000  0.48353000  1.0
  C  C50  1  0.75838000  0.02971000  0.45049000  1.0
  C  C51  1  0.24162000  0.97029000  0.54951000  1.0
  C  C52  1  0.68405000  0.49288000  0.45058000  1.0
  C  C53  1  0.31595000  0.50711000  0.54942000  1.0
  C  C54  1  0.84061000  0.98908000  0.33569000  1.0
  C  C55  1  0.15939000  0.01092000  0.66431000  1.0
  N  N56  1  0.22779000  0.44222000  0.31980000  1.0
  N  N57  1  0.77221000  0.55778000  0.68020000  1.0
  N  N58  1  0.95112000  0.07636000  0.25590000  1.0
  N  N59  1  0.04889000  0.92364000  0.74410000  1.0
  N  N60  1  0.82092000  0.14287000  0.43907000  1.0
  N  N61  1  0.17908000  0.85713000  0.56093000  1.0
  O  O62  1  0.91831000  0.16980000  0.95542000  1.0
  O  O63  1  0.08169000  0.83020000  0.04458000  1.0
  O  O64  1  0.38608000  0.98627000  0.17698000  1.0
  O  O65  1  0.61392000  0.01374000  0.82302000  1.0
  O  O66  1  0.83999000  0.67981000  0.93689000  1.0
  O  O67  1  0.16002000  0.32019000  0.06311000  1.0
  O  O68  1  0.66531000  0.76874000  0.10785000  1.0
  O  O69  1  0.33469000  0.23126000  0.89215000  1.0
  O  O70  1  0.66771000  0.09492000  0.04599000  1.0
  O  O71  1  0.33229000  0.90508000  0.95401000  1.0
  O  O72  1  0.12562000  0.56383000  0.33053000  1.0
  O  O73  1  0.87438000  0.43617000  0.66947000  1.0
  O  O74  1  0.18557000  0.32720000  0.37765000  1.0
  O  O75  1  0.81443000  0.67280000  0.62235000  1.0
