# generated using pymatgen
data_BaH6(C2O3)2
_symmetry_space_group_name_H-M   'P 1'
_cell_length_a   7.16240000
_cell_length_b   9.95461000
_cell_length_c   10.04740000
_cell_angle_alpha   90.00000000
_cell_angle_beta   90.00060000
_cell_angle_gamma   89.99990000
_symmetry_Int_Tables_number   1
_chemical_formula_structural   BaH6(C2O3)2
_chemical_formula_sum   'Ba4 H24 C16 O24'
_cell_volume   716.36855440
_cell_formula_units_Z   4
loop_
 _symmetry_equiv_pos_site_id
 _symmetry_equiv_pos_as_xyz
  1  'x, y, z'
loop_
 _atom_site_type_symbol
 _atom_site_label
 _atom_site_symmetry_multiplicity
 _atom_site_fract_x
 _atom_site_fract_y
 _atom_site_fract_z
 _atom_site_occupancy
  Ba  Ba0  1  0.75071000  0.11787000  0.88926000  1.0
  Ba  Ba1  1  0.24929000  0.88213000  0.38927000  1.0
  Ba  Ba2  1  0.25071000  0.38213000  0.88927000  1.0
  Ba  Ba3  1  0.74929000  0.61787000  0.38926000  1.0
  H  H4  1  0.37490000  0.82392000  0.76772000  1.0
  H  H5  1  0.62510000  0.17609000  0.26771000  1.0
  H  H6  1  0.87491000  0.67608000  0.76773000  1.0
  H  H7  1  0.12510000  0.32391000  0.26772000  1.0
  H  H8  1  0.54303000  0.69250000  0.77184000  1.0
  H  H9  1  0.45696000  0.30751000  0.27184000  1.0
  H  H10  1  0.04304000  0.80750000  0.77184000  1.0
  H  H11  1  0.95696000  0.19249000  0.27184000  1.0
  H  H12  1  0.54194000  0.69198000  0.00513000  1.0
  H  H13  1  0.45808000  0.30802000  0.50512000  1.0
  H  H14  1  0.04193000  0.80803000  0.00512000  1.0
  H  H15  1  0.95806000  0.19197000  0.50512000  1.0
  H  H16  1  0.37380000  0.82353000  0.00905000  1.0
  H  H17  1  0.62622000  0.17647000  0.50906000  1.0
  H  H18  1  0.87380000  0.67647000  0.00905000  1.0
  H  H19  1  0.12619000  0.32353000  0.50905000  1.0
  H  H20  1  0.69527000  0.46401000  0.96607000  1.0
  H  H21  1  0.30474000  0.53599000  0.46607000  1.0
  H  H22  1  0.19526000  0.03599000  0.96608000  1.0
  H  H23  1  0.80473000  0.96401000  0.46607000  1.0
  H  H24  1  0.69225000  0.46452000  0.80506000  1.0
  H  H25  1  0.30775000  0.53549000  0.30506000  1.0
  H  H26  1  0.19225000  0.03549000  0.80506000  1.0
  H  H27  1  0.80775000  0.96452000  0.30505000  1.0
  C  C28  1  0.61315000  0.86108000  0.64679000  1.0
  C  C29  1  0.38684000  0.13892000  0.14679000  1.0
  C  C30  1  0.11316000  0.63891000  0.64679000  1.0
  C  C31  1  0.88684000  0.36109000  0.14679000  1.0
  C  C32  1  0.52595000  0.80253000  0.77162000  1.0
  C  C33  1  0.47406000  0.19746000  0.27161000  1.0
  C  C34  1  0.02595000  0.69746000  0.77161000  1.0
  C  C35  1  0.97405000  0.30253000  0.27161000  1.0
  C  C36  1  0.52485000  0.80205000  0.00567000  1.0
  C  C37  1  0.47516000  0.19796000  0.50568000  1.0
  C  C38  1  0.02485000  0.69796000  0.00567000  1.0
  C  C39  1  0.97515000  0.30204000  0.50567000  1.0
  C  C40  1  0.61107000  0.85978000  0.13125000  1.0
  C  C41  1  0.38895000  0.14023000  0.63125000  1.0
  C  C42  1  0.11107000  0.64023000  0.13125000  1.0
  C  C43  1  0.88894000  0.35977000  0.63125000  1.0
  O  O44  1  0.72608000  0.95843000  0.65390000  1.0
  O  O45  1  0.27390000  0.04159000  0.15390000  1.0
  O  O46  1  0.22609000  0.54157000  0.65390000  1.0
  O  O47  1  0.77390000  0.45842000  0.15390000  1.0
  O  O48  1  0.56053000  0.80496000  0.53872000  1.0
  O  O49  1  0.43947000  0.19503000  0.03871000  1.0
  O  O50  1  0.06053000  0.69503000  0.53872000  1.0
  O  O51  1  0.93948000  0.30497000  0.03871000  1.0
  O  O52  1  0.60529000  0.85982000  0.88895000  1.0
  O  O53  1  0.39473000  0.14018000  0.38895000  1.0
  O  O54  1  0.10529000  0.64018000  0.88895000  1.0
  O  O55  1  0.89470000  0.35981000  0.38895000  1.0
  O  O56  1  0.55752000  0.80313000  0.23869000  1.0
  O  O57  1  0.44248000  0.19688000  0.73868000  1.0
  O  O58  1  0.05751000  0.69688000  0.23869000  1.0
  O  O59  1  0.94248000  0.30312000  0.73868000  1.0
  O  O60  1  0.72439000  0.95711000  0.12506000  1.0
  O  O61  1  0.27560000  0.04290000  0.62507000  1.0
  O  O62  1  0.22439000  0.54290000  0.12508000  1.0
  O  O63  1  0.77558000  0.45710000  0.62507000  1.0
  O  O64  1  0.61519000  0.47339000  0.88652000  1.0
  O  O65  1  0.38481000  0.52660000  0.38652000  1.0
  O  O66  1  0.11519000  0.02661000  0.88652000  1.0
  O  O67  1  0.88481000  0.97340000  0.38652000  1.0
