# generated using pymatgen
data_DyCuH8C14(NO4)2
_symmetry_space_group_name_H-M   'P 1'
_cell_length_a   9.14179000
_cell_length_b   9.51903000
_cell_length_c   21.51000000
_cell_angle_alpha   90.00000000
_cell_angle_beta   90.00000000
_cell_angle_gamma   116.30200000
_symmetry_Int_Tables_number   1
_chemical_formula_structural   DyCuH8C14(NO4)2
_chemical_formula_sum   'Dy4 Cu4 H32 C56 N8 O32'
_cell_volume   1678.03329675
_cell_formula_units_Z   4
loop_
 _symmetry_equiv_pos_site_id
 _symmetry_equiv_pos_as_xyz
  1  'x, y, z'
loop_
 _atom_site_type_symbol
 _atom_site_label
 _atom_site_symmetry_multiplicity
 _atom_site_fract_x
 _atom_site_fract_y
 _atom_site_fract_z
 _atom_site_occupancy
  Dy  Dy0  1  0.87642000  0.64689000  0.00864000  1.0
  Dy  Dy1  1  0.62358000  0.35311000  0.50863000  1.0
  Dy  Dy2  1  0.12359000  0.35311000  0.99137000  1.0
  Dy  Dy3  1  0.37641000  0.64688000  0.49137000  1.0
  Cu  Cu4  1  0.54488000  0.69602000  0.14665000  1.0
  Cu  Cu5  1  0.95513000  0.30399000  0.64665000  1.0
  Cu  Cu6  1  0.45512000  0.30399000  0.85336000  1.0
  Cu  Cu7  1  0.04488000  0.69601000  0.35335000  1.0
  H  H8  1  0.27370000  0.03037000  0.93002000  1.0
  H  H9  1  0.22629000  0.96963000  0.43002000  1.0
  H  H10  1  0.72630000  0.96964000  0.06998000  1.0
  H  H11  1  0.77372000  0.03037000  0.56997000  1.0
  H  H12  1  0.56803000  0.77990000  0.93240000  1.0
  H  H13  1  0.93195000  0.22011000  0.43240000  1.0
  H  H14  1  0.43196000  0.22012000  0.06760000  1.0
  H  H15  1  0.06804000  0.77988000  0.56760000  1.0
  H  H16  1  0.99571000  0.66953000  0.22172000  1.0
  H  H17  1  0.50429000  0.33047000  0.72172000  1.0
  H  H18  1  0.00431000  0.33048000  0.77828000  1.0
  H  H19  1  0.49570000  0.66953000  0.27828000  1.0
  H  H20  1  0.15324000  0.25387000  0.27514000  1.0
  H  H21  1  0.34677000  0.74613000  0.77514000  1.0
  H  H22  1  0.84677000  0.74613000  0.72487000  1.0
  H  H23  1  0.65324000  0.25388000  0.22486000  1.0
  H  H24  1  0.10569000  0.29616000  0.16168000  1.0
  H  H25  1  0.39430000  0.70382000  0.66168000  1.0
  H  H26  1  0.89431000  0.70383000  0.83833000  1.0
  H  H27  1  0.60569000  0.29616000  0.33832000  1.0
  H  H28  1  0.77961000  0.00138000  0.87138000  1.0
  H  H29  1  0.72038000  0.99861000  0.37137000  1.0
  H  H30  1  0.22038000  0.99863000  0.12862000  1.0
  H  H31  1  0.27962000  0.00137000  0.62863000  1.0
  H  H32  1  0.71737000  0.21931000  0.83685000  1.0
  H  H33  1  0.78262000  0.78069000  0.33685000  1.0
  H  H34  1  0.28262000  0.78070000  0.16314000  1.0
  H  H35  1  0.21739000  0.21931000  0.66314000  1.0
  H  H36  1  0.13026000  0.43285000  0.35539000  1.0
  H  H37  1  0.36975000  0.56716000  0.85540000  1.0
  H  H38  1  0.86975000  0.56715000  0.64461000  1.0
  H  H39  1  0.63026000  0.43286000  0.14461000  1.0
  C  C40  1  0.98952000  0.99258000  0.96410000  1.0
  C  C41  1  0.51046000  0.00741000  0.46410000  1.0
  C  C42  1  0.01048000  0.00743000  0.03590000  1.0
  C  C43  1  0.48951000  0.99256000  0.53590000  1.0
  C  C44  1  0.27111000  0.75624000  0.97126000  1.0
  C  C45  1  0.22888000  0.24376000  0.47126000  1.0
  C  C46  1  0.72889000  0.24377000  0.02874000  1.0
  C  C47  1  0.77111000  0.75624000  0.52874000  1.0
  C  C48  1  0.01344000  0.51824000  0.11891000  1.0
  C  C49  1  0.48656000  0.48176000  0.61891000  1.0
  C  C50  1  0.98657000  0.48177000  0.88109000  1.0
  C  C51  1  0.51343000  0.51823000  0.38109000  1.0
  C  C52  1  0.40343000  0.88743000  0.93533000  1.0
  C  C53  1  0.09656000  0.11257000  0.43533000  1.0
  C  C54  1  0.59657000  0.11258000  0.06467000  1.0
  C  C55  1  0.90344000  0.88743000  0.56467000  1.0
  C  C56  1  0.38213000  0.01771000  0.91683000  1.0
  C  C57  1  0.11785000  0.98227000  0.41683000  1.0
  C  C58  1  0.61786000  0.98229000  0.08316000  1.0
  C  C59  1  0.88215000  0.01773000  0.58316000  1.0
  C  C60  1  0.54716000  0.87921000  0.91813000  1.0
  C  C61  1  0.95283000  0.12078000  0.41813000  1.0
  C  C62  1  0.45284000  0.12080000  0.08187000  1.0
  C  C63  1  0.04717000  0.87920000  0.58187000  1.0
  C  C64  1  0.03253000  0.57792000  0.23236000  1.0
  C  C65  1  0.46747000  0.42208000  0.73236000  1.0
  C  C66  1  0.96748000  0.42208000  0.76764000  1.0
  C  C67  1  0.53252000  0.57792000  0.26764000  1.0
  C  C68  1  0.11953000  0.34568000  0.26120000  1.0
  C  C69  1  0.38047000  0.65432000  0.76120000  1.0
  C  C70  1  0.88047000  0.65432000  0.73880000  1.0
  C  C71  1  0.61953000  0.34568000  0.23880000  1.0
  C  C72  1  0.09263000  0.36780000  0.19892000  1.0
  C  C73  1  0.40736000  0.63220000  0.69892000  1.0
  C  C74  1  0.90737000  0.63220000  0.80109000  1.0
  C  C75  1  0.59263000  0.36780000  0.30108000  1.0
  C  C76  1  0.66353000  0.00054000  0.88334000  1.0
  C  C77  1  0.83646000  0.99945000  0.38334000  1.0
  C  C78  1  0.33646000  0.99946000  0.11666000  1.0
  C  C79  1  0.16354000  0.00054000  0.61666000  1.0
  C  C80  1  0.63115000  0.12380000  0.86510000  1.0
  C  C81  1  0.86883000  0.87620000  0.36509000  1.0
  C  C82  1  0.36884000  0.87621000  0.13490000  1.0
  C  C83  1  0.13117000  0.12380000  0.63490000  1.0
  C  C84  1  0.04688000  0.48625000  0.18443000  1.0
  C  C85  1  0.45312000  0.51375000  0.68443000  1.0
  C  C86  1  0.95313000  0.51375000  0.81557000  1.0
  C  C87  1  0.54687000  0.48625000  0.31557000  1.0
  C  C88  1  0.10553000  0.44361000  0.30653000  1.0
  C  C89  1  0.39447000  0.55640000  0.80653000  1.0
  C  C90  1  0.89448000  0.55639000  0.69347000  1.0
  C  C91  1  0.60553000  0.44361000  0.19347000  1.0
  C  C92  1  0.49558000  0.52102000  0.03425000  1.0
  C  C93  1  0.00443000  0.47899000  0.53425000  1.0
  C  C94  1  0.50444000  0.47899000  0.96576000  1.0
  C  C95  1  0.99557000  0.52102000  0.46575000  1.0
  N  N96  1  0.49259000  0.13364000  0.88127000  1.0
  N  N97  1  0.00739000  0.86636000  0.38128000  1.0
  N  N98  1  0.50740000  0.86638000  0.11872000  1.0
  N  N99  1  0.99262000  0.13364000  0.61872000  1.0
  N  N100  1  0.06350000  0.55965000  0.29248000  1.0
  N  N101  1  0.43650000  0.44035000  0.79248000  1.0
  N  N102  1  0.93651000  0.44036000  0.70752000  1.0
  N  N103  1  0.56350000  0.55965000  0.20752000  1.0
  O  O104  1  0.16321000  0.78482000  0.99774000  1.0
  O  O105  1  0.33678000  0.21519000  0.49773000  1.0
  O  O106  1  0.83679000  0.21518000  0.00227000  1.0
  O  O107  1  0.66321000  0.78483000  0.50227000  1.0
  O  O108  1  0.62908000  0.61941000  0.05891000  1.0
  O  O109  1  0.87092000  0.38059000  0.55891000  1.0
  O  O110  1  0.37093000  0.38059000  0.94109000  1.0
  O  O111  1  0.12908000  0.61942000  0.44109000  1.0
  O  O112  1  0.91096000  0.85534000  0.94220000  1.0
  O  O113  1  0.58903000  0.14465000  0.44220000  1.0
  O  O114  1  0.08905000  0.14467000  0.05780000  1.0
  O  O115  1  0.41095000  0.85532000  0.55781000  1.0
  O  O116  1  0.94711000  0.60916000  0.11115000  1.0
  O  O117  1  0.55290000  0.39085000  0.61115000  1.0
  O  O118  1  0.05291000  0.39084000  0.88885000  1.0
  O  O119  1  0.44710000  0.60915000  0.38885000  1.0
  O  O120  1  0.05320000  0.45259000  0.07542000  1.0
  O  O121  1  0.44680000  0.54740000  0.57542000  1.0
  O  O122  1  0.94681000  0.54741000  0.92458000  1.0
  O  O123  1  0.55319000  0.45259000  0.42458000  1.0
  O  O124  1  0.27807000  0.62599000  0.97065000  1.0
  O  O125  1  0.22191000  0.37401000  0.47064000  1.0
  O  O126  1  0.72194000  0.37402000  0.02935000  1.0
  O  O127  1  0.77807000  0.62599000  0.52935000  1.0
  O  O128  1  0.05273000  0.11834000  0.93324000  1.0
  O  O129  1  0.44727000  0.88165000  0.43324000  1.0
  O  O130  1  0.94728000  0.88166000  0.06677000  1.0
  O  O131  1  0.55271000  0.11833000  0.56676000  1.0
  O  O132  1  0.35960000  0.45753000  0.06116000  1.0
  O  O133  1  0.14041000  0.54247000  0.56116000  1.0
  O  O134  1  0.64041000  0.54247000  0.93884000  1.0
  O  O135  1  0.85960000  0.45754000  0.43884000  1.0
