# generated using pymatgen
data_AlH17(C8O3)2
_symmetry_space_group_name_H-M   'P 1'
_cell_length_a   6.73383000
_cell_length_b   20.64850000
_cell_length_c   23.50120000
_cell_angle_alpha   90.00010000
_cell_angle_beta   89.99940000
_cell_angle_gamma   89.99980000
_symmetry_Int_Tables_number   1
_chemical_formula_structural   AlH17(C8O3)2
_chemical_formula_sum   'Al4 H68 C64 O24'
_cell_volume   3267.68883772
_cell_formula_units_Z   4
loop_
 _symmetry_equiv_pos_site_id
 _symmetry_equiv_pos_as_xyz
  1  'x, y, z'
loop_
 _atom_site_type_symbol
 _atom_site_label
 _atom_site_symmetry_multiplicity
 _atom_site_fract_x
 _atom_site_fract_y
 _atom_site_fract_z
 _atom_site_occupancy
  Al  Al0  1  0.96138000  0.74999000  0.50038000  1.0
  Al  Al1  1  0.53863000  0.25001000  0.00038000  1.0
  Al  Al2  1  0.46138000  0.75001000  0.49963000  1.0
  Al  Al3  1  0.03862000  0.24999000  0.99962000  1.0
  H  H4  1  0.06935000  0.48786000  0.80500000  1.0
  H  H5  1  0.43064000  0.51214000  0.30501000  1.0
  H  H6  1  0.56936000  0.01214000  0.19499000  1.0
  H  H7  1  0.93064000  0.98786000  0.69500000  1.0
  H  H8  1  0.98780000  0.57967000  0.75363000  1.0
  H  H9  1  0.51219000  0.42033000  0.25364000  1.0
  H  H10  1  0.48780000  0.92033000  0.24637000  1.0
  H  H11  1  0.01220000  0.07967000  0.74637000  1.0
  H  H12  1  0.46009000  0.56971000  0.75215000  1.0
  H  H13  1  0.03991000  0.43029000  0.25215000  1.0
  H  H14  1  0.96009000  0.93029000  0.24785000  1.0
  H  H15  1  0.53991000  0.06971000  0.74785000  1.0
  H  H16  1  0.66803000  0.61479000  0.77449000  1.0
  H  H17  1  0.83197000  0.38521000  0.27450000  1.0
  H  H18  1  0.16803000  0.88520000  0.22551000  1.0
  H  H19  1  0.33198000  0.11479000  0.72551000  1.0
  H  H20  1  0.73937000  0.53961000  0.84653000  1.0
  H  H21  1  0.76063000  0.46039000  0.34653000  1.0
  H  H22  1  0.23937000  0.96039000  0.15347000  1.0
  H  H23  1  0.26062000  0.03961000  0.65347000  1.0
  H  H24  1  0.51056000  0.50208000  0.83083000  1.0
  H  H25  1  0.98944000  0.49792000  0.33083000  1.0
  H  H26  1  0.01056000  0.99792000  0.16917000  1.0
  H  H27  1  0.48944000  0.00208000  0.66917000  1.0
  H  H28  1  0.73638000  0.45685000  0.65577000  1.0
  H  H29  1  0.76361000  0.54315000  0.15577000  1.0
  H  H30  1  0.23638000  0.04315000  0.34423000  1.0
  H  H31  1  0.26361000  0.95685000  0.84423000  1.0
  H  H32  1  0.49836000  0.48443000  0.67323000  1.0
  H  H33  1  0.00164000  0.51557000  0.17323000  1.0
  H  H34  1  0.99836000  0.01557000  0.32677000  1.0
  H  H35  1  0.50164000  0.98443000  0.82677000  1.0
  H  H36  1  0.04174000  0.43519000  0.74700000  1.0
  H  H37  1  0.45825000  0.56481000  0.24700000  1.0
  H  H38  1  0.54175000  0.06480000  0.25300000  1.0
  H  H39  1  0.95825000  0.93519000  0.75300000  1.0
  H  H40  1  0.49081000  0.42013000  0.75526000  1.0
  H  H41  1  0.00918000  0.57987000  0.25526000  1.0
  H  H42  1  0.99082000  0.07987000  0.24474000  1.0
  H  H43  1  0.50918000  0.92013000  0.74474000  1.0
  H  H44  1  0.08764000  0.43465000  0.65143000  1.0
  H  H45  1  0.97034000  0.49238000  0.60616000  1.0
  H  H46  1  0.23169000  0.48563000  0.60735000  1.0
  H  H47  1  0.11330000  0.58371000  0.66036000  1.0
  H  H48  1  0.25742000  0.53118000  0.70189000  1.0
  H  H49  1  0.41235000  0.56535000  0.15143000  1.0
  H  H50  1  0.52966000  0.50762000  0.10617000  1.0
  H  H51  1  0.26830000  0.51437000  0.10735000  1.0
  H  H52  1  0.38670000  0.41629000  0.16036000  1.0
  H  H53  1  0.24258000  0.46882000  0.20190000  1.0
  H  H54  1  0.58764000  0.06535000  0.34857000  1.0
  H  H55  1  0.47033000  0.00762000  0.39383000  1.0
  H  H56  1  0.73168000  0.01437000  0.39265000  1.0
  H  H57  1  0.61330000  0.91629000  0.33964000  1.0
  H  H58  1  0.75742000  0.96882000  0.29811000  1.0
  H  H59  1  0.91236000  0.93466000  0.84857000  1.0
  H  H60  1  0.02967000  0.99238000  0.89384000  1.0
  H  H61  1  0.76832000  0.98563000  0.89265000  1.0
  H  H62  1  0.88670000  0.08371000  0.83964000  1.0
  H  H63  1  0.74258000  0.03118000  0.79811000  1.0
  H  H64  1  0.84092000  0.36924000  0.70677000  1.0
  H  H65  1  0.65908000  0.63076000  0.20677000  1.0
  H  H66  1  0.34092000  0.13076000  0.29323000  1.0
  H  H67  1  0.15908000  0.86924000  0.79323000  1.0
  H  H68  1  0.21156000  0.66539000  0.49158000  1.0
  H  H69  1  0.28845000  0.33461000  0.99159000  1.0
  H  H70  1  0.71156000  0.83462000  0.50841000  1.0
  H  H71  1  0.78846000  0.16539000  0.00842000  1.0
  C  C72  1  0.21227000  0.82750000  0.57678000  1.0
  C  C73  1  0.28773000  0.17250000  0.07677000  1.0
  C  C74  1  0.71229000  0.67250000  0.42323000  1.0
  C  C75  1  0.78773000  0.32751000  0.92323000  1.0
  C  C76  1  0.21009000  0.82716000  0.42276000  1.0
  C  C77  1  0.28990000  0.17285000  0.92276000  1.0
  C  C78  1  0.71014000  0.67284000  0.57724000  1.0
  C  C79  1  0.78988000  0.32716000  0.07724000  1.0
  C  C80  1  0.95652000  0.53582000  0.72841000  1.0
  C  C81  1  0.54348000  0.46418000  0.22841000  1.0
  C  C82  1  0.45652000  0.96418000  0.27159000  1.0
  C  C83  1  0.04349000  0.03582000  0.77160000  1.0
  C  C84  1  0.61834000  0.56591000  0.76277000  1.0
  C  C85  1  0.88166000  0.43409000  0.26277000  1.0
  C  C86  1  0.11834000  0.93408000  0.23723000  1.0
  C  C87  1  0.38166000  0.06592000  0.73723000  1.0
  C  C88  1  0.65229000  0.51761000  0.81205000  1.0
  C  C89  1  0.84770000  0.48240000  0.31205000  1.0
  C  C90  1  0.15230000  0.98239000  0.18795000  1.0
  C  C91  1  0.34770000  0.01761000  0.68795000  1.0
  C  C92  1  0.78499000  0.37220000  0.87624000  1.0
  C  C93  1  0.71501000  0.62780000  0.37623000  1.0
  C  C94  1  0.28499000  0.12780000  0.12376000  1.0
  C  C95  1  0.21501000  0.87220000  0.62376000  1.0
  C  C96  1  0.73515000  0.54325000  0.70949000  1.0
  C  C97  1  0.76485000  0.45674000  0.20949000  1.0
  C  C98  1  0.23515000  0.95674000  0.29051000  1.0
  C  C99  1  0.26485000  0.04326000  0.79051000  1.0
  C  C100  1  0.97241000  0.47682000  0.76865000  1.0
  C  C101  1  0.52758000  0.52318000  0.26865000  1.0
  C  C102  1  0.47242000  0.02317000  0.23135000  1.0
  C  C103  1  0.02758000  0.97683000  0.73135000  1.0
  C  C104  1  0.76510000  0.45658000  0.79075000  1.0
  C  C105  1  0.73490000  0.54342000  0.29074000  1.0
  C  C106  1  0.26510000  0.04342000  0.20925000  1.0
  C  C107  1  0.23490000  0.95659000  0.70926000  1.0
  C  C108  1  0.64352000  0.42809000  0.74011000  1.0
  C  C109  1  0.85648000  0.57191000  0.24011000  1.0
  C  C110  1  0.14353000  0.07191000  0.25989000  1.0
  C  C111  1  0.35647000  0.92809000  0.75989000  1.0
  C  C112  1  0.64775000  0.47715000  0.69056000  1.0
  C  C113  1  0.85225000  0.52285000  0.19056000  1.0
  C  C114  1  0.14775000  0.02284000  0.30944000  1.0
  C  C115  1  0.35225000  0.97716000  0.80944000  1.0
  C  C116  1  0.77825000  0.40986000  0.83659000  1.0
  C  C117  1  0.72175000  0.59015000  0.33659000  1.0
  C  C118  1  0.27825000  0.09014000  0.16341000  1.0
  C  C119  1  0.22175000  0.90986000  0.66341000  1.0
  C  C120  1  0.71716000  0.58999000  0.66373000  1.0
  C  C121  1  0.78283000  0.41000000  0.16373000  1.0
  C  C122  1  0.21716000  0.91000000  0.33627000  1.0
  C  C123  1  0.28285000  0.09000000  0.83627000  1.0
  C  C124  1  0.71039000  0.62835000  0.62457000  1.0
  C  C125  1  0.78963000  0.37164000  0.12458000  1.0
  C  C126  1  0.21037000  0.87165000  0.37542000  1.0
  C  C127  1  0.28963000  0.12835000  0.87542000  1.0
  C  C128  1  0.11252000  0.53576000  0.68069000  1.0
  C  C129  1  0.09820000  0.48417000  0.63425000  1.0
  C  C130  1  0.38748000  0.46424000  0.18069000  1.0
  C  C131  1  0.40179000  0.51583000  0.13425000  1.0
  C  C132  1  0.61251000  0.96424000  0.31931000  1.0
  C  C133  1  0.59819000  0.01583000  0.36575000  1.0
  C  C134  1  0.88749000  0.03576000  0.81931000  1.0
  C  C135  1  0.90180000  0.98417000  0.86575000  1.0
  O  O136  1  0.38029000  0.81004000  0.44113000  1.0
  O  O137  1  0.11973000  0.18997000  0.94113000  1.0
  O  O138  1  0.88029000  0.68998000  0.55888000  1.0
  O  O139  1  0.61972000  0.31003000  0.05888000  1.0
  O  O140  1  0.04237000  0.81000000  0.55847000  1.0
  O  O141  1  0.45762000  0.19000000  0.05847000  1.0
  O  O142  1  0.54238000  0.69001000  0.44152000  1.0
  O  O143  1  0.95763000  0.31000000  0.94152000  1.0
  O  O144  1  0.04111000  0.81041000  0.44206000  1.0
  O  O145  1  0.45891000  0.18958000  0.94206000  1.0
  O  O146  1  0.54112000  0.68957000  0.55793000  1.0
  O  O147  1  0.95890000  0.31043000  0.05793000  1.0
  O  O148  1  0.88102000  0.68960000  0.44267000  1.0
  O  O149  1  0.61898000  0.31040000  0.94267000  1.0
  O  O150  1  0.38103000  0.81040000  0.55733000  1.0
  O  O151  1  0.11896000  0.18960000  0.05733000  1.0
  O  O152  1  0.21140000  0.71131000  0.49993000  1.0
  O  O153  1  0.28861000  0.28869000  0.99993000  1.0
  O  O154  1  0.71140000  0.78869000  0.50007000  1.0
  O  O155  1  0.78860000  0.21131000  0.00007000  1.0
  O  O156  1  0.70801000  0.36529000  0.72283000  1.0
  O  O157  1  0.79199000  0.63471000  0.22283000  1.0
  O  O158  1  0.20801000  0.13471000  0.27717000  1.0
  O  O159  1  0.29199000  0.86529000  0.77717000  1.0
