# generated using pymatgen
data_NiMo6H20C16(N3O11)2
_symmetry_space_group_name_H-M   'P 1'
_cell_length_a   7.64066000
_cell_length_b   10.04380000
_cell_length_c   10.19530000
_cell_angle_alpha   105.78300000
_cell_angle_beta   92.34490000
_cell_angle_gamma   98.95140000
_symmetry_Int_Tables_number   1
_chemical_formula_structural   NiMo6H20C16(N3O11)2
_chemical_formula_sum   'Ni1 Mo6 H20 C16 N6 O22'
_cell_volume   740.87611722
_cell_formula_units_Z   1
loop_
 _symmetry_equiv_pos_site_id
 _symmetry_equiv_pos_as_xyz
  1  'x, y, z'
loop_
 _atom_site_type_symbol
 _atom_site_label
 _atom_site_symmetry_multiplicity
 _atom_site_fract_x
 _atom_site_fract_y
 _atom_site_fract_z
 _atom_site_occupancy
  Ni  Ni0  1  0.00000000  0.00000000  0.00000000  1.0
  Mo  Mo1  1  0.30419000  0.19353000  0.64126000  1.0
  Mo  Mo2  1  0.69581000  0.80648000  0.35874000  1.0
  Mo  Mo3  1  0.99549000  0.09512000  0.37943000  1.0
  Mo  Mo4  1  0.00451000  0.90488000  0.62056000  1.0
  Mo  Mo5  1  0.50594000  0.92431000  0.64313000  1.0
  Mo  Mo6  1  0.49406000  0.07569000  0.35687000  1.0
  H  H7  1  0.06922000  0.82448000  0.18899000  1.0
  H  H8  1  0.93078000  0.17552000  0.81101000  1.0
  H  H9  1  0.34240000  0.39409000  0.42873000  1.0
  H  H10  1  0.65760000  0.60591000  0.57127000  1.0
  H  H11  1  0.29952000  0.13723000  0.94015000  1.0
  H  H12  1  0.70048000  0.86277000  0.05985000  1.0
  H  H13  1  0.34633000  0.05854000  0.05358000  1.0
  H  H14  1  0.65367000  0.94146000  0.94642000  1.0
  H  H15  1  0.15651000  0.74639000  0.78502000  1.0
  H  H16  1  0.84348000  0.25361000  0.21498000  1.0
  H  H17  1  0.26802000  0.53526000  0.86853000  1.0
  H  H18  1  0.73198000  0.46474000  0.13147000  1.0
  H  H19  1  0.17554000  0.57047000  0.49763000  1.0
  H  H20  1  0.82446000  0.42954000  0.50237000  1.0
  H  H21  1  0.09128000  0.70007000  0.33628000  1.0
  H  H22  1  0.90872000  0.29994000  0.66372000  1.0
  H  H23  1  0.35367000  0.42696000  0.02808000  1.0
  H  H24  1  0.64633000  0.57303000  0.97192000  1.0
  H  H25  1  0.43709000  0.31656000  0.20837000  1.0
  H  H26  1  0.56291000  0.68343000  0.79163000  1.0
  C  C27  1  0.15605000  0.73029000  0.88563000  1.0
  C  C28  1  0.84395000  0.26970000  0.11437000  1.0
  C  C29  1  0.21324000  0.62283000  0.92984000  1.0
  C  C30  1  0.78676000  0.37717000  0.07016000  1.0
  C  C31  1  0.18076000  0.65036000  0.06807000  1.0
  C  C32  1  0.81924000  0.34964000  0.93192000  1.0
  C  C33  1  0.21277000  0.54558000  0.39340000  1.0
  C  C34  1  0.78723000  0.45442000  0.60660000  1.0
  C  C35  1  0.16693000  0.61554000  0.30147000  1.0
  C  C36  1  0.83307000  0.38446000  0.69853000  1.0
  C  C37  1  0.21951000  0.57719000  0.16762000  1.0
  C  C38  1  0.78049000  0.42281000  0.83237000  1.0
  C  C39  1  0.31515000  0.46545000  0.13141000  1.0
  C  C40  1  0.68485000  0.53455000  0.86860000  1.0
  C  C41  1  0.36068000  0.40114000  0.22826000  1.0
  C  C42  1  0.63932000  0.59886000  0.77175000  1.0
  N  N43  1  0.10597000  0.76849000  0.09787000  1.0
  N  N44  1  0.89403000  0.23151000  0.90213000  1.0
  N  N45  1  0.09157000  0.81868000  0.98914000  1.0
  N  N46  1  0.90842000  0.18132000  0.01086000  1.0
  N  N47  1  0.31003000  0.44280000  0.35586000  1.0
  N  N48  1  0.68997000  0.55719000  0.64414000  1.0
  O  O49  1  0.25893000  0.08881000  0.40828000  1.0
  O  O50  1  0.74107000  0.91119000  0.59172000  1.0
  O  O51  1  0.04693000  0.12586000  0.59554000  1.0
  O  O52  1  0.95307000  0.87414000  0.40446000  1.0
  O  O53  1  0.25396000  0.95859000  0.62018000  1.0
  O  O54  1  0.74604000  0.04141000  0.37982000  1.0
  O  O55  1  0.51893000  0.12601000  0.59507000  1.0
  O  O56  1  0.48107000  0.87400000  0.40493000  1.0
  O  O57  1  0.31585000  0.23432000  0.81865000  1.0
  O  O58  1  0.68415000  0.76568000  0.18135000  1.0
  O  O59  1  0.33276000  0.35337000  0.60385000  1.0
  O  O60  1  0.66724000  0.64663000  0.39615000  1.0
  O  O61  1  0.01059000  0.03031000  0.20262000  1.0
  O  O62  1  0.98941000  0.96969000  0.79738000  1.0
  O  O63  1  0.00006000  0.27127000  0.40472000  1.0
  O  O64  1  0.99994000  0.72873000  0.59528000  1.0
  O  O65  1  0.54882000  0.00180000  0.81733000  1.0
  O  O66  1  0.45118000  0.99820000  0.18266000  1.0
  O  O67  1  0.42625000  0.75056000  0.62944000  1.0
  O  O68  1  0.57375000  0.24944000  0.37056000  1.0
  O  O69  1  0.26021000  0.10957000  0.02203000  1.0
  O  O70  1  0.73979000  0.89043000  0.97797000  1.0
