# generated using pymatgen
data_BaH15C8NO12
_symmetry_space_group_name_H-M   'P 1'
_cell_length_a   7.00987000
_cell_length_b   11.04720000
_cell_length_c   11.10499285
_cell_angle_alpha   116.53829478
_cell_angle_beta   103.58439504
_cell_angle_gamma   99.23970000
_symmetry_Int_Tables_number   1
_chemical_formula_structural   BaH15C8NO12
_chemical_formula_sum   'Ba2 H30 C16 N2 O24'
_cell_volume   712.12361270
_cell_formula_units_Z   2
loop_
 _symmetry_equiv_pos_site_id
 _symmetry_equiv_pos_as_xyz
  1  'x, y, z'
loop_
 _atom_site_type_symbol
 _atom_site_label
 _atom_site_symmetry_multiplicity
 _atom_site_fract_x
 _atom_site_fract_y
 _atom_site_fract_z
 _atom_site_occupancy
  Ba  Ba0  1  0.49716000  0.77076000  0.32715000  1.0
  Ba  Ba1  1  0.66985000  0.44352000  0.67290000  1.0
  H  H2  1  0.35445000  0.08414000  0.54307000  1.0
  H  H3  1  0.31202000  0.54122000  0.45706000  1.0
  H  H4  1  0.32971000  0.95788000  0.57154000  1.0
  H  H5  1  0.25844000  0.38658000  0.42874000  1.0
  H  H6  1  0.23118000  0.85584000  0.15791000  1.0
  H  H7  1  0.57300000  0.69795000  0.84217000  1.0
  H  H8  1  0.12210000  0.69446000  0.03037000  1.0
  H  H9  1  0.59179000  0.66435000  0.96989000  1.0
  H  H10  1  0.87891000  0.75603000  0.14612000  1.0
  H  H11  1  0.23251000  0.60966000  0.85394000  1.0
  H  H12  1  0.75584000  0.61279000  0.11950000  1.0
  H  H13  1  0.13584000  0.49297000  0.88041000  1.0
  H  H14  1  0.73833000  0.53665000  0.27540000  1.0
  H  H15  1  0.96265000  0.26093000  0.72467000  1.0
  H  H16  1  0.77461000  0.56868000  0.43281000  1.0
  H  H17  1  0.84196000  0.13569000  0.56720000  1.0
  H  H18  1  0.10633000  0.67944000  0.43119000  1.0
  H  H19  1  0.17506000  0.24836000  0.56866000  1.0
  H  H20  1  0.06069000  0.56349000  0.27209000  1.0
  H  H21  1  0.28806000  0.29122000  0.72768000  1.0
  H  H22  1  0.98361000  0.97141000  0.42519000  1.0
  H  H23  1  0.05782000  0.54667000  0.57495000  1.0
  H  H24  1  0.95801000  0.93169000  0.53992000  1.0
  H  H25  1  0.91841000  0.39207000  0.45999000  1.0
  H  H26  1  0.17648000  0.10534000  0.77004000  1.0
  H  H27  1  0.90704000  0.33573000  0.22999000  1.0
  H  H28  1  0.36747000  0.89020000  0.99833000  1.0
  H  H29  1  0.86908000  0.89213000  0.00169000  1.0
  H  H30  1  0.41660000  0.33378000  0.23133000  1.0
  H  H31  1  0.68459000  0.10243000  0.76863000  1.0
  C  C32  1  0.29447000  0.23359000  0.00058000  1.0
  C  C33  1  0.79386000  0.23319000  0.99939000  1.0
  C  C34  1  0.23855000  0.10733000  0.87040000  1.0
  C  C35  1  0.86853000  0.23729000  0.12962000  1.0
  C  C36  1  0.26507000  0.98570000  0.87226000  1.0
  C  C37  1  0.89313000  0.11382000  0.12774000  1.0
  C  C38  1  0.34499000  0.98592000  0.99989000  1.0
  C  C39  1  0.84504000  0.98628000  0.00010000  1.0
  C  C40  1  0.39747000  0.11145000  0.13014000  1.0
  C  C41  1  0.76684000  0.98140000  0.86981000  1.0
  C  C42  1  0.37287000  0.23484000  0.12960000  1.0
  C  C43  1  0.74284000  0.10532000  0.87036000  1.0
  C  C44  1  0.26750000  0.36688000  0.00047000  1.0
  C  C45  1  0.76680000  0.36646000  0.99936000  1.0
  C  C46  1  0.47733000  0.11158000  0.27071000  1.0
  C  C47  1  0.70566000  0.84086000  0.72922000  1.0
  N  N48  1  0.20821000  0.85393000  0.73755000  1.0
  N  N49  1  0.97116000  0.11683000  0.26248000  1.0
  O  O50  1  0.31399000  0.47872000  0.11792000  1.0
  O  O51  1  0.69458000  0.36053000  0.88188000  1.0
  O  O52  1  0.34310000  0.98200000  0.49889000  1.0
  O  O53  1  0.34474000  0.48326000  0.50123000  1.0
  O  O54  1  0.13587000  0.76467000  0.13126000  1.0
  O  O55  1  0.50445000  0.63361000  0.86910000  1.0
  O  O56  1  0.73783000  0.70652000  0.13325000  1.0
  O  O57  1  0.10422000  0.57302000  0.86676000  1.0
  O  O58  1  0.72739000  0.60351000  0.36705000  1.0
  O  O59  1  0.86025000  0.23622000  0.63308000  1.0
  O  O60  1  0.17292000  0.62394000  0.36683000  1.0
  O  O61  1  0.30584000  0.25717000  0.63296000  1.0
  O  O62  1  0.89179000  0.96532000  0.47807000  1.0
  O  O63  1  0.91343000  0.48740000  0.52187000  1.0
  O  O64  1  0.19505000  0.35385000  0.87586000  1.0
  O  O65  1  0.81984000  0.47825000  0.12394000  1.0
  O  O66  1  0.51984000  0.22762000  0.38528000  1.0
  O  O67  1  0.63293000  0.84225000  0.61470000  1.0
  O  O68  1  0.49163000  0.99333000  0.25821000  1.0
  O  O69  1  0.73271000  0.73515000  0.74168000  1.0
  O  O70  1  0.23773000  0.74750000  0.73969000  1.0
  O  O71  1  0.99839000  0.00816000  0.26015000  1.0
  O  O72  1  0.13266000  0.85243000  0.62223000  1.0
  O  O73  1  0.01109000  0.23064000  0.37791000  1.0
