# generated using pymatgen
data_GdH10C9S3N3O8
_symmetry_space_group_name_H-M   'P 1'
_cell_length_a   8.51954000
_cell_length_b   8.69349000
_cell_length_c   11.35940000
_cell_angle_alpha   104.87900000
_cell_angle_beta   96.72390000
_cell_angle_gamma   94.47510000
_symmetry_Int_Tables_number   1
_chemical_formula_structural   GdH10C9S3N3O8
_chemical_formula_sum   'Gd2 H20 C18 S6 N6 O16'
_cell_volume   802.38948582
_cell_formula_units_Z   2
loop_
 _symmetry_equiv_pos_site_id
 _symmetry_equiv_pos_as_xyz
  1  'x, y, z'
loop_
 _atom_site_type_symbol
 _atom_site_label
 _atom_site_symmetry_multiplicity
 _atom_site_fract_x
 _atom_site_fract_y
 _atom_site_fract_z
 _atom_site_occupancy
  Gd  Gd0  1  0.95674000  0.83633000  0.58748000  1.0
  Gd  Gd1  1  0.04326000  0.16366000  0.41252000  1.0
  H  H2  1  0.13317000  0.27763000  0.06334000  1.0
  H  H3  1  0.86681000  0.72238000  0.93666000  1.0
  H  H4  1  0.09469000  0.07105000  0.98272000  1.0
  H  H5  1  0.90531000  0.92896000  0.01728000  1.0
  H  H6  1  0.51895000  0.91780000  0.22592000  1.0
  H  H7  1  0.48105000  0.08220000  0.77408000  1.0
  H  H8  1  0.44427000  0.01215000  0.36145000  1.0
  H  H9  1  0.55574000  0.98786000  0.63855000  1.0
  H  H10  1  0.06756000  0.74241000  0.15948000  1.0
  H  H11  1  0.93244000  0.25759000  0.84050000  1.0
  H  H12  1  0.87041000  0.79516000  0.16750000  1.0
  H  H13  1  0.12959000  0.20484000  0.83249000  1.0
  H  H14  1  0.80014000  0.49136000  0.54419000  1.0
  H  H15  1  0.19985000  0.50864000  0.45580000  1.0
  H  H16  1  0.73841000  0.58804000  0.66830000  1.0
  H  H17  1  0.26160000  0.41196000  0.33170000  1.0
  H  H18  1  0.13000000  0.55521000  0.63835000  1.0
  H  H19  1  0.87001000  0.44478000  0.36163000  1.0
  H  H20  1  0.24440000  0.72058000  0.65729000  1.0
  H  H21  1  0.75561000  0.27941000  0.34270000  1.0
  C  C22  1  0.16413000  0.15728000  0.06358000  1.0
  C  C23  1  0.83587000  0.84273000  0.93642000  1.0
  C  C24  1  0.51215000  0.91399000  0.32096000  1.0
  C  C25  1  0.48785000  0.08602000  0.67905000  1.0
  C  C26  1  0.11936000  0.12182000  0.17948000  1.0
  C  C27  1  0.88064000  0.87818000  0.82052000  1.0
  C  C28  1  0.67972000  0.94354000  0.39215000  1.0
  C  C29  1  0.32031000  0.05647000  0.60786000  1.0
  C  C30  1  0.48104000  0.58593000  0.23023000  1.0
  C  C31  1  0.51895000  0.41408000  0.76979000  1.0
  C  C32  1  0.97870000  0.74369000  0.32776000  1.0
  C  C33  1  0.02130000  0.25631000  0.67224000  1.0
  C  C34  1  0.46314000  0.32762000  0.11705000  1.0
  C  C35  1  0.53685000  0.67240000  0.88296000  1.0
  C  C36  1  0.95360000  0.71281000  0.18955000  1.0
  C  C37  1  0.04640000  0.28720000  0.81043000  1.0
  C  C38  1  0.68682000  0.49457000  0.13646000  1.0
  C  C39  1  0.31318000  0.50544000  0.86356000  1.0
  S  S40  1  0.88225000  0.51036000  0.10489000  1.0
  S  S41  1  0.11774000  0.48963000  0.89511000  1.0
  S  S42  1  0.38769000  0.73593000  0.31909000  1.0
  S  S43  1  0.61229000  0.26408000  0.68091000  1.0
  S  S44  1  0.36573000  0.14027000  0.03747000  1.0
  S  S45  1  0.63427000  0.85975000  0.96253000  1.0
  N  N46  1  0.61073000  0.34731000  0.08786000  1.0
  N  N47  1  0.38927000  0.65269000  0.91215000  1.0
  N  N48  1  0.62560000  0.62143000  0.20190000  1.0
  N  N49  1  0.37441000  0.37858000  0.79811000  1.0
  N  N50  1  0.39593000  0.43876000  0.19551000  1.0
  N  N51  1  0.60407000  0.56125000  0.80450000  1.0
  O  O52  1  0.22280000  0.09691000  0.26034000  1.0
  O  O53  1  0.77720000  0.90308000  0.73966000  1.0
  O  O54  1  0.97263000  0.12493000  0.19402000  1.0
  O  O55  1  0.02737000  0.87507000  0.80599000  1.0
  O  O56  1  0.71751000  0.86755000  0.47053000  1.0
  O  O57  1  0.28247000  0.13244000  0.52948000  1.0
  O  O58  1  0.76933000  0.05073000  0.36597000  1.0
  O  O59  1  0.23067000  0.94925000  0.63402000  1.0
  O  O60  1  0.94279000  0.63850000  0.38175000  1.0
  O  O61  1  0.05720000  0.36150000  0.61823000  1.0
  O  O62  1  0.03484000  0.88561000  0.39121000  1.0
  O  O63  1  0.96518000  0.11438000  0.60879000  1.0
  O  O64  1  0.15909000  0.64499000  0.60253000  1.0
  O  O65  1  0.84090000  0.35499000  0.39745000  1.0
  O  O66  1  0.80480000  0.59661000  0.60430000  1.0
  O  O67  1  0.19521000  0.40338000  0.39570000  1.0
