# generated using pymatgen
data_Zn2H20C31N2O9
_symmetry_space_group_name_H-M   'P 1'
_cell_length_a   9.75754000
_cell_length_b   11.00770000
_cell_length_c   14.03420000
_cell_angle_alpha   94.10860000
_cell_angle_beta   97.60000000
_cell_angle_gamma   90.94900000
_symmetry_Int_Tables_number   1
_chemical_formula_structural   Zn2H20C31N2O9
_chemical_formula_sum   'Zn2 H20 C31 N2 O9'
_cell_volume   1489.78796980
_cell_formula_units_Z   1
loop_
 _symmetry_equiv_pos_site_id
 _symmetry_equiv_pos_as_xyz
  1  'x, y, z'
loop_
 _atom_site_type_symbol
 _atom_site_label
 _atom_site_symmetry_multiplicity
 _atom_site_fract_x
 _atom_site_fract_y
 _atom_site_fract_z
 _atom_site_occupancy
  Zn  Zn0  1  0.35743000  0.49549000  0.49339000  1.0
  Zn  Zn1  1  0.64578000  0.50641000  0.49922000  1.0
  H  H2  1  0.34656000  0.49110000  0.97250000  1.0
  H  H3  1  0.71388000  0.32609000  0.36811000  1.0
  H  H4  1  0.81413000  0.18534000  0.25206000  1.0
  H  H5  1  0.06824000  0.18993000  0.24452000  1.0
  H  H6  1  0.22340000  0.33151000  0.35583000  1.0
  H  H7  1  0.15698000  0.62499000  0.59890000  1.0
  H  H8  1  0.66491000  0.50792000  0.02025000  1.0
  H  H9  1  0.24375000  0.22393000  0.53133000  1.0
  H  H10  1  0.02037000  0.11216000  0.49652000  1.0
  H  H11  1  0.01293000  0.88989000  0.44401000  1.0
  H  H12  1  0.23146000  0.77814000  0.44965000  1.0
  H  H13  1  0.71194000  0.88949000  0.53902000  1.0
  H  H14  1  0.89688000  0.63032000  0.59920000  1.0
  H  H15  1  0.92945000  0.13266000  0.64648000  1.0
  H  H16  1  0.80459000  0.02603000  0.67527000  1.0
  H  H17  1  0.78248000  0.30485000  0.69279000  1.0
  H  H18  1  0.65266000  0.20198000  0.71543000  1.0
  H  H19  1  0.81418000  0.11946000  0.84982000  1.0
  H  H20  1  0.79769000  0.27938000  0.86975000  1.0
  H  H21  1  0.94834000  0.22017000  0.82715000  1.0
  C  C22  1  0.50852000  0.26813000  0.50649000  1.0
  C  C23  1  0.44903000  0.49741000  0.20504000  1.0
  C  C24  1  0.24178000  0.12683000  0.51174000  1.0
  C  C25  1  0.11654000  0.06399000  0.49246000  1.0
  C  C26  1  0.11216000  0.93813000  0.46514000  1.0
  C  C27  1  0.23377000  0.87584000  0.46728000  1.0
  C  C28  1  0.36468000  0.93661000  0.49363000  1.0
  C  C29  1  0.36974000  0.06773000  0.50721000  1.0
  C  C30  1  0.50139000  0.13380000  0.51937000  1.0
  C  C31  1  0.62216000  0.06689000  0.53484000  1.0
  C  C32  1  0.61552000  0.93837000  0.52882000  1.0
  C  C33  1  0.45823000  0.49953000  0.30863000  1.0
  C  C34  1  0.49226000  0.87298000  0.50647000  1.0
  C  C35  1  0.82433000  0.32697000  0.36517000  1.0
  C  C36  1  0.88125000  0.24961000  0.30043000  1.0
  C  C37  1  0.02515000  0.25238000  0.29590000  1.0
  C  C38  1  0.11252000  0.33136000  0.35716000  1.0
  C  C39  1  0.05763000  0.41142000  0.42494000  1.0
  C  C40  1  0.91072000  0.41107000  0.42776000  1.0
  C  C41  1  0.94249000  0.56702000  0.54963000  1.0
  C  C42  1  0.08690000  0.56428000  0.54935000  1.0
  C  C43  1  0.50055000  0.73647000  0.50294000  1.0
  C  C44  1  0.53795000  0.51129000  0.68415000  1.0
  C  C45  1  0.55380000  0.51010000  0.78790000  1.0
  C  C46  1  0.56429000  0.50317000  0.97517000  1.0
  C  C47  1  0.44690000  0.49577000  0.01790000  1.0
  C  C48  1  0.44838000  0.49602000  0.11794000  1.0
  C  C49  1  0.56061000  0.50680000  0.87518000  1.0
  C  C50  1  0.81861000  0.11786000  0.65016000  1.0
  C  C51  1  0.76540000  0.21452000  0.71834000  1.0
  C  C52  1  0.83535000  0.20779000  0.82188000  1.0
  N  N53  1  0.85684000  0.49218000  0.49064000  1.0
  N  N54  1  0.14276000  0.48860000  0.48841000  1.0
  O  O55  1  0.39809000  0.31696000  0.46839000  1.0
  O  O56  1  0.62269000  0.32697000  0.52891000  1.0
  O  O57  1  0.34910000  0.52177000  0.34660000  1.0
  O  O58  1  0.57704000  0.47789000  0.35298000  1.0
  O  O59  1  0.39574000  0.67671000  0.52227000  1.0
  O  O60  1  0.61334000  0.68968000  0.48380000  1.0
  O  O61  1  0.41859000  0.47874000  0.64032000  1.0
  O  O62  1  0.64367000  0.54358000  0.64657000  1.0
  O  O63  1  0.75276000  0.11992000  0.55141000  1.0
