# generated using pymatgen
data_Zn2H22C29(NO4)2
_symmetry_space_group_name_H-M   'P 1'
_cell_length_a   7.37820000
_cell_length_b   10.91832219
_cell_length_c   17.34958831
_cell_angle_alpha   86.08116673
_cell_angle_beta   78.29934257
_cell_angle_gamma   70.27175852
_symmetry_Int_Tables_number   1
_chemical_formula_structural   Zn2H22C29(NO4)2
_chemical_formula_sum   'Zn4 H44 C58 N4 O16'
_cell_volume   1288.26740971
_cell_formula_units_Z   2
loop_
 _symmetry_equiv_pos_site_id
 _symmetry_equiv_pos_as_xyz
  1  'x, y, z'
loop_
 _atom_site_type_symbol
 _atom_site_label
 _atom_site_symmetry_multiplicity
 _atom_site_fract_x
 _atom_site_fract_y
 _atom_site_fract_z
 _atom_site_occupancy
  Zn  Zn0  1  0.03065000  0.47103000  0.09107000  1.0
  Zn  Zn1  1  0.00167000  0.52915000  0.59125000  1.0
  Zn  Zn2  1  0.38559000  0.56487000  0.14550000  1.0
  Zn  Zn3  1  0.45035000  0.43496000  0.64558000  1.0
  H  H4  1  0.05117000  0.94999000  0.11985000  1.0
  H  H5  1  0.50086000  0.05016000  0.61980000  1.0
  H  H6  1  0.82874000  0.14253000  0.06295000  1.0
  H  H7  1  0.47094000  0.85756000  0.56284000  1.0
  H  H8  1  0.50062000  0.13991000  0.04468000  1.0
  H  H9  1  0.14028000  0.86017000  0.54447000  1.0
  H  H10  1  0.40941000  0.94004000  0.08063000  1.0
  H  H11  1  0.84921000  0.05995000  0.58050000  1.0
  H  H12  1  0.41587000  0.26693000  0.89948000  1.0
  H  H13  1  0.18314000  0.73313000  0.39956000  1.0
  H  H14  1  0.65744000  0.14777000  0.78368000  1.0
  H  H15  1  0.30586000  0.85221000  0.28382000  1.0
  H  H16  1  0.01116000  0.12916000  0.76926000  1.0
  H  H17  1  0.64113000  0.87052000  0.26937000  1.0
  H  H18  1  0.11356000  0.24018000  0.86244000  1.0
  H  H19  1  0.85440000  0.75934000  0.36252000  1.0
  H  H20  1  0.85034000  0.53709000  0.26402000  1.0
  H  H21  1  0.88782000  0.46315000  0.76420000  1.0
  H  H22  1  0.80367000  0.41439000  0.38871000  1.0
  H  H23  1  0.71865000  0.58572000  0.88893000  1.0
  H  H24  1  0.18622000  0.06511000  0.26300000  1.0
  H  H25  1  0.75056000  0.93518000  0.76316000  1.0
  H  H26  1  0.22049000  0.20261000  0.14390000  1.0
  H  H27  1  0.92258000  0.79781000  0.64405000  1.0
  H  H28  1  0.08694000  0.07705000  0.41688000  1.0
  H  H29  1  0.66400000  0.92319000  0.91710000  1.0
  H  H30  1  0.88579000  0.21111000  0.45927000  1.0
  H  H31  1  0.59683000  0.78911000  0.95943000  1.0
  H  H32  1  0.82355000  0.99667000  0.44985000  1.0
  H  H33  1  0.32012000  0.00343000  0.95000000  1.0
  H  H34  1  0.85758000  0.01376000  0.34738000  1.0
  H  H35  1  0.37149000  0.98627000  0.84753000  1.0
  H  H36  1  0.50454000  0.08295000  0.41807000  1.0
  H  H37  1  0.08779000  0.91677000  0.91814000  1.0
  H  H38  1  0.54085000  0.20338000  0.46928000  1.0
  H  H39  1  0.24453000  0.79655000  0.96940000  1.0
  H  H40  1  0.73728000  0.13087000  0.25098000  1.0
  H  H41  1  0.36874000  0.86879000  0.75109000  1.0
  H  H42  1  0.65394000  0.30493000  0.15256000  1.0
  H  H43  1  0.45905000  0.69471000  0.65270000  1.0
  H  H44  1  0.21642000  0.54981000  0.31743000  1.0
  H  H45  1  0.26632000  0.44988000  0.81763000  1.0
  H  H46  1  0.29654000  0.39056000  0.42544000  1.0
  H  H47  1  0.18730000  0.60925000  0.92561000  1.0
  C  C48  1  0.86288000  0.83448000  0.12700000  1.0
  C  C49  1  0.19708000  0.16552000  0.62698000  1.0
  C  C50  1  0.91120000  0.94820000  0.10930000  1.0
  C  C51  1  0.35913000  0.05188000  0.60923000  1.0
  C  C52  1  0.78459000  0.05658000  0.07794000  1.0
  C  C53  1  0.34091000  0.94350000  0.57781000  1.0
  C  C54  1  0.60233000  0.05465000  0.06773000  1.0
  C  C55  1  0.15669000  0.94541000  0.56761000  1.0
  C  C56  1  0.55118000  0.94353000  0.08740000  1.0
  C  C57  1  0.99442000  0.05646000  0.58735000  1.0
  C  C58  1  0.68194000  0.83113000  0.11490000  1.0
  C  C59  1  0.01280000  0.16886000  0.61489000  1.0
  C  C60  1  0.62150000  0.71314000  0.13169000  1.0
  C  C61  1  0.83444000  0.28685000  0.63174000  1.0
  C  C62  1  0.01222000  0.72534000  0.16015000  1.0
  C  C63  1  0.23718000  0.27476000  0.66009000  1.0
  C  C64  1  0.62687000  0.32239000  0.94431000  1.0
  C  C65  1  0.44942000  0.67760000  0.44448000  1.0
  C  C66  1  0.56968000  0.25982000  0.89043000  1.0
  C  C67  1  0.32987000  0.74018000  0.39057000  1.0
  C  C68  1  0.70578000  0.19138000  0.82690000  1.0
  C  C69  1  0.39774000  0.80854000  0.32704000  1.0
  C  C70  1  0.90202000  0.18324000  0.81813000  1.0
  C  C71  1  0.58594000  0.81648000  0.31825000  1.0
  C  C72  1  0.96044000  0.24598000  0.87124000  1.0
  C  C73  1  0.70698000  0.75368000  0.37136000  1.0
  C  C74  1  0.82434000  0.31659000  0.93463000  1.0
  C  C75  1  0.64118000  0.68326000  0.43480000  1.0
  C  C76  1  0.47737000  0.39519000  0.01179000  1.0
  C  C77  1  0.37255000  0.60495000  0.51202000  1.0
  C  C78  1  0.89864000  0.37010000  0.99518000  1.0
  C  C79  1  0.76883000  0.62995000  0.49539000  1.0
  C  C80  1  0.92240000  0.43233000  0.26655000  1.0
  C  C81  1  0.85493000  0.56793000  0.76672000  1.0
  C  C82  1  0.89479000  0.36283000  0.33549000  1.0
  C  C83  1  0.75781000  0.63738000  0.83568000  1.0
  C  C84  1  0.98383000  0.22761000  0.33580000  1.0
  C  C85  1  0.71135000  0.77262000  0.83600000  1.0
  C  C86  1  0.10783000  0.16962000  0.26598000  1.0
  C  C87  1  0.77703000  0.83063000  0.76614000  1.0
  C  C88  1  0.12880000  0.24527000  0.19938000  1.0
  C  C89  1  0.87372000  0.75505000  0.69952000  1.0
  C  C90  1  0.94607000  0.14741000  0.40732000  1.0
  C  C91  1  0.59346000  0.85282000  0.90751000  1.0
  C  C92  1  0.80765000  0.06991000  0.40260000  1.0
  C  C93  1  0.37765000  0.93016000  0.90275000  1.0
  C  C94  1  0.58875000  0.15071000  0.41288000  1.0
  C  C95  1  0.23979000  0.84916000  0.91297000  1.0
  C  C96  1  0.52955000  0.24678000  0.34845000  1.0
  C  C97  1  0.27677000  0.75294000  0.84858000  1.0
  C  C98  1  0.62178000  0.22231000  0.26939000  1.0
  C  C99  1  0.34451000  0.77738000  0.76952000  1.0
  C  C100  1  0.57421000  0.31810000  0.21326000  1.0
  C  C101  1  0.39254000  0.68155000  0.71341000  1.0
  C  C102  1  0.33365000  0.45660000  0.30625000  1.0
  C  C103  1  0.29044000  0.54307000  0.80643000  1.0
  C  C104  1  0.37920000  0.36635000  0.36571000  1.0
  C  C105  1  0.24585000  0.63337000  0.86587000  1.0
  N  N106  1  0.03487000  0.37473000  0.19887000  1.0
  N  N107  1  0.90956000  0.62555000  0.69902000  1.0
  N  N108  1  0.43302000  0.43440000  0.23139000  1.0
  N  N109  1  0.36760000  0.56524000  0.73155000  1.0
  O  O110  1  0.43911000  0.73095000  0.13376000  1.0
  O  O111  1  0.66987000  0.26904000  0.63374000  1.0
  O  O112  1  0.74203000  0.60286000  0.14380000  1.0
  O  O113  1  0.84476000  0.39710000  0.64395000  1.0
  O  O114  1  0.11968000  0.62810000  0.11208000  1.0
  O  O115  1  0.24770000  0.37192000  0.61198000  1.0
  O  O116  1  0.04689000  0.73565000  0.22603000  1.0
  O  O117  1  0.28196000  0.26459000  0.72599000  1.0
  O  O118  1  0.32076000  0.36734000  0.03353000  1.0
  O  O119  1  0.18811000  0.63294000  0.53383000  1.0
  O  O120  1  0.52352000  0.48044000  0.04306000  1.0
  O  O121  1  0.50393000  0.51971000  0.54325000  1.0
  O  O122  1  0.94598000  0.47322000  0.98138000  1.0
  O  O123  1  0.91944000  0.52696000  0.48158000  1.0
  O  O124  1  0.92297000  0.30434000  0.05761000  1.0
  O  O125  1  0.72715000  0.69575000  0.55783000  1.0
