# generated using pymatgen
data_ZnH24C36(N3O4)2
_symmetry_space_group_name_H-M   'P 1'
_cell_length_a   7.91750000
_cell_length_b   14.64380000
_cell_length_c   15.14170000
_cell_angle_alpha   90.00010000
_cell_angle_beta   90.00010000
_cell_angle_gamma   104.34400000
_symmetry_Int_Tables_number   1
_chemical_formula_structural   ZnH24C36(N3O4)2
_chemical_formula_sum   'Zn2 H48 C72 N12 O16'
_cell_volume   1700.83497437
_cell_formula_units_Z   2
loop_
 _symmetry_equiv_pos_site_id
 _symmetry_equiv_pos_as_xyz
  1  'x, y, z'
loop_
 _atom_site_type_symbol
 _atom_site_label
 _atom_site_symmetry_multiplicity
 _atom_site_fract_x
 _atom_site_fract_y
 _atom_site_fract_z
 _atom_site_occupancy
  Zn  Zn0  1  0.94943000  0.52673000  0.69560000  1.0
  Zn  Zn1  1  0.05057000  0.47327000  0.19560000  1.0
  H  H2  1  0.02390000  0.58142000  0.36491000  1.0
  H  H3  1  0.97610000  0.41858000  0.86491000  1.0
  H  H4  1  0.34400000  0.49689000  0.81019000  1.0
  H  H5  1  0.65600000  0.50310000  0.31019000  1.0
  H  H6  1  0.99465000  0.65691000  0.51916000  1.0
  H  H7  1  0.00534000  0.34309000  0.01916000  1.0
  H  H8  1  0.01440000  0.40781000  0.38116000  1.0
  H  H9  1  0.98560000  0.59219000  0.88116000  1.0
  H  H10  1  0.96228000  0.28888000  0.51955000  1.0
  H  H11  1  0.03772000  0.71112000  0.01955000  1.0
  H  H12  1  0.84573000  0.32320000  0.60865000  1.0
  H  H13  1  0.15427000  0.67680000  0.10865000  1.0
  H  H14  1  0.23554000  0.39861000  0.61379000  1.0
  H  H15  1  0.76446000  0.60139000  0.11379000  1.0
  H  H16  1  0.85670000  0.99656000  0.67539000  1.0
  H  H17  1  0.14330000  0.00345000  0.17539000  1.0
  H  H18  1  0.93891000  0.84532000  0.64982000  1.0
  H  H19  1  0.06108000  0.15468000  0.14982000  1.0
  H  H20  1  0.22967000  0.84451000  0.59430000  1.0
  H  H21  1  0.77032000  0.15549000  0.09430000  1.0
  H  H22  1  0.52770000  0.93371000  0.54481000  1.0
  H  H23  1  0.47230000  0.06629000  0.04481000  1.0
  H  H24  1  0.73984000  0.08647000  0.51654000  1.0
  H  H25  1  0.26016000  0.91352000  0.01654000  1.0
  H  H26  1  0.65067000  0.23742000  0.53613000  1.0
  H  H27  1  0.34932000  0.76258000  0.03613000  1.0
  H  H28  1  0.55779000  0.41427000  0.74269000  1.0
  H  H29  1  0.44221000  0.58572000  0.24269000  1.0
  H  H30  1  0.82202000  0.70052000  0.77724000  1.0
  H  H31  1  0.17798000  0.29948000  0.27724000  1.0
  H  H32  1  0.55477000  0.75039000  0.87971000  1.0
  H  H33  1  0.44523000  0.24961000  0.37971000  1.0
  H  H34  1  0.35876000  0.66213000  0.89509000  1.0
  H  H35  1  0.64124000  0.33787000  0.39509000  1.0
  H  H36  1  0.46852000  0.75883000  0.71803000  1.0
  H  H37  1  0.53148000  0.24117000  0.21803000  1.0
  H  H38  1  0.70231000  0.08389000  0.75583000  1.0
  H  H39  1  0.29769000  0.91611000  0.25583000  1.0
  H  H40  1  0.64657000  0.24000000  0.78176000  1.0
  H  H41  1  0.35343000  0.76000000  0.28176000  1.0
  H  H42  1  0.35295000  0.25266000  0.83473000  1.0
  H  H43  1  0.64706000  0.74734000  0.33474000  1.0
  H  H44  1  0.05263000  0.17484000  0.88143000  1.0
  H  H45  1  0.94737000  0.82516000  0.38144000  1.0
  H  H46  1  0.82503000  0.02788000  0.91370000  1.0
  H  H47  1  0.17497000  0.97213000  0.41370000  1.0
  H  H48  1  0.89239000  0.87090000  0.89695000  1.0
  H  H49  1  0.10762000  0.12910000  0.39694000  1.0
  C  C50  1  0.99318000  0.58401000  0.50601000  1.0
  C  C51  1  0.00682000  0.41600000  0.00601000  1.0
  C  C52  1  0.00639000  0.45361000  0.43598000  1.0
  C  C53  1  0.99361000  0.54639000  0.93598000  1.0
  C  C54  1  0.98221000  0.43379000  0.52433000  1.0
  C  C55  1  0.01779000  0.56621000  0.02434000  1.0
  C  C56  1  0.96731000  0.34265000  0.57064000  1.0
  C  C57  1  0.03270000  0.65735000  0.07064000  1.0
  C  C58  1  0.12088000  0.34288000  0.63367000  1.0
  C  C59  1  0.87912000  0.65712000  0.13367000  1.0
  C  C60  1  0.08671000  0.36302000  0.73136000  1.0
  C  C61  1  0.91329000  0.63698000  0.23136000  1.0
  C  C62  1  0.05733000  0.17210000  0.64895000  1.0
  C  C63  1  0.94267000  0.82790000  0.14895000  1.0
  C  C64  1  0.10371000  0.08264000  0.63134000  1.0
  C  C65  1  0.89629000  0.91736000  0.13134000  1.0
  C  C66  1  0.98480000  0.99736000  0.64874000  1.0
  C  C67  1  0.01520000  0.00264000  0.14874000  1.0
  C  C68  1  0.03124000  0.91188000  0.63426000  1.0
  C  C69  1  0.96876000  0.08813000  0.13426000  1.0
  C  C70  1  0.19493000  0.91152000  0.60264000  1.0
  C  C71  1  0.80506000  0.08848000  0.10264000  1.0
  C  C72  1  0.31910000  0.99713000  0.58390000  1.0
  C  C73  1  0.68089000  0.00287000  0.08390000  1.0
  C  C74  1  0.48997000  0.99990000  0.55392000  1.0
  C  C75  1  0.51003000  0.00010000  0.05392000  1.0
  C  C76  1  0.60798000  0.08504000  0.53782000  1.0
  C  C77  1  0.39202000  0.91496000  0.03782000  1.0
  C  C78  1  0.55925000  0.17023000  0.54958000  1.0
  C  C79  1  0.44075000  0.82977000  0.04958000  1.0
  C  C80  1  0.39407000  0.17048000  0.58001000  1.0
  C  C81  1  0.60593000  0.82952000  0.08001000  1.0
  C  C82  1  0.34874000  0.26118000  0.59446000  1.0
  C  C83  1  0.65126000  0.73882000  0.09446000  1.0
  C  C84  1  0.27157000  0.08409000  0.59803000  1.0
  C  C85  1  0.72843000  0.91591000  0.09803000  1.0
  C  C86  1  0.58700000  0.48798000  0.76126000  1.0
  C  C87  1  0.41300000  0.51202000  0.26126000  1.0
  C  C88  1  0.71596000  0.63738000  0.77879000  1.0
  C  C89  1  0.28404000  0.36262000  0.27879000  1.0
  C  C90  1  0.54852000  0.62478000  0.81036000  1.0
  C  C91  1  0.45148000  0.37522000  0.31036000  1.0
  C  C92  1  0.45739000  0.69475000  0.84607000  1.0
  C  C93  1  0.54261000  0.30525000  0.34607000  1.0
  C  C94  1  0.20585000  0.67898000  0.73262000  1.0
  C  C95  1  0.79415000  0.32102000  0.23262000  1.0
  C  C96  1  0.37348000  0.74183000  0.77232000  1.0
  C  C97  1  0.62652000  0.25817000  0.27232000  1.0
  C  C98  1  0.48159000  0.91372000  0.77955000  1.0
  C  C99  1  0.51842000  0.08628000  0.27955000  1.0
  C  C100  1  0.44915000  0.00613000  0.80009000  1.0
  C  C101  1  0.55085000  0.99386000  0.30009000  1.0
  C  C102  1  0.57714000  0.08803000  0.78284000  1.0
  C  C103  1  0.42287000  0.91196000  0.28284000  1.0
  C  C104  1  0.54408000  0.17703000  0.79699000  1.0
  C  C105  1  0.45592000  0.82297000  0.29699000  1.0
  C  C106  1  0.38288000  0.18426000  0.82720000  1.0
  C  C107  1  0.61713000  0.81574000  0.32720000  1.0
  C  C108  1  0.24938000  0.10198000  0.84581000  1.0
  C  C109  1  0.75063000  0.89802000  0.34581000  1.0
  C  C110  1  0.08096000  0.10592000  0.87482000  1.0
  C  C111  1  0.91905000  0.89408000  0.37482000  1.0
  C  C112  1  0.95442000  0.02413000  0.89241000  1.0
  C  C113  1  0.04558000  0.97587000  0.39241000  1.0
  C  C114  1  0.99126000  0.93554000  0.88279000  1.0
  C  C115  1  0.00875000  0.06447000  0.38279000  1.0
  C  C116  1  0.15392000  0.92898000  0.85304000  1.0
  C  C117  1  0.84609000  0.07102000  0.35304000  1.0
  C  C118  1  0.19084000  0.83602000  0.84209000  1.0
  C  C119  1  0.80916000  0.16398000  0.34209000  1.0
  C  C120  1  0.28445000  0.01169000  0.83306000  1.0
  C  C121  1  0.71556000  0.98831000  0.33306000  1.0
  N  N122  1  0.97457000  0.51635000  0.56728000  1.0
  N  N123  1  0.02543000  0.48365000  0.06729000  1.0
  N  N124  1  0.01239000  0.54777000  0.42595000  1.0
  N  N125  1  0.98762000  0.45223000  0.92595000  1.0
  N  N126  1  0.17879000  0.25552000  0.62507000  1.0
  N  N127  1  0.82121000  0.74448000  0.12507000  1.0
  N  N128  1  0.73787000  0.55182000  0.74841000  1.0
  N  N129  1  0.26213000  0.44818000  0.24841000  1.0
  N  N130  1  0.47149000  0.52985000  0.79873000  1.0
  N  N131  1  0.52850000  0.47015000  0.29873000  1.0
  N  N132  1  0.34592000  0.83364000  0.79872000  1.0
  N  N133  1  0.65408000  0.16636000  0.29872000  1.0
  O  O134  1  0.95455000  0.39833000  0.74798000  1.0
  O  O135  1  0.04544000  0.60167000  0.24798000  1.0
  O  O136  1  0.19068000  0.34960000  0.78888000  1.0
  O  O137  1  0.80932000  0.65040000  0.28888000  1.0
  O  O138  1  0.91763000  0.17737000  0.68254000  1.0
  O  O139  1  0.08237000  0.82264000  0.18255000  1.0
  O  O140  1  0.45146000  0.33848000  0.58069000  1.0
  O  O141  1  0.54854000  0.66151000  0.08069000  1.0
  O  O142  1  0.17146000  0.59118000  0.75537000  1.0
  O  O143  1  0.82854000  0.40882000  0.25536000  1.0
  O  O144  1  0.11684000  0.71208000  0.67903000  1.0
  O  O145  1  0.88316000  0.28791000  0.17903000  1.0
  O  O146  1  0.61857000  0.90358000  0.74632000  1.0
  O  O147  1  0.38143000  0.09641000  0.24632000  1.0
  O  O148  1  0.09154000  0.76182000  0.86853000  1.0
  O  O149  1  0.90846000  0.23817000  0.36853000  1.0
