# generated using pymatgen
data_HgH6C5S5I2
_symmetry_space_group_name_H-M   'P 1'
_cell_length_a   4.40986000
_cell_length_b   15.36330000
_cell_length_c   20.52010000
_cell_angle_alpha   100.47900000
_cell_angle_beta   89.99990000
_cell_angle_gamma   89.99990000
_symmetry_Int_Tables_number   1
_chemical_formula_structural   HgH6C5S5I2
_chemical_formula_sum   'Hg4 H24 C20 S20 I8'
_cell_volume   1367.04994083
_cell_formula_units_Z   4
loop_
 _symmetry_equiv_pos_site_id
 _symmetry_equiv_pos_as_xyz
  1  'x, y, z'
loop_
 _atom_site_type_symbol
 _atom_site_label
 _atom_site_symmetry_multiplicity
 _atom_site_fract_x
 _atom_site_fract_y
 _atom_site_fract_z
 _atom_site_occupancy
  Hg  Hg0  1  0.26320000  0.75707000  0.91314000  1.0
  Hg  Hg1  1  0.76321000  0.74293000  0.58687000  1.0
  Hg  Hg2  1  0.73679000  0.24293000  0.08686000  1.0
  Hg  Hg3  1  0.23679000  0.25707000  0.41313000  1.0
  H  H4  1  0.67380000  0.63015000  0.13493000  1.0
  H  H5  1  0.17380000  0.86985000  0.36508000  1.0
  H  H6  1  0.32620000  0.36985000  0.86508000  1.0
  H  H7  1  0.82620000  0.13015000  0.63493000  1.0
  H  H8  1  0.03592000  0.58464000  0.14917000  1.0
  H  H9  1  0.53592000  0.91536000  0.35083000  1.0
  H  H10  1  0.96408000  0.41536000  0.85083000  1.0
  H  H11  1  0.46408000  0.08464000  0.64917000  1.0
  H  H12  1  0.97753000  0.62724000  0.07497000  1.0
  H  H13  1  0.47754000  0.87276000  0.42503000  1.0
  H  H14  1  0.02246000  0.37276000  0.92503000  1.0
  H  H15  1  0.52246000  0.12724000  0.57497000  1.0
  H  H16  1  0.81578000  0.09472000  0.23791000  1.0
  H  H17  1  0.31578000  0.40529000  0.26210000  1.0
  H  H18  1  0.18422000  0.90528000  0.76210000  1.0
  H  H19  1  0.68422000  0.59471000  0.73790000  1.0
  H  H20  1  0.81664000  0.07375000  0.32078000  1.0
  H  H21  1  0.31664000  0.42625000  0.17922000  1.0
  H  H22  1  0.18336000  0.92624000  0.67922000  1.0
  H  H23  1  0.68336000  0.57375000  0.82078000  1.0
  H  H24  1  0.50389000  0.03573000  0.26729000  1.0
  H  H25  1  0.00389000  0.46427000  0.23271000  1.0
  H  H26  1  0.49611000  0.96427000  0.73271000  1.0
  H  H27  1  0.99611000  0.53573000  0.76729000  1.0
  C  C28  1  0.50666000  0.88473000  0.05917000  1.0
  C  C29  1  0.00665000  0.61527000  0.44083000  1.0
  C  C30  1  0.49336000  0.11527000  0.94083000  1.0
  C  C31  1  0.99334000  0.38473000  0.55917000  1.0
  C  C32  1  0.84601000  0.81465000  0.13909000  1.0
  C  C33  1  0.34601000  0.68535000  0.36091000  1.0
  C  C34  1  0.15400000  0.18536000  0.86091000  1.0
  C  C35  1  0.65399000  0.31464000  0.63909000  1.0
  C  C36  1  0.80276000  0.90118000  0.16985000  1.0
  C  C37  1  0.30276000  0.59882000  0.33015000  1.0
  C  C38  1  0.19725000  0.09882000  0.83015000  1.0
  C  C39  1  0.69725000  0.40118000  0.66985000  1.0
  C  C40  1  0.91888000  0.63570000  0.12780000  1.0
  C  C41  1  0.41888000  0.86430000  0.37221000  1.0
  C  C42  1  0.08112000  0.36430000  0.87221000  1.0
  C  C43  1  0.58112000  0.13570000  0.62779000  1.0
  C  C44  1  0.74926000  0.04748000  0.26949000  1.0
  C  C45  1  0.24926000  0.45252000  0.23051000  1.0
  C  C46  1  0.25074000  0.95252000  0.73051000  1.0
  C  C47  1  0.75074000  0.54748000  0.76949000  1.0
  S  S48  1  0.27688000  0.90569000  0.99825000  1.0
  S  S49  1  0.77687000  0.59432000  0.50175000  1.0
  S  S50  1  0.72313000  0.09431000  0.00175000  1.0
  S  S51  1  0.22312000  0.40568000  0.49825000  1.0
  S  S52  1  0.67294000  0.78500000  0.06223000  1.0
  S  S53  1  0.17294000  0.71500000  0.43777000  1.0
  S  S54  1  0.32707000  0.21500000  0.93777000  1.0
  S  S55  1  0.82705000  0.28500000  0.56223000  1.0
  S  S56  1  0.59358000  0.96631000  0.12540000  1.0
  S  S57  1  0.09357000  0.53369000  0.37460000  1.0
  S  S58  1  0.40643000  0.03369000  0.87460000  1.0
  S  S59  1  0.90643000  0.46631000  0.62540000  1.0
  S  S60  1  0.05974000  0.73947000  0.17348000  1.0
  S  S61  1  0.55975000  0.76053000  0.32652000  1.0
  S  S62  1  0.94027000  0.26053000  0.82652000  1.0
  S  S63  1  0.44026000  0.23947000  0.67348000  1.0
  S  S64  1  0.95460000  0.94465000  0.24718000  1.0
  S  S65  1  0.45460000  0.55535000  0.25282000  1.0
  S  S66  1  0.04540000  0.05535000  0.75282000  1.0
  S  S67  1  0.54540000  0.44465000  0.74718000  1.0
  I  I68  1  0.29268000  0.59262000  0.94338000  1.0
  I  I69  1  0.79269000  0.90738000  0.55662000  1.0
  I  I70  1  0.70731000  0.40738000  0.05662000  1.0
  I  I71  1  0.20731000  0.09262000  0.44338000  1.0
  I  I72  1  0.77776000  0.80007000  0.83209000  1.0
  I  I73  1  0.27778000  0.69993000  0.66791000  1.0
  I  I74  1  0.22222000  0.19993000  0.16791000  1.0
  I  I75  1  0.72222000  0.30007000  0.33209000  1.0
