# generated using pymatgen
data_SrVH22(C6O7)2
_symmetry_space_group_name_H-M   'P 1'
_cell_length_a   9.37230000
_cell_length_b   10.85740000
_cell_length_c   10.85740000
_cell_angle_alpha   96.74610000
_cell_angle_beta   112.92600000
_cell_angle_gamma   112.92700000
_symmetry_Int_Tables_number   1
_chemical_formula_structural   SrVH22(C6O7)2
_chemical_formula_sum   'Sr2 V2 H44 C24 O28'
_cell_volume   888.72414545
_cell_formula_units_Z   2
loop_
 _symmetry_equiv_pos_site_id
 _symmetry_equiv_pos_as_xyz
  1  'x, y, z'
loop_
 _atom_site_type_symbol
 _atom_site_label
 _atom_site_symmetry_multiplicity
 _atom_site_fract_x
 _atom_site_fract_y
 _atom_site_fract_z
 _atom_site_occupancy
  Sr  Sr0  1  0.25000000  0.82550000  0.17450000  1.0
  Sr  Sr1  1  0.75000000  0.17450000  0.82550000  1.0
  V  V2  1  0.25000000  0.09355000  0.90645000  1.0
  V  V3  1  0.75000000  0.90645000  0.09355000  1.0
  H  H4  1  0.99281000  0.70735000  0.76315000  1.0
  H  H5  1  0.50719000  0.23684000  0.29265000  1.0
  H  H6  1  0.00719000  0.29265000  0.23685000  1.0
  H  H7  1  0.49281000  0.76316000  0.70735000  1.0
  H  H8  1  0.89323000  0.77475000  0.84227000  1.0
  H  H9  1  0.60677000  0.15773000  0.22525000  1.0
  H  H10  1  0.10677000  0.22525000  0.15773000  1.0
  H  H11  1  0.39323000  0.84227000  0.77475000  1.0
  H  H12  1  0.69398000  0.51520000  0.58739000  1.0
  H  H13  1  0.80602000  0.41261000  0.48480000  1.0
  H  H14  1  0.30602000  0.48480000  0.41261000  1.0
  H  H15  1  0.19398000  0.58739000  0.51520000  1.0
  H  H16  1  0.59718000  0.59550000  0.65555000  1.0
  H  H17  1  0.90282000  0.34445000  0.40450000  1.0
  H  H18  1  0.40282000  0.40450000  0.34445000  1.0
  H  H19  1  0.09718000  0.65555000  0.59551000  1.0
  H  H20  1  0.59107000  0.72977000  0.48645000  1.0
  H  H21  1  0.90893000  0.51355000  0.27023000  1.0
  H  H22  1  0.40893000  0.27023000  0.51355000  1.0
  H  H23  1  0.09108000  0.48645000  0.72977000  1.0
  H  H24  1  0.71476000  0.66624000  0.43662000  1.0
  H  H25  1  0.78524000  0.56338000  0.33376000  1.0
  H  H26  1  0.28524000  0.33376000  0.56338000  1.0
  H  H27  1  0.21476000  0.43662000  0.66624000  1.0
  H  H28  1  0.33938000  0.33119000  0.79622000  1.0
  H  H29  1  0.16062000  0.20378000  0.66881000  1.0
  H  H30  1  0.66062000  0.66881000  0.20378000  1.0
  H  H31  1  0.83938000  0.79622000  0.33119000  1.0
  H  H32  1  0.84071000  0.65485000  0.02707000  1.0
  H  H33  1  0.65929000  0.97293000  0.34515000  1.0
  H  H34  1  0.15929000  0.34514000  0.97293000  1.0
  H  H35  1  0.34071000  0.02707000  0.65485000  1.0
  H  H36  1  0.88350000  0.53066000  0.05868000  1.0
  H  H37  1  0.61650000  0.94132000  0.46934000  1.0
  H  H38  1  0.11650000  0.46933000  0.94132000  1.0
  H  H39  1  0.38350000  0.05868000  0.53066000  1.0
  H  H40  1  0.13703000  0.80270000  0.42292000  1.0
  H  H41  1  0.36297000  0.57708000  0.19729000  1.0
  H  H42  1  0.86297000  0.19730000  0.57708000  1.0
  H  H43  1  0.63703000  0.42292000  0.80271000  1.0
  H  H44  1  0.32330000  0.82069000  0.47460000  1.0
  H  H45  1  0.17670000  0.52540000  0.17931000  1.0
  H  H46  1  0.67670000  0.17931000  0.52540000  1.0
  H  H47  1  0.82330000  0.47460000  0.82069000  1.0
  C  C48  1  0.03267000  0.88374000  0.61616000  1.0
  C  C49  1  0.46733000  0.38384000  0.11626000  1.0
  C  C50  1  0.96733000  0.11626000  0.38384000  1.0
  C  C51  1  0.53267000  0.61616000  0.88374000  1.0
  C  C52  1  0.87686000  0.83082000  0.64484000  1.0
  C  C53  1  0.62314000  0.35516000  0.16918000  1.0
  C  C54  1  0.12314000  0.16918000  0.35516000  1.0
  C  C55  1  0.37686000  0.64484000  0.83082000  1.0
  C  C56  1  0.86009000  0.95239000  0.71162000  1.0
  C  C57  1  0.63991000  0.28838000  0.04762000  1.0
  C  C58  1  0.13991000  0.04762000  0.28839000  1.0
  C  C59  1  0.36009000  0.71162000  0.95238000  1.0
  C  C60  1  0.88462000  0.73239000  0.74148000  1.0
  C  C61  1  0.61538000  0.25851000  0.26761000  1.0
  C  C62  1  0.11538000  0.26761000  0.25851000  1.0
  C  C63  1  0.38462000  0.74149000  0.73239000  1.0
  C  C64  1  0.70074000  0.61625000  0.62521000  1.0
  C  C65  1  0.79925000  0.37479000  0.38375000  1.0
  C  C66  1  0.29925000  0.38375000  0.37478000  1.0
  C  C67  1  0.20075000  0.62522000  0.61625000  1.0
  C  C68  1  0.70159000  0.70715000  0.52607000  1.0
  C  C69  1  0.79841000  0.47393000  0.29284000  1.0
  C  C70  1  0.29841000  0.29284000  0.47393000  1.0
  C  C71  1  0.20159000  0.52607000  0.70716000  1.0
  O  O72  1  0.25000000  0.99326000  0.00674000  1.0
  O  O73  1  0.75000000  0.00674000  0.99326000  1.0
  O  O74  1  0.25000000  0.23165000  0.76835000  1.0
  O  O75  1  0.75000000  0.76835000  0.23166000  1.0
  O  O76  1  0.18828000  0.96388000  0.72282000  1.0
  O  O77  1  0.31171000  0.27718000  0.03612000  1.0
  O  O78  1  0.81171000  0.03612000  0.27718000  1.0
  O  O79  1  0.68829000  0.72282000  0.96388000  1.0
  O  O80  1  0.20831000  0.77503000  0.39047000  1.0
  O  O81  1  0.29169000  0.60953000  0.22497000  1.0
  O  O82  1  0.79169000  0.22497000  0.60953000  1.0
  O  O83  1  0.70831000  0.39047000  0.77503000  1.0
  O  O84  1  0.93388000  0.62607000  0.05136000  1.0
  O  O85  1  0.56612000  0.94864000  0.37393000  1.0
  O  O86  1  0.06612000  0.37393000  0.94864000  1.0
  O  O87  1  0.43388000  0.05136000  0.62607000  1.0
  O  O88  1  0.01202000  0.84712000  0.49374000  1.0
  O  O89  1  0.48798000  0.50626000  0.15288000  1.0
  O  O90  1  0.98798000  0.15288000  0.50626000  1.0
  O  O91  1  0.51203000  0.49374000  0.84712000  1.0
  O  O92  1  0.99596000  0.05303000  0.82242000  1.0
  O  O93  1  0.50404000  0.17758000  0.94697000  1.0
  O  O94  1  0.00404000  0.94696000  0.17758000  1.0
  O  O95  1  0.49596000  0.82242000  0.05303000  1.0
  O  O96  1  0.71341000  0.95066000  0.66241000  1.0
  O  O97  1  0.78659000  0.33759000  0.04935000  1.0
  O  O98  1  0.28659000  0.04934000  0.33759000  1.0
  O  O99  1  0.21341000  0.66242000  0.95065000  1.0
