# generated using pymatgen
data_Zn4H24C40N8O19
_symmetry_space_group_name_H-M   'P 1'
_cell_length_a   18.24500000
_cell_length_b   18.32440000
_cell_length_c   24.79191412
_cell_angle_alpha   111.69157853
_cell_angle_beta   111.56812132
_cell_angle_gamma   89.98280000
_symmetry_Int_Tables_number   1
_chemical_formula_structural   Zn4H24C40N8O19
_chemical_formula_sum   'Zn8 H48 C80 N16 O38'
_cell_volume   7073.74186952
_cell_formula_units_Z   2
loop_
 _symmetry_equiv_pos_site_id
 _symmetry_equiv_pos_as_xyz
  1  'x, y, z'
loop_
 _atom_site_type_symbol
 _atom_site_label
 _atom_site_symmetry_multiplicity
 _atom_site_fract_x
 _atom_site_fract_y
 _atom_site_fract_z
 _atom_site_occupancy
  Zn  Zn0  1  0.02492000  0.61538000  0.05203000  1.0
  Zn  Zn1  1  0.43566000  0.02308000  0.05190000  1.0
  Zn  Zn2  1  0.02714000  0.43650000  0.05208000  1.0
  Zn  Zn3  1  0.61633000  0.02862000  0.05168000  1.0
  Zn  Zn4  1  0.88649000  0.47507000  0.95055000  1.0
  Zn  Zn5  1  0.47603000  0.88740000  0.95091000  1.0
  Zn  Zn6  1  0.06420000  0.47536000  0.95053000  1.0
  Zn  Zn7  1  0.47489000  0.06318000  0.95077000  1.0
  H  H8  1  0.34201000  0.50079000  0.91674000  1.0
  H  H9  1  0.41628000  0.34665000  0.92205000  1.0
  H  H10  1  0.57466000  0.41618000  0.91709000  1.0
  H  H11  1  0.50597000  0.57528000  0.92221000  1.0
  H  H12  1  0.57898000  0.49896000  0.85784000  1.0
  H  H13  1  0.49518000  0.28052000  0.85672000  1.0
  H  H14  1  0.27895000  0.35868000  0.85773000  1.0
  H  H15  1  0.36152000  0.57625000  0.85657000  1.0
  H  H16  1  0.10221000  0.73821000  0.24592000  1.0
  H  H17  1  0.50745000  0.10133000  0.24565000  1.0
  H  H18  1  0.14389000  0.50763000  0.24616000  1.0
  H  H19  1  0.73881000  0.14479000  0.24568000  1.0
  H  H20  1  0.16086000  0.79769000  0.36427000  1.0
  H  H21  1  0.56630000  0.16025000  0.36397000  1.0
  H  H22  1  0.20344000  0.56679000  0.36453000  1.0
  H  H23  1  0.79793000  0.20468000  0.36404000  1.0
  H  H24  1  0.27213000  0.92739000  0.63933000  1.0
  H  H25  1  0.71149000  0.27226000  0.63887000  1.0
  H  H26  1  0.36636000  0.71192000  0.63892000  1.0
  H  H27  1  0.92725000  0.36689000  0.63875000  1.0
  H  H28  1  0.13085000  0.76368000  0.06593000  1.0
  H  H29  1  0.29911000  0.12764000  0.06456000  1.0
  H  H30  1  0.93490000  0.30242000  0.06602000  1.0
  H  H31  1  0.76545000  0.93675000  0.06452000  1.0
  H  H32  1  0.90988000  0.86630000  0.06949000  1.0
  H  H33  1  0.86409000  0.16351000  0.06969000  1.0
  H  H34  1  0.15972000  0.20306000  0.06958000  1.0
  H  H35  1  0.20563000  0.90617000  0.06979000  1.0
  H  H36  1  0.28451000  0.48753000  0.98357000  1.0
  H  H37  1  0.26998000  0.56874000  0.03730000  1.0
  H  H38  1  0.49428000  0.27295000  0.98299000  1.0
  H  H39  1  0.46375000  0.25191000  0.03231000  1.0
  H  H40  1  0.69893000  0.49626000  0.98390000  1.0
  H  H41  1  0.76729000  0.46878000  0.03756000  1.0
  H  H42  1  0.48888000  0.70995000  0.98319000  1.0
  H  H43  1  0.56871000  0.78023000  0.03251000  1.0
  H  H44  1  0.70562000  0.48293000  0.85005000  1.0
  H  H45  1  0.77807000  0.55947000  0.87904000  1.0
  H  H46  1  0.55309000  0.10382000  0.87925000  1.0
  H  H47  1  0.47859000  0.14788000  0.84767000  1.0
  H  H48  1  0.14456000  0.36691000  0.84994000  1.0
  H  H49  1  0.10109000  0.31951000  0.87906000  1.0
  H  H50  1  0.32641000  0.77570000  0.87938000  1.0
  H  H51  1  0.36929000  0.70001000  0.84766000  1.0
  H  H52  1  0.29329000  0.02099000  0.73510000  1.0
  H  H53  1  0.71347000  0.29337000  0.73486000  1.0
  H  H54  1  0.44094000  0.71350000  0.73446000  1.0
  H  H55  1  0.02149000  0.44122000  0.73464000  1.0
  C  C56  1  0.91808000  0.41784000  0.83590000  1.0
  C  C57  1  0.41795000  0.91779000  0.83608000  1.0
  C  C58  1  0.15699000  0.73428000  0.33805000  1.0
  C  C59  1  0.60358000  0.15669000  0.33769000  1.0
  C  C60  1  0.18105000  0.60384000  0.33820000  1.0
  C  C61  1  0.73443000  0.18181000  0.33772000  1.0
  C  C62  1  0.18571000  0.68584000  0.37157000  1.0
  C  C63  1  0.68568000  0.18604000  0.37116000  1.0
  C  C64  1  0.11956000  0.61944000  0.23911000  1.0
  C  C65  1  0.61967000  0.11948000  0.23867000  1.0
  C  C66  1  0.28129000  0.78176000  0.56314000  1.0
  C  C67  1  0.78131000  0.28188000  0.56284000  1.0
  C  C68  1  0.22031000  0.72061000  0.44096000  1.0
  C  C69  1  0.72028000  0.22086000  0.44058000  1.0
  C  C70  1  0.30594000  0.89362000  0.66557000  1.0
  C  C71  1  0.77162000  0.30610000  0.66518000  1.0
  C  C72  1  0.35892000  0.77192000  0.66534000  1.0
  C  C73  1  0.89351000  0.35930000  0.66511000  1.0
  C  C74  1  0.33918000  0.92639000  0.73151000  1.0
  C  C75  1  0.80478000  0.33912000  0.73113000  1.0
  C  C76  1  0.39166000  0.80473000  0.73126000  1.0
  C  C77  1  0.92653000  0.39185000  0.73107000  1.0
  C  C78  1  0.38265000  0.88267000  0.76574000  1.0
  C  C79  1  0.88284000  0.38258000  0.76542000  1.0
  C  C80  1  0.31600000  0.81641000  0.63257000  1.0
  C  C81  1  0.81606000  0.31639000  0.63225000  1.0
  C  C82  1  0.08422000  0.58399000  0.16837000  1.0
  C  C83  1  0.58436000  0.08400000  0.16798000  1.0
  C  C84  1  0.86472000  0.63926000  0.99340000  1.0
  C  C85  1  0.35585000  0.86100000  0.99272000  1.0
  C  C86  1  0.12859000  0.35386000  0.99337000  1.0
  C  C87  1  0.63684000  0.13140000  0.99235000  1.0
  C  C88  1  0.14255000  0.63949000  0.00279000  1.0
  C  C89  1  0.64139000  0.86002000  0.00509000  1.0
  C  C90  1  0.86007000  0.36342000  0.00282000  1.0
  C  C91  1  0.36373000  0.14485000  0.00504000  1.0
  C  C92  1  0.28244000  0.58707000  0.96372000  1.0
  C  C93  1  0.37781000  0.28784000  0.96977000  1.0
  C  C94  1  0.68122000  0.37685000  0.96399000  1.0
  C  C95  1  0.59211000  0.68181000  0.96994000  1.0
  C  C96  1  0.68416000  0.58720000  0.90687000  1.0
  C  C97  1  0.58385000  0.22450000  0.90542000  1.0
  C  C98  1  0.22279000  0.31949000  0.90680000  1.0
  C  C99  1  0.32167000  0.68102000  0.90541000  1.0
  C  C100  1  0.32301000  0.55891000  0.92393000  1.0
  C  C101  1  0.36506000  0.32608000  0.92834000  1.0
  C  C102  1  0.60090000  0.36525000  0.92420000  1.0
  C  C103  1  0.56347000  0.60214000  0.92848000  1.0
  C  C104  1  0.60621000  0.55816000  0.89474000  1.0
  C  C105  1  0.55523000  0.28975000  0.89264000  1.0
  C  C106  1  0.28861000  0.33638000  0.89465000  1.0
  C  C107  1  0.33735000  0.60293000  0.89249000  1.0
  C  C108  1  0.29251000  0.71645000  0.95411000  1.0
  C  C109  1  0.23632000  0.29165000  0.95596000  1.0
  C  C110  1  0.66163000  0.23770000  0.95408000  1.0
  C  C111  1  0.71974000  0.66418000  0.95605000  1.0
  C  C112  1  0.66767000  0.71573000  0.97765000  1.0
  C  C113  1  0.71412000  0.30966000  0.97363000  1.0
  C  C114  1  0.30995000  0.26164000  0.97751000  1.0
  C  C115  1  0.25931000  0.66397000  0.97349000  1.0
  C  C116  1  0.20534000  0.69257000  0.00418000  1.0
  C  C117  1  0.31167000  0.20690000  0.00742000  1.0
  C  C118  1  0.79875000  0.31171000  0.00427000  1.0
  C  C119  1  0.69584000  0.80039000  0.00754000  1.0
  C  C120  1  0.80519000  0.69384000  0.98559000  1.0
  C  C121  1  0.69121000  0.18267000  0.98425000  1.0
  C  C122  1  0.18038000  0.29151000  0.98552000  1.0
  C  C123  1  0.29326000  0.80163000  0.98444000  1.0
  C  C124  1  0.19988000  0.77304000  0.02663000  1.0
  C  C125  1  0.25198000  0.19931000  0.02811000  1.0
  C  C126  1  0.82667000  0.25364000  0.02664000  1.0
  C  C127  1  0.77621000  0.82864000  0.02823000  1.0
  C  C128  1  0.83204000  0.77528000  0.02004000  1.0
  C  C129  1  0.77303000  0.19042000  0.01891000  1.0
  C  C130  1  0.18796000  0.24451000  0.01998000  1.0
  C  C131  1  0.24599000  0.82853000  0.01904000  1.0
  C  C132  1  0.12438000  0.70127000  0.27239000  1.0
  C  C133  1  0.57099000  0.12390000  0.27203000  1.0
  C  C134  1  0.14808000  0.57104000  0.27253000  1.0
  C  C135  1  0.70161000  0.14863000  0.27206000  1.0
  N  N136  1  0.25645000  0.67375000  0.47103000  1.0
  N  N137  1  0.79726000  0.25743000  0.47067000  1.0
  N  N138  1  0.21417000  0.79754000  0.47097000  1.0
  N  N139  1  0.67323000  0.21455000  0.47063000  1.0
  N  N140  1  0.28720000  0.70484000  0.53322000  1.0
  N  N141  1  0.82836000  0.28820000  0.53284000  1.0
  N  N142  1  0.24549000  0.82872000  0.53317000  1.0
  N  N143  1  0.70420000  0.24585000  0.53281000  1.0
  N  N144  1  0.26453000  0.54067000  0.99197000  1.0
  N  N145  1  0.45568000  0.28311000  0.00497000  1.0
  N  N146  1  0.72729000  0.45150000  0.99229000  1.0
  N  N147  1  0.54943000  0.72173000  0.00518000  1.0
  N  N148  1  0.71938000  0.54293000  0.86663000  1.0
  N  N149  1  0.53862000  0.14954000  0.86595000  1.0
  N  N150  1  0.14736000  0.32356000  0.86660000  1.0
  N  N151  1  0.32769000  0.71670000  0.86612000  1.0
  O  O152  1  0.00135000  0.50123000  0.00264000  1.0
  O  O153  1  0.50143000  0.00131000  0.00277000  1.0
  O  O154  1  0.98978000  0.40869000  0.86317000  1.0
  O  O155  1  0.45324000  0.98976000  0.86341000  1.0
  O  O156  1  0.87364000  0.45436000  0.86318000  1.0
  O  O157  1  0.41017000  0.87317000  0.86350000  1.0
  O  O158  1  0.05743000  0.63138000  0.14128000  1.0
  O  O159  1  0.50958000  0.05731000  0.14093000  1.0
  O  O160  1  0.08398000  0.50949000  0.14137000  1.0
  O  O161  1  0.63207000  0.08354000  0.14087000  1.0
  O  O162  1  0.83894000  0.56850000  0.98402000  1.0
  O  O163  1  0.41817000  0.83597000  0.98381000  1.0
  O  O164  1  0.14502000  0.41529000  0.98404000  1.0
  O  O165  1  0.56557000  0.14738000  0.98330000  1.0
  O  O166  1  0.11039000  0.57506000  0.95491000  1.0
  O  O167  1  0.57304000  0.83917000  0.95996000  1.0
  O  O168  1  0.84430000  0.37992000  0.95491000  1.0
  O  O169  1  0.38692000  0.12041000  0.95987000  1.0
  O  O170  1  0.07370000  0.34615000  0.01247000  1.0
  O  O171  1  0.66365000  0.07632000  0.01089000  1.0
  O  O172  1  0.93869000  0.66605000  0.01250000  1.0
  O  O173  1  0.34758000  0.93462000  0.01128000  1.0
  O  O174  1  0.92944000  0.38375000  0.04997000  1.0
  O  O175  1  0.37885000  0.11554000  0.04785000  1.0
  O  O176  1  0.12033000  0.66636000  0.04997000  1.0
  O  O177  1  0.66904000  0.93216000  0.04777000  1.0
  O  O178  1  0.15269000  0.80665000  0.05759000  1.0
  O  O179  1  0.24827000  0.15081000  0.05751000  1.0
  O  O180  1  0.90480000  0.25104000  0.05761000  1.0
  O  O181  1  0.80927000  0.90654000  0.05751000  1.0
  O  O182  1  0.90979000  0.80901000  0.04873000  1.0
  O  O183  1  0.80667000  0.14252000  0.04859000  1.0
  O  O184  1  0.13902000  0.23955000  0.04881000  1.0
  O  O185  1  0.24205000  0.90608000  0.04876000  1.0
  O  O186  1  0.32887000  0.00093000  0.76488000  1.0
  O  O187  1  0.76354000  0.32868000  0.76454000  1.0
  O  O188  1  0.43521000  0.76324000  0.76438000  1.0
  O  O189  1  0.00131000  0.43533000  0.76438000  1.0
