# generated using pymatgen
data_Zn2H12C19(NO9)2
_symmetry_space_group_name_H-M   'P 1'
_cell_length_a   9.77385000
_cell_length_b   10.91830000
_cell_length_c   11.16890000
_cell_angle_alpha   92.52590000
_cell_angle_beta   95.38870000
_cell_angle_gamma   91.79510000
_symmetry_Int_Tables_number   1
_chemical_formula_structural   Zn2H12C19(NO9)2
_chemical_formula_sum   'Zn2 H12 C19 N2 O18'
_cell_volume   1184.70184928
_cell_formula_units_Z   1
loop_
 _symmetry_equiv_pos_site_id
 _symmetry_equiv_pos_as_xyz
  1  'x, y, z'
loop_
 _atom_site_type_symbol
 _atom_site_label
 _atom_site_symmetry_multiplicity
 _atom_site_fract_x
 _atom_site_fract_y
 _atom_site_fract_z
 _atom_site_occupancy
  Zn  Zn0  1  0.62811000  0.49778000  0.52793000  1.0
  Zn  Zn1  1  0.34150000  0.51315000  0.51248000  1.0
  H  H2  1  0.33206000  0.59373000  0.89224000  1.0
  H  H3  1  0.87989000  0.57647000  0.51490000  1.0
  H  H4  1  0.14242000  0.41637000  0.66879000  1.0
  H  H5  1  0.06741000  0.53413000  0.44156000  1.0
  H  H6  1  0.32479000  0.81582000  0.22734000  1.0
  H  H7  1  0.19710000  0.80441000  0.73598000  1.0
  H  H8  1  0.56188000  0.23808000  0.10147000  1.0
  H  H9  1  0.32264000  0.12234000  0.61652000  1.0
  H  H10  1  0.82447000  0.94393000  0.48781000  1.0
  H  H11  1  0.79012000  0.14878000  0.62284000  1.0
  H  H12  1  0.61160000  0.46906000  0.92353000  1.0
  H  H13  1  0.52955000  0.09206000  0.42576000  1.0
  C  C14  1  0.51744000  0.74213000  0.55904000  1.0
  C  C15  1  0.39475000  0.07372000  0.56412000  1.0
  C  C16  1  0.42119000  0.55822000  0.94429000  1.0
  C  C17  1  0.51405000  0.50019000  0.88258000  1.0
  C  C18  1  0.46119000  0.13667000  0.48476000  1.0
  C  C19  1  0.42535000  0.58536000  0.07354000  1.0
  C  C20  1  0.40740000  0.94293000  0.57864000  1.0
  C  C21  1  0.47961000  0.53380000  0.29378000  1.0
  C  C22  1  0.48769000  0.51706000  0.15995000  1.0
  C  C23  1  0.52395000  0.87987000  0.56825000  1.0
  C  C24  1  0.92624000  0.42332000  0.58807000  1.0
  C  C25  1  0.07644000  0.45022000  0.59347000  1.0
  C  C26  1  0.34206000  0.69306000  0.10544000  1.0
  C  C27  1  0.27461000  0.87882000  0.60544000  1.0
  C  C28  1  0.57356000  0.40959000  0.13185000  1.0
  C  C29  1  0.66174000  0.94318000  0.56894000  1.0
  C  C30  1  0.88573000  0.30970000  0.65204000  1.0
  C  C31  1  0.45621000  0.27215000  0.48162000  1.0
  C  C32  1  0.49311000  0.48653000  0.74969000  1.0
  N  N33  1  0.83740000  0.49593000  0.54176000  1.0
  N  N34  1  0.13273000  0.50792000  0.51266000  1.0
  O  O35  1  0.62706000  0.68557000  0.58386000  1.0
  O  O36  1  0.59676000  0.45138000  0.69652000  1.0
  O  O37  1  0.56622000  0.32558000  0.45445000  1.0
  O  O38  1  0.34819000  0.32379000  0.50969000  1.0
  O  O39  1  0.37689000  0.51257000  0.69681000  1.0
  O  O40  1  0.24333000  0.72717000  0.04154000  1.0
  O  O41  1  0.38970000  0.75172000  0.21162000  1.0
  O  O42  1  0.16724000  0.87707000  0.53981000  1.0
  O  O43  1  0.59304000  0.55756000  0.35626000  1.0
  O  O44  1  0.28675000  0.83875000  0.71883000  1.0
  O  O45  1  0.69772000  0.41722000  0.12867000  1.0
  O  O46  1  0.49765000  0.30313000  0.11650000  1.0
  O  O47  1  0.70907000  0.01969000  0.64786000  1.0
  O  O48  1  0.73166000  0.90547000  0.47663000  1.0
  O  O49  1  0.92012000  0.30939000  0.75996000  1.0
  O  O50  1  0.82127000  0.22335000  0.57983000  1.0
  O  O51  1  0.39869000  0.69495000  0.52470000  1.0
  O  O52  1  0.36299000  0.51192000  0.33069000  1.0
