# generated using pymatgen
data_MnH12(C3N)6
_symmetry_space_group_name_H-M   'P 1'
_cell_length_a   5.37533000
_cell_length_b   9.28628000
_cell_length_c   11.84480000
_cell_angle_alpha   96.90940000
_cell_angle_beta   95.92120000
_cell_angle_gamma   98.25420000
_symmetry_Int_Tables_number   1
_chemical_formula_structural   MnH12(C3N)6
_chemical_formula_sum   'Mn1 H12 C18 N6'
_cell_volume   576.49962464
_cell_formula_units_Z   1
loop_
 _symmetry_equiv_pos_site_id
 _symmetry_equiv_pos_as_xyz
  1  'x, y, z'
loop_
 _atom_site_type_symbol
 _atom_site_label
 _atom_site_symmetry_multiplicity
 _atom_site_fract_x
 _atom_site_fract_y
 _atom_site_fract_z
 _atom_site_occupancy
  Mn  Mn0  1  0.00002000  0.00005000  0.99965000  1.0
  H  H1  1  0.18205000  0.29787000  0.89843000  1.0
  H  H2  1  0.37125000  0.55601000  0.89535000  1.0
  H  H3  1  0.32935000  0.89527000  0.79368000  1.0
  H  H4  1  0.31768000  0.87775000  0.58485000  1.0
  H  H5  1  0.73178000  0.13036000  0.79538000  1.0
  H  H6  1  0.69720000  0.12912000  0.58551000  1.0
  H  H7  1  0.81791000  0.70215000  0.10158000  1.0
  H  H8  1  0.62871000  0.44398000  0.10464000  1.0
  H  H9  1  0.67063000  0.10473000  0.20636000  1.0
  H  H10  1  0.68230000  0.12223000  0.41517000  1.0
  H  H11  1  0.26821000  0.86964000  0.20465000  1.0
  H  H12  1  0.30274000  0.87087000  0.41451000  1.0
  C  C13  1  0.10095000  0.38632000  0.94244000  1.0
  C  C14  1  0.56013000  0.17138000  0.02622000  1.0
  C  C15  1  0.20696000  0.53169000  0.94080000  1.0
  C  C16  1  0.00517000  0.00225000  0.56294000  1.0
  C  C17  1  0.89187000  0.35201000  0.00170000  1.0
  C  C18  1  0.18853000  0.94395000  0.74434000  1.0
  C  C19  1  0.18179000  0.93570000  0.62604000  1.0
  C  C20  1  0.85752000  0.07541000  0.74445000  1.0
  C  C21  1  0.83993000  0.07359000  0.62635000  1.0
  C  C22  1  0.89906000  0.61370000  0.05758000  1.0
  C  C23  1  0.44000000  0.82860000  0.97382000  1.0
  C  C24  1  0.79305000  0.46831000  0.05923000  1.0
  C  C25  1  0.99479000  0.99773000  0.43706000  1.0
  C  C26  1  0.10815000  0.64800000  0.99832000  1.0
  C  C27  1  0.81148000  0.05603000  0.25569000  1.0
  C  C28  1  0.81817000  0.06427000  0.37400000  1.0
  C  C29  1  0.14243000  0.92459000  0.25557000  1.0
  C  C30  1  0.16001000  0.92639000  0.37369000  1.0
  N  N31  1  0.02955000  0.01266000  0.80392000  1.0
  N  N32  1  0.35403000  0.13082000  0.05022000  1.0
  N  N33  1  0.78670000  0.20302000  0.00154000  1.0
  N  N34  1  0.97045000  0.98736000  0.19606000  1.0
  N  N35  1  0.64608000  0.86923000  0.94986000  1.0
  N  N36  1  0.21335000  0.79697000  0.99839000  1.0
