# generated using pymatgen
data_CdH20C32S(NO)4
_symmetry_space_group_name_H-M   'P 1'
_cell_length_a   10.19020000
_cell_length_b   15.27400000
_cell_length_c   25.43077793
_cell_angle_alpha   86.17339006
_cell_angle_beta   78.45407769
_cell_angle_gamma   70.50410000
_symmetry_Int_Tables_number   1
_chemical_formula_structural   CdH20C32S(NO)4
_chemical_formula_sum   'Cd4 H80 C128 S4 N16 O16'
_cell_volume   3655.73272876
_cell_formula_units_Z   4
loop_
 _symmetry_equiv_pos_site_id
 _symmetry_equiv_pos_as_xyz
  1  'x, y, z'
loop_
 _atom_site_type_symbol
 _atom_site_label
 _atom_site_symmetry_multiplicity
 _atom_site_fract_x
 _atom_site_fract_y
 _atom_site_fract_z
 _atom_site_occupancy
  Cd  Cd0  1  0.13956000  0.37252000  0.62488000  1.0
  Cd  Cd1  1  0.13668000  0.62747000  0.37513000  1.0
  Cd  Cd2  1  0.51414000  0.87231000  0.87519000  1.0
  Cd  Cd3  1  0.26121000  0.12768000  0.12481000  1.0
  H  H4  1  0.50792000  0.38695000  0.46888000  1.0
  H  H5  1  0.36378000  0.61296000  0.53113000  1.0
  H  H6  1  0.72628000  0.88740000  0.03114000  1.0
  H  H7  1  0.64391000  0.11288000  0.96890000  1.0
  H  H8  1  0.75113000  0.38746000  0.42521000  1.0
  H  H9  1  0.56398000  0.61234000  0.57476000  1.0
  H  H10  1  0.92555000  0.88825000  0.07489000  1.0
  H  H11  1  0.88743000  0.11247000  0.92504000  1.0
  H  H12  1  0.92994000  0.37442000  0.48231000  1.0
  H  H13  1  0.78666000  0.62551000  0.51764000  1.0
  H  H14  1  0.16166000  0.87485000  0.01789000  1.0
  H  H15  1  0.05341000  0.12577000  0.98194000  1.0
  H  H16  1  0.62289000  0.36751000  0.62392000  1.0
  H  H17  1  0.61394000  0.63266000  0.37606000  1.0
  H  H18  1  0.99683000  0.86716000  0.87621000  1.0
  H  H19  1  0.73992000  0.13295000  0.12376000  1.0
  H  H20  1  0.02679000  0.69884000  0.52185000  1.0
  H  H21  1  0.24781000  0.30100000  0.47807000  1.0
  H  H22  1  0.29915000  0.19871000  0.97815000  1.0
  H  H23  1  0.47622000  0.80106000  0.02202000  1.0
  H  H24  1  0.16242000  0.54015000  0.54547000  1.0
  H  H25  1  0.24854000  0.45963000  0.45447000  1.0
  H  H26  1  0.45819000  0.04000000  0.95453000  1.0
  H  H27  1  0.45291000  0.95981000  0.04557000  1.0
  H  H28  1  0.86637000  0.53985000  0.68345000  1.0
  H  H29  1  0.09041000  0.46001000  0.31639000  1.0
  H  H30  1  0.30002000  0.03983000  0.81654000  1.0
  H  H31  1  0.15643000  0.96019000  0.18351000  1.0
  H  H32  1  0.71524000  0.69973000  0.66627000  1.0
  H  H33  1  0.08164000  0.30023000  0.33360000  1.0
  H  H34  1  0.13202000  0.19980000  0.83368000  1.0
  H  H35  1  0.16521000  0.80031000  0.16634000  1.0
  H  H36  1  0.84023000  0.86941000  0.68078000  1.0
  H  H37  1  0.39035000  0.13063000  0.31921000  1.0
  H  H38  1  0.27165000  0.36932000  0.81930000  1.0
  H  H39  1  0.46048000  0.63050000  0.18086000  1.0
  H  H40  1  0.76389000  0.88052000  0.78173000  1.0
  H  H41  1  0.42584000  0.11970000  0.21827000  1.0
  H  H42  1  0.29640000  0.38036000  0.71835000  1.0
  H  H43  1  0.39503000  0.61934000  0.28180000  1.0
  H  H44  1  0.36127000  0.88279000  0.77464000  1.0
  H  H45  1  0.01874000  0.11679000  0.22542000  1.0
  H  H46  1  0.88661000  0.38301000  0.72531000  1.0
  H  H47  1  0.99483000  0.61705000  0.27456000  1.0
  H  H48  1  0.41336000  0.88386000  0.67333000  1.0
  H  H49  1  0.97087000  0.11551000  0.32671000  1.0
  H  H50  1  0.83723000  0.38416000  0.82661000  1.0
  H  H51  1  0.04825000  0.61593000  0.17325000  1.0
  H  H52  1  0.60756000  0.08092000  0.64717000  1.0
  H  H53  1  0.33615000  0.91870000  0.35306000  1.0
  H  H54  1  0.00459000  0.58105000  0.85287000  1.0
  H  H55  1  0.43901000  0.41872000  0.14700000  1.0
  H  H56  1  0.41633000  0.23106000  0.67521000  1.0
  H  H57  1  0.32265000  0.76873000  0.32497000  1.0
  H  H58  1  0.84102000  0.73101000  0.82481000  1.0
  H  H59  1  0.39748000  0.26871000  0.17495000  1.0
  H  H60  1  0.13966000  0.16970000  0.59694000  1.0
  H  H61  1  0.90618000  0.83066000  0.40310000  1.0
  H  H62  1  0.48660000  0.66920000  0.90312000  1.0
  H  H63  1  0.05903000  0.33089000  0.09686000  1.0
  H  H64  1  0.32106000  0.01754000  0.56344000  1.0
  H  H65  1  0.90237000  0.98265000  0.43666000  1.0
  H  H66  1  0.63488000  0.51722000  0.93667000  1.0
  H  H67  1  0.08875000  0.48291000  0.06341000  1.0
  H  H68  1  0.58590000  0.12994000  0.51466000  1.0
  H  H69  1  0.23153000  0.87012000  0.48550000  1.0
  H  H70  1  0.85130000  0.62979000  0.98540000  1.0
  H  H71  1  0.46619000  0.37029000  0.01456000  1.0
  H  H72  1  0.52859000  0.22310000  0.43380000  1.0
  H  H73  1  0.18569000  0.77688000  0.56622000  1.0
  H  H74  1  0.71252000  0.72314000  0.06611000  1.0
  H  H75  1  0.50152000  0.27705000  0.93379000  1.0
  H  H76  1  0.56051000  0.99125000  0.34988000  1.0
  H  H77  1  0.90145000  0.00875000  0.65004000  1.0
  H  H78  1  0.66012000  0.49145000  0.15007000  1.0
  H  H79  1  0.30144000  0.50892000  0.84988000  1.0
  H  H80  1  0.61513000  0.88753000  0.42788000  1.0
  H  H81  1  0.93069000  0.11247000  0.57207000  1.0
  H  H82  1  0.79292000  0.38760000  0.07214000  1.0
  H  H83  1  0.25276000  0.61269000  0.92782000  1.0
  C  C84  1  0.55166000  0.37548000  0.54884000  1.0
  C  C85  1  0.47583000  0.62454000  0.45116000  1.0
  C  C86  1  0.85027000  0.87552000  0.95123000  1.0
  C  C87  1  0.67644000  0.12466000  0.04878000  1.0
  C  C88  1  0.58837000  0.38056000  0.49277000  1.0
  C  C89  1  0.46169000  0.61935000  0.50722000  1.0
  C  C90  1  0.83068000  0.88093000  0.00729000  1.0
  C  C91  1  0.71803000  0.11943000  0.99270000  1.0
  C  C92  1  0.72398000  0.38043000  0.46865000  1.0
  C  C93  1  0.57309000  0.61945000  0.53133000  1.0
  C  C94  1  0.94204000  0.88097000  0.03145000  1.0
  C  C95  1  0.85342000  0.11961000  0.96848000  1.0
  C  C96  1  0.82414000  0.37338000  0.50032000  1.0
  C  C97  1  0.69778000  0.62657000  0.49965000  1.0
  C  C98  1  0.07398000  0.87375000  0.99983000  1.0
  C  C99  1  0.94664000  0.12682000  0.00006000  1.0
  C  C100  1  0.78916000  0.36716000  0.55638000  1.0
  C  C101  1  0.71257000  0.63285000  0.44359000  1.0
  C  C102  1  0.09527000  0.86726000  0.94378000  1.0
  C  C103  1  0.90570000  0.13314000  0.05612000  1.0
  C  C104  1  0.65212000  0.36956000  0.58036000  1.0
  C  C105  1  0.60183000  0.63049000  0.41963000  1.0
  C  C106  1  0.98232000  0.86948000  0.91977000  1.0
  C  C107  1  0.77108000  0.13076000  0.08020000  1.0
  C  C108  1  0.40522000  0.37807000  0.57512000  1.0
  C  C109  1  0.35818000  0.62189000  0.42492000  1.0
  C  C110  1  0.73018000  0.87799000  0.92491000  1.0
  C  C111  1  0.53268000  0.12199000  0.07518000  1.0
  C  C112  1  0.89704000  0.36060000  0.59030000  1.0
  C  C113  1  0.84780000  0.63941000  0.40970000  1.0
  C  C114  1  0.23713000  0.86053000  0.90987000  1.0
  C  C115  1  0.00728000  0.13963000  0.08995000  1.0
  C  C116  1  0.76892000  0.80675000  0.57817000  1.0
  C  C117  1  0.15410000  0.19322000  0.42179000  1.0
  C  C118  1  0.09760000  0.30676000  0.92183000  1.0
  C  C119  1  0.32623000  0.69322000  0.07822000  1.0
  C  C120  1  0.66617000  0.87775000  0.60992000  1.0
  C  C121  1  0.15414000  0.12212000  0.39010000  1.0
  C  C122  1  0.02660000  0.37782000  0.89011000  1.0
  C  C123  1  0.29482000  0.62208000  0.10992000  1.0
  C  C124  1  0.59476000  0.95359000  0.57886000  1.0
  C  C125  1  0.12778000  0.04631000  0.42123000  1.0
  C  C126  1  0.92403000  0.45356000  0.92120000  1.0
  C  C127  1  0.29905000  0.54638000  0.07880000  1.0
  C  C128  1  0.64458000  0.93923000  0.52393000  1.0
  C  C129  1  0.10845000  0.06075000  0.47614000  1.0
  C  C130  1  0.91895000  0.43916000  0.97612000  1.0
  C  C131  1  0.33425000  0.56089000  0.02388000  1.0
  C  C132  1  0.85815000  0.71542000  0.59284000  1.0
  C  C133  1  0.16676000  0.28449000  0.40706000  1.0
  C  C134  1  0.20149000  0.21542000  0.90714000  1.0
  C  C135  1  0.32399000  0.78456000  0.09294000  1.0
  C  C136  1  0.98670000  0.66830000  0.55892000  1.0
  C  C137  1  0.21430000  0.33156000  0.44099000  1.0
  C  C138  1  0.29607000  0.16823000  0.94106000  1.0
  C  C139  1  0.40546000  0.83165000  0.05905000  1.0
  C  C140  1  0.06404000  0.57859000  0.57183000  1.0
  C  C141  1  0.21495000  0.42124000  0.42809000  1.0
  C  C142  1  0.38620000  0.07849000  0.92817000  1.0
  C  C143  1  0.39295000  0.92139000  0.07192000  1.0
  C  C144  1  0.89946000  0.57875000  0.64880000  1.0
  C  C145  1  0.12755000  0.42112000  0.35108000  1.0
  C  C146  1  0.29854000  0.07872000  0.85118000  1.0
  C  C147  1  0.22839000  0.92128000  0.14886000  1.0
  C  C148  1  0.81527000  0.66836000  0.63906000  1.0
  C  C149  1  0.12311000  0.33155000  0.36083000  1.0
  C  C150  1  0.20479000  0.16838000  0.86091000  1.0
  C  C151  1  0.23391000  0.83165000  0.13913000  1.0
  C  C152  1  0.63132000  0.87735000  0.66909000  1.0
  C  C153  1  0.17789000  0.12242000  0.33093000  1.0
  C  C154  1  0.05099000  0.37748000  0.83093000  1.0
  C  C155  1  0.25966000  0.62241000  0.16908000  1.0
  C  C156  1  0.73203000  0.87462000  0.70009000  1.0
  C  C157  1  0.30671000  0.12534000  0.29990000  1.0
  C  C158  1  0.18276000  0.37463000  0.79996000  1.0
  C  C159  1  0.35754000  0.62518000  0.20013000  1.0
  C  C160  1  0.69148000  0.87889000  0.75571000  1.0
  C  C161  1  0.32591000  0.12115000  0.24429000  1.0
  C  C162  1  0.19790000  0.37887000  0.74435000  1.0
  C  C163  1  0.32111000  0.62093000  0.25575000  1.0
  C  C164  1  0.46429000  0.88254000  0.75169000  1.0
  C  C165  1  0.09854000  0.11714000  0.24835000  1.0
  C  C166  1  0.96663000  0.38273000  0.74830000  1.0
  C  C167  1  0.09763000  0.61726000  0.25164000  1.0
  C  C168  1  0.49466000  0.88207000  0.69586000  1.0
  C  C169  1  0.07276000  0.11753000  0.30419000  1.0
  C  C170  1  0.94112000  0.38230000  0.80413000  1.0
  C  C171  1  0.12770000  0.61768000  0.19581000  1.0
  C  C172  1  0.48081000  0.03782000  0.60167000  1.0
  C  C173  1  0.12074000  0.96204000  0.39851000  1.0
  C  C174  1  0.83264000  0.53777000  0.89845000  1.0
  C  C175  1  0.26911000  0.46217000  0.10153000  1.0
  C  C176  1  0.50485000  0.09754000  0.63542000  1.0
  C  C177  1  0.23818000  0.90223000  0.36479000  1.0
  C  C178  1  0.89016000  0.59755000  0.86465000  1.0
  C  C179  1  0.35277000  0.40229000  0.13525000  1.0
  C  C180  1  0.39814000  0.18071000  0.65159000  1.0
  C  C181  1  0.23059000  0.81915000  0.34858000  1.0
  C  C182  1  0.79943000  0.68063000  0.84847000  1.0
  C  C183  1  0.32898000  0.31920000  0.15139000  1.0
  C  C184  1  0.24472000  0.14648000  0.60734000  1.0
  C  C185  1  0.99861000  0.85366000  0.39276000  1.0
  C  C186  1  0.60202000  0.64618000  0.89275000  1.0
  C  C187  1  0.14113000  0.35386000  0.10722000  1.0
  C  C188  1  0.34583000  0.06258000  0.58864000  1.0
  C  C189  1  0.99733000  0.93749000  0.41149000  1.0
  C  C190  1  0.68466000  0.56234000  0.91146000  1.0
  C  C191  1  0.15859000  0.43771000  0.08855000  1.0
  C  C192  1  0.60521000  0.99969000  0.47851000  1.0
  C  C193  1  0.08406000  0.00034000  0.52156000  1.0
  C  C194  1  0.83409000  0.49964000  0.02153000  1.0
  C  C195  1  0.35513000  0.50053000  0.97845000  1.0
  C  C196  1  0.57948000  0.09600000  0.47934000  1.0
  C  C197  1  0.15559000  0.90402000  0.52076000  1.0
  C  C198  1  0.80935000  0.59593000  0.02069000  1.0
  C  C199  1  0.42569000  0.40420000  0.97927000  1.0
  C  C200  1  0.54810000  0.14827000  0.43362000  1.0
  C  C201  1  0.13034000  0.85173000  0.56642000  1.0
  C  C202  1  0.73195000  0.64830000  0.06634000  1.0
  C  C203  1  0.44630000  0.35190000  0.93359000  1.0
  C  C204  1  0.56614000  0.02009000  0.38730000  1.0
  C  C205  1  0.97357000  0.97992000  0.61266000  1.0
  C  C206  1  0.70337000  0.52021000  0.11266000  1.0
  C  C207  1  0.33605000  0.48010000  0.88729000  1.0
  C  C208  1  0.59784000  0.96169000  0.43072000  1.0
  C  C209  1  0.99057000  0.03833000  0.56929000  1.0
  C  C210  1  0.77870000  0.46172000  0.06931000  1.0
  C  C211  1  0.30962000  0.53853000  0.93067000  1.0
  S  S212  1  0.77605000  0.83382000  0.51111000  1.0
  S  S213  1  0.12144000  0.16626000  0.48888000  1.0
  S  S214  1  0.03759000  0.33371000  0.98891000  1.0
  S  S215  1  0.36007000  0.66638000  0.01114000  1.0
  N  N216  1  0.02177000  0.53403000  0.61599000  1.0
  N  N217  1  0.17239000  0.46580000  0.38390000  1.0
  N  N218  1  0.38800000  0.03392000  0.88401000  1.0
  N  N219  1  0.30599000  0.96599000  0.11606000  1.0
  N  N220  1  0.56066000  0.88199000  0.78106000  1.0
  N  N221  1  0.22352000  0.11796000  0.21896000  1.0
  N  N222  1  0.09242000  0.38208000  0.71896000  1.0
  N  N223  1  0.19337000  0.61779000  0.28105000  1.0
  N  N224  1  0.27067000  0.20596000  0.63713000  1.0
  N  N225  1  0.11376000  0.79408000  0.36299000  1.0
  N  N226  1  0.65751000  0.70574000  0.86293000  1.0
  N  N227  1  0.22652000  0.29417000  0.13695000  1.0
  N  N228  1  0.54067000  0.11216000  0.38793000  1.0
  N  N229  1  0.04076000  0.88784000  0.61204000  1.0
  N  N230  1  0.67859000  0.61227000  0.11200000  1.0
  N  N231  1  0.40253000  0.38801000  0.88794000  1.0
  O  O232  1  0.37080000  0.38426000  0.62631000  1.0
  O  O233  1  0.38102000  0.61566000  0.37374000  1.0
  O  O234  1  0.74702000  0.88404000  0.87371000  1.0
  O  O235  1  0.50459000  0.11584000  0.12636000  1.0
  O  O236  1  0.32010000  0.37354000  0.54557000  1.0
  O  O237  1  0.23898000  0.62653000  0.45447000  1.0
  O  O238  1  0.61556000  0.87337000  0.95443000  1.0
  O  O239  1  0.44291000  0.12647000  0.04568000  1.0
  O  O240  1  0.85876000  0.37779000  0.63995000  1.0
  O  O241  1  0.87653000  0.62210000  0.36005000  1.0
  O  O242  1  0.24845000  0.87777000  0.86022000  1.0
  O  O243  1  0.98625000  0.12258000  0.13963000  1.0
  O  O244  1  0.02715000  0.33781000  0.56531000  1.0
  O  O245  1  0.93008000  0.66221000  0.43473000  1.0
  O  O246  1  0.34226000  0.83768000  0.93487000  1.0
  O  O247  1  0.11479000  0.16213000  0.06490000  1.0
