# generated using pymatgen
data_YH24C21(NO2)4
_symmetry_space_group_name_H-M   'P 1'
_cell_length_a   9.91074000
_cell_length_b   10.53980000
_cell_length_c   12.57670000
_cell_angle_alpha   70.09740000
_cell_angle_beta   73.79320000
_cell_angle_gamma   62.44480000
_symmetry_Int_Tables_number   1
_chemical_formula_structural   YH24C21(NO2)4
_chemical_formula_sum   'Y2 H48 C42 N8 O16'
_cell_volume   1083.42164440
_cell_formula_units_Z   2
loop_
 _symmetry_equiv_pos_site_id
 _symmetry_equiv_pos_as_xyz
  1  'x, y, z'
loop_
 _atom_site_type_symbol
 _atom_site_label
 _atom_site_symmetry_multiplicity
 _atom_site_fract_x
 _atom_site_fract_y
 _atom_site_fract_z
 _atom_site_occupancy
  Y  Y0  1  0.95039000  0.22306000  0.31137000  1.0
  Y  Y1  1  0.04961000  0.77694000  0.68863000  1.0
  H  H2  1  0.77543000  0.35582000  0.93706000  1.0
  H  H3  1  0.22458000  0.64418000  0.06294000  1.0
  H  H4  1  0.41585000  0.52599000  0.19996000  1.0
  H  H5  1  0.58415000  0.47402000  0.80005000  1.0
  H  H6  1  0.62125000  0.12078000  0.31823000  1.0
  H  H7  1  0.37875000  0.87922000  0.68177000  1.0
  H  H8  1  0.64853000  0.85612000  0.66380000  1.0
  H  H9  1  0.35147000  0.14388000  0.33620000  1.0
  H  H10  1  0.32705000  0.86776000  0.07315000  1.0
  H  H11  1  0.67294000  0.13224000  0.92685000  1.0
  H  H12  1  0.44199000  0.21401000  0.07356000  1.0
  H  H13  1  0.55800000  0.78600000  0.92644000  1.0
  H  H14  1  0.41283000  0.32397000  0.74963000  1.0
  H  H15  1  0.58716000  0.67603000  0.25037000  1.0
  H  H16  1  0.48199000  0.14632000  0.72371000  1.0
  H  H17  1  0.51801000  0.85367000  0.27629000  1.0
  H  H18  1  0.36150000  0.26670000  0.55695000  1.0
  H  H19  1  0.63850000  0.73330000  0.44305000  1.0
  H  H20  1  0.31945000  0.44346000  0.57383000  1.0
  H  H21  1  0.68055000  0.55654000  0.42617000  1.0
  H  H22  1  0.79241000  0.88804000  0.09352000  1.0
  H  H23  1  0.20758000  0.11196000  0.90648000  1.0
  H  H24  1  0.99358000  0.82028000  0.05005000  1.0
  H  H25  1  0.00642000  0.17972000  0.94995000  1.0
  H  H26  1  0.93174000  0.96177000  0.19129000  1.0
  H  H27  1  0.06826000  0.03824000  0.80871000  1.0
  H  H28  1  0.81260000  0.87356000  0.28461000  1.0
  H  H29  1  0.18740000  0.12644000  0.71539000  1.0
  H  H30  1  0.16313000  0.72960000  0.22187000  1.0
  H  H31  1  0.83687000  0.27040000  0.77813000  1.0
  H  H32  1  0.05976000  0.76072000  0.35653000  1.0
  H  H33  1  0.94024000  0.23928000  0.64347000  1.0
  H  H34  1  0.10953000  0.38350000  0.42569000  1.0
  H  H35  1  0.89047000  0.61650000  0.57431000  1.0
  H  H36  1  0.13355000  0.51874000  0.46618000  1.0
  H  H37  1  0.86645000  0.48126000  0.53382000  1.0
  H  H38  1  0.26267000  0.43899000  0.35276000  1.0
  H  H39  1  0.73733000  0.56101000  0.64724000  1.0
  H  H40  1  0.90065000  0.50257000  0.10545000  1.0
  H  H41  1  0.09934000  0.49743000  0.89455000  1.0
  H  H42  1  0.90016000  0.66404000  0.99859000  1.0
  H  H43  1  0.09984000  0.33596000  0.00141000  1.0
  H  H44  1  0.73015000  0.66968000  0.09658000  1.0
  H  H45  1  0.26985000  0.33032000  0.90341000  1.0
  H  H46  1  0.54728000  0.37440000  0.40199000  1.0
  H  H47  1  0.45271000  0.62560000  0.59801000  1.0
  H  H48  1  0.72059000  0.16946000  0.69801000  1.0
  H  H49  1  0.27941000  0.83053000  0.30200000  1.0
  C  C50  1  0.60759000  0.43152000  0.07739000  1.0
  C  C51  1  0.39241000  0.56848000  0.92261000  1.0
  C  C52  1  0.65430000  0.41865000  0.96402000  1.0
  C  C53  1  0.34570000  0.58135000  0.03598000  1.0
  C  C54  1  0.45187000  0.51422000  0.11238000  1.0
  C  C55  1  0.54813000  0.48578000  0.88763000  1.0
  C  C56  1  0.72259000  0.35907000  0.15959000  1.0
  C  C57  1  0.27741000  0.64093000  0.84042000  1.0
  C  C58  1  0.64950000  0.98630000  0.48955000  1.0
  C  C59  1  0.35050000  0.01370000  0.51045000  1.0
  C  C60  1  0.56700000  0.06762000  0.39690000  1.0
  C  C61  1  0.43301000  0.93238000  0.60310000  1.0
  C  C62  1  0.58216000  0.91863000  0.59285000  1.0
  C  C63  1  0.41785000  0.08137000  0.40714000  1.0
  C  C64  1  0.80856000  0.97442000  0.47981000  1.0
  C  C65  1  0.19144000  0.02558000  0.52018000  1.0
  C  C66  1  0.37132000  0.04499000  0.08288000  1.0
  C  C67  1  0.62867000  0.95501000  0.91712000  1.0
  C  C68  1  0.40386000  0.92470000  0.04103000  1.0
  C  C69  1  0.59614000  0.07530000  0.95898000  1.0
  C  C70  1  0.46866000  0.11998000  0.04125000  1.0
  C  C71  1  0.53134000  0.88002000  0.95875000  1.0
  C  C72  1  0.22925000  0.09848000  0.16663000  1.0
  C  C73  1  0.77075000  0.90152000  0.83338000  1.0
  C  C74  1  0.66943000  0.29039000  0.53643000  1.0
  C  C75  1  0.33057000  0.70961000  0.46357000  1.0
  C  C76  1  0.47887000  0.25824000  0.68660000  1.0
  C  C77  1  0.52113000  0.74176000  0.31340000  1.0
  C  C78  1  0.40987000  0.33238000  0.57318000  1.0
  C  C79  1  0.59013000  0.66762000  0.42682000  1.0
  C  C80  1  0.96903000  0.56310000  0.25626000  1.0
  C  C81  1  0.03097000  0.43690000  0.74374000  1.0
  C  C82  1  0.90353000  0.81349000  0.12410000  1.0
  C  C83  1  0.09647000  0.18651000  0.87590000  1.0
  C  C84  1  0.91797000  0.85724000  0.22187000  1.0
  C  C85  1  0.08203000  0.14276000  0.77813000  1.0
  C  C86  1  0.05430000  0.73705000  0.27963000  1.0
  C  C87  1  0.94570000  0.26295000  0.72037000  1.0
  C  C88  1  0.14192000  0.47737000  0.39456000  1.0
  C  C89  1  0.85808000  0.52263000  0.60544000  1.0
  C  C90  1  0.85640000  0.62243000  0.08730000  1.0
  C  C91  1  0.14360000  0.37757000  0.91270000  1.0
  N  N92  1  0.54285000  0.33800000  0.48865000  1.0
  N  N93  1  0.45715000  0.66200000  0.51135000  1.0
  N  N94  1  0.63478000  0.25351000  0.65296000  1.0
  N  N95  1  0.36522000  0.74649000  0.34704000  1.0
  N  N96  1  0.90913000  0.66383000  0.16185000  1.0
  N  N97  1  0.09087000  0.33617000  0.83815000  1.0
  N  N98  1  0.04141000  0.59537000  0.31465000  1.0
  N  N99  1  0.95859000  0.40463000  0.68535000  1.0
  O  O100  1  0.86258000  0.27790000  0.12839000  1.0
  O  O101  1  0.13742000  0.72209000  0.87161000  1.0
  O  O102  1  0.67996000  0.38088000  0.26001000  1.0
  O  O103  1  0.32004000  0.61911000  0.74000000  1.0
  O  O104  1  0.86222000  0.04463000  0.38736000  1.0
  O  O105  1  0.13779000  0.95537000  0.61264000  1.0
  O  O106  1  0.87923000  0.89511000  0.56479000  1.0
  O  O107  1  0.12078000  0.10488000  0.43521000  1.0
  O  O108  1  0.18272000  0.22679000  0.18159000  1.0
  O  O109  1  0.81727000  0.77321000  0.81841000  1.0
  O  O110  1  0.15480000  0.01731000  0.21982000  1.0
  O  O111  1  0.84520000  0.98270000  0.78018000  1.0
  O  O112  1  0.80025000  0.28335000  0.48328000  1.0
  O  O113  1  0.19974000  0.71665000  0.51672000  1.0
  O  O114  1  0.95635000  0.44048000  0.29078000  1.0
  O  O115  1  0.04365000  0.55952000  0.70922000  1.0
