# generated using pymatgen
data_AlH12C18NO7
_symmetry_space_group_name_H-M   'P 1'
_cell_length_a   6.64886000
_cell_length_b   20.94710000
_cell_length_c   21.40660000
_cell_angle_alpha   90.00000000
_cell_angle_beta   90.00170000
_cell_angle_gamma   96.23970000
_symmetry_Int_Tables_number   1
_chemical_formula_structural   AlH12C18NO7
_chemical_formula_sum   'Al4 H48 C72 N4 O28'
_cell_volume   2963.72791167
_cell_formula_units_Z   4
loop_
 _symmetry_equiv_pos_site_id
 _symmetry_equiv_pos_as_xyz
  1  'x, y, z'
loop_
 _atom_site_type_symbol
 _atom_site_label
 _atom_site_symmetry_multiplicity
 _atom_site_fract_x
 _atom_site_fract_y
 _atom_site_fract_z
 _atom_site_occupancy
  Al  Al0  1  0.92810000  0.69010000  0.49665000  1.0
  Al  Al1  1  0.07191000  0.30990000  0.99665000  1.0
  Al  Al2  1  0.42753000  0.69012000  0.49496000  1.0
  Al  Al3  1  0.57248000  0.30988000  0.99496000  1.0
  H  H4  1  0.00018000  0.51114000  0.05244000  1.0
  H  H5  1  0.99992000  0.48885000  0.55242000  1.0
  H  H6  1  0.93561000  0.65626000  0.21819000  1.0
  H  H7  1  0.06445000  0.34374000  0.71818000  1.0
  H  H8  1  0.01005000  0.60742000  0.12136000  1.0
  H  H9  1  0.99006000  0.39257000  0.62134000  1.0
  H  H10  1  0.48174000  0.48158000  0.45413000  1.0
  H  H11  1  0.51824000  0.51842000  0.95414000  1.0
  H  H12  1  0.57780000  0.38053000  0.40511000  1.0
  H  H13  1  0.42215000  0.61947000  0.90512000  1.0
  H  H14  1  0.78547000  0.65011000  0.32334000  1.0
  H  H15  1  0.21455000  0.34989000  0.82333000  1.0
  H  H16  1  0.42572000  0.80652000  0.34243000  1.0
  H  H17  1  0.57422000  0.19349000  0.84243000  1.0
  H  H18  1  0.44621000  0.90064000  0.26807000  1.0
  H  H19  1  0.55377000  0.09937000  0.76807000  1.0
  H  H20  1  0.41589000  0.02889000  0.13017000  1.0
  H  H21  1  0.58413000  0.97111000  0.63018000  1.0
  H  H22  1  0.47056000  0.12936000  0.06533000  1.0
  H  H23  1  0.52947000  0.87064000  0.56534000  1.0
  H  H24  1  0.02875000  0.86719000  0.40713000  1.0
  H  H25  1  0.97121000  0.13282000  0.90711000  1.0
  H  H26  1  0.04353000  0.96392000  0.33631000  1.0
  H  H27  1  0.95645000  0.03608000  0.83630000  1.0
  H  H28  1  0.06815000  0.08961000  0.26859000  1.0
  H  H29  1  0.93183000  0.91041000  0.76858000  1.0
  H  H30  1  0.18483000  0.20641000  0.10487000  1.0
  H  H31  1  0.81521000  0.79358000  0.60487000  1.0
  H  H32  1  0.54563000  0.30444000  0.23412000  1.0
  H  H33  1  0.57032000  0.31543000  0.15222000  1.0
  H  H34  1  0.36889000  0.40450000  0.24162000  1.0
  H  H35  1  0.38462000  0.41318000  0.15927000  1.0
  H  H36  1  0.18795000  0.30227000  0.14757000  1.0
  H  H37  1  0.04928000  0.35343000  0.19203000  1.0
  H  H38  1  0.17727000  0.29533000  0.22996000  1.0
  H  H39  1  0.45435000  0.69555000  0.73413000  1.0
  H  H40  1  0.42963000  0.68457000  0.65223000  1.0
  H  H41  1  0.63109000  0.59550000  0.74162000  1.0
  H  H42  1  0.61530000  0.58682000  0.65926000  1.0
  H  H43  1  0.81196000  0.69773000  0.64757000  1.0
  H  H44  1  0.95067000  0.64657000  0.69201000  1.0
  H  H45  1  0.82273000  0.70466000  0.72996000  1.0
  H  H46  1  0.74836000  0.32423000  0.32037000  1.0
  H  H47  1  0.25155000  0.67577000  0.82039000  1.0
  H  H48  1  0.16258000  0.65762000  0.42082000  1.0
  H  H49  1  0.83740000  0.34238000  0.92082000  1.0
  H  H50  1  0.66393000  0.66063000  0.57124000  1.0
  H  H51  1  0.33609000  0.33937000  0.07125000  1.0
  C  C52  1  0.14316000  0.60769000  0.57649000  1.0
  C  C53  1  0.85688000  0.39231000  0.07649000  1.0
  C  C54  1  0.21738000  0.78286000  0.56267000  1.0
  C  C55  1  0.78266000  0.21714000  0.06267000  1.0
  C  C56  1  0.71528000  0.77547000  0.42149000  1.0
  C  C57  1  0.28468000  0.22454000  0.92149000  1.0
  C  C58  1  0.64048000  0.60007000  0.42491000  1.0
  C  C59  1  0.35952000  0.39993000  0.92491000  1.0
  C  C60  1  0.95666000  0.55979000  0.13913000  1.0
  C  C61  1  0.04342000  0.44020000  0.63912000  1.0
  C  C62  1  0.86820000  0.44598000  0.12307000  1.0
  C  C63  1  0.13183000  0.55402000  0.62306000  1.0
  C  C64  1  0.56468000  0.48316000  0.41013000  1.0
  C  C65  1  0.43530000  0.51684000  0.91013000  1.0
  C  C66  1  0.61476000  0.42668000  0.38177000  1.0
  C  C67  1  0.38520000  0.57332000  0.88178000  1.0
  C  C68  1  0.72783000  0.42904000  0.32702000  1.0
  C  C69  1  0.27214000  0.57095000  0.82702000  1.0
  C  C70  1  0.76584000  0.48758000  0.29275000  1.0
  C  C71  1  0.23416000  0.51242000  0.79276000  1.0
  C  C72  1  0.73703000  0.54548000  0.32539000  1.0
  C  C73  1  0.26298000  0.45451000  0.82538000  1.0
  C  C74  1  0.82695000  0.49168000  0.22753000  1.0
  C  C75  1  0.17307000  0.50832000  0.72753000  1.0
  C  C76  1  0.89283000  0.55356000  0.20191000  1.0
  C  C77  1  0.10722000  0.44643000  0.70190000  1.0
  C  C78  1  0.88411000  0.60981000  0.23904000  1.0
  C  C79  1  0.11593000  0.39018000  0.73903000  1.0
  C  C80  1  0.80195000  0.60632000  0.29735000  1.0
  C  C81  1  0.19808000  0.39367000  0.79734000  1.0
  C  C82  1  0.80702000  0.43824000  0.18555000  1.0
  C  C83  1  0.19298000  0.56176000  0.68555000  1.0
  C  C84  1  0.94869000  0.50680000  0.10079000  1.0
  C  C85  1  0.05139000  0.49319000  0.60078000  1.0
  C  C86  1  0.64157000  0.54181000  0.38505000  1.0
  C  C87  1  0.35843000  0.45820000  0.88505000  1.0
  C  C88  1  0.76963000  0.15644000  0.10020000  1.0
  C  C89  1  0.23040000  0.84356000  0.60021000  1.0
  C  C90  1  0.92634000  0.13972000  0.14053000  1.0
  C  C91  1  0.07368000  0.86028000  0.64053000  1.0
  C  C92  1  0.89178000  0.08531000  0.17934000  1.0
  C  C93  1  0.10824000  0.91469000  0.67934000  1.0
  C  C94  1  0.70501000  0.04622000  0.17498000  1.0
  C  C95  1  0.29502000  0.95378000  0.67498000  1.0
  C  C96  1  0.55749000  0.06028000  0.13200000  1.0
  C  C97  1  0.44254000  0.93972000  0.63201000  1.0
  C  C98  1  0.58832000  0.11587000  0.09643000  1.0
  C  C99  1  0.41171000  0.88412000  0.59644000  1.0
  C  C100  1  0.57138000  0.89256000  0.29894000  1.0
  C  C101  1  0.42859000  0.10745000  0.79894000  1.0
  C  C102  1  0.56111000  0.84080000  0.33972000  1.0
  C  C103  1  0.43885000  0.15921000  0.83971000  1.0
  C  C104  1  0.74711000  0.93658000  0.29818000  1.0
  C  C105  1  0.25287000  0.06343000  0.79818000  1.0
  C  C106  1  0.72681000  0.83143000  0.37828000  1.0
  C  C107  1  0.27314000  0.16857000  0.87827000  1.0
  C  C108  1  0.90212000  0.87528000  0.37690000  1.0
  C  C109  1  0.09783000  0.12473000  0.87689000  1.0
  C  C110  1  0.91065000  0.92854000  0.33795000  1.0
  C  C111  1  0.08931000  0.07146000  0.83794000  1.0
  C  C112  1  0.05634000  0.06597000  0.22228000  1.0
  C  C113  1  0.94369000  0.93405000  0.72227000  1.0
  C  C114  1  0.13262000  0.17521000  0.14440000  1.0
  C  C115  1  0.86741000  0.82479000  0.64440000  1.0
  C  C116  1  0.55792000  0.34063000  0.19674000  1.0
  C  C117  1  0.37518000  0.37774000  0.19756000  1.0
  C  C118  1  0.18693000  0.32971000  0.19114000  1.0
  C  C119  1  0.44202000  0.65938000  0.69675000  1.0
  C  C120  1  0.62478000  0.62226000  0.69756000  1.0
  C  C121  1  0.81303000  0.67029000  0.69113000  1.0
  C  C122  1  0.83977000  0.37211000  0.31671000  1.0
  C  C123  1  0.16016000  0.62788000  0.81670000  1.0
  N  N124  1  0.66037000  0.99069000  0.21196000  1.0
  N  N125  1  0.33963000  0.00932000  0.71196000  1.0
  N  N126  1  0.77229000  0.99126000  0.25962000  1.0
  N  N127  1  0.22770000  0.00874000  0.75962000  1.0
  O  O128  1  0.38113000  0.76727000  0.53916000  1.0
  O  O129  1  0.61889000  0.23273000  0.03916000  1.0
  O  O130  1  0.97699000  0.61915000  0.55145000  1.0
  O  O131  1  0.02304000  0.38085000  0.05145000  1.0
  O  O132  1  0.81370000  0.63145000  0.43411000  1.0
  O  O133  1  0.18631000  0.36855000  0.93411000  1.0
  O  O134  1  0.04624000  0.74966000  0.55698000  1.0
  O  O135  1  0.95378000  0.25034000  0.05698000  1.0
  O  O136  1  0.87880000  0.76294000  0.44750000  1.0
  O  O137  1  0.12117000  0.23707000  0.94750000  1.0
  O  O138  1  0.31738000  0.63599000  0.56325000  1.0
  O  O139  1  0.68265000  0.36401000  0.06326000  1.0
  O  O140  1  0.17556000  0.68618000  0.45666000  1.0
  O  O141  1  0.82444000  0.31383000  0.95666000  1.0
  O  O142  1  0.54266000  0.74349000  0.42934000  1.0
  O  O143  1  0.45732000  0.25652000  0.92934000  1.0
  O  O144  1  0.47368000  0.61339000  0.44804000  1.0
  O  O145  1  0.52634000  0.38661000  0.94805000  1.0
  O  O146  1  0.67642000  0.68967000  0.53571000  1.0
  O  O147  1  0.32359000  0.31033000  0.03572000  1.0
  O  O148  1  0.17101000  0.02688000  0.20567000  1.0
  O  O149  1  0.82907000  0.97315000  0.70565000  1.0
  O  O150  1  0.24372000  0.16848000  0.18936000  1.0
  O  O151  1  0.75631000  0.83152000  0.68935000  1.0
  O  O152  1  0.74965000  0.37857000  0.21020000  1.0
  O  O153  1  0.25032000  0.62143000  0.71020000  1.0
  O  O154  1  0.02468000  0.37682000  0.31404000  1.0
  O  O155  1  0.97526000  0.62316000  0.81403000  1.0
