# generated using pymatgen
data_CeZnH17C21N3O16
_symmetry_space_group_name_H-M   'P 1'
_cell_length_a   10.17410000
_cell_length_b   12.44500000
_cell_length_c   13.64420000
_cell_angle_alpha   95.17850000
_cell_angle_beta   90.46730000
_cell_angle_gamma   111.46800000
_symmetry_Int_Tables_number   1
_chemical_formula_structural   CeZnH17C21N3O16
_chemical_formula_sum   'Ce2 Zn2 H34 C42 N6 O32'
_cell_volume   1599.58303243
_cell_formula_units_Z   2
loop_
 _symmetry_equiv_pos_site_id
 _symmetry_equiv_pos_as_xyz
  1  'x, y, z'
loop_
 _atom_site_type_symbol
 _atom_site_label
 _atom_site_symmetry_multiplicity
 _atom_site_fract_x
 _atom_site_fract_y
 _atom_site_fract_z
 _atom_site_occupancy
  Ce  Ce0  1  0.03466000  0.80850000  0.23365000  1.0
  Ce  Ce1  1  0.96534000  0.19151000  0.76634000  1.0
  Zn  Zn2  1  0.49999000  0.99999000  0.50000000  1.0
  Zn  Zn3  1  0.50000000  0.00001000  0.00000000  1.0
  H  H4  1  0.44063000  0.26315000  0.30234000  1.0
  H  H5  1  0.55937000  0.73683000  0.69767000  1.0
  H  H6  1  0.33055000  0.35802000  0.18754000  1.0
  H  H7  1  0.66946000  0.64198000  0.81248000  1.0
  H  H8  1  0.09892000  0.23355000  0.09618000  1.0
  H  H9  1  0.90108000  0.76645000  0.90383000  1.0
  H  H10  1  0.90094000  0.82032000  0.62717000  1.0
  H  H11  1  0.09908000  0.17970000  0.37282000  1.0
  H  H12  1  0.00815000  0.67919000  0.67863000  1.0
  H  H13  1  0.99185000  0.32081000  0.32137000  1.0
  H  H14  1  0.12271000  0.58751000  0.54962000  1.0
  H  H15  1  0.87727000  0.41248000  0.45038000  1.0
  H  H16  1  0.15565000  0.66698000  0.85355000  1.0
  H  H17  1  0.84436000  0.33303000  0.14644000  1.0
  H  H18  1  0.91506000  0.50636000  0.81146000  1.0
  H  H19  1  0.08493000  0.49365000  0.18853000  1.0
  H  H20  1  0.73320000  0.46513000  0.94044000  1.0
  H  H21  1  0.26679000  0.53487000  0.05956000  1.0
  H  H22  1  0.49005000  0.80996000  0.37297000  1.0
  H  H23  1  0.50996000  0.19004000  0.62703000  1.0
  H  H24  1  0.35557000  0.84741000  0.36941000  1.0
  H  H25  1  0.64442000  0.15257000  0.63059000  1.0
  H  H26  1  0.75652000  0.00568000  0.44935000  1.0
  H  H27  1  0.24347000  0.99432000  0.55065000  1.0
  H  H28  1  0.69592000  0.06739000  0.36895000  1.0
  H  H29  1  0.30406000  0.93261000  0.63106000  1.0
  H  H30  1  0.26134000  0.04616000  0.98626000  1.0
  H  H31  1  0.73865000  0.95384000  0.01374000  1.0
  H  H32  1  0.39173000  0.16911000  0.02062000  1.0
  H  H33  1  0.60826000  0.83090000  0.97938000  1.0
  H  H34  1  0.55717000  0.93098000  0.16486000  1.0
  H  H35  1  0.44283000  0.06903000  0.83514000  1.0
  H  H36  1  0.40022000  0.92845000  0.15696000  1.0
  H  H37  1  0.59978000  0.07156000  0.84304000  1.0
  C  C38  1  0.27354000  0.09633000  0.27033000  1.0
  C  C39  1  0.72647000  0.90366000  0.72967000  1.0
  C  C40  1  0.34158000  0.21451000  0.26081000  1.0
  C  C41  1  0.65842000  0.78548000  0.73920000  1.0
  C  C42  1  0.27935000  0.26614000  0.19740000  1.0
  C  C43  1  0.72065000  0.73386000  0.80261000  1.0
  C  C44  1  0.15160000  0.19842000  0.14698000  1.0
  C  C45  1  0.84841000  0.80158000  0.85303000  1.0
  C  C46  1  0.09034000  0.08100000  0.16153000  1.0
  C  C47  1  0.90967000  0.91900000  0.83847000  1.0
  C  C48  1  0.95312000  0.99855000  0.11195000  1.0
  C  C49  1  0.04689000  0.00145000  0.88806000  1.0
  C  C50  1  0.32859000  0.02948000  0.33483000  1.0
  C  C51  1  0.67141000  0.97051000  0.66517000  1.0
  C  C52  1  0.95396000  0.79978000  0.47661000  1.0
  C  C53  1  0.04605000  0.20023000  0.52339000  1.0
  C  C54  1  0.95042000  0.77728000  0.57504000  1.0
  C  C55  1  0.04959000  0.22273000  0.42496000  1.0
  C  C56  1  0.01122000  0.70008000  0.60267000  1.0
  C  C57  1  0.98878000  0.29992000  0.39733000  1.0
  C  C58  1  0.07374000  0.64827000  0.53191000  1.0
  C  C59  1  0.92625000  0.35172000  0.46809000  1.0
  C  C60  1  0.07220000  0.67522000  0.43501000  1.0
  C  C61  1  0.92779000  0.32478000  0.56499000  1.0
  C  C62  1  0.13218000  0.62442000  0.34989000  1.0
  C  C63  1  0.86781000  0.37558000  0.65011000  1.0
  C  C64  1  0.89334000  0.88082000  0.43582000  1.0
  C  C65  1  0.10666000  0.11918000  0.56417000  1.0
  C  C66  1  0.09470000  0.70832000  0.99809000  1.0
  C  C67  1  0.90530000  0.29168000  0.00191000  1.0
  C  C68  1  0.07112000  0.64582000  0.90538000  1.0
  C  C69  1  0.92888000  0.35419000  0.09461000  1.0
  C  C70  1  0.93926000  0.55751000  0.88296000  1.0
  C  C71  1  0.06074000  0.44249000  0.11703000  1.0
  C  C72  1  0.83705000  0.53381000  0.95399000  1.0
  C  C73  1  0.16295000  0.46619000  0.04601000  1.0
  C  C74  1  0.86968000  0.59978000  0.04546000  1.0
  C  C75  1  0.13032000  0.40022000  0.95453000  1.0
  C  C76  1  0.77060000  0.57966000  0.13035000  1.0
  C  C77  1  0.22942000  0.42034000  0.86965000  1.0
  C  C78  1  0.23034000  0.80565000  0.03171000  1.0
  C  C79  1  0.76966000  0.19435000  0.96828000  1.0
  N  N80  1  0.15149000  0.03198000  0.22137000  1.0
  N  N81  1  0.84851000  0.96802000  0.77863000  1.0
  N  N82  1  0.01347000  0.74937000  0.40928000  1.0
  N  N83  1  0.98653000  0.25063000  0.59072000  1.0
  N  N84  1  0.99562000  0.68527000  0.06557000  1.0
  N  N85  1  0.00438000  0.31474000  0.93442000  1.0
  O  O86  1  0.25746000  0.91939000  0.32799000  1.0
  O  O87  1  0.74254000  0.08060000  0.67201000  1.0
  O  O88  1  0.43734000  0.08184000  0.38940000  1.0
  O  O89  1  0.56265000  0.91815000  0.61060000  1.0
  O  O90  1  0.91890000  0.89137000  0.12590000  1.0
  O  O91  1  0.08111000  0.10864000  0.87410000  1.0
  O  O92  1  0.88137000  0.03870000  0.06128000  1.0
  O  O93  1  0.11863000  0.96130000  0.93872000  1.0
  O  O94  1  0.91278000  0.89485000  0.34399000  1.0
  O  O95  1  0.08722000  0.10515000  0.65602000  1.0
  O  O96  1  0.82855000  0.92820000  0.49161000  1.0
  O  O97  1  0.17145000  0.07181000  0.50839000  1.0
  O  O98  1  0.12963000  0.67188000  0.26816000  1.0
  O  O99  1  0.87037000  0.32812000  0.73185000  1.0
  O  O100  1  0.17507000  0.54465000  0.35834000  1.0
  O  O101  1  0.82490000  0.45534000  0.64166000  1.0
  O  O102  1  0.23440000  0.85033000  0.12106000  1.0
  O  O103  1  0.76560000  0.14967000  0.87894000  1.0
  O  O104  1  0.32993000  0.83714000  0.97369000  1.0
  O  O105  1  0.67007000  0.16287000  0.02630000  1.0
  O  O106  1  0.82351000  0.65469000  0.20760000  1.0
  O  O107  1  0.17650000  0.34531000  0.79240000  1.0
  O  O108  1  0.65499000  0.49859000  0.12343000  1.0
  O  O109  1  0.34505000  0.50140000  0.87658000  1.0
  O  O110  1  0.42478000  0.83277000  0.41360000  1.0
  O  O111  1  0.57521000  0.16722000  0.58640000  1.0
  O  O112  1  0.69816000  0.05536000  0.43814000  1.0
  O  O113  1  0.30182000  0.94462000  0.56187000  1.0
  O  O114  1  0.35964000  0.08548000  0.02057000  1.0
  O  O115  1  0.64036000  0.91453000  0.97943000  1.0
  O  O116  1  0.50314000  0.98038000  0.15741000  1.0
  O  O117  1  0.49687000  0.01963000  0.84259000  1.0
