# generated using pymatgen
data_ZnH26C27(N2O3)2
_symmetry_space_group_name_H-M   'P 1'
_cell_length_a   10.02500000
_cell_length_b   10.72930000
_cell_length_c   13.27730000
_cell_angle_alpha   106.77100000
_cell_angle_beta   95.74270000
_cell_angle_gamma   107.85400000
_symmetry_Int_Tables_number   1
_chemical_formula_structural   ZnH26C27(N2O3)2
_chemical_formula_sum   'Zn2 H52 C54 N8 O12'
_cell_volume   1273.37396820
_cell_formula_units_Z   2
loop_
 _symmetry_equiv_pos_site_id
 _symmetry_equiv_pos_as_xyz
  1  'x, y, z'
loop_
 _atom_site_type_symbol
 _atom_site_label
 _atom_site_symmetry_multiplicity
 _atom_site_fract_x
 _atom_site_fract_y
 _atom_site_fract_z
 _atom_site_occupancy
  Zn  Zn0  1  0.41160000  0.15585000  0.57122000  1.0
  Zn  Zn1  1  0.58840000  0.84414000  0.42878000  1.0
  H  H2  1  0.26748000  0.17991000  0.74553000  1.0
  H  H3  1  0.73252000  0.82010000  0.25447000  1.0
  H  H4  1  0.21284000  0.08373000  0.89057000  1.0
  H  H5  1  0.78716000  0.91628000  0.10943000  1.0
  H  H6  1  0.19045000  0.99659000  0.99368000  1.0
  H  H7  1  0.80955000  0.00341000  0.00632000  1.0
  H  H8  1  0.24661000  0.14473000  0.28769000  1.0
  H  H9  1  0.75339000  0.85528000  0.71231000  1.0
  H  H10  1  0.50155000  0.86183000  0.80886000  1.0
  H  H11  1  0.49845000  0.13817000  0.19114000  1.0
  H  H12  1  0.55361000  0.97835000  0.66836000  1.0
  H  H13  1  0.44639000  0.02165000  0.33164000  1.0
  H  H14  1  0.28940000  0.87822000  0.13871000  1.0
  H  H15  1  0.71060000  0.12178000  0.86129000  1.0
  H  H16  1  0.15277000  0.65628000  0.99863000  1.0
  H  H17  1  0.84723000  0.34373000  0.00137000  1.0
  H  H18  1  0.99908000  0.70525000  0.98801000  1.0
  H  H19  1  0.00092000  0.29475000  0.01199000  1.0
  H  H20  1  0.97651000  0.55316000  0.10223000  1.0
  H  H21  1  0.02349000  0.44685000  0.89778000  1.0
  H  H22  1  0.14009000  0.66881000  0.18949000  1.0
  H  H23  1  0.85992000  0.33119000  0.81051000  1.0
  H  H24  1  0.93422000  0.71560000  0.26498000  1.0
  H  H25  1  0.06578000  0.28441000  0.73502000  1.0
  H  H26  1  0.87011000  0.73751000  0.14447000  1.0
  H  H27  1  0.12989000  0.26250000  0.85553000  1.0
  H  H28  1  0.00521000  0.96775000  0.28700000  1.0
  H  H29  1  0.99479000  0.03226000  0.71300000  1.0
  H  H30  1  0.15631000  0.91810000  0.30346000  1.0
  H  H31  1  0.84370000  0.08191000  0.69653000  1.0
  H  H32  1  0.02552000  0.95700000  0.10025000  1.0
  H  H33  1  0.97447000  0.04300000  0.89974000  1.0
  H  H34  1  0.45408000  0.30513000  0.33352000  1.0
  H  H35  1  0.54591000  0.69487000  0.66648000  1.0
  H  H36  1  0.60264000  0.55381000  0.42236000  1.0
  H  H37  1  0.39735000  0.44618000  0.57764000  1.0
  H  H38  1  0.38706000  0.67192000  0.20516000  1.0
  H  H39  1  0.61294000  0.32808000  0.79484000  1.0
  H  H40  1  0.22806000  0.42450000  0.10440000  1.0
  H  H41  1  0.77195000  0.57550000  0.89560000  1.0
  H  H42  1  0.93278000  0.10903000  0.54266000  1.0
  H  H43  1  0.06722000  0.89096000  0.45734000  1.0
  H  H44  1  0.72603000  0.33333333  0.40178000  1.0
  H  H45  1  0.27397000  0.66666667  0.59823000  1.0
  H  H46  1  0.15387000  0.35536000  0.36542000  1.0
  H  H47  1  0.84613000  0.64464000  0.63458000  1.0
  H  H48  1  0.83946000  0.46326000  0.29497000  1.0
  H  H49  1  0.16054000  0.53675000  0.70503000  1.0
  H  H50  1  0.95939000  0.39769000  0.22576000  1.0
  H  H51  1  0.04061000  0.60232000  0.77424000  1.0
  H  H52  1  0.02765000  0.54650000  0.34357000  1.0
  H  H53  1  0.97235000  0.45350000  0.65644000  1.0
  C  C54  1  0.31817000  0.10988000  0.76284000  1.0
  C  C55  1  0.68183000  0.89012000  0.23716000  1.0
  C  C56  1  0.28612000  0.05234000  0.84239000  1.0
  C  C57  1  0.71388000  0.94766000  0.15761000  1.0
  C  C58  1  0.35084000  0.95949000  0.85916000  1.0
  C  C59  1  0.64916000  0.04052000  0.14084000  1.0
  C  C60  1  0.44834000  0.93195000  0.79591000  1.0
  C  C61  1  0.55166000  0.06805000  0.20409000  1.0
  C  C62  1  0.47760000  0.99569000  0.71914000  1.0
  C  C63  1  0.52240000  0.00431000  0.28087000  1.0
  C  C64  1  0.32273000  0.88812000  0.94176000  1.0
  C  C65  1  0.67727000  0.11187000  0.05823000  1.0
  C  C66  1  0.19038000  0.86894000  0.08805000  1.0
  C  C67  1  0.80962000  0.13106000  0.91195000  1.0
  C  C68  1  0.09338000  0.71543000  0.04437000  1.0
  C  C69  1  0.90661000  0.28457000  0.95563000  1.0
  C  C70  1  0.04605000  0.66316000  0.13506000  1.0
  C  C71  1  0.95395000  0.33684000  0.86494000  1.0
  C  C72  1  0.96823000  0.75096000  0.19869000  1.0
  C  C73  1  0.03177000  0.24904000  0.80131000  1.0
  C  C74  1  0.06338000  0.90461000  0.24403000  1.0
  C  C75  1  0.93663000  0.09539000  0.75597000  1.0
  C  C76  1  0.11670000  0.96016000  0.15592000  1.0
  C  C77  1  0.88330000  0.03984000  0.84408000  1.0
  C  C78  1  0.22685000  0.19785000  0.15176000  1.0
  C  C79  1  0.77315000  0.80215000  0.84824000  1.0
  C  C80  1  0.32521000  0.34462000  0.21197000  1.0
  C  C81  1  0.67478000  0.65538000  0.78803000  1.0
  C  C82  1  0.43449000  0.38153000  0.30105000  1.0
  C  C83  1  0.56551000  0.61847000  0.69895000  1.0
  C  C84  1  0.51879000  0.52114000  0.35128000  1.0
  C  C85  1  0.48120000  0.47886000  0.64872000  1.0
  C  C86  1  0.39796000  0.58688000  0.23062000  1.0
  C  C87  1  0.60204000  0.41312000  0.76937000  1.0
  C  C88  1  0.30939000  0.45016000  0.17526000  1.0
  C  C89  1  0.69061000  0.54985000  0.82474000  1.0
  C  C90  1  0.18904000  0.19973000  0.48539000  1.0
  C  C91  1  0.81096000  0.80027000  0.51461000  1.0
  C  C92  1  0.05731000  0.23083000  0.45789000  1.0
  C  C93  1  0.94269000  0.76917000  0.54211000  1.0
  C  C94  1  0.93495000  0.17845000  0.49681000  1.0
  C  C95  1  0.06505000  0.82154000  0.50319000  1.0
  C  C96  1  0.81552000  0.21514000  0.47585000  1.0
  C  C97  1  0.18448000  0.78485000  0.52416000  1.0
  C  C98  1  0.68331000  0.15821000  0.51603000  1.0
  C  C99  1  0.31670000  0.84178000  0.48398000  1.0
  C  C100  1  0.81941000  0.30417000  0.41585000  1.0
  C  C101  1  0.18059000  0.69582000  0.58415000  1.0
  C  C102  1  0.93875000  0.35357000  0.37317000  1.0
  C  C103  1  0.06125000  0.64643000  0.62683000  1.0
  C  C104  1  0.05763000  0.31596000  0.39532000  1.0
  C  C105  1  0.94237000  0.68404000  0.60468000  1.0
  C  C106  1  0.94097000  0.44510000  0.30591000  1.0
  C  C107  1  0.05903000  0.55490000  0.69410000  1.0
  N  N108  1  0.41181000  0.08211000  0.70159000  1.0
  N  N109  1  0.58819000  0.91789000  0.29841000  1.0
  N  N110  1  0.50041000  0.62274000  0.31791000  1.0
  N  N111  1  0.49959000  0.37726000  0.68209000  1.0
  N  N112  1  0.22923000  0.92127000  0.00135000  1.0
  N  N113  1  0.77077000  0.07873000  0.99865000  1.0
  N  N114  1  0.21220000  0.10608000  0.20457000  1.0
  N  N115  1  0.78780000  0.89392000  0.79542000  1.0
  O  O116  1  0.28619000  0.21558000  0.43025000  1.0
  O  O117  1  0.71380000  0.78441000  0.56974000  1.0
  O  O118  1  0.20372000  0.16169000  0.56747000  1.0
  O  O119  1  0.79628000  0.83830000  0.43252000  1.0
  O  O120  1  0.66726000  0.05378000  0.54704000  1.0
  O  O121  1  0.33274000  0.94621000  0.45296000  1.0
  O  O122  1  0.59160000  0.21907000  0.51546000  1.0
  O  O123  1  0.40840000  0.78093000  0.48454000  1.0
  O  O124  1  0.38296000  0.80556000  0.95178000  1.0
  O  O125  1  0.61703000  0.19444000  0.04822000  1.0
  O  O126  1  0.16499000  0.16680000  0.05625000  1.0
  O  O127  1  0.83501000  0.83320000  0.94374000  1.0
