# generated using pymatgen
data_CuH12C19SN3
_symmetry_space_group_name_H-M   'P 1'
_cell_length_a   8.82073000
_cell_length_b   10.81700000
_cell_length_c   15.77890000
_cell_angle_alpha   90.00030000
_cell_angle_beta   90.00030000
_cell_angle_gamma   89.99960000
_symmetry_Int_Tables_number   1
_chemical_formula_structural   CuH12C19SN3
_chemical_formula_sum   'Cu4 H48 C76 S4 N12'
_cell_volume   1505.52538325
_cell_formula_units_Z   4
loop_
 _symmetry_equiv_pos_site_id
 _symmetry_equiv_pos_as_xyz
  1  'x, y, z'
loop_
 _atom_site_type_symbol
 _atom_site_label
 _atom_site_symmetry_multiplicity
 _atom_site_fract_x
 _atom_site_fract_y
 _atom_site_fract_z
 _atom_site_occupancy
  Cu  Cu0  1  0.77000000  0.43936000  0.25000000  1.0
  Cu  Cu1  1  0.73000000  0.93937000  0.75000000  1.0
  Cu  Cu2  1  0.26999000  0.06062000  0.25000000  1.0
  Cu  Cu3  1  0.23001000  0.56063000  0.75000000  1.0
  H  H4  1  0.12417000  0.79187000  0.18671000  1.0
  H  H5  1  0.37584000  0.29187000  0.81328000  1.0
  H  H6  1  0.62416000  0.70813000  0.31328000  1.0
  H  H7  1  0.87583000  0.20813000  0.68672000  1.0
  H  H8  1  0.87583000  0.20814000  0.81328000  1.0
  H  H9  1  0.62417000  0.70813000  0.18672000  1.0
  H  H10  1  0.37583000  0.29187000  0.68672000  1.0
  H  H11  1  0.12416000  0.79187000  0.31328000  1.0
  H  H12  1  0.10206000  0.79273000  0.03026000  1.0
  H  H13  1  0.39793000  0.29273000  0.96974000  1.0
  H  H14  1  0.60207000  0.70728000  0.46973000  1.0
  H  H15  1  0.89793000  0.20728000  0.53027000  1.0
  H  H16  1  0.89793000  0.20728000  0.96974000  1.0
  H  H17  1  0.60207000  0.70728000  0.03026000  1.0
  H  H18  1  0.39793000  0.29272000  0.53026000  1.0
  H  H19  1  0.10206000  0.79273000  0.46973000  1.0
  H  H20  1  0.97271000  0.71381000  0.89982000  1.0
  H  H21  1  0.52729000  0.21381000  0.10018000  1.0
  H  H22  1  0.47272000  0.78619000  0.60017000  1.0
  H  H23  1  0.02729000  0.28620000  0.39983000  1.0
  H  H24  1  0.02728000  0.28620000  0.10018000  1.0
  H  H25  1  0.47272000  0.78620000  0.89982000  1.0
  H  H26  1  0.52729000  0.21380000  0.39982000  1.0
  H  H27  1  0.97271000  0.71380000  0.60017000  1.0
  H  H28  1  0.78064000  0.57522000  0.83512000  1.0
  H  H29  1  0.71936000  0.07521000  0.16488000  1.0
  H  H30  1  0.28064000  0.92478000  0.66488000  1.0
  H  H31  1  0.21936000  0.42478000  0.33513000  1.0
  H  H32  1  0.21935000  0.42478000  0.16488000  1.0
  H  H33  1  0.28065000  0.92479000  0.83512000  1.0
  H  H34  1  0.71936000  0.07522000  0.33513000  1.0
  H  H35  1  0.78064000  0.57522000  0.66487000  1.0
  H  H36  1  0.63004000  0.43298000  0.92474000  1.0
  H  H37  1  0.86996000  0.93298000  0.07526000  1.0
  H  H38  1  0.13004000  0.06702000  0.57525000  1.0
  H  H39  1  0.36995000  0.56702000  0.42475000  1.0
  H  H40  1  0.36996000  0.56702000  0.07526000  1.0
  H  H41  1  0.13005000  0.06703000  0.92475000  1.0
  H  H42  1  0.86996000  0.93298000  0.42475000  1.0
  H  H43  1  0.63004000  0.43298000  0.57525000  1.0
  H  H44  1  0.67091000  0.42618000  0.08181000  1.0
  H  H45  1  0.82909000  0.92618000  0.91819000  1.0
  H  H46  1  0.17091000  0.07382000  0.41819000  1.0
  H  H47  1  0.32908000  0.57382000  0.58182000  1.0
  H  H48  1  0.32909000  0.57382000  0.91819000  1.0
  H  H49  1  0.17092000  0.07383000  0.08182000  1.0
  H  H50  1  0.82909000  0.92617000  0.58182000  1.0
  H  H51  1  0.67092000  0.42618000  0.41818000  1.0
  C  C52  1  0.95502000  0.64666000  0.29684000  1.0
  C  C53  1  0.54499000  0.14666000  0.70316000  1.0
  C  C54  1  0.45502000  0.85335000  0.20316000  1.0
  C  C55  1  0.04499000  0.35334000  0.79685000  1.0
  C  C56  1  0.04498000  0.35334000  0.70316000  1.0
  C  C57  1  0.45501000  0.85334000  0.29684000  1.0
  C  C58  1  0.54499000  0.14666000  0.79684000  1.0
  C  C59  1  0.95501000  0.64665000  0.20315000  1.0
  C  C60  1  0.04587000  0.72917000  0.15536000  1.0
  C  C61  1  0.45413000  0.22917000  0.84464000  1.0
  C  C62  1  0.54586000  0.77083000  0.34464000  1.0
  C  C63  1  0.95413000  0.27084000  0.65536000  1.0
  C  C64  1  0.95413000  0.27083000  0.84464000  1.0
  C  C65  1  0.54587000  0.77083000  0.15536000  1.0
  C  C66  1  0.45413000  0.22917000  0.65536000  1.0
  C  C67  1  0.04587000  0.72917000  0.34464000  1.0
  C  C68  1  0.03325000  0.73045000  0.06853000  1.0
  C  C69  1  0.46675000  0.23045000  0.93146000  1.0
  C  C70  1  0.53325000  0.76955000  0.43146000  1.0
  C  C71  1  0.96674000  0.26955000  0.56855000  1.0
  C  C72  1  0.96675000  0.26955000  0.93146000  1.0
  C  C73  1  0.53325000  0.76955000  0.06854000  1.0
  C  C74  1  0.46675000  0.23045000  0.56855000  1.0
  C  C75  1  0.03325000  0.73045000  0.43145000  1.0
  C  C76  1  0.92791000  0.65168000  0.02800000  1.0
  C  C77  1  0.57209000  0.15167000  0.97200000  1.0
  C  C78  1  0.42791000  0.84833000  0.47199000  1.0
  C  C79  1  0.07209000  0.34833000  0.52800000  1.0
  C  C80  1  0.07209000  0.34833000  0.97200000  1.0
  C  C81  1  0.42791000  0.84833000  0.02800000  1.0
  C  C82  1  0.57209000  0.15167000  0.52800000  1.0
  C  C83  1  0.92791000  0.65167000  0.47199000  1.0
  C  C84  1  0.90480000  0.65220000  0.93922000  1.0
  C  C85  1  0.59520000  0.15219000  0.06078000  1.0
  C  C86  1  0.40480000  0.84781000  0.56078000  1.0
  C  C87  1  0.09519000  0.34780000  0.43922000  1.0
  C  C88  1  0.09519000  0.34781000  0.06078000  1.0
  C  C89  1  0.40480000  0.84781000  0.93922000  1.0
  C  C90  1  0.59520000  0.15219000  0.43922000  1.0
  C  C91  1  0.90480000  0.65220000  0.56077000  1.0
  C  C92  1  0.79894000  0.57448000  0.90331000  1.0
  C  C93  1  0.70105000  0.07448000  0.09669000  1.0
  C  C94  1  0.29895000  0.92552000  0.59668000  1.0
  C  C95  1  0.20106000  0.42552000  0.40332000  1.0
  C  C96  1  0.20105000  0.42552000  0.09669000  1.0
  C  C97  1  0.29895000  0.92552000  0.90331000  1.0
  C  C98  1  0.70105000  0.07448000  0.40331000  1.0
  C  C99  1  0.79894000  0.57449000  0.59668000  1.0
  C  C100  1  0.71367000  0.49289000  0.95463000  1.0
  C  C101  1  0.78633000  0.99289000  0.04537000  1.0
  C  C102  1  0.21367000  0.00711000  0.54537000  1.0
  C  C103  1  0.28632000  0.50711000  0.45464000  1.0
  C  C104  1  0.28633000  0.50711000  0.04537000  1.0
  C  C105  1  0.21368000  0.00712000  0.95464000  1.0
  C  C106  1  0.78633000  0.99289000  0.45464000  1.0
  C  C107  1  0.71367000  0.49289000  0.54536000  1.0
  C  C108  1  0.73545000  0.48861000  0.04124000  1.0
  C  C109  1  0.76455000  0.98862000  0.95876000  1.0
  C  C110  1  0.23545000  0.01139000  0.45875000  1.0
  C  C111  1  0.26455000  0.51139000  0.54125000  1.0
  C  C112  1  0.26455000  0.51139000  0.95876000  1.0
  C  C113  1  0.23546000  0.01139000  0.04124000  1.0
  C  C114  1  0.76454000  0.98861000  0.54125000  1.0
  C  C115  1  0.73545000  0.48861000  0.45875000  1.0
  C  C116  1  0.84227000  0.56847000  0.07994000  1.0
  C  C117  1  0.65773000  0.06846000  0.92006000  1.0
  C  C118  1  0.34227000  0.93154000  0.42006000  1.0
  C  C119  1  0.15771000  0.43153000  0.57994000  1.0
  C  C120  1  0.15773000  0.43153000  0.92006000  1.0
  C  C121  1  0.34227000  0.93154000  0.07994000  1.0
  C  C122  1  0.65773000  0.06846000  0.57994000  1.0
  C  C123  1  0.84228000  0.56846000  0.42005000  1.0
  C  C124  1  0.93417000  0.18889000  0.25000000  1.0
  C  C125  1  0.56585000  0.68890000  0.75001000  1.0
  C  C126  1  0.43415000  0.31111000  0.25000000  1.0
  C  C127  1  0.06584000  0.81111000  0.75000000  1.0
  S  S128  1  0.01177000  0.05117000  0.25000000  1.0
  S  S129  1  0.48823000  0.55118000  0.75000000  1.0
  S  S130  1  0.51177000  0.44882000  0.25000000  1.0
  S  S131  1  0.98823000  0.94883000  0.75000000  1.0
  N  N132  1  0.85902000  0.56689000  0.33378000  1.0
  N  N133  1  0.64098000  0.06689000  0.66622000  1.0
  N  N134  1  0.35902000  0.93311000  0.16622000  1.0
  N  N135  1  0.14099000  0.43310000  0.83378000  1.0
  N  N136  1  0.14098000  0.43311000  0.66622000  1.0
  N  N137  1  0.35902000  0.93310000  0.33378000  1.0
  N  N138  1  0.64098000  0.06689000  0.83378000  1.0
  N  N139  1  0.85902000  0.56689000  0.16622000  1.0
  N  N140  1  0.86910000  0.28467000  0.25000000  1.0
  N  N141  1  0.63090000  0.78468000  0.75001000  1.0
  N  N142  1  0.36909000  0.21531000  0.25000000  1.0
  N  N143  1  0.13090000  0.71532000  0.75000000  1.0
