# generated using pymatgen
data_AgH34C21S4NO3
_symmetry_space_group_name_H-M   'P 1'
_cell_length_a   8.00633000
_cell_length_b   11.72850000
_cell_length_c   13.80660000
_cell_angle_alpha   90.00000000
_cell_angle_beta   90.00000000
_cell_angle_gamma   92.13500000
_symmetry_Int_Tables_number   1
_chemical_formula_structural   AgH34C21S4NO3
_chemical_formula_sum   'Ag2 H68 C42 S8 N2 O6'
_cell_volume   1295.57070600
_cell_formula_units_Z   2
loop_
 _symmetry_equiv_pos_site_id
 _symmetry_equiv_pos_as_xyz
  1  'x, y, z'
loop_
 _atom_site_type_symbol
 _atom_site_label
 _atom_site_symmetry_multiplicity
 _atom_site_fract_x
 _atom_site_fract_y
 _atom_site_fract_z
 _atom_site_occupancy
  Ag  Ag0  1  0.60995000  0.41853000  0.72178000  1.0
  Ag  Ag1  1  0.39004000  0.58147000  0.22178000  1.0
  H  H2  1  0.91825000  0.55099000  0.47227000  1.0
  H  H3  1  0.08174000  0.44902000  0.97227000  1.0
  H  H4  1  0.75305000  0.61763000  0.53174000  1.0
  H  H5  1  0.24695000  0.38237000  0.03174000  1.0
  H  H6  1  0.96900000  0.68850000  0.63044000  1.0
  H  H7  1  0.03101000  0.31150000  0.13044000  1.0
  H  H8  1  0.92642000  0.55830000  0.69171000  1.0
  H  H9  1  0.07358000  0.44170000  0.19171000  1.0
  H  H10  1  0.97298000  0.35492000  0.64012000  1.0
  H  H11  1  0.02701000  0.64508000  0.14011000  1.0
  H  H12  1  0.82965000  0.24310000  0.60788000  1.0
  H  H13  1  0.17034000  0.75691000  0.10788000  1.0
  H  H14  1  0.03948000  0.38076000  0.45860000  1.0
  H  H15  1  0.96052000  0.61925000  0.95860000  1.0
  H  H16  1  0.92634000  0.25105000  0.43697000  1.0
  H  H17  1  0.07366000  0.74896000  0.93697000  1.0
  H  H18  1  0.43948000  0.32608000  0.31825000  1.0
  H  H19  1  0.56052000  0.67392000  0.81825000  1.0
  H  H20  1  0.47655000  0.35384000  0.44151000  1.0
  H  H21  1  0.52345000  0.64616000  0.94151000  1.0
  H  H22  1  0.34362000  0.16327000  0.40859000  1.0
  H  H23  1  0.65638000  0.83673000  0.90859000  1.0
  H  H24  1  0.17267000  0.22267000  0.35088000  1.0
  H  H25  1  0.82733000  0.77733000  0.85088000  1.0
  H  H26  1  0.43501000  0.51360000  0.51938000  1.0
  H  H27  1  0.56499000  0.48640000  0.01938000  1.0
  H  H28  1  0.44352000  0.63383000  0.43951000  1.0
  H  H29  1  0.55648000  0.36617000  0.93951000  1.0
  H  H30  1  0.27992000  0.70832000  0.55898000  1.0
  H  H31  1  0.72008000  0.29168000  0.05898000  1.0
  H  H32  1  0.13101000  0.65401000  0.47662000  1.0
  H  H33  1  0.86900000  0.34598000  0.97662000  1.0
  H  H34  1  0.06890000  0.44970000  0.77437000  1.0
  H  H35  1  0.93110000  0.55029000  0.27437000  1.0
  H  H36  1  0.22507000  0.51969000  0.84476000  1.0
  H  H37  1  0.77493000  0.48030000  0.34476000  1.0
  H  H38  1  0.22938000  0.65428000  0.72782000  1.0
  H  H39  1  0.77062000  0.34571000  0.22782000  1.0
  H  H40  1  0.37510000  0.56172000  0.67620000  1.0
  H  H41  1  0.62490000  0.43827000  0.17620000  1.0
  H  H42  1  0.29537000  0.17310000  0.71122000  1.0
  H  H43  1  0.70463000  0.82689000  0.21122000  1.0
  H  H44  1  0.10488000  0.24415000  0.70935000  1.0
  H  H45  1  0.89512000  0.75585000  0.20935000  1.0
  H  H46  1  0.40775000  0.26681000  0.57453000  1.0
  H  H47  1  0.59225000  0.73318000  0.07453000  1.0
  H  H48  1  0.26916000  0.38095000  0.58080000  1.0
  H  H49  1  0.73084000  0.61905000  0.08080000  1.0
  H  H50  1  0.05691000  0.06581000  0.47020000  1.0
  H  H51  1  0.94308000  0.93419000  0.97020000  1.0
  H  H52  1  0.04416000  0.09703000  0.59537000  1.0
  H  H53  1  0.95583000  0.90297000  0.09538000  1.0
  H  H54  1  0.23772000  0.05973000  0.54358000  1.0
  H  H55  1  0.76227000  0.94027000  0.04359000  1.0
  H  H56  1  0.02414000  0.20299000  0.92815000  1.0
  H  H57  1  0.97586000  0.79702000  0.42815000  1.0
  H  H58  1  0.28464000  0.09506000  0.94431000  1.0
  H  H59  1  0.71536000  0.90496000  0.44430000  1.0
  H  H60  1  0.37043000  0.83054000  0.80070000  1.0
  H  H61  1  0.62958000  0.16946000  0.30070000  1.0
  H  H62  1  0.37262000  0.86771000  0.92573000  1.0
  H  H63  1  0.62740000  0.13230000  0.42573000  1.0
  H  H64  1  0.47687000  0.95863000  0.84130000  1.0
  H  H65  1  0.52314000  0.04138000  0.34129000  1.0
  H  H66  1  0.10205000  0.85671000  0.72874000  1.0
  H  H67  1  0.89797000  0.14329000  0.22873000  1.0
  H  H68  1  0.84146000  0.96677000  0.71157000  1.0
  H  H69  1  0.15855000  0.03322000  0.21156000  1.0
  C  C70  1  0.85193000  0.55615000  0.54165000  1.0
  C  C71  1  0.14806000  0.44385000  0.04164000  1.0
  C  C72  1  0.97193000  0.59410000  0.62250000  1.0
  C  C73  1  0.02807000  0.40590000  0.12250000  1.0
  C  C74  1  0.89839000  0.31938000  0.58046000  1.0
  C  C75  1  0.10161000  0.68062000  0.08046000  1.0
  C  C76  1  0.00284000  0.29818000  0.49111000  1.0
  C  C77  1  0.99716000  0.70182000  0.99111000  1.0
  C  C78  1  0.37690000  0.34082000  0.38766000  1.0
  C  C79  1  0.62311000  0.65918000  0.88765000  1.0
  C  C80  1  0.26252000  0.23692000  0.41045000  1.0
  C  C81  1  0.73748000  0.76308000  0.91045000  1.0
  C  C82  1  0.36079000  0.56818000  0.47273000  1.0
  C  C83  1  0.63921000  0.43181000  0.97273000  1.0
  C  C84  1  0.22475000  0.62757000  0.52910000  1.0
  C  C85  1  0.77525000  0.37243000  0.02910000  1.0
  C  C86  1  0.20098000  0.47908000  0.77403000  1.0
  C  C87  1  0.79901000  0.52092000  0.27403000  1.0
  C  C88  1  0.24196000  0.56805000  0.69532000  1.0
  C  C89  1  0.75804000  0.43195000  0.19533000  1.0
  C  C90  1  0.23824000  0.25383000  0.69215000  1.0
  C  C91  1  0.76176000  0.74616000  0.19215000  1.0
  C  C92  1  0.27681000  0.28811000  0.58756000  1.0
  C  C93  1  0.72319000  0.71189000  0.08756000  1.0
  C  C94  1  0.16544000  0.23251000  0.50765000  1.0
  C  C95  1  0.83455000  0.76749000  0.00765000  1.0
  C  C96  1  0.12354000  0.10689000  0.53087000  1.0
  C  C97  1  0.87645000  0.89311000  0.03088000  1.0
  C  C98  1  0.91669000  0.08972000  0.81989000  1.0
  C  C99  1  0.08332000  0.91028000  0.31987000  1.0
  C  C100  1  0.04097000  0.12609000  0.88557000  1.0
  C  C101  1  0.95903000  0.87392000  0.38556000  1.0
  C  C102  1  0.18604000  0.06560000  0.89470000  1.0
  C  C103  1  0.81397000  0.93441000  0.39469000  1.0
  C  C104  1  0.20945000  0.96706000  0.83910000  1.0
  C  C105  1  0.79057000  0.03295000  0.33909000  1.0
  C  C106  1  0.36566000  0.90212000  0.85168000  1.0
  C  C107  1  0.63436000  0.09788000  0.35168000  1.0
  C  C108  1  0.08431000  0.93216000  0.77349000  1.0
  C  C109  1  0.91571000  0.06785000  0.27349000  1.0
  C  C110  1  0.93829000  0.99287000  0.76342000  1.0
  C  C111  1  0.06172000  0.00713000  0.26341000  1.0
  S  S112  1  0.73586000  0.42090000  0.55918000  1.0
  S  S113  1  0.26414000  0.57910000  0.05918000  1.0
  S  S114  1  0.27595000  0.47775000  0.37419000  1.0
  S  S115  1  0.72405000  0.52224000  0.87419000  1.0
  S  S116  1  0.32593000  0.35240000  0.78162000  1.0
  S  S117  1  0.67407000  0.64760000  0.28162000  1.0
  S  S118  1  0.73428000  0.17158000  0.80776000  1.0
  S  S119  1  0.26572000  0.82841000  0.30775000  1.0
  N  N120  1  0.14345000  0.55848000  0.60601000  1.0
  N  N121  1  0.85654000  0.44151000  0.10601000  1.0
  O  O122  1  0.80675000  0.29067000  0.80411000  1.0
  O  O123  1  0.19324000  0.70933000  0.30410000  1.0
  O  O124  1  0.65374000  0.13720000  0.71626000  1.0
  O  O125  1  0.34625000  0.86280000  0.21625000  1.0
  O  O126  1  0.63171000  0.15040000  0.89418000  1.0
  O  O127  1  0.36828000  0.84960000  0.39418000  1.0
