# generated using pymatgen
data_CdH19C29(NO2)5
_symmetry_space_group_name_H-M   'P 1'
_cell_length_a   9.25414000
_cell_length_b   10.87970000
_cell_length_c   14.10000000
_cell_angle_alpha   87.86210000
_cell_angle_beta   72.90960000
_cell_angle_gamma   84.74050000
_symmetry_Int_Tables_number   1
_chemical_formula_structural   CdH19C29(NO2)5
_chemical_formula_sum   'Cd2 H38 C58 N10 O20'
_cell_volume   1351.13959944
_cell_formula_units_Z   2
loop_
 _symmetry_equiv_pos_site_id
 _symmetry_equiv_pos_as_xyz
  1  'x, y, z'
loop_
 _atom_site_type_symbol
 _atom_site_label
 _atom_site_symmetry_multiplicity
 _atom_site_fract_x
 _atom_site_fract_y
 _atom_site_fract_z
 _atom_site_occupancy
  Cd  Cd0  1  0.25472000  0.18026000  0.45597000  1.0
  Cd  Cd1  1  0.74527000  0.81975000  0.54403000  1.0
  H  H2  1  0.57099000  0.07924000  0.68900000  1.0
  H  H3  1  0.42901000  0.92077000  0.31100000  1.0
  H  H4  1  0.83713000  0.53010000  0.91238000  1.0
  H  H5  1  0.16287000  0.46990000  0.08762000  1.0
  H  H6  1  0.14296000  0.07759000  0.27650000  1.0
  H  H7  1  0.85704000  0.92242000  0.72350000  1.0
  H  H8  1  0.31517000  0.06702000  0.01635000  1.0
  H  H9  1  0.68483000  0.93298000  0.98365000  1.0
  H  H10  1  0.65852000  0.28661000  0.83678000  1.0
  H  H11  1  0.34148000  0.71339000  0.16322000  1.0
  H  H12  1  0.48825000  0.34608000  0.15131000  1.0
  H  H13  1  0.51175000  0.65393000  0.84870000  1.0
  H  H14  1  0.56392000  0.28670000  0.30105000  1.0
  H  H15  1  0.43609000  0.71330000  0.69896000  1.0
  H  H16  1  0.68152000  0.48565000  0.25196000  1.0
  H  H17  1  0.31848000  0.51435000  0.74804000  1.0
  H  H18  1  0.55189000  0.67899000  0.34626000  1.0
  H  H19  1  0.44811000  0.32100000  0.65374000  1.0
  H  H20  1  0.33702000  0.77481000  0.48067000  1.0
  H  H21  1  0.66298000  0.22519000  0.51933000  1.0
  H  H22  1  0.09817000  0.75380000  0.61709000  1.0
  H  H23  1  0.90183000  0.24620000  0.38291000  1.0
  H  H24  1  0.89353000  0.62343000  0.71064000  1.0
  H  H25  1  0.10646000  0.37657000  0.28936000  1.0
  H  H26  1  0.79116000  0.41692000  0.73932000  1.0
  H  H27  1  0.20883000  0.58308000  0.26068000  1.0
  H  H28  1  0.94080000  0.23759000  0.63777000  1.0
  H  H29  1  0.05920000  0.76240000  0.36223000  1.0
  H  H30  1  0.78638000  0.62449000  0.12398000  1.0
  H  H31  1  0.21362000  0.37551000  0.87602000  1.0
  H  H32  1  0.83395000  0.76976000  0.24522000  1.0
  H  H33  1  0.16606000  0.23024000  0.75477000  1.0
  H  H34  1  0.02397000  0.92134000  0.18924000  1.0
  H  H35  1  0.97604000  0.07866000  0.81076000  1.0
  H  H36  1  0.17072000  0.94130000  0.00965000  1.0
  H  H37  1  0.82928000  0.05869000  0.99035000  1.0
  H  H38  1  0.18814000  0.82678000  0.81882000  1.0
  H  H39  1  0.81186000  0.17322000  0.18117000  1.0
  C  C40  1  0.39046000  0.20326000  0.09499000  1.0
  C  C41  1  0.60954000  0.79674000  0.90501000  1.0
  C  C42  1  0.38906000  0.14069000  0.01085000  1.0
  C  C43  1  0.61094000  0.85931000  0.98915000  1.0
  C  C44  1  0.48492000  0.17118000  0.91783000  1.0
  C  C45  1  0.51508000  0.82883000  0.08217000  1.0
  C  C46  1  0.58279000  0.26485000  0.90920000  1.0
  C  C47  1  0.41721000  0.73515000  0.09081000  1.0
  C  C48  1  0.58401000  0.32812000  0.99376000  1.0
  C  C49  1  0.41599000  0.67188000  0.00624000  1.0
  C  C50  1  0.48738000  0.29678000  0.08587000  1.0
  C  C51  1  0.51262000  0.70323000  0.91414000  1.0
  C  C52  1  0.29616000  0.17255000  0.19613000  1.0
  C  C53  1  0.70383000  0.82745000  0.80387000  1.0
  C  C54  1  0.48036000  0.09876000  0.83082000  1.0
  C  C55  1  0.51964000  0.90124000  0.16918000  1.0
  C  C56  1  0.68632000  0.42694000  0.99432000  1.0
  C  C57  1  0.31368000  0.57307000  0.00568000  1.0
  C  C58  1  0.51213000  0.37159000  0.34019000  1.0
  C  C59  1  0.48787000  0.62841000  0.65982000  1.0
  C  C60  1  0.57735000  0.48405000  0.31293000  1.0
  C  C61  1  0.42265000  0.51594000  0.68707000  1.0
  C  C62  1  0.50596000  0.58935000  0.36415000  1.0
  C  C63  1  0.49404000  0.41065000  0.63585000  1.0
  C  C64  1  0.36993000  0.58123000  0.44210000  1.0
  C  C65  1  0.63007000  0.41877000  0.55790000  1.0
  C  C66  1  0.28992000  0.68589000  0.49886000  1.0
  C  C67  1  0.71008000  0.31411000  0.50114000  1.0
  C  C68  1  0.15907000  0.67428000  0.57376000  1.0
  C  C69  1  0.84093000  0.32572000  0.42624000  1.0
  C  C70  1  0.09547000  0.55787000  0.59573000  1.0
  C  C71  1  0.90453000  0.44213000  0.40427000  1.0
  C  C72  1  0.95581000  0.54371000  0.66845000  1.0
  C  C73  1  0.04419000  0.45629000  0.33155000  1.0
  C  C74  1  0.89830000  0.42959000  0.68360000  1.0
  C  C75  1  0.10170000  0.57041000  0.31640000  1.0
  C  C76  1  0.98113000  0.32951000  0.62691000  1.0
  C  C77  1  0.01887000  0.67049000  0.37309000  1.0
  C  C78  1  0.17105000  0.45190000  0.54092000  1.0
  C  C79  1  0.82895000  0.54809000  0.45908000  1.0
  C  C80  1  0.31235000  0.46343000  0.46384000  1.0
  C  C81  1  0.68766000  0.53657000  0.53616000  1.0
  C  C82  1  0.99728000  0.00704000  0.44530000  1.0
  C  C83  1  0.00272000  0.99296000  0.55470000  1.0
  C  C84  1  0.49736000  0.03926000  0.54570000  1.0
  C  C85  1  0.50262000  0.96075000  0.45430000  1.0
  C  C86  1  0.95091000  0.70462000  0.00065000  1.0
  C  C87  1  0.04909000  0.29538000  0.99935000  1.0
  C  C88  1  0.86842000  0.69327000  0.10125000  1.0
  C  C89  1  0.13158000  0.30673000  0.89875000  1.0
  C  C90  1  0.89692000  0.77322000  0.16668000  1.0
  C  C91  1  0.10308000  0.22678000  0.83332000  1.0
  C  C92  1  0.00511000  0.86151000  0.13455000  1.0
  C  C93  1  0.99490000  0.13848000  0.86545000  1.0
  C  C94  1  0.08749000  0.87396000  0.03564000  1.0
  C  C95  1  0.91252000  0.12603000  0.96436000  1.0
  C  C96  1  0.05720000  0.79416000  0.96947000  1.0
  C  C97  1  0.94280000  0.20584000  0.03052000  1.0
  N  N98  1  0.38419000  0.36153000  0.41290000  1.0
  N  N99  1  0.61581000  0.63847000  0.58710000  1.0
  N  N100  1  0.11282000  0.34048000  0.55756000  1.0
  N  N101  1  0.88718000  0.65952000  0.44244000  1.0
  N  N102  1  0.94934000  0.64225000  0.91733000  1.0
  N  N103  1  0.05066000  0.35774000  0.08267000  1.0
  N  N104  1  0.04574000  0.68739000  0.83907000  1.0
  N  N105  1  0.95426000  0.31261000  0.16093000  1.0
  N  N106  1  0.11113000  0.77850000  0.86924000  1.0
  N  N107  1  0.88887000  0.22149000  0.13076000  1.0
  O  O108  1  0.39818000  0.01357000  0.83878000  1.0
  O  O109  1  0.60183000  0.98644000  0.16122000  1.0
  O  O110  1  0.57478000  0.13514000  0.74525000  1.0
  O  O111  1  0.42522000  0.86486000  0.25475000  1.0
  O  O112  1  0.76816000  0.46371000  0.90509000  1.0
  O  O113  1  0.23184000  0.53628000  0.09491000  1.0
  O  O114  1  0.69211000  0.46940000  0.07285000  1.0
  O  O115  1  0.30788000  0.53060000  0.92715000  1.0
  O  O116  1  0.30943000  0.22471000  0.26965000  1.0
  O  O117  1  0.69057000  0.77529000  0.73035000  1.0
  O  O118  1  0.19913000  0.08798000  0.20197000  1.0
  O  O119  1  0.80087000  0.91203000  0.79803000  1.0
  O  O120  1  0.41268000  0.13766000  0.56264000  1.0
  O  O121  1  0.58731000  0.86234000  0.43737000  1.0
  O  O122  1  0.58385000  0.99749000  0.59784000  1.0
  O  O123  1  0.41615000  0.00252000  0.40216000  1.0
  O  O124  1  0.08716000  0.08160000  0.39085000  1.0
  O  O125  1  0.91284000  0.91840000  0.60915000  1.0
  O  O126  1  0.90852000  0.94729000  0.41695000  1.0
  O  O127  1  0.09148000  0.05271000  0.58305000  1.0
