# generated using pymatgen
data_ZnH8C10S2(BrN)2
_symmetry_space_group_name_H-M   'P 1'
_cell_length_a   8.12690000
_cell_length_b   8.12693000
_cell_length_c   10.91480000
_cell_angle_alpha   82.18660000
_cell_angle_beta   82.18620000
_cell_angle_gamma   76.88070000
_symmetry_Int_Tables_number   1
_chemical_formula_structural   ZnH8C10S2(BrN)2
_chemical_formula_sum   'Zn2 H16 C20 S4 Br4 N4'
_cell_volume   691.41504254
_cell_formula_units_Z   2
loop_
 _symmetry_equiv_pos_site_id
 _symmetry_equiv_pos_as_xyz
  1  'x, y, z'
loop_
 _atom_site_type_symbol
 _atom_site_label
 _atom_site_symmetry_multiplicity
 _atom_site_fract_x
 _atom_site_fract_y
 _atom_site_fract_z
 _atom_site_occupancy
  Zn  Zn0  1  0.55729000  0.44270000  0.25000000  1.0
  Zn  Zn1  1  0.44270000  0.55730000  0.75000000  1.0
  H  H2  1  0.51094000  0.24910000  0.04937000  1.0
  H  H3  1  0.75089000  0.48906000  0.45064000  1.0
  H  H4  1  0.48905000  0.75089000  0.95063000  1.0
  H  H5  1  0.24911000  0.51094000  0.54936000  1.0
  H  H6  1  0.68457000  0.10709000  0.87212000  1.0
  H  H7  1  0.89288000  0.31542000  0.62789000  1.0
  H  H8  1  0.31543000  0.89290000  0.12788000  1.0
  H  H9  1  0.10712000  0.68457000  0.37211000  1.0
  H  H10  1  0.11508000  0.27661000  0.96814000  1.0
  H  H11  1  0.72338000  0.88493000  0.53185000  1.0
  H  H12  1  0.88492000  0.72339000  0.03186000  1.0
  H  H13  1  0.27662000  0.11507000  0.46815000  1.0
  H  H14  1  0.92176000  0.41444000  0.13989000  1.0
  H  H15  1  0.58556000  0.07826000  0.36010000  1.0
  H  H16  1  0.07824000  0.58556000  0.86011000  1.0
  H  H17  1  0.41445000  0.92175000  0.63990000  1.0
  C  C18  1  0.64568000  0.25119000  0.02789000  1.0
  C  C19  1  0.74881000  0.35432000  0.47211000  1.0
  C  C20  1  0.35431000  0.74881000  0.97210000  1.0
  C  C21  1  0.25120000  0.64568000  0.52789000  1.0
  C  C22  1  0.74350000  0.17138000  0.92989000  1.0
  C  C23  1  0.82860000  0.25651000  0.57012000  1.0
  C  C24  1  0.25650000  0.82861000  0.07011000  1.0
  C  C25  1  0.17140000  0.74349000  0.42988000  1.0
  C  C26  1  0.91510000  0.17908000  0.90616000  1.0
  C  C27  1  0.82090000  0.08490000  0.59384000  1.0
  C  C28  1  0.08490000  0.82092000  0.09384000  1.0
  C  C29  1  0.17910000  0.91509000  0.40616000  1.0
  C  C30  1  0.98180000  0.26781000  0.98281000  1.0
  C  C31  1  0.73218000  0.01819000  0.51719000  1.0
  C  C32  1  0.01819000  0.73219000  0.01720000  1.0
  C  C33  1  0.26783000  0.98181000  0.48281000  1.0
  C  C34  1  0.87446000  0.34465000  0.07842000  1.0
  C  C35  1  0.65535000  0.12554000  0.42157000  1.0
  C  C36  1  0.12553000  0.65535000  0.92158000  1.0
  C  C37  1  0.34465000  0.87447000  0.57843000  1.0
  S  S38  1  0.05483000  0.08403000  0.78471000  1.0
  S  S39  1  0.91596000  0.94516000  0.71528000  1.0
  S  S40  1  0.94517000  0.91597000  0.21529000  1.0
  S  S41  1  0.08405000  0.05483000  0.28472000  1.0
  Br  Br42  1  0.28187000  0.38786000  0.24878000  1.0
  Br  Br43  1  0.61214000  0.71814000  0.25122000  1.0
  Br  Br44  1  0.71813000  0.61214000  0.75123000  1.0
  Br  Br45  1  0.38786000  0.28186000  0.74878000  1.0
  N  N46  1  0.70879000  0.33672000  0.10134000  1.0
  N  N47  1  0.66327000  0.29122000  0.39866000  1.0
  N  N48  1  0.29120000  0.66328000  0.89866000  1.0
  N  N49  1  0.33674000  0.70878000  0.60134000  1.0
