# generated using pymatgen
data_CaH18C10N2(ClO2)2
_symmetry_space_group_name_H-M   'P 1'
_cell_length_a   7.55868000
_cell_length_b   9.22568000
_cell_length_c   10.62120000
_cell_angle_alpha   89.99970000
_cell_angle_beta   73.03500000
_cell_angle_gamma   89.99970000
_symmetry_Int_Tables_number   1
_chemical_formula_structural   CaH18C10N2(ClO2)2
_chemical_formula_sum   'Ca2 H36 C20 N4 Cl4 O8'
_cell_volume   708.42726789
_cell_formula_units_Z   2
loop_
 _symmetry_equiv_pos_site_id
 _symmetry_equiv_pos_as_xyz
  1  'x, y, z'
loop_
 _atom_site_type_symbol
 _atom_site_label
 _atom_site_symmetry_multiplicity
 _atom_site_fract_x
 _atom_site_fract_y
 _atom_site_fract_z
 _atom_site_occupancy
  Ca  Ca0  1  0.50000000  0.50000000  0.00000000  1.0
  Ca  Ca1  1  0.00000000  0.00000000  0.00000000  1.0
  H  H2  1  0.09905000  0.37047000  0.16624000  1.0
  H  H3  1  0.40095000  0.87047000  0.83376000  1.0
  H  H4  1  0.90095000  0.62953000  0.83376000  1.0
  H  H5  1  0.59905000  0.12953000  0.16625000  1.0
  H  H6  1  0.80775000  0.20841000  0.31610000  1.0
  H  H7  1  0.69225000  0.70841000  0.68390000  1.0
  H  H8  1  0.19225000  0.79160000  0.68390000  1.0
  H  H9  1  0.30775000  0.29159000  0.31610000  1.0
  H  H10  1  0.95203000  0.30535000  0.39191000  1.0
  H  H11  1  0.54797000  0.80535000  0.60809000  1.0
  H  H12  1  0.04797000  0.69465000  0.60809000  1.0
  H  H13  1  0.45203000  0.19465000  0.39191000  1.0
  H  H14  1  0.58678000  0.42062000  0.35705000  1.0
  H  H15  1  0.91322000  0.92062000  0.64295000  1.0
  H  H16  1  0.41322000  0.57938000  0.64295000  1.0
  H  H17  1  0.08678000  0.07938000  0.35705000  1.0
  H  H18  1  0.64612000  0.40350000  0.50791000  1.0
  H  H19  1  0.85388000  0.90350000  0.49209000  1.0
  H  H20  1  0.35388000  0.59650000  0.49209000  1.0
  H  H21  1  0.14612000  0.09650000  0.50791000  1.0
  H  H22  1  0.71030000  0.66306000  0.37721000  1.0
  H  H23  1  0.78970000  0.16306000  0.62279000  1.0
  H  H24  1  0.28970000  0.33695000  0.62279000  1.0
  H  H25  1  0.21031000  0.83694000  0.37721000  1.0
  H  H26  1  0.88556000  0.58765000  0.43969000  1.0
  H  H27  1  0.61444000  0.08765000  0.56031000  1.0
  H  H28  1  0.11444000  0.41235000  0.56031000  1.0
  H  H29  1  0.38556000  0.91235000  0.43969000  1.0
  H  H30  1  0.87030000  0.60176000  0.16945000  1.0
  H  H31  1  0.62970000  0.10176000  0.83055000  1.0
  H  H32  1  0.12970000  0.39824000  0.83055000  1.0
  H  H33  1  0.37030000  0.89824000  0.16945000  1.0
  H  H34  1  0.05790000  0.59811000  0.22928000  1.0
  H  H35  1  0.44210000  0.09810000  0.77072000  1.0
  H  H36  1  0.94210000  0.40189000  0.77072000  1.0
  H  H37  1  0.55790000  0.90189000  0.22928000  1.0
  C  C38  1  0.86148000  0.35898000  0.09482000  1.0
  C  C39  1  0.63851000  0.85897000  0.90519000  1.0
  C  C40  1  0.13852000  0.64102000  0.90518000  1.0
  C  C41  1  0.36149000  0.14103000  0.09481000  1.0
  C  C42  1  0.95090000  0.39439000  0.20340000  1.0
  C  C43  1  0.54910000  0.89439000  0.79660000  1.0
  C  C44  1  0.04910000  0.60561000  0.79660000  1.0
  C  C45  1  0.45090000  0.10561000  0.20340000  1.0
  C  C46  1  0.85444000  0.31727000  0.33344000  1.0
  C  C47  1  0.64556000  0.81727000  0.66656000  1.0
  C  C48  1  0.14556000  0.68273000  0.66656000  1.0
  C  C49  1  0.35444000  0.18273000  0.33344000  1.0
  C  C50  1  0.70078000  0.42315000  0.40184000  1.0
  C  C51  1  0.79922000  0.92315000  0.59816000  1.0
  C  C52  1  0.29922000  0.57685000  0.59816000  1.0
  C  C53  1  0.20078000  0.07685000  0.40184000  1.0
  C  C54  1  0.79876000  0.56867000  0.37453000  1.0
  C  C55  1  0.70124000  0.06867000  0.62547000  1.0
  C  C56  1  0.20124000  0.43133000  0.62547000  1.0
  C  C57  1  0.29876000  0.93133000  0.37453000  1.0
  N  N58  1  0.92738000  0.55361000  0.23665000  1.0
  N  N59  1  0.57262000  0.05361000  0.76335000  1.0
  N  N60  1  0.07262000  0.44639000  0.76335000  1.0
  N  N61  1  0.42739000  0.94639000  0.23665000  1.0
  Cl  Cl62  1  0.32306000  0.58891000  0.25331000  1.0
  Cl  Cl63  1  0.17694000  0.08892000  0.74669000  1.0
  Cl  Cl64  1  0.67694000  0.41109000  0.74669000  1.0
  Cl  Cl65  1  0.82306000  0.91108000  0.25331000  1.0
  O  O66  1  0.77090000  0.45955000  0.06015000  1.0
  O  O67  1  0.72910000  0.95953000  0.93986000  1.0
  O  O68  1  0.22910000  0.54045000  0.93985000  1.0
  O  O69  1  0.27091000  0.04047000  0.06014000  1.0
  O  O70  1  0.88413000  0.23192000  0.04941000  1.0
  O  O71  1  0.61586000  0.73191000  0.95059000  1.0
  O  O72  1  0.11587000  0.76808000  0.95059000  1.0
  O  O73  1  0.38414000  0.26809000  0.04941000  1.0
