# generated using pymatgen
data_Cu5H39C36N9O17
_symmetry_space_group_name_H-M   'P 1'
_cell_length_a   15.83550000
_cell_length_b   17.54540000
_cell_length_c   17.54710000
_cell_angle_alpha   77.44470000
_cell_angle_beta   80.52990000
_cell_angle_gamma   80.52990000
_symmetry_Int_Tables_number   1
_chemical_formula_structural   Cu5H39C36N9O17
_chemical_formula_sum   'Cu10 H78 C72 N18 O34'
_cell_volume   4651.68156444
_cell_formula_units_Z   2
loop_
 _symmetry_equiv_pos_site_id
 _symmetry_equiv_pos_as_xyz
  1  'x, y, z'
loop_
 _atom_site_type_symbol
 _atom_site_label
 _atom_site_symmetry_multiplicity
 _atom_site_fract_x
 _atom_site_fract_y
 _atom_site_fract_z
 _atom_site_occupancy
  Cu  Cu0  1  0.86150000  0.75924000  0.75864000  1.0
  Cu  Cu1  1  0.13859000  0.24128000  0.24072000  1.0
  Cu  Cu2  1  0.75403000  0.61349000  0.76624000  1.0
  Cu  Cu3  1  0.24600000  0.23378000  0.38655000  1.0
  Cu  Cu4  1  0.24610000  0.38493000  0.23392000  1.0
  Cu  Cu5  1  0.75395000  0.76610000  0.61504000  1.0
  Cu  Cu6  1  0.54108000  0.53547000  0.53783000  1.0
  Cu  Cu7  1  0.45881000  0.46209000  0.46449000  1.0
  Cu  Cu8  1  0.99901000  0.50077000  0.00063000  1.0
  Cu  Cu9  1  0.00103000  0.99942000  0.49924000  1.0
  H  H10  1  0.86929000  0.65913000  0.66157000  1.0
  H  H11  1  0.13089000  0.33849000  0.34090000  1.0
  H  H12  1  0.74768000  0.82554000  0.82911000  1.0
  H  H13  1  0.25212000  0.17056000  0.17425000  1.0
  H  H14  1  0.80774000  0.89262000  0.81468000  1.0
  H  H15  1  0.19199000  0.18483000  0.10729000  1.0
  H  H16  1  0.92171000  0.48049000  0.73740000  1.0
  H  H17  1  0.07831000  0.26264000  0.51959000  1.0
  H  H18  1  0.08010000  0.52005000  0.26441000  1.0
  H  H19  1  0.91978000  0.73571000  0.47974000  1.0
  H  H20  1  0.86918000  0.47423000  0.67242000  1.0
  H  H21  1  0.13081000  0.32766000  0.52582000  1.0
  H  H22  1  0.13731000  0.52537000  0.32614000  1.0
  H  H23  1  0.86246000  0.67396000  0.47467000  1.0
  H  H24  1  0.97716000  0.75481000  0.87998000  1.0
  H  H25  1  0.02325000  0.11978000  0.24514000  1.0
  H  H26  1  0.01314000  0.24869000  0.12567000  1.0
  H  H27  1  0.98701000  0.87427000  0.75126000  1.0
  H  H28  1  0.05895000  0.67095000  0.89387000  1.0
  H  H29  1  0.94125000  0.10620000  0.32885000  1.0
  H  H30  1  0.93558000  0.33478000  0.10744000  1.0
  H  H31  1  0.06451000  0.89267000  0.66515000  1.0
  H  H32  1  0.98161000  0.69199000  0.97478000  1.0
  H  H33  1  0.01850000  0.02511000  0.30818000  1.0
  H  H34  1  0.01275000  0.30862000  0.02867000  1.0
  H  H35  1  0.98725000  0.97134000  0.69146000  1.0
  H  H36  1  0.79617000  0.45755000  0.87710000  1.0
  H  H37  1  0.20369000  0.12314000  0.54255000  1.0
  H  H38  1  0.20526000  0.54109000  0.12278000  1.0
  H  H39  1  0.79465000  0.87746000  0.45897000  1.0
  H  H40  1  0.81029000  0.45331000  0.97664000  1.0
  H  H41  1  0.18981000  0.02352000  0.54677000  1.0
  H  H42  1  0.18736000  0.54732000  0.02380000  1.0
  H  H43  1  0.81267000  0.97642000  0.45274000  1.0
  H  H44  1  0.89975000  0.42058000  0.91082000  1.0
  H  H45  1  0.10020000  0.08924000  0.57944000  1.0
  H  H46  1  0.10051000  0.57991000  0.09206000  1.0
  H  H47  1  0.89941000  0.90809000  0.42010000  1.0
  H  H48  1  0.56350000  0.49798000  0.76042000  1.0
  H  H49  1  0.43661000  0.23961000  0.50202000  1.0
  H  H50  1  0.44241000  0.49779000  0.24339000  1.0
  H  H51  1  0.55771000  0.75667000  0.50222000  1.0
  H  H52  1  0.67595000  0.46733000  0.75549000  1.0
  H  H53  1  0.32415000  0.24448000  0.53265000  1.0
  H  H54  1  0.33051000  0.52740000  0.24145000  1.0
  H  H55  1  0.66962000  0.75851000  0.47258000  1.0
  H  H56  1  0.61642000  0.44929000  0.68358000  1.0
  H  H57  1  0.38362000  0.31641000  0.55075000  1.0
  H  H58  1  0.38352000  0.54887000  0.31629000  1.0
  H  H59  1  0.61651000  0.68368000  0.45120000  1.0
  H  H60  1  0.47503000  0.64457000  0.97933000  1.0
  H  H61  1  0.52502000  0.02078000  0.35541000  1.0
  H  H62  1  0.52097000  0.35215000  0.01349000  1.0
  H  H63  1  0.47897000  0.98649000  0.64780000  1.0
  H  H64  1  0.62197000  0.43374000  0.91628000  1.0
  H  H65  1  0.37800000  0.08374000  0.56621000  1.0
  H  H66  1  0.37454000  0.56287000  0.07707000  1.0
  H  H67  1  0.62549000  0.92300000  0.43710000  1.0
  H  H68  1  0.25080000  0.53278000  0.86344000  1.0
  H  H69  1  0.74925000  0.13658000  0.46712000  1.0
  H  H70  1  0.74887000  0.46671000  0.13842000  1.0
  H  H71  1  0.25107000  0.86148000  0.53342000  1.0
  H  H72  1  0.14066000  0.37336000  0.76632000  1.0
  H  H73  1  0.85931000  0.23379000  0.62653000  1.0
  H  H74  1  0.85787000  0.62648000  0.23600000  1.0
  H  H75  1  0.14211000  0.76406000  0.37353000  1.0
  H  H76  1  0.37455000  0.53513000  0.75398000  1.0
  H  H77  1  0.62545000  0.24600000  0.46478000  1.0
  H  H78  1  0.62533000  0.46322000  0.24814000  1.0
  H  H79  1  0.37456000  0.75172000  0.53691000  1.0
  H  H80  1  0.26275000  0.37903000  0.65386000  1.0
  H  H81  1  0.73716000  0.34620000  0.62085000  1.0
  H  H82  1  0.73551000  0.62038000  0.34830000  1.0
  H  H83  1  0.26443000  0.65172000  0.37962000  1.0
  H  H84  1  0.64989000  0.74551000  0.82015000  1.0
  H  H85  1  0.34991000  0.17987000  0.25435000  1.0
  H  H86  1  0.65204000  0.82112000  0.74699000  1.0
  H  H87  1  0.34773000  0.25296000  0.17873000  1.0
  C  C88  1  0.99114000  0.69373000  0.91097000  1.0
  C  C89  1  0.00910000  0.08895000  0.30626000  1.0
  C  C90  1  0.00276000  0.30917000  0.09206000  1.0
  C  C91  1  0.99732000  0.90796000  0.69080000  1.0
  C  C92  1  0.93315000  0.64407000  0.89229000  1.0
  C  C93  1  0.06699000  0.10768000  0.35594000  1.0
  C  C94  1  0.06273000  0.35765000  0.10969000  1.0
  C  C95  1  0.93735000  0.89035000  0.64232000  1.0
  C  C96  1  0.86701000  0.54450000  0.89402000  1.0
  C  C97  1  0.13303000  0.10605000  0.45555000  1.0
  C  C98  1  0.13149000  0.45599000  0.10697000  1.0
  C  C99  1  0.86852000  0.89314000  0.54401000  1.0
  C  C100  1  0.84151000  0.46410000  0.91523000  1.0
  C  C101  1  0.15848000  0.08491000  0.53596000  1.0
  C  C102  1  0.15806000  0.53595000  0.08578000  1.0
  C  C103  1  0.84191000  0.91442000  0.46408000  1.0
  C  C104  1  0.63972000  0.56755000  0.66770000  1.0
  C  C105  1  0.36035000  0.33230000  0.43247000  1.0
  C  C106  1  0.36186000  0.42985000  0.33347000  1.0
  C  C107  1  0.63820000  0.66654000  0.57019000  1.0
  C  C108  1  0.62361000  0.49086000  0.71970000  1.0
  C  C109  1  0.37648000  0.28030000  0.50915000  1.0
  C  C110  1  0.37992000  0.50565000  0.28070000  1.0
  C  C111  1  0.62016000  0.71930000  0.49438000  1.0
  C  C112  1  0.61380000  0.59444000  0.88427000  1.0
  C  C113  1  0.38619000  0.11580000  0.40555000  1.0
  C  C114  1  0.38315000  0.40265000  0.11043000  1.0
  C  C115  1  0.61679000  0.88957000  0.59731000  1.0
  C  C116  1  0.55445000  0.54415000  0.94225000  1.0
  C  C117  1  0.44558000  0.05781000  0.45581000  1.0
  C  C118  1  0.44201000  0.45250000  0.05110000  1.0
  C  C119  1  0.55797000  0.94891000  0.54747000  1.0
  C  C120  1  0.48439000  0.58049000  0.98750000  1.0
  C  C121  1  0.51565000  0.01259000  0.41948000  1.0
  C  C122  1  0.51176000  0.41621000  0.00553000  1.0
  C  C123  1  0.48820000  0.99449000  0.58374000  1.0
  C  C124  1  0.56756000  0.46169000  0.95168000  1.0
  C  C125  1  0.43242000  0.04836000  0.53827000  1.0
  C  C126  1  0.42880000  0.53499000  0.04148000  1.0
  C  C127  1  0.57121000  0.95857000  0.46498000  1.0
  C  C128  1  0.11039000  0.45564000  0.88242000  1.0
  C  C129  1  0.88963000  0.11766000  0.54430000  1.0
  C  C130  1  0.88891000  0.54383000  0.12010000  1.0
  C  C131  1  0.11109000  0.87993000  0.45621000  1.0
  C  C132  1  0.18762000  0.45414000  0.82012000  1.0
  C  C133  1  0.81238000  0.17994000  0.54577000  1.0
  C  C134  1  0.81153000  0.54540000  0.18215000  1.0
  C  C135  1  0.18843000  0.81784000  0.45465000  1.0
  C  C136  1  0.25411000  0.49879000  0.81770000  1.0
  C  C137  1  0.74591000  0.18234000  0.50111000  1.0
  C  C138  1  0.74530000  0.50053000  0.18435000  1.0
  C  C139  1  0.25464000  0.81558000  0.49957000  1.0
  C  C140  1  0.19196000  0.40917000  0.76223000  1.0
  C  C141  1  0.80801000  0.23785000  0.59073000  1.0
  C  C142  1  0.80678000  0.59044000  0.24003000  1.0
  C  C143  1  0.19318000  0.75998000  0.40958000  1.0
  C  C144  1  0.39399000  0.46688000  0.62752000  1.0
  C  C145  1  0.60590000  0.37246000  0.53302000  1.0
  C  C146  1  0.60548000  0.53108000  0.37475000  1.0
  C  C147  1  0.39442000  0.62517000  0.46893000  1.0
  C  C148  1  0.32504000  0.45808000  0.69716000  1.0
  C  C149  1  0.67491000  0.30287000  0.54182000  1.0
  C  C150  1  0.67418000  0.54062000  0.30504000  1.0
  C  C151  1  0.32575000  0.69491000  0.45942000  1.0
  C  C152  1  0.32286000  0.50015000  0.75703000  1.0
  C  C153  1  0.67713000  0.24297000  0.49976000  1.0
  C  C154  1  0.67665000  0.49862000  0.24507000  1.0
  C  C155  1  0.32327000  0.75484000  0.50148000  1.0
  C  C156  1  0.25971000  0.41179000  0.70060000  1.0
  C  C157  1  0.74024000  0.29947000  0.58809000  1.0
  C  C158  1  0.73894000  0.58751000  0.30159000  1.0
  C  C159  1  0.26101000  0.69840000  0.41251000  1.0
  N  N160  1  0.87790000  0.66728000  0.83934000  1.0
  N  N161  1  0.12225000  0.16063000  0.33272000  1.0
  N  N162  1  0.11864000  0.33352000  0.16200000  1.0
  N  N163  1  0.88143000  0.83803000  0.66643000  1.0
  N  N164  1  0.83620000  0.60457000  0.84043000  1.0
  N  N165  1  0.16386000  0.15961000  0.39545000  1.0
  N  N166  1  0.16213000  0.39578000  0.16037000  1.0
  N  N167  1  0.83790000  0.83970000  0.60419000  1.0
  N  N168  1  0.92807000  0.56773000  0.92661000  1.0
  N  N169  1  0.07200000  0.07343000  0.43231000  1.0
  N  N170  1  0.06924000  0.43362000  0.07505000  1.0
  N  N171  1  0.93080000  0.92503000  0.56637000  1.0
  N  N172  1  0.68612000  0.61890000  0.68256000  1.0
  N  N173  1  0.31395000  0.31746000  0.38113000  1.0
  N  N174  1  0.31482000  0.37929000  0.31840000  1.0
  N  N175  1  0.68526000  0.68162000  0.62073000  1.0
  N  N176  1  0.60946000  0.59562000  0.59774000  1.0
  N  N177  1  0.39059000  0.40230000  0.40438000  1.0
  O  O178  1  0.82306000  0.68895000  0.69209000  1.0
  O  O179  1  0.17711000  0.30791000  0.31113000  1.0
  O  O180  1  0.67683000  0.55446000  0.84593000  1.0
  O  O181  1  0.32316000  0.15412000  0.44557000  1.0
  O  O182  1  0.32479000  0.44257000  0.15281000  1.0
  O  O183  1  0.67525000  0.84727000  0.55741000  1.0
  O  O184  1  0.60035000  0.66789000  0.87598000  1.0
  O  O185  1  0.39959000  0.12414000  0.33210000  1.0
  O  O186  1  0.39329000  0.32935000  0.11599000  1.0
  O  O187  1  0.60654000  0.88393000  0.67062000  1.0
  O  O188  1  0.45722000  0.50098000  0.63280000  1.0
  O  O189  1  0.54268000  0.36711000  0.49893000  1.0
  O  O190  1  0.54556000  0.49217000  0.37111000  1.0
  O  O191  1  0.45440000  0.62878000  0.50779000  1.0
  O  O192  1  0.38199000  0.44175000  0.56764000  1.0
  O  O193  1  0.61783000  0.43237000  0.55814000  1.0
  O  O194  1  0.61427000  0.56033000  0.43304000  1.0
  O  O195  1  0.38557000  0.56689000  0.43968000  1.0
  O  O196  1  0.10298000  0.51134000  0.92258000  1.0
  O  O197  1  0.89708000  0.07748000  0.48862000  1.0
  O  O198  1  0.89528000  0.48921000  0.07876000  1.0
  O  O199  1  0.10475000  0.92127000  0.51082000  1.0
  O  O200  1  0.05755000  0.40727000  0.89263000  1.0
  O  O201  1  0.94245000  0.10747000  0.59267000  1.0
  O  O202  1  0.94287000  0.59095000  0.11103000  1.0
  O  O203  1  0.05713000  0.88901000  0.40912000  1.0
  O  O204  1  0.80538000  0.83749000  0.83918000  1.0
  O  O205  1  0.19441000  0.16046000  0.16244000  1.0
  O  O206  1  0.88295000  0.51135000  0.70091000  1.0
  O  O207  1  0.11724000  0.29898000  0.48876000  1.0
  O  O208  1  0.11818000  0.48819000  0.30100000  1.0
  O  O209  1  0.88174000  0.69914000  0.51174000  1.0
  O  O210  1  0.68491000  0.78696000  0.78881000  1.0
  O  O211  1  0.31487000  0.21111000  0.21289000  1.0
