# generated using pymatgen
data_CaH6C5(NO3)2
_symmetry_space_group_name_H-M   'P 1'
_cell_length_a   6.72198000
_cell_length_b   6.75096000
_cell_length_c   17.86180000
_cell_angle_alpha   89.99990000
_cell_angle_beta   89.99970000
_cell_angle_gamma   82.96820000
_symmetry_Int_Tables_number   1
_chemical_formula_structural   CaH6C5(NO3)2
_chemical_formula_sum   'Ca4 H24 C20 N8 O24'
_cell_volume   804.46845464
_cell_formula_units_Z   4
loop_
 _symmetry_equiv_pos_site_id
 _symmetry_equiv_pos_as_xyz
  1  'x, y, z'
loop_
 _atom_site_type_symbol
 _atom_site_label
 _atom_site_symmetry_multiplicity
 _atom_site_fract_x
 _atom_site_fract_y
 _atom_site_fract_z
 _atom_site_occupancy
  Ca  Ca0  1  0.35037000  0.69969000  0.60731000  1.0
  Ca  Ca1  1  0.64963000  0.80031000  0.10731000  1.0
  Ca  Ca2  1  0.64963000  0.30032000  0.39269000  1.0
  Ca  Ca3  1  0.35037000  0.19968000  0.89269000  1.0
  H  H4  1  0.88360000  0.35199000  0.61830000  1.0
  H  H5  1  0.11641000  0.14802000  0.11830000  1.0
  H  H6  1  0.11641000  0.64804000  0.38170000  1.0
  H  H7  1  0.88358000  0.85195000  0.88170000  1.0
  H  H8  1  0.04642000  0.25766000  0.74550000  1.0
  H  H9  1  0.95357000  0.24234000  0.24550000  1.0
  H  H10  1  0.95358000  0.74235000  0.25450000  1.0
  H  H11  1  0.04642000  0.75765000  0.75450000  1.0
  H  H12  1  0.25996000  0.31990000  0.50981000  1.0
  H  H13  1  0.74004000  0.18010000  0.00981000  1.0
  H  H14  1  0.74004000  0.68012000  0.49019000  1.0
  H  H15  1  0.25997000  0.81988000  0.99019000  1.0
  H  H16  1  0.28658000  0.25539000  0.59521000  1.0
  H  H17  1  0.71342000  0.24461000  0.09521000  1.0
  H  H18  1  0.71343000  0.74463000  0.40479000  1.0
  H  H19  1  0.28658000  0.75537000  0.90479000  1.0
  H  H20  1  0.31428000  0.94488000  0.46569000  1.0
  H  H21  1  0.68572000  0.55513000  0.96569000  1.0
  H  H22  1  0.68572000  0.05514000  0.53432000  1.0
  H  H23  1  0.31429000  0.44486000  0.03432000  1.0
  H  H24  1  0.44661000  0.74121000  0.45464000  1.0
  H  H25  1  0.55340000  0.75879000  0.95464000  1.0
  H  H26  1  0.55339000  0.25881000  0.54537000  1.0
  H  H27  1  0.44661000  0.24119000  0.04536000  1.0
  C  C28  1  0.76225000  0.37476000  0.79468000  1.0
  C  C29  1  0.23775000  0.12524000  0.29469000  1.0
  C  C30  1  0.23775000  0.62524000  0.20531000  1.0
  C  C31  1  0.76225000  0.87476000  0.70531000  1.0
  C  C32  1  0.80963000  0.37859000  0.67197000  1.0
  C  C33  1  0.19038000  0.12142000  0.17197000  1.0
  C  C34  1  0.19038000  0.62143000  0.32803000  1.0
  C  C35  1  0.80962000  0.87857000  0.82803000  1.0
  C  C36  1  0.82249000  0.31853000  0.87306000  1.0
  C  C37  1  0.17752000  0.18147000  0.37306000  1.0
  C  C38  1  0.17753000  0.68146000  0.12694000  1.0
  C  C39  1  0.82249000  0.81854000  0.62694000  1.0
  C  C40  1  0.39297000  0.56167000  0.78587000  1.0
  C  C41  1  0.60702000  0.93833000  0.28587000  1.0
  C  C42  1  0.60702000  0.43832000  0.21413000  1.0
  C  C43  1  0.39298000  0.06167000  0.71413000  1.0
  C  C44  1  0.58897000  0.46388000  0.75826000  1.0
  C  C45  1  0.41102000  0.03612000  0.25826000  1.0
  C  C46  1  0.41102000  0.53612000  0.24174000  1.0
  C  C47  1  0.58898000  0.96388000  0.74174000  1.0
  N  N48  1  0.62222000  0.46417000  0.68189000  1.0
  N  N49  1  0.37777000  0.03584000  0.18189000  1.0
  N  N50  1  0.37778000  0.53585000  0.31811000  1.0
  N  N51  1  0.62222000  0.96416000  0.81811000  1.0
  N  N52  1  0.89836000  0.32586000  0.73804000  1.0
  N  N53  1  0.10164000  0.17414000  0.23805000  1.0
  N  N54  1  0.10165000  0.67414000  0.26195000  1.0
  N  N55  1  0.89835000  0.82586000  0.76195000  1.0
  O  O56  1  0.34305000  0.54471000  0.85419000  1.0
  O  O57  1  0.65695000  0.95530000  0.35419000  1.0
  O  O58  1  0.65695000  0.45528000  0.14581000  1.0
  O  O59  1  0.34305000  0.04472000  0.64580000  1.0
  O  O60  1  0.28203000  0.66039000  0.73740000  1.0
  O  O61  1  0.71797000  0.83961000  0.23740000  1.0
  O  O62  1  0.71796000  0.33960000  0.26260000  1.0
  O  O63  1  0.28204000  0.16039000  0.76260000  1.0
  O  O64  1  0.00644000  0.27908000  0.88628000  1.0
  O  O65  1  0.99355000  0.22093000  0.38628000  1.0
  O  O66  1  0.99356000  0.72093000  0.11372000  1.0
  O  O67  1  0.00644000  0.77907000  0.61371000  1.0
  O  O68  1  0.68409000  0.30849000  0.92241000  1.0
  O  O69  1  0.31591000  0.19150000  0.42241000  1.0
  O  O70  1  0.31592000  0.69148000  0.07759000  1.0
  O  O71  1  0.68409000  0.80852000  0.57759000  1.0
  O  O72  1  0.29293000  0.37056000  0.56021000  1.0
  O  O73  1  0.70707000  0.12944000  0.06021000  1.0
  O  O74  1  0.70707000  0.62946000  0.43979000  1.0
  O  O75  1  0.29294000  0.87054000  0.93979000  1.0
  O  O76  1  0.32268000  0.80236000  0.47959000  1.0
  O  O77  1  0.67733000  0.69763000  0.97959000  1.0
  O  O78  1  0.67732000  0.19764000  0.52041000  1.0
  O  O79  1  0.32268000  0.30235000  0.02041000  1.0
