# generated using pymatgen
data_MnH12C14S(NO2)2
_symmetry_space_group_name_H-M   'P 1'
_cell_length_a   7.94569000
_cell_length_b   9.01643000
_cell_length_c   10.42550000
_cell_angle_alpha   73.82570000
_cell_angle_beta   72.86880000
_cell_angle_gamma   80.02920000
_symmetry_Int_Tables_number   1
_chemical_formula_structural   MnH12C14S(NO2)2
_chemical_formula_sum   'Mn2 H24 C28 S2 N4 O8'
_cell_volume   682.12678430
_cell_formula_units_Z   2
loop_
 _symmetry_equiv_pos_site_id
 _symmetry_equiv_pos_as_xyz
  1  'x, y, z'
loop_
 _atom_site_type_symbol
 _atom_site_label
 _atom_site_symmetry_multiplicity
 _atom_site_fract_x
 _atom_site_fract_y
 _atom_site_fract_z
 _atom_site_occupancy
  Mn  Mn0  1  0.40526000  0.49222000  0.17836000  1.0
  Mn  Mn1  1  0.59474000  0.50778000  0.82164000  1.0
  H  H2  1  0.14841000  0.21711000  0.91456000  1.0
  H  H3  1  0.85159000  0.78291000  0.08542000  1.0
  H  H4  1  0.98220000  0.36791000  0.95452000  1.0
  H  H5  1  0.01780000  0.63210000  0.04547000  1.0
  H  H6  1  0.86700000  0.04618000  0.01833000  1.0
  H  H7  1  0.13299000  0.95384000  0.98166000  1.0
  H  H8  1  0.75624000  0.00422000  0.19948000  1.0
  H  H9  1  0.24378000  0.99577000  0.80052000  1.0
  H  H10  1  0.20853000  0.19222000  0.33775000  1.0
  H  H11  1  0.79147000  0.80778000  0.66225000  1.0
  H  H12  1  0.02606000  0.07005000  0.57515000  1.0
  H  H13  1  0.97394000  0.92995000  0.42485000  1.0
  H  H14  1  0.97003000  0.20855000  0.76404000  1.0
  H  H15  1  0.02996000  0.79145000  0.23597000  1.0
  H  H16  1  0.10823000  0.45459000  0.71226000  1.0
  H  H17  1  0.89176000  0.54541000  0.28774000  1.0
  H  H18  1  0.27357000  0.63130000  0.66310000  1.0
  H  H19  1  0.72644000  0.36870000  0.33691000  1.0
  H  H20  1  0.37998000  0.89067000  0.57537000  1.0
  H  H21  1  0.62002000  0.10933000  0.42464000  1.0
  H  H22  1  0.46962000  0.00586000  0.31600000  1.0
  H  H23  1  0.53037000  0.99414000  0.68401000  1.0
  H  H24  1  0.47012000  0.83766000  0.15985000  1.0
  H  H25  1  0.52988000  0.16234000  0.84016000  1.0
  C  C26  1  0.22406000  0.37441000  0.00383000  1.0
  C  C27  1  0.77594000  0.62560000  0.99614000  1.0
  C  C28  1  0.08578000  0.28442000  0.99224000  1.0
  C  C29  1  0.91422000  0.71559000  0.00775000  1.0
  C  C30  1  0.81236000  0.09508000  0.10931000  1.0
  C  C31  1  0.18764000  0.90491000  0.89069000  1.0
  C  C32  1  0.67280000  0.22976000  0.08090000  1.0
  C  C33  1  0.32721000  0.77024000  0.91909000  1.0
  C  C34  1  0.18553000  0.24374000  0.42506000  1.0
  C  C35  1  0.81446000  0.75626000  0.57495000  1.0
  C  C36  1  0.08417000  0.17751000  0.55632000  1.0
  C  C37  1  0.91583000  0.82249000  0.44369000  1.0
  C  C38  1  0.05508000  0.25362000  0.66170000  1.0
  C  C39  1  0.94492000  0.74638000  0.33831000  1.0
  C  C40  1  0.13115000  0.39116000  0.63295000  1.0
  C  C41  1  0.86886000  0.60883000  0.36706000  1.0
  C  C42  1  0.23259000  0.44978000  0.49871000  1.0
  C  C43  1  0.76742000  0.55022000  0.50129000  1.0
  C  C44  1  0.30975000  0.59922000  0.45708000  1.0
  C  C45  1  0.69025000  0.40077000  0.54293000  1.0
  C  C46  1  0.31525000  0.68038000  0.55208000  1.0
  C  C47  1  0.68475000  0.31962000  0.44793000  1.0
  C  C48  1  0.37542000  0.82694000  0.50206000  1.0
  C  C49  1  0.62457000  0.17306000  0.49795000  1.0
  C  C50  1  0.42823000  0.88897000  0.35957000  1.0
  C  C51  1  0.57176000  0.11103000  0.64043000  1.0
  C  C52  1  0.42665000  0.79740000  0.27208000  1.0
  C  C53  1  0.57334000  0.20260000  0.72792000  1.0
  S  S54  1  0.98674000  0.15810000  0.15637000  1.0
  S  S55  1  0.01327000  0.84189000  0.84362000  1.0
  N  N56  1  0.25766000  0.37681000  0.39659000  1.0
  N  N57  1  0.74234000  0.62319000  0.60342000  1.0
  N  N58  1  0.36979000  0.65584000  0.31925000  1.0
  N  N59  1  0.63021000  0.34416000  0.68075000  1.0
  O  O60  1  0.21890000  0.38799000  0.12286000  1.0
  O  O61  1  0.78108000  0.61202000  0.87713000  1.0
  O  O62  1  0.33156000  0.43106000  0.89031000  1.0
  O  O63  1  0.66845000  0.56894000  0.10968000  1.0
  O  O64  1  0.68888000  0.29896000  0.95425000  1.0
  O  O65  1  0.31112000  0.70105000  0.04575000  1.0
  O  O66  1  0.55596000  0.26392000  0.18428000  1.0
  O  O67  1  0.44404000  0.73607000  0.81573000  1.0
