# generated using pymatgen
data_NdH7C11N3O7
_symmetry_space_group_name_H-M   'P 1'
_cell_length_a   8.15019000
_cell_length_b   11.67800000
_cell_length_c   15.42200000
_cell_angle_alpha   89.99980000
_cell_angle_beta   89.99990000
_cell_angle_gamma   88.47210000
_symmetry_Int_Tables_number   1
_chemical_formula_structural   NdH7C11N3O7
_chemical_formula_sum   'Nd4 H28 C44 N12 O28'
_cell_volume   1467.31198990
_cell_formula_units_Z   4
loop_
 _symmetry_equiv_pos_site_id
 _symmetry_equiv_pos_as_xyz
  1  'x, y, z'
loop_
 _atom_site_type_symbol
 _atom_site_label
 _atom_site_symmetry_multiplicity
 _atom_site_fract_x
 _atom_site_fract_y
 _atom_site_fract_z
 _atom_site_occupancy
  Nd  Nd0  1  0.28626000  0.57559000  0.12954000  1.0
  Nd  Nd1  1  0.71376000  0.92442000  0.62953000  1.0
  Nd  Nd2  1  0.71375000  0.42442000  0.87046000  1.0
  Nd  Nd3  1  0.28626000  0.07558000  0.37046000  1.0
  H  H4  1  0.97173000  0.66256000  0.22791000  1.0
  H  H5  1  0.02826000  0.83744000  0.72792000  1.0
  H  H6  1  0.02826000  0.33744000  0.77208000  1.0
  H  H7  1  0.97174000  0.16256000  0.27208000  1.0
  H  H8  1  0.03609000  0.53951000  0.27065000  1.0
  H  H9  1  0.96391000  0.96049000  0.77065000  1.0
  H  H10  1  0.96391000  0.46049000  0.72935000  1.0
  H  H11  1  0.03609000  0.03950000  0.22935000  1.0
  H  H12  1  0.66238000  0.64236000  0.44261000  1.0
  H  H13  1  0.33763000  0.85764000  0.94261000  1.0
  H  H14  1  0.33763000  0.35764000  0.55739000  1.0
  H  H15  1  0.66238000  0.14236000  0.05739000  1.0
  H  H16  1  0.60190000  0.40597000  0.43549000  1.0
  H  H17  1  0.39810000  0.09403000  0.93549000  1.0
  H  H18  1  0.39810000  0.59403000  0.56451000  1.0
  H  H19  1  0.60189000  0.90597000  0.06451000  1.0
  H  H20  1  0.76715000  0.22637000  0.41299000  1.0
  H  H21  1  0.23285000  0.27363000  0.91299000  1.0
  H  H22  1  0.23284000  0.77363000  0.58701000  1.0
  H  H23  1  0.76714000  0.72637000  0.08700000  1.0
  H  H24  1  0.91102000  0.32798000  0.16737000  1.0
  H  H25  1  0.08897000  0.17202000  0.66738000  1.0
  H  H26  1  0.08898000  0.67202000  0.83263000  1.0
  H  H27  1  0.91102000  0.82798000  0.33262000  1.0
  H  H28  1  0.75070000  0.51335000  0.17946000  1.0
  H  H29  1  0.24929000  0.98665000  0.67946000  1.0
  H  H30  1  0.24930000  0.48664000  0.82054000  1.0
  H  H31  1  0.75070000  0.01335000  0.32053000  1.0
  C  C32  1  0.32517000  0.82061000  0.23941000  1.0
  C  C33  1  0.67483000  0.67938000  0.73941000  1.0
  C  C34  1  0.67483000  0.17938000  0.76059000  1.0
  C  C35  1  0.32517000  0.32062000  0.26059000  1.0
  C  C36  1  0.43813000  0.74482000  0.29184000  1.0
  C  C37  1  0.56187000  0.75518000  0.79183000  1.0
  C  C38  1  0.56187000  0.25518000  0.70817000  1.0
  C  C39  1  0.43814000  0.24482000  0.20816000  1.0
  C  C40  1  0.50906000  0.75708000  0.37346000  1.0
  C  C41  1  0.49094000  0.74292000  0.87345000  1.0
  C  C42  1  0.49094000  0.24292000  0.62655000  1.0
  C  C43  1  0.50906000  0.25708000  0.12655000  1.0
  C  C44  1  0.53540000  0.85143000  0.43601000  1.0
  C  C45  1  0.46460000  0.64856000  0.93600000  1.0
  C  C46  1  0.46460000  0.14857000  0.56400000  1.0
  C  C47  1  0.53540000  0.35144000  0.06399000  1.0
  C  C48  1  0.57616000  0.58552000  0.31838000  1.0
  C  C49  1  0.42384000  0.91448000  0.81838000  1.0
  C  C50  1  0.42384000  0.41448000  0.68162000  1.0
  C  C51  1  0.57615000  0.08552000  0.18162000  1.0
  C  C52  1  0.66438000  0.47540000  0.30897000  1.0
  C  C53  1  0.33562000  0.02461000  0.80897000  1.0
  C  C54  1  0.33562000  0.52460000  0.69103000  1.0
  C  C55  1  0.66437000  0.97539000  0.19103000  1.0
  C  C56  1  0.66988000  0.39323000  0.37529000  1.0
  C  C57  1  0.33012000  0.10678000  0.87529000  1.0
  C  C58  1  0.33011000  0.60677000  0.62471000  1.0
  C  C59  1  0.66987000  0.89323000  0.12470000  1.0
  C  C60  1  0.75989000  0.29157000  0.36238000  1.0
  C  C61  1  0.24011000  0.20843000  0.86238000  1.0
  C  C62  1  0.24011000  0.70843000  0.63762000  1.0
  C  C63  1  0.75988000  0.79157000  0.13762000  1.0
  C  C64  1  0.83900000  0.34836000  0.22534000  1.0
  C  C65  1  0.16099000  0.15164000  0.72535000  1.0
  C  C66  1  0.16100000  0.65164000  0.77466000  1.0
  C  C67  1  0.83900000  0.84836000  0.27465000  1.0
  C  C68  1  0.75142000  0.45177000  0.23230000  1.0
  C  C69  1  0.24858000  0.04823000  0.73230000  1.0
  C  C70  1  0.24858000  0.54823000  0.76770000  1.0
  C  C71  1  0.75142000  0.95177000  0.26769000  1.0
  C  C72  1  0.96819000  0.56362000  0.99746000  1.0
  C  C73  1  0.03183000  0.93638000  0.49745000  1.0
  C  C74  1  0.03182000  0.43638000  0.00255000  1.0
  C  C75  1  0.96819000  0.06362000  0.50254000  1.0
  N  N76  1  0.48179000  0.63824000  0.25894000  1.0
  N  N77  1  0.51822000  0.86177000  0.75894000  1.0
  N  N78  1  0.51821000  0.36176000  0.74106000  1.0
  N  N79  1  0.48178000  0.13824000  0.24106000  1.0
  N  N80  1  0.59095000  0.65449000  0.38896000  1.0
  N  N81  1  0.40905000  0.84551000  0.88896000  1.0
  N  N82  1  0.40905000  0.34551000  0.61104000  1.0
  N  N83  1  0.59094000  0.15449000  0.11104000  1.0
  N  N84  1  0.84279000  0.26932000  0.28870000  1.0
  N  N85  1  0.15721000  0.23068000  0.78870000  1.0
  N  N86  1  0.15721000  0.73067000  0.71130000  1.0
  N  N87  1  0.84278000  0.76932000  0.21129000  1.0
  O  O88  1  0.27773000  0.77917000  0.16777000  1.0
  O  O89  1  0.72227000  0.72083000  0.66777000  1.0
  O  O90  1  0.72227000  0.22083000  0.83223000  1.0
  O  O91  1  0.27773000  0.27917000  0.33223000  1.0
  O  O92  1  0.28251000  0.91892000  0.26729000  1.0
  O  O93  1  0.71748000  0.58108000  0.76728000  1.0
  O  O94  1  0.71749000  0.08108000  0.73272000  1.0
  O  O95  1  0.28251000  0.41892000  0.23271000  1.0
  O  O96  1  0.51253000  0.95394000  0.41160000  1.0
  O  O97  1  0.48747000  0.54605000  0.91160000  1.0
  O  O98  1  0.48748000  0.04606000  0.58840000  1.0
  O  O99  1  0.51253000  0.45395000  0.08840000  1.0
  O  O100  1  0.59310000  0.81933000  0.50893000  1.0
  O  O101  1  0.40690000  0.68066000  0.00893000  1.0
  O  O102  1  0.40690000  0.18067000  0.49107000  1.0
  O  O103  1  0.59310000  0.31933000  0.99107000  1.0
  O  O104  1  0.84305000  0.58353000  0.95049000  1.0
  O  O105  1  0.15695000  0.91647000  0.45047000  1.0
  O  O106  1  0.15695000  0.41647000  0.04953000  1.0
  O  O107  1  0.84306000  0.08353000  0.54951000  1.0
  O  O108  1  0.04645000  0.63651000  0.04058000  1.0
  O  O109  1  0.95357000  0.86348000  0.54057000  1.0
  O  O110  1  0.95356000  0.36349000  0.95943000  1.0
  O  O111  1  0.04645000  0.13652000  0.45942000  1.0
  O  O112  1  0.06869000  0.60607000  0.23775000  1.0
  O  O113  1  0.93130000  0.89393000  0.73776000  1.0
  O  O114  1  0.93131000  0.39393000  0.76225000  1.0
  O  O115  1  0.06869000  0.10607000  0.26224000  1.0
