# generated using pymatgen
data_NaH9C7SO7
_symmetry_space_group_name_H-M   'P 1'
_cell_length_a   7.03906000
_cell_length_b   11.93950000
_cell_length_c   11.96850000
_cell_angle_alpha   89.99960000
_cell_angle_beta   103.86000000
_cell_angle_gamma   90.00000000
_symmetry_Int_Tables_number   1
_chemical_formula_structural   NaH9C7SO7
_chemical_formula_sum   'Na4 H36 C28 S4 O28'
_cell_volume   976.58006638
_cell_formula_units_Z   4
loop_
 _symmetry_equiv_pos_site_id
 _symmetry_equiv_pos_as_xyz
  1  'x, y, z'
loop_
 _atom_site_type_symbol
 _atom_site_label
 _atom_site_symmetry_multiplicity
 _atom_site_fract_x
 _atom_site_fract_y
 _atom_site_fract_z
 _atom_site_occupancy
  Na  Na0  1  0.69299000  0.25340000  0.83961000  1.0
  Na  Na1  1  0.80701000  0.75341000  0.16039000  1.0
  Na  Na2  1  0.30701000  0.74659000  0.16039000  1.0
  Na  Na3  1  0.19299000  0.24659000  0.83961000  1.0
  H  H4  1  0.37729000  0.14767000  0.61866000  1.0
  H  H5  1  0.12270000  0.64767000  0.38135000  1.0
  H  H6  1  0.62272000  0.85233000  0.38134000  1.0
  H  H7  1  0.87730000  0.35233000  0.61865000  1.0
  H  H8  1  0.80186000  0.01766000  0.85499000  1.0
  H  H9  1  0.69815000  0.51766000  0.14501000  1.0
  H  H10  1  0.19815000  0.98234000  0.14501000  1.0
  H  H11  1  0.30185000  0.48234000  0.85499000  1.0
  H  H12  1  0.58263000  0.01546000  0.86290000  1.0
  H  H13  1  0.91738000  0.51546000  0.13710000  1.0
  H  H14  1  0.41738000  0.98454000  0.13710000  1.0
  H  H15  1  0.08262000  0.48454000  0.86291000  1.0
  H  H16  1  0.54563000  0.19436000  0.02362000  1.0
  H  H17  1  0.95437000  0.69436000  0.97638000  1.0
  H  H18  1  0.45437000  0.80564000  0.97638000  1.0
  H  H19  1  0.04563000  0.30564000  0.02362000  1.0
  H  H20  1  0.48914000  0.32280000  0.02458000  1.0
  H  H21  1  0.01087000  0.82280000  0.97543000  1.0
  H  H22  1  0.51086000  0.67720000  0.97542000  1.0
  H  H23  1  0.98914000  0.17720000  0.02458000  1.0
  H  H24  1  0.33142000  0.47208000  0.42550000  1.0
  H  H25  1  0.16858000  0.97207000  0.57451000  1.0
  H  H26  1  0.66856000  0.52792000  0.57449000  1.0
  H  H27  1  0.83142000  0.02793000  0.42549000  1.0
  H  H28  1  0.38654000  0.06742000  0.33066000  1.0
  H  H29  1  0.11344000  0.56742000  0.66936000  1.0
  H  H30  1  0.61346000  0.93258000  0.66935000  1.0
  H  H31  1  0.88655000  0.43259000  0.33065000  1.0
  H  H32  1  0.36265000  0.21148000  0.18079000  1.0
  H  H33  1  0.13735000  0.71148000  0.81922000  1.0
  H  H34  1  0.63735000  0.78852000  0.81921000  1.0
  H  H35  1  0.86267000  0.28853000  0.18079000  1.0
  H  H36  1  0.33124000  0.42480000  0.62287000  1.0
  H  H37  1  0.16876000  0.92480000  0.37713000  1.0
  H  H38  1  0.66875000  0.57521000  0.37712000  1.0
  H  H39  1  0.83125000  0.07520000  0.62286000  1.0
  C  C40  1  0.34800000  0.35157000  0.29423000  1.0
  C  C41  1  0.15201000  0.85156000  0.70578000  1.0
  C  C42  1  0.65199000  0.64843000  0.70576000  1.0
  C  C43  1  0.84800000  0.14844000  0.29422000  1.0
  C  C44  1  0.34787000  0.38425000  0.40495000  1.0
  C  C45  1  0.15214000  0.88424000  0.59506000  1.0
  C  C46  1  0.65212000  0.61575000  0.59505000  1.0
  C  C47  1  0.84787000  0.11576000  0.40494000  1.0
  C  C48  1  0.36055000  0.30274000  0.49184000  1.0
  C  C49  1  0.13944000  0.80273000  0.50817000  1.0
  C  C50  1  0.63944000  0.69727000  0.50816000  1.0
  C  C51  1  0.86055000  0.19727000  0.49184000  1.0
  C  C52  1  0.37366000  0.18716000  0.46458000  1.0
  C  C53  1  0.12632000  0.68716000  0.53542000  1.0
  C  C54  1  0.62634000  0.81284000  0.53542000  1.0
  C  C55  1  0.87367000  0.31284000  0.46458000  1.0
  C  C56  1  0.37512000  0.15561000  0.35182000  1.0
  C  C57  1  0.12486000  0.65561000  0.64819000  1.0
  C  C58  1  0.62489000  0.84439000  0.64818000  1.0
  C  C59  1  0.87513000  0.34440000  0.35182000  1.0
  C  C60  1  0.36206000  0.23707000  0.26813000  1.0
  C  C61  1  0.13793000  0.73707000  0.73188000  1.0
  C  C62  1  0.63793000  0.76293000  0.73187000  1.0
  C  C63  1  0.86208000  0.26294000  0.26813000  1.0
  C  C64  1  0.35054000  0.33516000  0.60599000  1.0
  C  C65  1  0.14945000  0.83515000  0.39401000  1.0
  C  C66  1  0.64945000  0.66485000  0.39400000  1.0
  C  C67  1  0.85056000  0.16484000  0.60599000  1.0
  S  S68  1  0.31174000  0.45108000  0.18058000  1.0
  S  S69  1  0.18827000  0.95108000  0.81942000  1.0
  S  S70  1  0.68826000  0.54892000  0.81942000  1.0
  S  S71  1  0.81174000  0.04892000  0.18058000  1.0
  O  O72  1  0.31775000  0.56166000  0.23380000  1.0
  O  O73  1  0.18224000  0.06166000  0.76620000  1.0
  O  O74  1  0.68224000  0.43834000  0.76620000  1.0
  O  O75  1  0.81776000  0.93834000  0.23380000  1.0
  O  O76  1  0.47002000  0.43282000  0.12088000  1.0
  O  O77  1  0.02999000  0.93282000  0.87912000  1.0
  O  O78  1  0.52998000  0.56717000  0.87911000  1.0
  O  O79  1  0.97001000  0.06718000  0.12088000  1.0
  O  O80  1  0.11696000  0.42496000  0.10596000  1.0
  O  O81  1  0.38305000  0.92495000  0.89404000  1.0
  O  O82  1  0.88303000  0.57504000  0.89404000  1.0
  O  O83  1  0.61696000  0.07505000  0.10596000  1.0
  O  O84  1  0.35896000  0.26506000  0.68540000  1.0
  O  O85  1  0.14105000  0.76506000  0.31461000  1.0
  O  O86  1  0.64105000  0.73494000  0.31460000  1.0
  O  O87  1  0.85896000  0.23494000  0.68540000  1.0
  O  O88  1  0.38451000  0.10766000  0.54510000  1.0
  O  O89  1  0.11547000  0.60766000  0.45491000  1.0
  O  O90  1  0.61549000  0.89235000  0.45491000  1.0
  O  O91  1  0.88452000  0.39234000  0.54510000  1.0
  O  O92  1  0.67675000  0.05792000  0.83058000  1.0
  O  O93  1  0.82326000  0.55792000  0.16941000  1.0
  O  O94  1  0.32326000  0.94207000  0.16941000  1.0
  O  O95  1  0.17674000  0.44207000  0.83059000  1.0
  O  O96  1  0.49918000  0.25943000  0.97315000  1.0
  O  O97  1  0.00083000  0.75943000  0.02685000  1.0
  O  O98  1  0.50082000  0.74057000  0.02685000  1.0
  O  O99  1  0.99918000  0.24057000  0.97315000  1.0
