# generated using pymatgen
data_Zn3H9C34I10Cl11O12
_symmetry_space_group_name_H-M   'P 1'
_cell_length_a   21.61480000
_cell_length_b   21.77320000
_cell_length_c   21.89712132
_cell_angle_alpha   119.70017895
_cell_angle_beta   118.98957657
_cell_angle_gamma   90.23300000
_symmetry_Int_Tables_number   1
_chemical_formula_structural   Zn3H9C34I10Cl11O12
_chemical_formula_sum   'Zn6 H18 C68 I20 Cl22 O24'
_cell_volume   7414.53316161
_cell_formula_units_Z   2
loop_
 _symmetry_equiv_pos_site_id
 _symmetry_equiv_pos_as_xyz
  1  'x, y, z'
loop_
 _atom_site_type_symbol
 _atom_site_label
 _atom_site_symmetry_multiplicity
 _atom_site_fract_x
 _atom_site_fract_y
 _atom_site_fract_z
 _atom_site_occupancy
  Zn  Zn0  1  0.03531000  0.49429000  0.49362000  1.0
  Zn  Zn1  1  0.91299000  0.49818000  0.50044000  1.0
  Zn  Zn2  1  0.51460000  0.93786000  0.50116000  1.0
  Zn  Zn3  1  0.51695000  0.06783000  0.51026000  1.0
  Zn  Zn4  1  0.96810000  0.95202000  0.41063000  1.0
  Zn  Zn5  1  0.05335000  0.04037000  0.58578000  1.0
  H  H6  1  0.91334000  0.27487000  0.48716000  1.0
  H  H7  1  0.89428000  0.12819000  0.34036000  1.0
  H  H8  1  0.01829000  0.34640000  0.59090000  1.0
  H  H9  1  0.98983000  0.23368000  0.56471000  1.0
  H  H10  1  0.32497000  0.67617000  0.03842000  1.0
  H  H11  1  0.82992000  0.20764000  0.98351000  1.0
  H  H12  1  0.91319000  0.71072000  0.33946000  1.0
  H  H13  1  0.96441000  0.84049000  0.56424000  1.0
  H  H14  1  0.87758000  0.64980000  0.41720000  1.0
  H  H15  1  0.71942000  0.95713000  0.54889000  1.0
  H  H16  1  0.76915000  0.14898000  0.61701000  1.0
  H  H17  1  0.83419000  0.12345000  0.51989000  1.0
  H  H18  1  0.76446000  0.02595000  0.41346000  1.0
  H  H19  1  0.30013000  0.86279000  0.04849000  1.0
  H  H20  1  0.25684000  0.01507000  0.41598000  1.0
  H  H21  1  0.20839000  0.10273000  0.50379000  1.0
  H  H22  1  0.30023000  0.72347000  0.93093000  1.0
  H  H23  1  0.31503000  0.08377000  0.66614000  1.0
  C  C24  1  0.99601000  0.37000000  0.47900000  1.0
  C  C25  1  0.18403000  0.69759000  0.91337000  1.0
  C  C26  1  0.27136000  0.80774000  0.02678000  1.0
  C  C27  1  0.28643000  0.78241000  0.08780000  1.0
  C  C28  1  0.18531000  0.77553000  0.98041000  1.0
  C  C29  1  0.19828000  0.74896000  0.03939000  1.0
  C  C30  1  0.13077000  0.65421000  0.82480000  1.0
  C  C31  1  0.33730000  0.82520000  0.17700000  1.0
  C  C32  1  0.02793000  0.24602000  0.41283000  1.0
  C  C33  1  0.03616000  0.17416000  0.41778000  1.0
  C  C34  1  0.04341000  0.31219000  0.55864000  1.0
  C  C35  1  0.03668000  0.57176000  0.65728000  1.0
  C  C36  1  0.91895000  0.24663000  0.43344000  1.0
  C  C37  1  0.99698000  0.29358000  0.46674000  1.0
  C  C38  1  0.99807000  0.16643000  0.46003000  1.0
  C  C39  1  0.03365000  0.23840000  0.55384000  1.0
  C  C40  1  0.91736000  0.16699000  0.40826000  1.0
  C  C41  1  0.68662000  0.25866000  0.95898000  1.0
  C  C42  1  0.66782000  0.23816000  0.00895000  1.0
  C  C43  1  0.81514000  0.36463000  0.24932000  1.0
  C  C44  1  0.64312000  0.09023000  0.75279000  1.0
  C  C45  1  0.77171000  0.29350000  0.03361000  1.0
  C  C46  1  0.99486000  0.60908000  0.49007000  1.0
  C  C47  1  0.75307000  0.27439000  0.08546000  1.0
  C  C48  1  0.78381000  0.21668000  0.99117000  1.0
  C  C49  1  0.69902000  0.18050000  0.91516000  1.0
  C  C50  1  0.76474000  0.19595000  0.04005000  1.0
  C  C51  1  0.67977000  0.16064000  0.96584000  1.0
  C  C52  1  0.78369000  0.32222000  0.17282000  1.0
  C  C53  1  0.67113000  0.13223000  0.82863000  1.0
  C  C54  1  0.06182000  0.69886000  0.47725000  1.0
  C  C55  1  0.05082000  0.76164000  0.45654000  1.0
  C  C56  1  0.91898000  0.66024000  0.40558000  1.0
  C  C57  1  0.86260000  0.41435000  0.34022000  1.0
  C  C58  1  0.99910000  0.74593000  0.56177000  1.0
  C  C59  1  0.99535000  0.67667000  0.48308000  1.0
  C  C60  1  0.99060000  0.79350000  0.47120000  1.0
  C  C61  1  0.91722000  0.72582000  0.39723000  1.0
  C  C62  1  0.00711000  0.81579000  0.55936000  1.0
  C  C63  1  0.63312000  0.03515000  0.50940000  1.0
  C  C64  1  0.42999000  0.90602000  0.34498000  1.0
  C  C65  1  0.40904000  0.03346000  0.52486000  1.0
  C  C66  1  0.60032000  0.04847000  0.66189000  1.0
  C  C67  1  0.14814000  0.01730000  0.54048000  1.0
  C  C68  1  0.28499000  0.70459000  0.02113000  1.0
  C  C69  1  0.99655000  0.09344000  0.45873000  1.0
  C  C70  1  0.90845000  0.02323000  0.52746000  1.0
  C  C71  1  0.98648000  0.86318000  0.46589000  1.0
  C  C72  1  0.75412000  0.01067000  0.57334000  1.0
  C  C73  1  0.82668000  0.99966000  0.57501000  1.0
  C  C74  1  0.68919000  0.97573000  0.42373000  1.0
  C  C75  1  0.75712000  0.11326000  0.55311000  1.0
  C  C76  1  0.70677000  0.03550000  0.51345000  1.0
  C  C77  1  0.83565000  0.02764000  0.52559000  1.0
  C  C78  1  0.76329000  0.98614000  0.42988000  1.0
  C  C79  1  0.19900000  0.67219000  0.97482000  1.0
  C  C80  1  0.83193000  0.10927000  0.56032000  1.0
  C  C81  1  0.26733000  0.98100000  0.44130000  1.0
  C  C82  1  0.19990000  0.96526000  0.44617000  1.0
  C  C83  1  0.34865000  0.00592000  0.58982000  1.0
  C  C84  1  0.32605000  0.11142000  0.56533000  1.0
  C  C85  1  0.34134000  0.03343000  0.53257000  1.0
  C  C86  1  0.21941000  0.02399000  0.53821000  1.0
  C  C87  1  0.29047000  0.02536000  0.61142000  1.0
  C  C88  1  0.24905000  0.10196000  0.55824000  1.0
  C  C89  1  0.08419000  0.61657000  0.74845000  1.0
  C  C90  1  0.38009000  0.86165000  0.25398000  1.0
  C  C91  1  0.27153000  0.73112000  0.96251000  1.0
  I  I92  1  0.14270000  0.56691000  0.93398000  1.0
  I  I93  1  0.81284000  0.24387000  0.34044000  1.0
  I  I94  1  0.57974000  0.25529000  0.02431000  1.0
  I  I95  1  0.62578000  0.30464000  0.89386000  1.0
  I  I96  1  0.60963000  0.05725000  0.91196000  1.0
  I  I97  1  0.84397000  0.39604000  0.08701000  1.0
  I  I98  1  0.01900000  0.71702000  0.32402000  1.0
  I  I99  1  0.87259000  0.55393000  0.28264000  1.0
  I  I100  1  0.89413000  0.73166000  0.55853000  1.0
  I  I101  1  0.07585000  0.75480000  0.68164000  1.0
  I  I102  1  0.10505000  0.91220000  0.67890000  1.0
  I  I103  1  0.81125000  0.74631000  0.36509000  1.0
  I  I104  1  0.92339000  0.04370000  0.70497000  1.0
  I  I105  1  0.10737000  0.82933000  0.94661000  1.0
  I  I106  1  0.74925000  0.88861000  0.31712000  1.0
  I  I107  1  0.10996000  0.98191000  0.35023000  1.0
  I  I108  1  0.27943000  0.97457000  0.67049000  1.0
  I  I109  1  0.46002000  0.05636000  0.71148000  1.0
  I  I110  1  0.94917000  0.22405000  0.28588000  1.0
  I  I111  1  0.99148000  0.07292000  0.28663000  1.0
  Cl  Cl112  1  0.13022000  0.18289000  0.48144000  1.0
  Cl  Cl113  1  0.13680000  0.37179000  0.62156000  1.0
  Cl  Cl114  1  0.11388000  0.24898000  0.64315000  1.0
  Cl  Cl115  1  0.85496000  0.13233000  0.42416000  1.0
  Cl  Cl116  1  0.81280000  0.15386000  0.08913000  1.0
  Cl  Cl117  1  0.06655000  0.61927000  0.39900000  1.0
  Cl  Cl118  1  0.15007000  0.73375000  0.57413000  1.0
  Cl  Cl119  1  0.13445000  0.83453000  0.52041000  1.0
  Cl  Cl120  1  0.15265000  0.76058000  0.08841000  1.0
  Cl  Cl121  1  0.76728000  0.07411000  0.67392000  1.0
  Cl  Cl122  1  0.81710000  0.90208000  0.51974000  1.0
  Cl  Cl123  1  0.64655000  0.88345000  0.38815000  1.0
  Cl  Cl124  1  0.71839000  0.16206000  0.50503000  1.0
  Cl  Cl125  1  0.90822000  0.18264000  0.66433000  1.0
  Cl  Cl126  1  0.62172000  0.98946000  0.34576000  1.0
  Cl  Cl127  1  0.27121000  0.90073000  0.36397000  1.0
  Cl  Cl128  1  0.16491000  0.87342000  0.41139000  1.0
  Cl  Cl129  1  0.33726000  0.90892000  0.53774000  1.0
  Cl  Cl130  1  0.40338000  0.18161000  0.66821000  1.0
  Cl  Cl131  1  0.31183000  0.14425000  0.49925000  1.0
  Cl  Cl132  1  0.25504000  0.17863000  0.64674000  1.0
  Cl  Cl133  1  0.11428000  0.29192000  0.44024000  1.0
  O  O134  1  0.04388000  0.40022000  0.47527000  1.0
  O  O135  1  0.60794000  0.08941000  0.51476000  1.0
  O  O136  1  0.45019000  0.86964000  0.37960000  1.0
  O  O137  1  0.44991000  0.97661000  0.38387000  1.0
  O  O138  1  0.43291000  0.97922000  0.51713000  1.0
  O  O139  1  0.43450000  0.08597000  0.52396000  1.0
  O  O140  1  0.58165000  0.97665000  0.61987000  1.0
  O  O141  1  0.58294000  0.08676000  0.63111000  1.0
  O  O142  1  0.08579000  0.97566000  0.47095000  1.0
  O  O143  1  0.15578000  0.05497000  0.61243000  1.0
  O  O144  1  0.96164000  0.02989000  0.38671000  1.0
  O  O145  1  0.95162000  0.39875000  0.49666000  1.0
  O  O146  1  0.02837000  0.10146000  0.52897000  1.0
  O  O147  1  0.90167000  0.98780000  0.45728000  1.0
  O  O148  1  0.97061000  0.05706000  0.59999000  1.0
  O  O149  1  0.95666000  0.85273000  0.39324000  1.0
  O  O150  1  0.01336000  0.92640000  0.53448000  1.0
  O  O151  1  0.06910000  0.55122000  0.61869000  1.0
  O  O152  1  0.96531000  0.55586000  0.62174000  1.0
  O  O153  1  0.04904000  0.58318000  0.49708000  1.0
  O  O154  1  0.94037000  0.58453000  0.48797000  1.0
  O  O155  1  0.93197000  0.43417000  0.37222000  1.0
  O  O156  1  0.83213000  0.43455000  0.38235000  1.0
  O  O157  1  0.60235000  0.97896000  0.49990000  1.0
