# generated using pymatgen
data_ZnPH23C33N4O7
_symmetry_space_group_name_H-M   'P 1'
_cell_length_a   14.03790000
_cell_length_b   14.04280000
_cell_length_c   21.18937644
_cell_angle_alpha   93.03960622
_cell_angle_beta   108.86723558
_cell_angle_gamma   115.57200000
_symmetry_Int_Tables_number   1
_chemical_formula_structural   ZnPH23C33N4O7
_chemical_formula_sum   'Zn4 P4 H92 C132 N16 O28'
_cell_volume   3473.51089354
_cell_formula_units_Z   4
loop_
 _symmetry_equiv_pos_site_id
 _symmetry_equiv_pos_as_xyz
  1  'x, y, z'
loop_
 _atom_site_type_symbol
 _atom_site_label
 _atom_site_symmetry_multiplicity
 _atom_site_fract_x
 _atom_site_fract_y
 _atom_site_fract_z
 _atom_site_occupancy
  Zn  Zn0  1  0.78534000  0.43616000  0.50456000  1.0
  Zn  Zn1  1  0.43145000  0.28058000  0.99528000  1.0
  Zn  Zn2  1  0.21466000  0.56384000  0.49544000  1.0
  Zn  Zn3  1  0.56856000  0.71943000  0.00473000  1.0
  P  P4  1  0.88286000  0.96043000  0.29108000  1.0
  P  P5  1  0.16942000  0.59180000  0.20886000  1.0
  P  P6  1  0.11714000  0.03957000  0.70892000  1.0
  P  P7  1  0.83058000  0.40820000  0.79114000  1.0
  H  H8  1  0.96036000  0.27669000  0.45526000  1.0
  H  H9  1  0.32188000  0.50540000  0.04471000  1.0
  H  H10  1  0.03964000  0.72331000  0.54474000  1.0
  H  H11  1  0.67812000  0.49459000  0.95529000  1.0
  H  H12  1  0.17845000  0.55527000  0.70154000  1.0
  H  H13  1  0.35309000  0.47671000  0.79841000  1.0
  H  H14  1  0.82155000  0.44473000  0.29846000  1.0
  H  H15  1  0.64691000  0.52329000  0.20159000  1.0
  H  H16  1  0.68221000  0.98552000  0.24612000  1.0
  H  H17  1  0.23944000  0.43602000  0.25377000  1.0
  H  H18  1  0.31778000  0.01448000  0.75388000  1.0
  H  H19  1  0.76055000  0.56398000  0.74623000  1.0
  H  H20  1  0.25372000  0.06753000  0.87260000  1.0
  H  H21  1  0.69514000  0.38137000  0.62722000  1.0
  H  H22  1  0.74628000  0.93247000  0.12740000  1.0
  H  H23  1  0.30487000  0.61863000  0.37278000  1.0
  H  H24  1  0.02095000  0.15948000  0.40497000  1.0
  H  H25  1  0.25488000  0.61617000  0.09503000  1.0
  H  H26  1  0.97905000  0.84051000  0.59503000  1.0
  H  H27  1  0.74512000  0.38383000  0.90497000  1.0
  H  H28  1  0.89564000  0.61827000  0.64685000  1.0
  H  H29  1  0.47125000  0.24895000  0.85303000  1.0
  H  H30  1  0.10436000  0.38173000  0.35315000  1.0
  H  H31  1  0.52875000  0.75105000  0.14697000  1.0
  H  H32  1  0.36019000  0.88906000  0.00962000  1.0
  H  H33  1  0.37928000  0.35044000  0.49039000  1.0
  H  H34  1  0.63981000  0.11094000  0.99038000  1.0
  H  H35  1  0.62072000  0.64956000  0.50961000  1.0
  H  H36  1  0.45364000  0.10406000  0.07973000  1.0
  H  H37  1  0.52401000  0.37379000  0.42010000  1.0
  H  H38  1  0.54635000  0.89594000  0.92026000  1.0
  H  H39  1  0.47599000  0.62621000  0.57990000  1.0
  H  H40  1  0.62570000  0.10984000  0.29447000  1.0
  H  H41  1  0.31554000  0.33132000  0.20540000  1.0
  H  H42  1  0.37430000  0.89016000  0.70553000  1.0
  H  H43  1  0.68446000  0.66868000  0.79460000  1.0
  H  H44  1  0.88222000  0.75706000  0.28403000  1.0
  H  H45  1  0.97298000  0.59798000  0.21576000  1.0
  H  H46  1  0.11777000  0.24293000  0.71596000  1.0
  H  H47  1  0.02702000  0.40202000  0.78424000  1.0
  H  H48  1  0.95583000  0.68529000  0.75928000  1.0
  H  H49  1  0.42598000  0.19676000  0.74077000  1.0
  H  H50  1  0.04416000  0.31471000  0.24072000  1.0
  H  H51  1  0.57402000  0.80324000  0.25923000  1.0
  H  H52  1  0.84545000  0.96373000  0.42237000  1.0
  H  H53  1  0.04151000  0.42302000  0.07743000  1.0
  H  H54  1  0.15455000  0.03626000  0.57763000  1.0
  H  H55  1  0.95850000  0.57698000  0.92257000  1.0
  H  H56  1  0.53269000  0.20192000  0.36256000  1.0
  H  H57  1  0.33943000  0.16993000  0.13711000  1.0
  H  H58  1  0.46731000  0.79808000  0.63744000  1.0
  H  H59  1  0.66057000  0.83008000  0.86289000  1.0
  H  H60  1  0.80998000  0.82457000  0.49288000  1.0
  H  H61  1  0.83182000  0.31703000  0.00698000  1.0
  H  H62  1  0.19002000  0.17543000  0.50712000  1.0
  H  H63  1  0.16820000  0.68297000  0.99303000  1.0
  H  H64  1  0.27909000  0.71562000  0.76554000  1.0
  H  H65  1  0.44985000  0.51356000  0.73432000  1.0
  H  H66  1  0.72090000  0.28438000  0.23446000  1.0
  H  H67  1  0.55015000  0.48644000  0.26568000  1.0
  H  H68  1  0.01472000  0.42354000  0.57510000  1.0
  H  H69  1  0.34792000  0.43933000  0.92491000  1.0
  H  H70  1  0.98528000  0.57646000  0.42490000  1.0
  H  H71  1  0.65208000  0.56067000  0.07509000  1.0
  H  H72  1  0.09707000  0.99669000  0.40450000  1.0
  H  H73  1  0.09253000  0.69277000  0.09555000  1.0
  H  H74  1  0.90292000  0.00331000  0.59550000  1.0
  H  H75  1  0.90748000  0.30723000  0.90445000  1.0
  H  H76  1  0.30070000  0.08973000  0.41622000  1.0
  H  H77  1  0.17365000  0.88468000  0.08388000  1.0
  H  H78  1  0.69929000  0.91027000  0.58378000  1.0
  H  H79  1  0.82635000  0.11532000  0.91612000  1.0
  H  H80  1  0.19850000  0.15725000  0.21678000  1.0
  H  H81  1  0.44050000  0.98186000  0.28335000  1.0
  H  H82  1  0.80150000  0.84275000  0.78322000  1.0
  H  H83  1  0.55950000  0.01814000  0.71665000  1.0
  H  H84  1  0.99357000  0.05845000  0.20307000  1.0
  H  H85  1  0.35552000  0.79074000  0.29709000  1.0
  H  H86  1  0.00643000  0.94154000  0.79693000  1.0
  H  H87  1  0.64449000  0.20926000  0.70291000  1.0
  H  H88  1  0.06043000  0.83694000  0.86202000  1.0
  H  H89  1  0.47525000  0.19862000  0.63815000  1.0
  H  H90  1  0.93958000  0.16307000  0.13799000  1.0
  H  H91  1  0.52475000  0.80139000  0.36185000  1.0
  H  H92  1  0.84652000  0.61970000  0.35562000  1.0
  H  H93  1  0.76406000  0.49074000  0.14417000  1.0
  H  H94  1  0.15348000  0.38030000  0.64438000  1.0
  H  H95  1  0.23594000  0.50926000  0.85583000  1.0
  H  H96  1  0.38015000  0.86364000  0.86779000  1.0
  H  H97  1  0.49584000  0.51233000  0.63211000  1.0
  H  H98  1  0.61985000  0.13635000  0.13221000  1.0
  H  H99  1  0.50416000  0.48767000  0.36789000  1.0
  C  C100  1  0.85335000  0.06195000  0.32349000  1.0
  C  C101  1  0.23874000  0.53001000  0.17650000  1.0
  C  C102  1  0.14665000  0.93805000  0.67651000  1.0
  C  C103  1  0.76127000  0.47001000  0.82351000  1.0
  C  C104  1  0.78845000  0.19745000  0.37962000  1.0
  C  C105  1  0.31823000  0.40909000  0.12033000  1.0
  C  C106  1  0.21154000  0.80254000  0.62037000  1.0
  C  C107  1  0.68177000  0.59091000  0.87967000  1.0
  C  C108  1  0.90006000  0.21198000  0.40984000  1.0
  C  C109  1  0.30261000  0.49052000  0.09016000  1.0
  C  C110  1  0.09994000  0.78802000  0.59016000  1.0
  C  C111  1  0.69739000  0.50948000  0.90984000  1.0
  C  C112  1  0.82669000  0.71457000  0.42847000  1.0
  C  C113  1  0.78617000  0.39812000  0.07133000  1.0
  C  C114  1  0.17331000  0.28543000  0.57153000  1.0
  C  C115  1  0.21384000  0.60188000  0.92868000  1.0
  C  C116  1  0.86720000  0.86973000  0.34899000  1.0
  C  C117  1  0.02086000  0.51819000  0.15080000  1.0
  C  C118  1  0.13280000  0.13027000  0.65101000  1.0
  C  C119  1  0.97915000  0.48181000  0.84920000  1.0
  C  C120  1  0.75442000  0.27044000  0.41029000  1.0
  C  C121  1  0.36033000  0.34424000  0.08961000  1.0
  C  C122  1  0.24558000  0.72957000  0.58971000  1.0
  C  C123  1  0.63967000  0.65577000  0.91040000  1.0
  C  C124  1  0.09511000  0.54663000  0.67219000  1.0
  C  C125  1  0.37391000  0.42276000  0.82775000  1.0
  C  C126  1  0.90488000  0.45337000  0.32781000  1.0
  C  C127  1  0.62609000  0.57724000  0.17225000  1.0
  C  C128  1  0.74231000  0.04852000  0.29258000  1.0
  C  C129  1  0.25611000  0.44980000  0.20734000  1.0
  C  C130  1  0.25769000  0.95147000  0.70742000  1.0
  C  C131  1  0.74388000  0.55019000  0.79265000  1.0
  C  C132  1  0.80237000  0.63044000  0.47057000  1.0
  C  C133  1  0.65992000  0.33161000  0.02923000  1.0
  C  C134  1  0.19763000  0.36956000  0.52943000  1.0
  C  C135  1  0.34009000  0.66838000  0.97077000  1.0
  C  C136  1  0.29462000  0.05030000  0.92076000  1.0
  C  C137  1  0.62963000  0.37405000  0.57910000  1.0
  C  C138  1  0.70538000  0.94970000  0.07924000  1.0
  C  C139  1  0.37039000  0.62597000  0.42091000  1.0
  C  C140  1  0.93314000  0.14558000  0.38162000  1.0
  C  C141  1  0.26442000  0.55179000  0.11842000  1.0
  C  C142  1  0.06686000  0.85442000  0.61838000  1.0
  C  C143  1  0.73558000  0.44821000  0.88158000  1.0
  C  C144  1  0.11043000  0.69111000  0.75523000  1.0
  C  C145  1  0.43561000  0.35521000  0.74466000  1.0
  C  C146  1  0.88956000  0.30889000  0.24477000  1.0
  C  C147  1  0.56439000  0.64479000  0.25534000  1.0
  C  C148  1  0.94780000  0.58018000  0.64556000  1.0
  C  C149  1  0.43438000  0.30232000  0.85434000  1.0
  C  C150  1  0.05220000  0.41982000  0.35444000  1.0
  C  C151  1  0.56562000  0.69769000  0.14566000  1.0
  C  C152  1  0.35284000  0.95868000  0.99333000  1.0
  C  C153  1  0.46524000  0.35944000  0.50661000  1.0
  C  C154  1  0.64717000  0.04132000  0.00667000  1.0
  C  C155  1  0.53476000  0.64056000  0.49339000  1.0
  C  C156  1  0.39893000  0.06436000  0.02660000  1.0
  C  C157  1  0.53761000  0.37235000  0.47327000  1.0
  C  C158  1  0.60107000  0.93565000  0.97340000  1.0
  C  C159  1  0.46239000  0.62765000  0.52673000  1.0
  C  C160  1  0.71027000  0.11681000  0.31998000  1.0
  C  C161  1  0.29709000  0.39044000  0.17994000  1.0
  C  C162  1  0.28972000  0.88318000  0.68001000  1.0
  C  C163  1  0.70290000  0.60956000  0.82006000  1.0
  C  C164  1  0.03283000  0.02529000  0.30388000  1.0
  C  C165  1  0.22158000  0.72909000  0.19622000  1.0
  C  C166  1  0.96717000  0.97471000  0.69612000  1.0
  C  C167  1  0.77843000  0.27092000  0.80379000  1.0
  C  C168  1  0.86827000  0.77279000  0.33041000  1.0
  C  C169  1  0.94241000  0.53776000  0.16936000  1.0
  C  C170  1  0.13172000  0.22720000  0.66959000  1.0
  C  C171  1  0.05759000  0.46223000  0.83064000  1.0
  C  C172  1  0.04886000  0.72530000  0.78232000  1.0
  C  C173  1  0.44304000  0.26670000  0.71769000  1.0
  C  C174  1  0.95114000  0.27469000  0.21768000  1.0
  C  C175  1  0.55696000  0.73330000  0.28231000  1.0
  C  C176  1  0.84731000  0.88910000  0.40792000  1.0
  C  C177  1  0.98133000  0.43936000  0.09189000  1.0
  C  C178  1  0.15269000  0.11090000  0.59208000  1.0
  C  C179  1  0.01868000  0.56064000  0.90811000  1.0
  C  C180  1  0.82731000  0.81178000  0.44740000  1.0
  C  C181  1  0.86452000  0.37983000  0.05243000  1.0
  C  C182  1  0.17269000  0.18822000  0.55260000  1.0
  C  C183  1  0.13548000  0.62018000  0.94757000  1.0
  C  C184  1  0.22963000  0.73926000  0.78692000  1.0
  C  C185  1  0.45210000  0.44270000  0.71296000  1.0
  C  C186  1  0.77037000  0.26074000  0.21308000  1.0
  C  C187  1  0.54790000  0.55730000  0.28704000  1.0
  C  C188  1  0.01366000  0.48184000  0.61004000  1.0
  C  C189  1  0.37133000  0.40345000  0.88992000  1.0
  C  C190  1  0.98633000  0.51816000  0.38996000  1.0
  C  C191  1  0.62866000  0.59655000  0.11008000  1.0
  C  C192  1  0.11924000  0.03274000  0.36357000  1.0
  C  C193  1  0.16936000  0.75585000  0.13653000  1.0
  C  C194  1  0.88076000  0.96726000  0.63643000  1.0
  C  C195  1  0.83064000  0.24415000  0.86347000  1.0
  C  C196  1  0.38309000  0.19474000  0.32469000  1.0
  C  C197  1  0.37018000  0.05841000  0.17526000  1.0
  C  C198  1  0.61690000  0.80526000  0.67531000  1.0
  C  C199  1  0.62983000  0.94160000  0.82474000  1.0
  C  C200  1  0.23322000  0.08435000  0.37014000  1.0
  C  C201  1  0.21436000  0.86321000  0.12993000  1.0
  C  C202  1  0.76677000  0.91563000  0.62985000  1.0
  C  C203  1  0.78564000  0.13679000  0.87007000  1.0
  C  C204  1  0.26167000  0.13119000  0.31771000  1.0
  C  C205  1  0.31358000  0.94407000  0.18239000  1.0
  C  C206  1  0.73832000  0.86880000  0.68228000  1.0
  C  C207  1  0.68642000  0.05593000  0.81761000  1.0
  C  C208  1  0.17521000  0.12291000  0.25780000  1.0
  C  C209  1  0.36516000  0.91753000  0.24233000  1.0
  C  C210  1  0.82479000  0.87709000  0.74220000  1.0
  C  C211  1  0.63484000  0.08246000  0.75766000  1.0
  C  C212  1  0.06149000  0.06867000  0.25047000  1.0
  C  C213  1  0.31829000  0.81114000  0.24964000  1.0
  C  C214  1  0.93851000  0.93133000  0.74953000  1.0
  C  C215  1  0.68171000  0.18886000  0.75036000  1.0
  C  C216  1  0.22617000  0.85946000  0.87041000  1.0
  C  C217  1  0.48919000  0.35590000  0.62958000  1.0
  C  C218  1  0.77383000  0.14054000  0.12959000  1.0
  C  C219  1  0.51081000  0.64410000  0.37042000  1.0
  C  C220  1  0.10714000  0.80995000  0.83996000  1.0
  C  C221  1  0.47017000  0.26734000  0.66007000  1.0
  C  C222  1  0.89287000  0.19005000  0.16004000  1.0
  C  C223  1  0.52983000  0.73266000  0.33993000  1.0
  C  C224  1  0.84796000  0.69601000  0.36992000  1.0
  C  C225  1  0.82609000  0.47790000  0.12985000  1.0
  C  C226  1  0.15204000  0.30399000  0.63008000  1.0
  C  C227  1  0.17392000  0.52210000  0.87015000  1.0
  C  C228  1  0.28729000  0.82343000  0.84462000  1.0
  C  C229  1  0.47879000  0.44271000  0.65532000  1.0
  C  C230  1  0.71271000  0.17657000  0.15538000  1.0
  C  C231  1  0.52122000  0.55729000  0.34468000  1.0
  N  N232  1  0.28663000  0.95130000  0.92653000  1.0
  N  N233  1  0.52483000  0.36018000  0.57341000  1.0
  N  N234  1  0.71338000  0.04870000  0.07347000  1.0
  N  N235  1  0.47517000  0.63982000  0.42659000  1.0
  N  N236  1  0.05235000  0.60854000  0.69465000  1.0
  N  N237  1  0.41354000  0.35772000  0.80525000  1.0
  N  N238  1  0.94764000  0.39146000  0.30535000  1.0
  N  N239  1  0.58645000  0.64228000  0.19475000  1.0
  N  N240  1  0.36257000  0.12013000  0.98103000  1.0
  N  N241  1  0.63905000  0.38167000  0.51878000  1.0
  N  N242  1  0.63743000  0.87987000  0.01897000  1.0
  N  N243  1  0.36095000  0.61833000  0.48122000  1.0
  N  N244  1  0.92264000  0.50382000  0.59422000  1.0
  N  N245  1  0.40929000  0.32836000  0.90570000  1.0
  N  N246  1  0.07736000  0.49618000  0.40578000  1.0
  N  N247  1  0.59070000  0.67164000  0.09430000  1.0
  O  O248  1  0.82600000  0.33134000  0.46980000  1.0
  O  O249  1  0.36176000  0.35631000  0.03010000  1.0
  O  O250  1  0.17399000  0.66865000  0.53019000  1.0
  O  O251  1  0.63825000  0.64370000  0.96991000  1.0
  O  O252  1  0.80243000  0.54323000  0.44724000  1.0
  O  O253  1  0.59592000  0.35496000  0.05252000  1.0
  O  O254  1  0.19757000  0.45677000  0.55276000  1.0
  O  O255  1  0.40408000  0.64504000  0.94749000  1.0
  O  O256  1  0.80534000  0.90299000  0.21785000  1.0
  O  O257  1  0.18497000  0.58730000  0.28204000  1.0
  O  O258  1  0.19466000  0.09700000  0.78215000  1.0
  O  O259  1  0.81503000  0.41270000  0.71796000  1.0
  O  O260  1  0.78531000  0.64832000  0.52343000  1.0
  O  O261  1  0.62501000  0.26164000  0.97644000  1.0
  O  O262  1  0.21469000  0.35168000  0.47657000  1.0
  O  O263  1  0.37499000  0.73837000  0.02356000  1.0
  O  O264  1  0.66211000  0.27101000  0.37759000  1.0
  O  O265  1  0.39334000  0.28444000  0.12224000  1.0
  O  O266  1  0.33788000  0.72898000  0.62240000  1.0
  O  O267  1  0.60667000  0.71557000  0.87777000  1.0
  O  O268  1  0.45006000  0.15412000  0.35757000  1.0
  O  O269  1  0.29665000  0.09235000  0.14218000  1.0
  O  O270  1  0.54994000  0.84588000  0.64243000  1.0
  O  O271  1  0.70336000  0.90765000  0.85782000  1.0
  O  O272  1  0.41557000  0.27754000  0.30249000  1.0
  O  O273  1  0.47518000  0.11301000  0.19735000  1.0
  O  O274  1  0.58443000  0.72246000  0.69751000  1.0
  O  O275  1  0.52482000  0.88699000  0.80265000  1.0
