# generated using pymatgen
data_CdH9C11IN6O
_symmetry_space_group_name_H-M   'P 1'
_cell_length_a   9.68938000
_cell_length_b   12.20180000
_cell_length_c   13.07300000
_cell_angle_alpha   94.62890000
_cell_angle_beta   90.00000000
_cell_angle_gamma   90.00000000
_symmetry_Int_Tables_number   1
_chemical_formula_structural   CdH9C11IN6O
_chemical_formula_sum   'Cd4 H36 C44 I4 N24 O4'
_cell_volume   1540.55177263
_cell_formula_units_Z   4
loop_
 _symmetry_equiv_pos_site_id
 _symmetry_equiv_pos_as_xyz
  1  'x, y, z'
loop_
 _atom_site_type_symbol
 _atom_site_label
 _atom_site_symmetry_multiplicity
 _atom_site_fract_x
 _atom_site_fract_y
 _atom_site_fract_z
 _atom_site_occupancy
  Cd  Cd0  1  0.80153000  0.26801000  0.34036000  1.0
  Cd  Cd1  1  0.30152000  0.73199000  0.15964000  1.0
  Cd  Cd2  1  0.19847000  0.73198000  0.65964000  1.0
  Cd  Cd3  1  0.69848000  0.26802000  0.84035000  1.0
  H  H4  1  0.55372000  0.06418000  0.38175000  1.0
  H  H5  1  0.05372000  0.93581000  0.11825000  1.0
  H  H6  1  0.44626000  0.93581000  0.61826000  1.0
  H  H7  1  0.94627000  0.06420000  0.88174000  1.0
  H  H8  1  0.32674000  0.05586000  0.47685000  1.0
  H  H9  1  0.82674000  0.94414000  0.02315000  1.0
  H  H10  1  0.67327000  0.94413000  0.52319000  1.0
  H  H11  1  0.17326000  0.05587000  0.97683000  1.0
  H  H12  1  0.41232000  0.35633000  0.63543000  1.0
  H  H13  1  0.91232000  0.64366000  0.86457000  1.0
  H  H14  1  0.58767000  0.64368000  0.36457000  1.0
  H  H15  1  0.08767000  0.35633000  0.13543000  1.0
  H  H16  1  0.10397000  0.55698000  0.24696000  1.0
  H  H17  1  0.60398000  0.44301000  0.25304000  1.0
  H  H18  1  0.89603000  0.44301000  0.75303000  1.0
  H  H19  1  0.39602000  0.55699000  0.74696000  1.0
  H  H20  1  0.17702000  0.88287000  0.34782000  1.0
  H  H21  1  0.67702000  0.11713000  0.15219000  1.0
  H  H22  1  0.82297000  0.11713000  0.65216000  1.0
  H  H23  1  0.32299000  0.88288000  0.84782000  1.0
  H  H24  1  0.99860000  0.87675000  0.48694000  1.0
  H  H25  1  0.49860000  0.12324000  0.01306000  1.0
  H  H26  1  0.00138000  0.12326000  0.51303000  1.0
  H  H27  1  0.50139000  0.87675000  0.98695000  1.0
  H  H28  1  0.87219000  0.69972000  0.50507000  1.0
  H  H29  1  0.37219000  0.30027000  0.99494000  1.0
  H  H30  1  0.12780000  0.30029000  0.49492000  1.0
  H  H31  1  0.62779000  0.69971000  0.00508000  1.0
  H  H32  1  0.70003000  0.54304000  0.60320000  1.0
  H  H33  1  0.20003000  0.45696000  0.89680000  1.0
  H  H34  1  0.29998000  0.45696000  0.39680000  1.0
  H  H35  1  0.79997000  0.54304000  0.10320000  1.0
  H  H36  1  0.59686000  0.46156000  0.67613000  1.0
  H  H37  1  0.09686000  0.53844000  0.82387000  1.0
  H  H38  1  0.40315000  0.53844000  0.32387000  1.0
  H  H39  1  0.90314000  0.46157000  0.17613000  1.0
  C  C40  1  0.52158000  0.13018000  0.43823000  1.0
  C  C41  1  0.02158000  0.86981000  0.06177000  1.0
  C  C42  1  0.47842000  0.86981000  0.56179000  1.0
  C  C43  1  0.97842000  0.13020000  0.93821000  1.0
  C  C44  1  0.39707000  0.12526000  0.49203000  1.0
  C  C45  1  0.89708000  0.87474000  0.00797000  1.0
  C  C46  1  0.60293000  0.87474000  0.50800000  1.0
  C  C47  1  0.10292000  0.12527000  0.99201000  1.0
  C  C48  1  0.44429000  0.29104000  0.57850000  1.0
  C  C49  1  0.94430000  0.70896000  0.92150000  1.0
  C  C50  1  0.55570000  0.70896000  0.42151000  1.0
  C  C51  1  0.05570000  0.29105000  0.07850000  1.0
  C  C52  1  0.56679000  0.29960000  0.52215000  1.0
  C  C53  1  0.06679000  0.70039000  0.97785000  1.0
  C  C54  1  0.43321000  0.70040000  0.47786000  1.0
  C  C55  1  0.93322000  0.29962000  0.02214000  1.0
  C  C56  1  0.65324000  0.39958000  0.52953000  1.0
  C  C57  1  0.15323000  0.60042000  0.97047000  1.0
  C  C58  1  0.34677000  0.60041000  0.47048000  1.0
  C  C59  1  0.84677000  0.39960000  0.02952000  1.0
  C  C60  1  0.90333000  0.50844000  0.38062000  1.0
  C  C61  1  0.40333000  0.49156000  0.11938000  1.0
  C  C62  1  0.09667000  0.49156000  0.61938000  1.0
  C  C63  1  0.59666000  0.50844000  0.88062000  1.0
  C  C64  1  0.97716000  0.61460000  0.37667000  1.0
  C  C65  1  0.47716000  0.38540000  0.12333000  1.0
  C  C66  1  0.02284000  0.38540000  0.62332000  1.0
  C  C67  1  0.52284000  0.61459000  0.87667000  1.0
  C  C68  1  0.07773000  0.62598000  0.30169000  1.0
  C  C69  1  0.57774000  0.37401000  0.19831000  1.0
  C  C70  1  0.92226000  0.37401000  0.69830000  1.0
  C  C71  1  0.42226000  0.62599000  0.80169000  1.0
  C  C72  1  0.11848000  0.80815000  0.35869000  1.0
  C  C73  1  0.61849000  0.19185000  0.14132000  1.0
  C  C74  1  0.88151000  0.19185000  0.64129000  1.0
  C  C75  1  0.38152000  0.80815000  0.85869000  1.0
  C  C76  1  0.01953000  0.80411000  0.43543000  1.0
  C  C77  1  0.51953000  0.19589000  0.06457000  1.0
  C  C78  1  0.98047000  0.19589000  0.56455000  1.0
  C  C79  1  0.48047000  0.80411000  0.93544000  1.0
  C  C80  1  0.94922000  0.70628000  0.44538000  1.0
  C  C81  1  0.44922000  0.29371000  0.05462000  1.0
  C  C82  1  0.05078000  0.29372000  0.55460000  1.0
  C  C83  1  0.55077000  0.70628000  0.94539000  1.0
  I  I84  1  0.93098000  0.07351000  0.29155000  1.0
  I  I85  1  0.43093000  0.92650000  0.20846000  1.0
  I  I86  1  0.06905000  0.92650000  0.70843000  1.0
  I  I87  1  0.56907000  0.07350000  0.79158000  1.0
  N  N88  1  0.60483000  0.21696000  0.45306000  1.0
  N  N89  1  0.10483000  0.78303000  0.04694000  1.0
  N  N90  1  0.39517000  0.78303000  0.54695000  1.0
  N  N91  1  0.89518000  0.21698000  0.95304000  1.0
  N  N92  1  0.35930000  0.20491000  0.56281000  1.0
  N  N93  1  0.85930000  0.79509000  0.93719000  1.0
  N  N94  1  0.64070000  0.79509000  0.43721000  1.0
  N  N95  1  0.14070000  0.20492000  0.06280000  1.0
  N  N96  1  0.63061000  0.48046000  0.60476000  1.0
  N  N97  1  0.13062000  0.51954000  0.89524000  1.0
  N  N98  1  0.36939000  0.51954000  0.39524000  1.0
  N  N99  1  0.86939000  0.48047000  0.10476000  1.0
  N  N100  1  0.74304000  0.40872000  0.45506000  1.0
  N  N101  1  0.24304000  0.59127000  0.04494000  1.0
  N  N102  1  0.25696000  0.59127000  0.54494000  1.0
  N  N103  1  0.75697000  0.40874000  0.95506000  1.0
  N  N104  1  0.81397000  0.50526000  0.45785000  1.0
  N  N105  1  0.31397000  0.49473000  0.04216000  1.0
  N  N106  1  0.18604000  0.49474000  0.54215000  1.0
  N  N107  1  0.68603000  0.50527000  0.95784000  1.0
  N  N108  1  0.14717000  0.72018000  0.29345000  1.0
  N  N109  1  0.64718000  0.27982000  0.20655000  1.0
  N  N110  1  0.85282000  0.27982000  0.70654000  1.0
  N  N111  1  0.35283000  0.72018000  0.79345000  1.0
  O  O112  1  0.92907000  0.42997000  0.31037000  1.0
  O  O113  1  0.42908000  0.57003000  0.18963000  1.0
  O  O114  1  0.07093000  0.57003000  0.68963000  1.0
  O  O115  1  0.57092000  0.42997000  0.81037000  1.0
