# generated using pymatgen
data_ZnH9C12N5Cl2
_symmetry_space_group_name_H-M   'P 1'
_cell_length_a   5.20746000
_cell_length_b   12.39430000
_cell_length_c   21.65480000
_cell_angle_alpha   90.00060000
_cell_angle_beta   90.00030000
_cell_angle_gamma   82.92070000
_symmetry_Int_Tables_number   1
_chemical_formula_structural   ZnH9C12N5Cl2
_chemical_formula_sum   'Zn4 H36 C48 N20 Cl8'
_cell_volume   1387.00685452
_cell_formula_units_Z   4
loop_
 _symmetry_equiv_pos_site_id
 _symmetry_equiv_pos_as_xyz
  1  'x, y, z'
loop_
 _atom_site_type_symbol
 _atom_site_label
 _atom_site_symmetry_multiplicity
 _atom_site_fract_x
 _atom_site_fract_y
 _atom_site_fract_z
 _atom_site_occupancy
  Zn  Zn0  1  0.09479000  0.35403000  0.35118000  1.0
  Zn  Zn1  1  0.90523000  0.14597000  0.85118000  1.0
  Zn  Zn2  1  0.90522000  0.64599000  0.64882000  1.0
  Zn  Zn3  1  0.09477000  0.85402000  0.14882000  1.0
  H  H4  1  0.03450000  0.95357000  0.64092000  1.0
  H  H5  1  0.96545000  0.54643000  0.14092000  1.0
  H  H6  1  0.96547000  0.04645000  0.35908000  1.0
  H  H7  1  0.03454000  0.45355000  0.85908000  1.0
  H  H8  1  0.52265000  0.43941000  0.43062000  1.0
  H  H9  1  0.47739000  0.06058000  0.93063000  1.0
  H  H10  1  0.47739000  0.56060000  0.56938000  1.0
  H  H11  1  0.52261000  0.93940000  0.06938000  1.0
  H  H12  1  0.82336000  0.36336000  0.51423000  1.0
  H  H13  1  0.17669000  0.13663000  0.01424000  1.0
  H  H14  1  0.17668000  0.63664000  0.48576000  1.0
  H  H15  1  0.82330000  0.86336000  0.98576000  1.0
  H  H16  1  0.43679000  0.07427000  0.50896000  1.0
  H  H17  1  0.56320000  0.42573000  0.00896000  1.0
  H  H18  1  0.56324000  0.92573000  0.49103000  1.0
  H  H19  1  0.43677000  0.57427000  0.99103000  1.0
  H  H20  1  0.15815000  0.16013000  0.42567000  1.0
  H  H21  1  0.84185000  0.33987000  0.92567000  1.0
  H  H22  1  0.84189000  0.83988000  0.57433000  1.0
  H  H23  1  0.15813000  0.66012000  0.07433000  1.0
  H  H24  1  0.25082000  0.97344000  0.72626000  1.0
  H  H25  1  0.74919000  0.52655000  0.22626000  1.0
  H  H26  1  0.74915000  0.02657000  0.27374000  1.0
  H  H27  1  0.25083000  0.47344000  0.77374000  1.0
  H  H28  1  0.58141000  0.99006000  0.80644000  1.0
  H  H29  1  0.41863000  0.50994000  0.30644000  1.0
  H  H30  1  0.41857000  0.00994000  0.19356000  1.0
  H  H31  1  0.58140000  0.49006000  0.69356000  1.0
  H  H32  1  0.75457000  0.28357000  0.73627000  1.0
  H  H33  1  0.24544000  0.21643000  0.23628000  1.0
  H  H34  1  0.24543000  0.71643000  0.26373000  1.0
  H  H35  1  0.75455000  0.78357000  0.76373000  1.0
  H  H36  1  0.42124000  0.28190000  0.65202000  1.0
  H  H37  1  0.57874000  0.21810000  0.15202000  1.0
  H  H38  1  0.57877000  0.71811000  0.34798000  1.0
  H  H39  1  0.42125000  0.78188000  0.84799000  1.0
  C  C40  1  0.51012000  0.35854000  0.44930000  1.0
  C  C41  1  0.48990000  0.14145000  0.94931000  1.0
  C  C42  1  0.48991000  0.64148000  0.55069000  1.0
  C  C43  1  0.51008000  0.85853000  0.05069000  1.0
  C  C44  1  0.67911000  0.31561000  0.49548000  1.0
  C  C45  1  0.32093000  0.18438000  0.99548000  1.0
  C  C46  1  0.32092000  0.68440000  0.50452000  1.0
  C  C47  1  0.67907000  0.81560000  0.00452000  1.0
  C  C48  1  0.66126000  0.20999000  0.51695000  1.0
  C  C49  1  0.33875000  0.29001000  0.01695000  1.0
  C  C50  1  0.33876000  0.79002000  0.48304000  1.0
  C  C51  1  0.66123000  0.70998000  0.98304000  1.0
  C  C52  1  0.46655000  0.15426000  0.49218000  1.0
  C  C53  1  0.53346000  0.34574000  0.99218000  1.0
  C  C54  1  0.53348000  0.84575000  0.50781000  1.0
  C  C55  1  0.46652000  0.65426000  0.00781000  1.0
  C  C56  1  0.30833000  0.20212000  0.44624000  1.0
  C  C57  1  0.69168000  0.29788000  0.94624000  1.0
  C  C58  1  0.69170000  0.79789000  0.55376000  1.0
  C  C59  1  0.30830000  0.70211000  0.05376000  1.0
  C  C60  1  0.83431000  0.15562000  0.56348000  1.0
  C  C61  1  0.16568000  0.34437000  0.06348000  1.0
  C  C62  1  0.16572000  0.84439000  0.43652000  1.0
  C  C63  1  0.83427000  0.65561000  0.93652000  1.0
  C  C64  1  0.11576000  0.12150000  0.63383000  1.0
  C  C65  1  0.88422000  0.37850000  0.13383000  1.0
  C  C66  1  0.88423000  0.87851000  0.36618000  1.0
  C  C67  1  0.11575000  0.62148000  0.86617000  1.0
  C  C68  1  0.31247000  0.12631000  0.68120000  1.0
  C  C69  1  0.68752000  0.37369000  0.18120000  1.0
  C  C70  1  0.68752000  0.87370000  0.31881000  1.0
  C  C71  1  0.31248000  0.62629000  0.81880000  1.0
  C  C72  1  0.35897000  0.04329000  0.72532000  1.0
  C  C73  1  0.64104000  0.45671000  0.22532000  1.0
  C  C74  1  0.64101000  0.95673000  0.27468000  1.0
  C  C75  1  0.35897000  0.54327000  0.77468000  1.0
  C  C76  1  0.54308000  0.05176000  0.77064000  1.0
  C  C77  1  0.45694000  0.44824000  0.27064000  1.0
  C  C78  1  0.45691000  0.94824000  0.22936000  1.0
  C  C79  1  0.54307000  0.55176000  0.72936000  1.0
  C  C80  1  0.63737000  0.21685000  0.73150000  1.0
  C  C81  1  0.36263000  0.28314000  0.23150000  1.0
  C  C82  1  0.36262000  0.78315000  0.26850000  1.0
  C  C83  1  0.63736000  0.71685000  0.76850000  1.0
  C  C84  1  0.45568000  0.21497000  0.68475000  1.0
  C  C85  1  0.54432000  0.28503000  0.18475000  1.0
  C  C86  1  0.54432000  0.78504000  0.31525000  1.0
  C  C87  1  0.45568000  0.71496000  0.81525000  1.0
  N  N88  1  0.32988000  0.30229000  0.42431000  1.0
  N  N89  1  0.67015000  0.19771000  0.92431000  1.0
  N  N90  1  0.67016000  0.69772000  0.57569000  1.0
  N  N91  1  0.32983000  0.80228000  0.07569000  1.0
  N  N92  1  0.68001000  0.13691000  0.77393000  1.0
  N  N93  1  0.32000000  0.36309000  0.27393000  1.0
  N  N94  1  0.31999000  0.86309000  0.22607000  1.0
  N  N95  1  0.68000000  0.63691000  0.72607000  1.0
  N  N96  1  0.01571000  0.20156000  0.59631000  1.0
  N  N97  1  0.98430000  0.29843000  0.09630000  1.0
  N  N98  1  0.98430000  0.79846000  0.40369000  1.0
  N  N99  1  0.01569000  0.70155000  0.90369000  1.0
  N  N100  1  0.99758000  0.03113000  0.62256000  1.0
  N  N101  1  0.00240000  0.46887000  0.12255000  1.0
  N  N102  1  0.00241000  0.96888000  0.37745000  1.0
  N  N103  1  0.99758000  0.53111000  0.87745000  1.0
  N  N104  1  0.81993000  0.05060000  0.57805000  1.0
  N  N105  1  0.18006000  0.44941000  0.07805000  1.0
  N  N106  1  0.18006000  0.94940000  0.42195000  1.0
  N  N107  1  0.81995000  0.55060000  0.92195000  1.0
  Cl  Cl108  1  0.87120000  0.21184000  0.32889000  1.0
  Cl  Cl109  1  0.12882000  0.28816000  0.82889000  1.0
  Cl  Cl110  1  0.12880000  0.78817000  0.67111000  1.0
  Cl  Cl111  1  0.87119000  0.71183000  0.17111000  1.0
  Cl  Cl112  1  0.92562000  0.52374000  0.37187000  1.0
  Cl  Cl113  1  0.07439000  0.97626000  0.87187000  1.0
  Cl  Cl114  1  0.07438000  0.47627000  0.62813000  1.0
  Cl  Cl115  1  0.92562000  0.02373000  0.12813000  1.0
