# generated using pymatgen
data_Co3H50(C11O4)6
_symmetry_space_group_name_H-M   'P 1'
_cell_length_a   11.11700000
_cell_length_b   14.26130000
_cell_length_c   18.10680000
_cell_angle_alpha   108.64600000
_cell_angle_beta   101.89200000
_cell_angle_gamma   99.62780000
_symmetry_Int_Tables_number   1
_chemical_formula_structural   Co3H50(C11O4)6
_chemical_formula_sum   'Co3 H50 C66 O24'
_cell_volume   2576.13631095
_cell_formula_units_Z   1
loop_
 _symmetry_equiv_pos_site_id
 _symmetry_equiv_pos_as_xyz
  1  'x, y, z'
loop_
 _atom_site_type_symbol
 _atom_site_label
 _atom_site_symmetry_multiplicity
 _atom_site_fract_x
 _atom_site_fract_y
 _atom_site_fract_z
 _atom_site_occupancy
  Co  Co0  1  0.00002000  0.50001000  0.00001000  1.0
  Co  Co1  1  0.31880000  0.61959000  0.10119000  1.0
  Co  Co2  1  0.68122000  0.38042000  0.89881000  1.0
  H  H3  1  0.95023000  0.88412000  0.72504000  1.0
  H  H4  1  0.04977000  0.11589000  0.27497000  1.0
  H  H5  1  0.96414000  0.76967000  0.65263000  1.0
  H  H6  1  0.03585000  0.23033000  0.34738000  1.0
  H  H7  1  0.33631000  0.86954000  0.84053000  1.0
  H  H8  1  0.66370000  0.13041000  0.15943000  1.0
  H  H9  1  0.35528000  0.78158000  0.94084000  1.0
  H  H10  1  0.64475000  0.21838000  0.05912000  1.0
  H  H11  1  0.95133000  0.65524000  0.85992000  1.0
  H  H12  1  0.04869000  0.34478000  0.14010000  1.0
  H  H13  1  0.93016000  0.74299000  0.76200000  1.0
  H  H14  1  0.06983000  0.25703000  0.23803000  1.0
  H  H15  1  0.85345000  0.95142000  0.61760000  1.0
  H  H16  1  0.14653000  0.04856000  0.38241000  1.0
  H  H17  1  0.92397000  0.94196000  0.53599000  1.0
  H  H18  1  0.07601000  0.05804000  0.46402000  1.0
  H  H19  1  0.71159000  0.61883000  0.45588000  1.0
  H  H20  1  0.28840000  0.38116000  0.54412000  1.0
  H  H21  1  0.55168000  0.55529000  0.31914000  1.0
  H  H22  1  0.44831000  0.44470000  0.68086000  1.0
  H  H23  1  0.60149000  0.86249000  0.32499000  1.0
  H  H24  1  0.39851000  0.13751000  0.67502000  1.0
  H  H25  1  0.75492000  0.92774000  0.46109000  1.0
  H  H26  1  0.24508000  0.07226000  0.53892000  1.0
  H  H27  1  0.20013000  0.85278000  0.61556000  1.0
  H  H28  1  0.79986000  0.14723000  0.38443000  1.0
  H  H29  1  0.05405000  0.77496000  0.54221000  1.0
  H  H30  1  0.94593000  0.22504000  0.45779000  1.0
  H  H31  1  0.94550000  0.74580000  0.41774000  1.0
  H  H32  1  0.05447000  0.25418000  0.58223000  1.0
  H  H33  1  0.94144000  0.65137000  0.27840000  1.0
  H  H34  1  0.05856000  0.34863000  0.72157000  1.0
  H  H35  1  0.30986000  0.84201000  0.31370000  1.0
  H  H36  1  0.69015000  0.15802000  0.68632000  1.0
  H  H37  1  0.31312000  0.93979000  0.45687000  1.0
  H  H38  1  0.68685000  0.06022000  0.54315000  1.0
  H  H39  1  0.20403000  0.02237000  0.71529000  1.0
  H  H40  1  0.79596000  0.97763000  0.28471000  1.0
  H  H41  1  0.11431000  0.06529000  0.64413000  1.0
  H  H42  1  0.88567000  0.93470000  0.35587000  1.0
  H  H43  1  0.94623000  0.12679000  0.85712000  1.0
  H  H44  1  0.05376000  0.87323000  0.14288000  1.0
  H  H45  1  0.03245000  0.29442000  0.97281000  1.0
  H  H46  1  0.96757000  0.70558000  0.02720000  1.0
  H  H47  1  0.35039000  0.35982000  0.88002000  1.0
  H  H48  1  0.64962000  0.64018000  0.11997000  1.0
  H  H49  1  0.26494000  0.19586000  0.76415000  1.0
  H  H50  1  0.73503000  0.80413000  0.23584000  1.0
  H  H51  1  0.98134000  0.57884000  0.18014000  1.0
  H  H52  1  0.01877000  0.42111000  0.81988000  1.0
  C  C53  1  0.03383000  0.90854000  0.63246000  1.0
  C  C54  1  0.96615000  0.09145000  0.36755000  1.0
  C  C55  1  0.01138000  0.85075000  0.68876000  1.0
  C  C56  1  0.98861000  0.14925000  0.31125000  1.0
  C  C57  1  0.13326000  0.81081000  0.79459000  1.0
  C  C58  1  0.86674000  0.18918000  0.20541000  1.0
  C  C59  1  0.25291000  0.82211000  0.84550000  1.0
  C  C60  1  0.74710000  0.17785000  0.15448000  1.0
  C  C61  1  0.26307000  0.77343000  0.90092000  1.0
  C  C62  1  0.73696000  0.22654000  0.09906000  1.0
  C  C63  1  0.15445000  0.71220000  0.90612000  1.0
  C  C64  1  0.84557000  0.28780000  0.09388000  1.0
  C  C65  1  0.03551000  0.70217000  0.85539000  1.0
  C  C66  1  0.96450000  0.29784000  0.14463000  1.0
  C  C67  1  0.02387000  0.75133000  0.80002000  1.0
  C  C68  1  0.97613000  0.24868000  0.20000000  1.0
  C  C69  1  0.16428000  0.65844000  0.96458000  1.0
  C  C70  1  0.83575000  0.34156000  0.03542000  1.0
  C  C71  1  0.90589000  0.90718000  0.58010000  1.0
  C  C72  1  0.09409000  0.09282000  0.41991000  1.0
  C  C73  1  0.74419000  0.77635000  0.46655000  1.0
  C  C74  1  0.25580000  0.22364000  0.53345000  1.0
  C  C75  1  0.68583000  0.67138000  0.42657000  1.0
  C  C76  1  0.31416000  0.32861000  0.57344000  1.0
  C  C77  1  0.59792000  0.63647000  0.35090000  1.0
  C  C78  1  0.40206000  0.36353000  0.64910000  1.0
  C  C79  1  0.56851000  0.70507000  0.31319000  1.0
  C  C80  1  0.43148000  0.29493000  0.68681000  1.0
  C  C81  1  0.62589000  0.80949000  0.35422000  1.0
  C  C82  1  0.37409000  0.19051000  0.64579000  1.0
  C  C83  1  0.71230000  0.84608000  0.43098000  1.0
  C  C84  1  0.28769000  0.15392000  0.56903000  1.0
  C  C85  1  0.47762000  0.66824000  0.23124000  1.0
  C  C86  1  0.52236000  0.33177000  0.76877000  1.0
  C  C87  1  0.10938000  0.85399000  0.57811000  1.0
  C  C88  1  0.89060000  0.14601000  0.42189000  1.0
  C  C89  1  0.13142000  0.84779000  0.44659000  1.0
  C  C90  1  0.86855000  0.15220000  0.55340000  1.0
  C  C91  1  0.02674000  0.76631000  0.39605000  1.0
  C  C92  1  0.97324000  0.23368000  0.60393000  1.0
  C  C93  1  0.02579000  0.71270000  0.31668000  1.0
  C  C94  1  0.97421000  0.28730000  0.68330000  1.0
  C  C95  1  0.12814000  0.73910000  0.28672000  1.0
  C  C96  1  0.87187000  0.26092000  0.71328000  1.0
  C  C97  1  0.23093000  0.82235000  0.33758000  1.0
  C  C98  1  0.76907000  0.17767000  0.66243000  1.0
  C  C99  1  0.23276000  0.87630000  0.41667000  1.0
  C  C100  1  0.76722000  0.12371000  0.58334000  1.0
  C  C101  1  0.13700000  0.68352000  0.20476000  1.0
  C  C102  1  0.86302000  0.31651000  0.79523000  1.0
  C  C103  1  0.10746000  0.01998000  0.68299000  1.0
  C  C104  1  0.89253000  0.98002000  0.31701000  1.0
  C  C105  1  0.09791000  0.15177000  0.80265000  1.0
  C  C106  1  0.90207000  0.84823000  0.19735000  1.0
  C  C107  1  0.03387000  0.17915000  0.86245000  1.0
  C  C108  1  0.96612000  0.82086000  0.13755000  1.0
  C  C109  1  0.08206000  0.27225000  0.92659000  1.0
  C  C110  1  0.91795000  0.72776000  0.07341000  1.0
  C  C111  1  0.19506000  0.33919000  0.93248000  1.0
  C  C112  1  0.80495000  0.66082000  0.06752000  1.0
  C  C113  1  0.26083000  0.30937000  0.87416000  1.0
  C  C114  1  0.73917000  0.69063000  0.12584000  1.0
  C  C115  1  0.21246000  0.21633000  0.80888000  1.0
  C  C116  1  0.78752000  0.78368000  0.19111000  1.0
  C  C117  1  0.24453000  0.44030000  0.99817000  1.0
  C  C118  1  0.75550000  0.55970000  0.00183000  1.0
  O  O119  1  0.13220000  0.86025000  0.74097000  1.0
  O  O120  1  0.86779000  0.13974000  0.25902000  1.0
  O  O121  1  0.05889000  0.59760000  0.95709000  1.0
  O  O122  1  0.94114000  0.40242000  0.04293000  1.0
  O  O123  1  0.27040000  0.67681000  0.01579000  1.0
  O  O124  1  0.72964000  0.32317000  0.98420000  1.0
  O  O125  1  0.83355000  0.80270000  0.53921000  1.0
  O  O126  1  0.16644000  0.19729000  0.46080000  1.0
  O  O127  1  0.39517000  0.58248000  0.20408000  1.0
  O  O128  1  0.60479000  0.41753000  0.79593000  1.0
  O  O129  1  0.48106000  0.72408000  0.18800000  1.0
  O  O130  1  0.51894000  0.27593000  0.81201000  1.0
  O  O131  1  0.13829000  0.90626000  0.52485000  1.0
  O  O132  1  0.86166000  0.09373000  0.47513000  1.0
  O  O133  1  0.22513000  0.71251000  0.17910000  1.0
  O  O134  1  0.77488000  0.28755000  0.82089000  1.0
  O  O135  1  0.04849000  0.59638000  0.15600000  1.0
  O  O136  1  0.95157000  0.40363000  0.84400000  1.0
  O  O137  1  0.03991000  0.06047000  0.74014000  1.0
  O  O138  1  0.96007000  0.93954000  0.25986000  1.0
  O  O139  1  0.16794000  0.48650000  0.03495000  1.0
  O  O140  1  0.83210000  0.51350000  0.96506000  1.0
  O  O141  1  0.35978000  0.48822000  0.02222000  1.0
  O  O142  1  0.64025000  0.51177000  0.97779000  1.0
