# generated using pymatgen
data_CuH16C16S2Cl
_symmetry_space_group_name_H-M   'P 1'
_cell_length_a   7.25691000
_cell_length_b   11.91440000
_cell_length_c   20.56890000
_cell_angle_alpha   89.99950000
_cell_angle_beta   89.99980000
_cell_angle_gamma   75.59300000
_symmetry_Int_Tables_number   1
_chemical_formula_structural   CuH16C16S2Cl
_chemical_formula_sum   'Cu4 H64 C64 S8 Cl4'
_cell_volume   1722.49618257
_cell_formula_units_Z   4
loop_
 _symmetry_equiv_pos_site_id
 _symmetry_equiv_pos_as_xyz
  1  'x, y, z'
loop_
 _atom_site_type_symbol
 _atom_site_label
 _atom_site_symmetry_multiplicity
 _atom_site_fract_x
 _atom_site_fract_y
 _atom_site_fract_z
 _atom_site_occupancy
  Cu  Cu0  1  0.93013000  0.89433000  0.00272000  1.0
  Cu  Cu1  1  0.43014000  0.39432000  0.49728000  1.0
  Cu  Cu2  1  0.06986000  0.10567000  0.99728000  1.0
  Cu  Cu3  1  0.56985000  0.60567000  0.50272000  1.0
  H  H4  1  0.79434000  0.52140000  0.14175000  1.0
  H  H5  1  0.29433000  0.02142000  0.35826000  1.0
  H  H6  1  0.20566000  0.47858000  0.85825000  1.0
  H  H7  1  0.70565000  0.97858000  0.64174000  1.0
  H  H8  1  0.72796000  0.46605000  0.25370000  1.0
  H  H9  1  0.22796000  0.96605000  0.24631000  1.0
  H  H10  1  0.27202000  0.53396000  0.74630000  1.0
  H  H11  1  0.77203000  0.03396000  0.75369000  1.0
  H  H12  1  0.37225000  0.80658000  0.28692000  1.0
  H  H13  1  0.87227000  0.30658000  0.21308000  1.0
  H  H14  1  0.62777000  0.19342000  0.71308000  1.0
  H  H15  1  0.12773000  0.69342000  0.78693000  1.0
  H  H16  1  0.43825000  0.86320000  0.17446000  1.0
  H  H17  1  0.93826000  0.36320000  0.32553000  1.0
  H  H18  1  0.56177000  0.13680000  0.82554000  1.0
  H  H19  1  0.06174000  0.63679000  0.67447000  1.0
  H  H20  1  0.56511000  0.78654000  0.05847000  1.0
  H  H21  1  0.06509000  0.28656000  0.44153000  1.0
  H  H22  1  0.43492000  0.21344000  0.94153000  1.0
  H  H23  1  0.93490000  0.71344000  0.55847000  1.0
  H  H24  1  0.76727000  0.66465000  0.05754000  1.0
  H  H25  1  0.26725000  0.16465000  0.44247000  1.0
  H  H26  1  0.23275000  0.33534000  0.94247000  1.0
  H  H27  1  0.73274000  0.83534000  0.55753000  1.0
  H  H28  1  0.10126000  0.67685000  0.10857000  1.0
  H  H29  1  0.60123000  0.17686000  0.39143000  1.0
  H  H30  1  0.89877000  0.32315000  0.89143000  1.0
  H  H31  1  0.39874000  0.82314000  0.60857000  1.0
  H  H32  1  0.15108000  0.81028000  0.12741000  1.0
  H  H33  1  0.65107000  0.31027000  0.37259000  1.0
  H  H34  1  0.84893000  0.18973000  0.87259000  1.0
  H  H35  1  0.34891000  0.68971000  0.62741000  1.0
  H  H36  1  0.81340000  0.86151000  0.34537000  1.0
  H  H37  1  0.31340000  0.36150000  0.15463000  1.0
  H  H38  1  0.18660000  0.13850000  0.65464000  1.0
  H  H39  1  0.68660000  0.63850000  0.84537000  1.0
  H  H40  1  0.88615000  0.90886000  0.23268000  1.0
  H  H41  1  0.38613000  0.40886000  0.26731000  1.0
  H  H42  1  0.11386000  0.09113000  0.76732000  1.0
  H  H43  1  0.61386000  0.59114000  0.73269000  1.0
  H  H44  1  0.17350000  0.55223000  0.19944000  1.0
  H  H45  1  0.67350000  0.05223000  0.30057000  1.0
  H  H46  1  0.82651000  0.44778000  0.80057000  1.0
  H  H47  1  0.32649000  0.94777000  0.69943000  1.0
  H  H48  1  0.10174000  0.50474000  0.31259000  1.0
  H  H49  1  0.60176000  0.00474000  0.18741000  1.0
  H  H50  1  0.89825000  0.49527000  0.68741000  1.0
  H  H51  1  0.39825000  0.99526000  0.81258000  1.0
  H  H52  1  0.92645000  0.68864000  0.44132000  1.0
  H  H53  1  0.42646000  0.18864000  0.05868000  1.0
  H  H54  1  0.07355000  0.31136000  0.55869000  1.0
  H  H55  1  0.57353000  0.81138000  0.94132000  1.0
  H  H56  1  0.92174000  0.55231000  0.40920000  1.0
  H  H57  1  0.42176000  0.05230000  0.09080000  1.0
  H  H58  1  0.07826000  0.44770000  0.59081000  1.0
  H  H59  1  0.57826000  0.94771000  0.90919000  1.0
  H  H60  1  0.60148000  0.51060000  0.35860000  1.0
  H  H61  1  0.10151000  0.01059000  0.14141000  1.0
  H  H62  1  0.39851000  0.48940000  0.64140000  1.0
  H  H63  1  0.89850000  0.98940000  0.85859000  1.0
  H  H64  1  0.37923000  0.61451000  0.36235000  1.0
  H  H65  1  0.87925000  0.11450000  0.13765000  1.0
  H  H66  1  0.62076000  0.38550000  0.63766000  1.0
  H  H67  1  0.12077000  0.88549000  0.86234000  1.0
  C  C68  1  0.69906000  0.58430000  0.17298000  1.0
  C  C69  1  0.19904000  0.08431000  0.32703000  1.0
  C  C70  1  0.30096000  0.41569000  0.82702000  1.0
  C  C71  1  0.80095000  0.91569000  0.67297000  1.0
  C  C72  1  0.66278000  0.55313000  0.23622000  1.0
  C  C73  1  0.16278000  0.05313000  0.26379000  1.0
  C  C74  1  0.33723000  0.44688000  0.76378000  1.0
  C  C75  1  0.83721000  0.94687000  0.73621000  1.0
  C  C76  1  0.55146000  0.63336000  0.27877000  1.0
  C  C77  1  0.05147000  0.13336000  0.22123000  1.0
  C  C78  1  0.44854000  0.36665000  0.72123000  1.0
  C  C79  1  0.94852000  0.86664000  0.77877000  1.0
  C  C80  1  0.46510000  0.74429000  0.25488000  1.0
  C  C81  1  0.96511000  0.24428000  0.24512000  1.0
  C  C82  1  0.53491000  0.25571000  0.74512000  1.0
  C  C83  1  0.03487000  0.75571000  0.75488000  1.0
  C  C84  1  0.50116000  0.77560000  0.19198000  1.0
  C  C85  1  0.00115000  0.27560000  0.30802000  1.0
  C  C86  1  0.49886000  0.22439000  0.80801000  1.0
  C  C87  1  0.99884000  0.72439000  0.69198000  1.0
  C  C88  1  0.62453000  0.69730000  0.15078000  1.0
  C  C89  1  0.12452000  0.19730000  0.34923000  1.0
  C  C90  1  0.37548000  0.30270000  0.84923000  1.0
  C  C91  1  0.87547000  0.80270000  0.65077000  1.0
  C  C92  1  0.68664000  0.73713000  0.08709000  1.0
  C  C93  1  0.18664000  0.23714000  0.41292000  1.0
  C  C94  1  0.31338000  0.26286000  0.91291000  1.0
  C  C95  1  0.81335000  0.76286000  0.58709000  1.0
  C  C96  1  0.04926000  0.75720000  0.13642000  1.0
  C  C97  1  0.54925000  0.25721000  0.36358000  1.0
  C  C98  1  0.95074000  0.24280000  0.86358000  1.0
  C  C99  1  0.45073000  0.74278000  0.63642000  1.0
  C  C100  1  0.89520000  0.79358000  0.31367000  1.0
  C  C101  1  0.39520000  0.29358000  0.18633000  1.0
  C  C102  1  0.10481000  0.20642000  0.68633000  1.0
  C  C103  1  0.60479000  0.70642000  0.81367000  1.0
  C  C104  1  0.93502000  0.82009000  0.25021000  1.0
  C  C105  1  0.43501000  0.32009000  0.24979000  1.0
  C  C106  1  0.06499000  0.17990000  0.74979000  1.0
  C  C107  1  0.56498000  0.67991000  0.75021000  1.0
  C  C108  1  0.02786000  0.73278000  0.20731000  1.0
  C  C109  1  0.52784000  0.23278000  0.29269000  1.0
  C  C110  1  0.97215000  0.26722000  0.79269000  1.0
  C  C111  1  0.47215000  0.76721000  0.70731000  1.0
  C  C112  1  0.09539000  0.62057000  0.23160000  1.0
  C  C113  1  0.59539000  0.12057000  0.26840000  1.0
  C  C114  1  0.90462000  0.37943000  0.76841000  1.0
  C  C115  1  0.40460000  0.87943000  0.73159000  1.0
  C  C116  1  0.05489000  0.59375000  0.29515000  1.0
  C  C117  1  0.55490000  0.09375000  0.20485000  1.0
  C  C118  1  0.94512000  0.40626000  0.70486000  1.0
  C  C119  1  0.44511000  0.90626000  0.79514000  1.0
  C  C120  1  0.94658000  0.67881000  0.33600000  1.0
  C  C121  1  0.44658000  0.17881000  0.16400000  1.0
  C  C122  1  0.05342000  0.32120000  0.66400000  1.0
  C  C123  1  0.55343000  0.82120000  0.83600000  1.0
  C  C124  1  0.87585000  0.64587000  0.40005000  1.0
  C  C125  1  0.37585000  0.14587000  0.09995000  1.0
  C  C126  1  0.12415000  0.35412000  0.59996000  1.0
  C  C127  1  0.62415000  0.85414000  0.90004000  1.0
  C  C128  1  0.52959000  0.60149000  0.34850000  1.0
  C  C129  1  0.02961000  0.10148000  0.15151000  1.0
  C  C130  1  0.47041000  0.39851000  0.65150000  1.0
  C  C131  1  0.97041000  0.89852000  0.84849000  1.0
  S  S132  1  0.83210000  0.84236000  0.09772000  1.0
  S  S133  1  0.33208000  0.34236000  0.40229000  1.0
  S  S134  1  0.16792000  0.15764000  0.90228000  1.0
  S  S135  1  0.66791000  0.65763000  0.59772000  1.0
  S  S136  1  0.61587000  0.69049000  0.40858000  1.0
  S  S137  1  0.11587000  0.19049000  0.09142000  1.0
  S  S138  1  0.38413000  0.30951000  0.59142000  1.0
  S  S139  1  0.88412000  0.80953000  0.90858000  1.0
  Cl  Cl140  1  0.24466000  0.90444000  0.01375000  1.0
  Cl  Cl141  1  0.74466000  0.40444000  0.48625000  1.0
  Cl  Cl142  1  0.75534000  0.09556000  0.98625000  1.0
  Cl  Cl143  1  0.25534000  0.59555000  0.51375000  1.0
