# generated using pymatgen
data_HoH6C8NO8
_symmetry_space_group_name_H-M   'P 1'
_cell_length_a   7.60854000
_cell_length_b   7.65056000
_cell_length_c   9.84091000
_cell_angle_alpha   97.70070000
_cell_angle_beta   111.14500000
_cell_angle_gamma   91.34610000
_symmetry_Int_Tables_number   1
_chemical_formula_structural   HoH6C8NO8
_chemical_formula_sum   'Ho2 H12 C16 N2 O16'
_cell_volume   527.84713248
_cell_formula_units_Z   2
loop_
 _symmetry_equiv_pos_site_id
 _symmetry_equiv_pos_as_xyz
  1  'x, y, z'
loop_
 _atom_site_type_symbol
 _atom_site_label
 _atom_site_symmetry_multiplicity
 _atom_site_fract_x
 _atom_site_fract_y
 _atom_site_fract_z
 _atom_site_occupancy
  Ho  Ho0  1  0.03202000  0.35930000  0.19938000  1.0
  Ho  Ho1  1  0.96798000  0.64070000  0.80062000  1.0
  H  H2  1  0.55582000  0.41793000  0.60458000  1.0
  H  H3  1  0.44419000  0.58207000  0.39543000  1.0
  H  H4  1  0.13955000  0.97014000  0.40511000  1.0
  H  H5  1  0.86046000  0.02986000  0.59488000  1.0
  H  H6  1  0.47829000  0.01171000  0.84942000  1.0
  H  H7  1  0.52170000  0.98827000  0.15057000  1.0
  H  H8  1  0.23768000  0.87224000  0.63333000  1.0
  H  H9  1  0.76232000  0.12775000  0.36666000  1.0
  H  H10  1  0.69284000  0.53934000  0.12246000  1.0
  H  H11  1  0.30716000  0.46067000  0.87754000  1.0
  H  H12  1  0.83977000  0.68007000  0.11156000  1.0
  H  H13  1  0.16024000  0.31993000  0.88845000  1.0
  C  C14  1  0.69658000  0.31893000  0.87680000  1.0
  C  C15  1  0.30341000  0.68106000  0.12320000  1.0
  C  C16  1  0.53778000  0.22794000  0.74262000  1.0
  C  C17  1  0.46221000  0.77206000  0.25739000  1.0
  C  C18  1  0.48428000  0.29568000  0.61017000  1.0
  C  C19  1  0.51572000  0.70431000  0.38983000  1.0
  C  C20  1  0.33903000  0.20713000  0.48078000  1.0
  C  C21  1  0.66097000  0.79288000  0.51921000  1.0
  C  C22  1  0.25196000  0.04932000  0.49683000  1.0
  C  C23  1  0.74805000  0.95068000  0.50317000  1.0
  C  C24  1  0.44522000  0.07188000  0.75008000  1.0
  C  C25  1  0.55477000  0.92812000  0.24991000  1.0
  C  C26  1  0.04449000  0.04483000  0.95261000  1.0
  C  C27  1  0.95550000  0.95517000  0.04740000  1.0
  C  C28  1  0.07309000  0.57830000  0.51269000  1.0
  C  C29  1  0.92692000  0.42170000  0.48728000  1.0
  N  N30  1  0.30733000  0.99017000  0.62764000  1.0
  N  N31  1  0.69266000  0.00983000  0.37235000  1.0
  O  O32  1  0.72260000  0.26791000  0.99990000  1.0
  O  O33  1  0.27740000  0.73208000  0.00010000  1.0
  O  O34  1  0.80004000  0.44186000  0.86128000  1.0
  O  O35  1  0.19997000  0.55815000  0.13871000  1.0
  O  O36  1  0.28987000  0.26600000  0.35511000  1.0
  O  O37  1  0.71013000  0.73401000  0.64491000  1.0
  O  O38  1  0.10846000  0.20589000  0.00196000  1.0
  O  O39  1  0.89153000  0.79409000  0.99804000  1.0
  O  O40  1  0.04666000  0.95583000  0.83655000  1.0
  O  O41  1  0.95335000  0.04416000  0.16345000  1.0
  O  O42  1  0.14249000  0.58877000  0.41658000  1.0
  O  O43  1  0.85751000  0.41126000  0.58342000  1.0
  O  O44  1  0.11089000  0.68748000  0.63259000  1.0
  O  O45  1  0.88913000  0.31254000  0.36741000  1.0
  O  O46  1  0.81908000  0.59645000  0.17627000  1.0
  O  O47  1  0.18093000  0.40356000  0.82373000  1.0
