# generated using pymatgen
data_MnH14C11N2O3
_symmetry_space_group_name_H-M   'P 1'
_cell_length_a   7.05371000
_cell_length_b   21.46210000
_cell_length_c   21.46215000
_cell_angle_alpha   60.00023120
_cell_angle_beta   89.99970000
_cell_angle_gamma   89.99990000
_symmetry_Int_Tables_number   1
_chemical_formula_structural   MnH14C11N2O3
_chemical_formula_sum   'Mn6 H84 C66 N12 O18'
_cell_volume   2813.80945019
_cell_formula_units_Z   6
loop_
 _symmetry_equiv_pos_site_id
 _symmetry_equiv_pos_as_xyz
  1  'x, y, z'
loop_
 _atom_site_type_symbol
 _atom_site_label
 _atom_site_symmetry_multiplicity
 _atom_site_fract_x
 _atom_site_fract_y
 _atom_site_fract_z
 _atom_site_occupancy
  Mn  Mn0  1  0.88603000  0.72773000  0.66426000  1.0
  Mn  Mn1  1  0.44730000  0.33574000  0.27228000  1.0
  Mn  Mn2  1  0.55272000  0.60802000  0.72772000  1.0
  Mn  Mn3  1  0.21940000  0.66425000  0.60803000  1.0
  Mn  Mn4  1  0.11393000  0.39198000  0.33575000  1.0
  Mn  Mn5  1  0.78059000  0.27228000  0.39197000  1.0
  H  H6  1  0.01630000  0.99361000  0.43502000  1.0
  H  H7  1  0.31701000  0.56499000  0.00638000  1.0
  H  H8  1  0.68297000  0.57137000  0.99361000  1.0
  H  H9  1  0.34966000  0.43500000  0.57138000  1.0
  H  H10  1  0.98369000  0.42862000  0.56499000  1.0
  H  H11  1  0.65034000  0.00638000  0.42863000  1.0
  H  H12  1  0.89468000  0.86784000  0.49430000  1.0
  H  H13  1  0.43863000  0.50571000  0.13216000  1.0
  H  H14  1  0.56135000  0.63787000  0.86783000  1.0
  H  H15  1  0.22803000  0.49429000  0.63787000  1.0
  H  H16  1  0.10531000  0.36213000  0.50570000  1.0
  H  H17  1  0.77195000  0.13216000  0.36214000  1.0
  H  H18  1  0.55510000  0.91333000  0.53898000  1.0
  H  H19  1  0.77821000  0.46103000  0.08666000  1.0
  H  H20  1  0.22178000  0.54770000  0.91333000  1.0
  H  H21  1  0.88846000  0.53896000  0.54770000  1.0
  H  H22  1  0.44489000  0.45231000  0.46103000  1.0
  H  H23  1  0.11153000  0.08666000  0.45231000  1.0
  H  H24  1  0.22561000  0.81513000  0.74028000  1.0
  H  H25  1  0.10772000  0.25971000  0.18487000  1.0
  H  H26  1  0.89228000  0.44459000  0.81513000  1.0
  H  H27  1  0.55894000  0.74028000  0.44459000  1.0
  H  H28  1  0.77441000  0.55543000  0.25971000  1.0
  H  H29  1  0.44107000  0.18486000  0.55541000  1.0
  H  H30  1  0.07847000  0.74322000  0.79998000  1.0
  H  H31  1  0.25486000  0.20002000  0.25678000  1.0
  H  H32  1  0.74515000  0.45680000  0.74322000  1.0
  H  H33  1  0.41180000  0.79997000  0.45681000  1.0
  H  H34  1  0.92154000  0.54321000  0.20002000  1.0
  H  H35  1  0.58818000  0.25678000  0.54319000  1.0
  H  H36  1  0.24390000  0.73117000  0.74394000  1.0
  H  H37  1  0.08941000  0.25605000  0.26883000  1.0
  H  H38  1  0.91058000  0.52488000  0.73117000  1.0
  H  H39  1  0.57723000  0.74395000  0.52489000  1.0
  H  H40  1  0.75610000  0.47513000  0.25604000  1.0
  H  H41  1  0.42275000  0.26883000  0.47511000  1.0
  H  H42  1  0.00851000  0.89646000  0.67285000  1.0
  H  H43  1  0.32484000  0.32714000  0.10354000  1.0
  H  H44  1  0.67519000  0.43067000  0.89646000  1.0
  H  H45  1  0.34185000  0.67285000  0.43069000  1.0
  H  H46  1  0.99150000  0.56933000  0.32714000  1.0
  H  H47  1  0.65816000  0.10355000  0.56931000  1.0
  H  H48  1  0.81903000  0.87897000  0.62983000  1.0
  H  H49  1  0.51431000  0.37016000  0.12103000  1.0
  H  H50  1  0.48571000  0.49119000  0.87897000  1.0
  H  H51  1  0.15237000  0.62983000  0.49120000  1.0
  H  H52  1  0.18097000  0.50880000  0.37017000  1.0
  H  H53  1  0.84764000  0.12103000  0.50880000  1.0
  H  H54  1  0.77996000  0.78369000  0.78533000  1.0
  H  H55  1  0.55335000  0.21466000  0.21632000  1.0
  H  H56  1  0.44666000  0.43097000  0.78369000  1.0
  H  H57  1  0.11333000  0.78533000  0.43098000  1.0
  H  H58  1  0.22006000  0.56902000  0.21468000  1.0
  H  H59  1  0.88667000  0.21632000  0.56902000  1.0
  H  H60  1  0.80903000  0.87264000  0.76845000  1.0
  H  H61  1  0.52432000  0.23153000  0.12738000  1.0
  H  H62  1  0.47568000  0.35890000  0.87264000  1.0
  H  H63  1  0.14236000  0.76845000  0.35892000  1.0
  H  H64  1  0.19101000  0.64109000  0.23155000  1.0
  H  H65  1  0.85765000  0.12737000  0.64108000  1.0
  H  H66  1  0.52577000  0.82676000  0.70025000  1.0
  H  H67  1  0.80755000  0.29973000  0.17327000  1.0
  H  H68  1  0.19247000  0.47300000  0.82674000  1.0
  H  H69  1  0.85912000  0.70026000  0.47300000  1.0
  H  H70  1  0.47424000  0.52700000  0.29976000  1.0
  H  H71  1  0.14088000  0.17326000  0.52700000  1.0
  H  H72  1  0.54449000  0.95968000  0.70803000  1.0
  H  H73  1  0.78889000  0.29195000  0.04035000  1.0
  H  H74  1  0.21111000  0.33230000  0.95966000  1.0
  H  H75  1  0.87778000  0.70804000  0.33230000  1.0
  H  H76  1  0.45554000  0.66770000  0.29198000  1.0
  H  H77  1  0.12223000  0.04034000  0.66770000  1.0
  H  H78  1  0.60554000  0.95892000  0.62769000  1.0
  H  H79  1  0.72786000  0.37229000  0.04110000  1.0
  H  H80  1  0.27215000  0.41339000  0.95891000  1.0
  H  H81  1  0.93883000  0.62769000  0.41340000  1.0
  H  H82  1  0.39449000  0.58660000  0.37232000  1.0
  H  H83  1  0.06119000  0.04110000  0.58660000  1.0
  H  H84  1  0.37136000  0.93647000  0.66276000  1.0
  H  H85  1  0.96202000  0.33722000  0.06357000  1.0
  H  H86  1  0.03799000  0.40079000  0.93643000  1.0
  H  H87  1  0.70466000  0.66278000  0.40079000  1.0
  H  H88  1  0.62866000  0.59922000  0.33724000  1.0
  H  H89  1  0.29535000  0.06357000  0.59921000  1.0
  C  C90  1  0.15376000  0.82044000  0.54987000  1.0
  C  C91  1  0.17954000  0.45013000  0.17956000  1.0
  C  C92  1  0.82044000  0.62968000  0.82044000  1.0
  C  C93  1  0.48712000  0.54987000  0.62969000  1.0
  C  C94  1  0.84622000  0.37031000  0.45012000  1.0
  C  C95  1  0.51288000  0.17956000  0.37031000  1.0
  C  C96  1  0.34324000  0.83326000  0.56331000  1.0
  C  C97  1  0.99006000  0.43670000  0.16673000  1.0
  C  C98  1  0.00993000  0.60344000  0.83326000  1.0
  C  C99  1  0.67660000  0.56329000  0.60344000  1.0
  C  C100  1  0.65674000  0.39656000  0.43670000  1.0
  C  C101  1  0.32340000  0.16673000  0.39656000  1.0
  C  C102  1  0.40946000  0.90457000  0.52827000  1.0
  C  C103  1  0.92384000  0.47173000  0.09543000  1.0
  C  C104  1  0.07614000  0.56716000  0.90457000  1.0
  C  C105  1  0.74283000  0.52826000  0.56717000  1.0
  C  C106  1  0.59052000  0.43284000  0.47173000  1.0
  C  C107  1  0.25717000  0.09543000  0.43284000  1.0
  C  C108  1  0.29570000  0.96308000  0.48277000  1.0
  C  C109  1  0.03761000  0.51724000  0.03692000  1.0
  C  C110  1  0.96238000  0.55416000  0.96307000  1.0
  C  C111  1  0.62906000  0.48276000  0.55416000  1.0
  C  C112  1  0.70428000  0.44583000  0.51724000  1.0
  C  C113  1  0.37095000  0.03692000  0.44585000  1.0
  C  C114  1  0.10741000  0.94904000  0.47140000  1.0
  C  C115  1  0.22588000  0.52860000  0.05096000  1.0
  C  C116  1  0.77410000  0.57956000  0.94904000  1.0
  C  C117  1  0.44078000  0.47139000  0.57957000  1.0
  C  C118  1  0.89257000  0.42043000  0.52861000  1.0
  C  C119  1  0.55922000  0.05095000  0.42044000  1.0
  C  C120  1  0.03923000  0.87936000  0.50360000  1.0
  C  C121  1  0.29409000  0.49641000  0.12064000  1.0
  C  C122  1  0.70590000  0.61705000  0.87935000  1.0
  C  C123  1  0.37257000  0.50359000  0.61705000  1.0
  C  C124  1  0.96076000  0.38295000  0.49640000  1.0
  C  C125  1  0.62743000  0.12064000  0.38295000  1.0
  C  C126  1  0.47820000  0.77617000  0.61202000  1.0
  C  C127  1  0.85511000  0.38798000  0.22383000  1.0
  C  C128  1  0.14488000  0.61182000  0.77616000  1.0
  C  C129  1  0.81154000  0.61201000  0.61182000  1.0
  C  C130  1  0.52178000  0.38819000  0.38798000  1.0
  C  C131  1  0.18846000  0.22384000  0.38818000  1.0
  C  C132  1  0.14297000  0.76901000  0.74573000  1.0
  C  C133  1  0.19035000  0.25427000  0.23099000  1.0
  C  C134  1  0.80965000  0.48525000  0.76901000  1.0
  C  C135  1  0.47631000  0.74574000  0.48526000  1.0
  C  C136  1  0.85703000  0.51475000  0.25426000  1.0
  C  C137  1  0.52369000  0.23099000  0.51474000  1.0
  C  C138  1  0.90182000  0.85565000  0.67984000  1.0
  C  C139  1  0.43151000  0.32016000  0.14435000  1.0
  C  C140  1  0.56850000  0.46450000  0.85565000  1.0
  C  C141  1  0.23516000  0.67984000  0.46451000  1.0
  C  C142  1  0.09818000  0.53550000  0.32016000  1.0
  C  C143  1  0.76485000  0.14435000  0.53549000  1.0
  C  C144  1  0.76626000  0.84065000  0.74360000  1.0
  C  C145  1  0.56708000  0.25638000  0.15937000  1.0
  C  C146  1  0.43293000  0.41575000  0.84064000  1.0
  C  C147  1  0.09960000  0.74361000  0.41575000  1.0
  C  C148  1  0.23376000  0.58425000  0.25640000  1.0
  C  C149  1  0.90040000  0.15936000  0.58425000  1.0
  C  C150  1  0.52156000  0.93099000  0.67812000  1.0
  C  C151  1  0.81182000  0.32186000  0.06904000  1.0
  C  C152  1  0.18819000  0.39090000  0.93096000  1.0
  C  C153  1  0.85486000  0.67814000  0.39090000  1.0
  C  C154  1  0.47847000  0.60910000  0.32188000  1.0
  C  C155  1  0.14515000  0.06904000  0.60910000  1.0
  N  N156  1  0.00635000  0.79387000  0.68744000  1.0
  N  N157  1  0.32697000  0.31256000  0.20612000  1.0
  N  N158  1  0.67303000  0.51868000  0.79387000  1.0
  N  N159  1  0.33969000  0.68744000  0.51869000  1.0
  N  N160  1  0.99364000  0.48133000  0.31255000  1.0
  N  N161  1  0.66031000  0.20613000  0.48131000  1.0
  N  N162  1  0.56664000  0.85515000  0.72443000  1.0
  N  N163  1  0.76671000  0.27555000  0.14488000  1.0
  N  N164  1  0.23331000  0.42043000  0.85513000  1.0
  N  N165  1  0.89997000  0.72444000  0.42043000  1.0
  N  N166  1  0.43338000  0.57958000  0.27557000  1.0
  N  N167  1  0.10003000  0.14487000  0.57957000  1.0
  O  O168  1  0.07414000  0.75472000  0.57888000  1.0
  O  O169  1  0.25917000  0.42113000  0.24527000  1.0
  O  O170  1  0.74081000  0.66640000  0.75472000  1.0
  O  O171  1  0.40748000  0.57887000  0.66640000  1.0
  O  O172  1  0.92585000  0.33361000  0.42111000  1.0
  O  O173  1  0.59251000  0.24527000  0.33359000  1.0
  O  O174  1  0.41743000  0.71115000  0.65243000  1.0
  O  O175  1  0.91589000  0.34757000  0.28884000  1.0
  O  O176  1  0.08410000  0.63642000  0.71115000  1.0
  O  O177  1  0.75076000  0.65243000  0.63641000  1.0
  O  O178  1  0.58257000  0.36358000  0.34757000  1.0
  O  O179  1  0.24923000  0.28885000  0.36357000  1.0
  O  O180  1  0.65033000  0.79376000  0.61234000  1.0
  O  O181  1  0.68297000  0.38767000  0.20623000  1.0
  O  O182  1  0.31701000  0.59390000  0.79376000  1.0
  O  O183  1  0.98368000  0.61232000  0.59391000  1.0
  O  O184  1  0.34966000  0.40610000  0.38766000  1.0
  O  O185  1  0.01632000  0.20624000  0.40610000  1.0
