# generated using pymatgen
data_Co3H29(C2N)12
_symmetry_space_group_name_H-M   'P 1'
_cell_length_a   14.62836616
_cell_length_b   14.63280000
_cell_length_c   14.63380000
_cell_angle_alpha   70.52700000
_cell_angle_beta   70.52958359
_cell_angle_gamma   109.47587818
_symmetry_Int_Tables_number   1
_chemical_formula_structural   Co3H29(C2N)12
_chemical_formula_sum   'Co6 H58 C48 N24'
_cell_volume   2411.17254215
_cell_formula_units_Z   2
loop_
 _symmetry_equiv_pos_site_id
 _symmetry_equiv_pos_as_xyz
  1  'x, y, z'
loop_
 _atom_site_type_symbol
 _atom_site_label
 _atom_site_symmetry_multiplicity
 _atom_site_fract_x
 _atom_site_fract_y
 _atom_site_fract_z
 _atom_site_occupancy
  Co  Co0  1  0.24899000  0.74923000  0.50035000  1.0
  Co  Co1  1  0.75007000  0.25008000  0.50008000  1.0
  Co  Co2  1  0.49954000  0.74985000  0.75005000  1.0
  Co  Co3  1  0.49992000  0.24958000  0.25023000  1.0
  Co  Co4  1  0.74900000  0.49954000  0.75116000  1.0
  Co  Co5  1  0.25020000  0.49986000  0.25012000  1.0
  H  H6  1  0.41498000  0.65469000  0.46748000  1.0
  H  H7  1  0.87785000  0.34481000  0.23843000  1.0
  H  H8  1  0.58532000  0.11641000  0.76179000  1.0
  H  H9  1  0.76131000  0.87820000  0.65396000  1.0
  H  H10  1  0.23719000  0.58322000  0.88462000  1.0
  H  H11  1  0.53218000  0.41516000  0.34603000  1.0
  H  H12  1  0.46771000  0.12014000  0.11709000  1.0
  H  H13  1  0.65588000  0.53340000  0.58358000  1.0
  H  H14  1  0.11659000  0.23818000  0.41491000  1.0
  H  H15  1  0.34778000  0.76178000  0.12185000  1.0
  H  H16  1  0.88371000  0.12150000  0.53108000  1.0
  H  H17  1  0.65386000  0.41540000  0.46880000  1.0
  H  H18  1  0.11413000  0.58596000  0.76405000  1.0
  H  H19  1  0.34569000  0.87787000  0.23858000  1.0
  H  H20  1  0.41503000  0.53086000  0.34702000  1.0
  H  H21  1  0.12124000  0.46881000  0.11736000  1.0
  H  H22  1  0.87821000  0.76248000  0.65467000  1.0
  H  H23  1  0.58178000  0.23748000  0.88420000  1.0
  H  H24  1  0.76152000  0.34425000  0.12214000  1.0
  H  H25  1  0.23673000  0.11421000  0.41386000  1.0
  H  H26  1  0.53004000  0.65237000  0.58532000  1.0
  H  H27  1  0.46718000  0.88358000  0.87801000  1.0
  H  H28  1  0.26133000  0.82662000  0.65338000  1.0
  H  H29  1  0.38547000  0.89650000  0.65575000  1.0
  H  H30  1  0.27397000  0.76612000  0.77309000  1.0
  H  H31  1  0.56882000  0.08332000  0.28302000  1.0
  H  H32  1  0.50746000  0.98098000  0.24999000  1.0
  H  H33  1  0.50098000  0.93789000  0.38124000  1.0
  H  H34  1  0.43663000  0.12750000  0.49381000  1.0
  H  H35  1  0.48178000  0.24766000  0.50816000  1.0
  H  H36  1  0.51338000  0.14272000  0.56567000  1.0
  H  H37  1  0.70032000  0.07502000  0.43522000  1.0
  H  H38  1  0.62400000  0.92545000  0.50991000  1.0
  H  H39  1  0.76023000  0.99850000  0.48786000  1.0
  H  H40  1  0.49672000  0.47664000  0.75433000  1.0
  H  H41  1  0.43400000  0.51577000  0.85010000  1.0
  H  H42  1  0.50273000  0.43875000  0.87940000  1.0
  H  H43  1  0.51828000  0.76596000  0.98936000  1.0
  H  H44  1  0.56300000  0.69070000  0.93001000  1.0
  H  H45  1  0.48659000  0.62942000  0.07863000  1.0
  H  H46  1  0.37556000  0.30115000  0.13409000  1.0
  H  H47  1  0.29929000  0.37448000  0.13599000  1.0
  H  H48  1  0.23927000  0.23783000  0.24826000  1.0
  H  H49  1  0.61379000  0.50906000  0.04304000  1.0
  H  H50  1  0.73687000  0.56307000  0.91572000  1.0
  H  H51  1  0.72594000  0.48991000  0.04697000  1.0
  H  H52  1  0.95028000  0.61704000  0.49177000  1.0
  H  H53  1  0.08667000  0.73058000  0.43241000  1.0
  H  H54  1  0.96615000  0.73856000  0.50058000  1.0
  H  H55  1  0.87030000  0.37738000  0.69448000  1.0
  H  H56  1  0.86042000  0.29467000  0.62803000  1.0
  H  H57  1  0.75207000  0.24233000  0.76458000  1.0
  H  H58  1  0.97733000  0.50211000  0.25265000  1.0
  H  H59  1  0.08245000  0.56580000  0.28186000  1.0
  H  H60  1  0.93769000  0.49801000  0.38266000  1.0
  H  H61  1  0.13932000  0.43443000  0.48781000  1.0
  H  H62  1  0.12952000  0.50737000  0.56400000  1.0
  H  H63  1  0.24739000  0.48976000  0.51656000  1.0
  C  C64  1  0.41370000  0.68222000  0.52788000  1.0
  C  C65  1  0.21420000  0.94194000  0.46548000  1.0
  C  C66  1  0.78990000  0.31761000  0.26754000  1.0
  C  C67  1  0.58601000  0.05741000  0.73269000  1.0
  C  C68  1  0.73238000  0.79022000  0.68178000  1.0
  C  C69  1  0.26660000  0.58542000  0.94317000  1.0
  C  C70  1  0.47167000  0.41363000  0.31858000  1.0
  C  C71  1  0.52704000  0.20838000  0.05818000  1.0
  C  C72  1  0.94183000  0.53384000  0.78635000  1.0
  C  C73  1  0.68285000  0.47252000  0.58558000  1.0
  C  C74  1  0.05761000  0.26721000  0.41372000  1.0
  C  C75  1  0.31919000  0.73258000  0.21000000  1.0
  C  C76  1  0.94257000  0.20958000  0.47113000  1.0
  C  C77  1  0.68204000  0.41441000  0.52869000  1.0
  C  C78  1  0.05642000  0.58740000  0.73347000  1.0
  C  C79  1  0.31834000  0.78996000  0.26761000  1.0
  C  C80  1  0.41391000  0.47087000  0.31897000  1.0
  C  C81  1  0.20933000  0.52857000  0.05815000  1.0
  C  C82  1  0.79015000  0.73298000  0.68213000  1.0
  C  C83  1  0.58347000  0.26632000  0.94319000  1.0
  C  C84  1  0.73239000  0.31730000  0.21004000  1.0
  C  C85  1  0.26721000  0.05653000  0.41185000  1.0
  C  C86  1  0.47062000  0.68119000  0.58594000  1.0
  C  C87  1  0.52781000  0.94241000  0.79009000  1.0
  C  C88  1  0.36834000  0.75636000  0.63137000  1.0
  C  C89  1  0.31938000  0.81414000  0.68108000  1.0
  C  C90  1  0.39021000  0.00022000  0.36777000  1.0
  C  C91  1  0.49748000  0.00082000  0.31774000  1.0
  C  C92  1  0.61241000  0.24310000  0.38758000  1.0
  C  C93  1  0.50553000  0.18745000  0.49439000  1.0
  C  C94  1  0.63029000  0.99984000  0.61256000  1.0
  C  C95  1  0.68144000  0.99974000  0.50579000  1.0
  C  C96  1  0.61257000  0.61251000  0.75702000  1.0
  C  C97  1  0.50586000  0.50543000  0.81300000  1.0
  C  C98  1  0.38726000  0.63084000  0.99994000  1.0
  C  C99  1  0.49436000  0.68193000  0.99953000  1.0
  C  C100  1  0.36921000  0.36884000  0.24336000  1.0
  C  C101  1  0.31810000  0.31787000  0.18756000  1.0
  C  C102  1  0.62963000  0.38597000  0.00091000  1.0
  C  C103  1  0.67942000  0.49263000  0.00152000  1.0
  C  C104  1  0.00014000  0.63215000  0.61054000  1.0
  C  C105  1  0.00095000  0.68230000  0.50328000  1.0
  C  C106  1  0.75757000  0.36967000  0.63080000  1.0
  C  C107  1  0.81295000  0.31826000  0.68217000  1.0
  C  C108  1  0.99994000  0.38721000  0.36902000  1.0
  C  C109  1  0.99956000  0.49395000  0.31868000  1.0
  C  C110  1  0.24287000  0.61224000  0.38779000  1.0
  C  C111  1  0.18691000  0.50534000  0.49460000  1.0
  N  N112  1  0.34888000  0.72932000  0.55707000  1.0
  N  N113  1  0.28768000  0.90595000  0.43977000  1.0
  N  N114  1  0.71408000  0.27120000  0.37938000  1.0
  N  N115  1  0.65079000  0.09336000  0.62075000  1.0
  N  N116  1  0.62046000  0.71405000  0.72872000  1.0
  N  N117  1  0.37873000  0.65022000  0.90672000  1.0
  N  N118  1  0.44296000  0.34904000  0.27124000  1.0
  N  N119  1  0.55658000  0.28409000  0.09428000  1.0
  N  N120  1  0.90583000  0.55988000  0.71295000  1.0
  N  N121  1  0.73019000  0.44381000  0.65023000  1.0
  N  N122  1  0.09350000  0.37918000  0.34910000  1.0
  N  N123  1  0.27187000  0.62060000  0.28603000  1.0
  N  N124  1  0.90650000  0.28548000  0.44244000  1.0
  N  N125  1  0.72896000  0.34938000  0.55765000  1.0
  N  N126  1  0.09280000  0.65081000  0.62019000  1.0
  N  N127  1  0.27059000  0.71386000  0.37966000  1.0
  N  N128  1  0.34912000  0.44217000  0.27175000  1.0
  N  N129  1  0.28568000  0.55764000  0.09367000  1.0
  N  N130  1  0.71433000  0.62095000  0.72926000  1.0
  N  N131  1  0.64843000  0.37821000  0.90743000  1.0
  N  N132  1  0.62047000  0.27065000  0.28604000  1.0
  N  N133  1  0.38059000  0.09295000  0.34873000  1.0
  N  N134  1  0.44148000  0.72760000  0.65143000  1.0
  N  N135  1  0.55626000  0.90637000  0.71415000  1.0
