# generated using pymatgen
data_AgH5C5SNCl
_symmetry_space_group_name_H-M   'P 1'
_cell_length_a   7.08822000
_cell_length_b   7.79416000
_cell_length_c   7.79390000
_cell_angle_alpha   92.90830000
_cell_angle_beta   115.38400000
_cell_angle_gamma   115.38800000
_symmetry_Int_Tables_number   1
_chemical_formula_structural   AgH5C5SNCl
_chemical_formula_sum   'Ag2 H10 C10 S2 N2 Cl2'
_cell_volume   336.62543402
_cell_formula_units_Z   2
loop_
 _symmetry_equiv_pos_site_id
 _symmetry_equiv_pos_as_xyz
  1  'x, y, z'
loop_
 _atom_site_type_symbol
 _atom_site_label
 _atom_site_symmetry_multiplicity
 _atom_site_fract_x
 _atom_site_fract_y
 _atom_site_fract_z
 _atom_site_occupancy
  Ag  Ag0  1  0.92037000  0.16181000  0.86427000  1.0
  Ag  Ag1  1  0.42037000  0.86427000  0.16181000  1.0
  H  H2  1  0.40981000  0.76413000  0.49565000  1.0
  H  H3  1  0.90983000  0.49565000  0.76414000  1.0
  H  H4  1  0.22287000  0.17910000  0.26083000  1.0
  H  H5  1  0.72285000  0.26083000  0.17910000  1.0
  H  H6  1  0.48633000  0.69962000  0.81890000  1.0
  H  H7  1  0.98633000  0.81888000  0.69961000  1.0
  H  H8  1  0.43259000  0.36125000  0.85733000  1.0
  H  H9  1  0.93257000  0.85733000  0.36125000  1.0
  H  H10  1  0.31276000  0.11066000  0.56290000  1.0
  H  H11  1  0.81273000  0.56290000  0.11065000  1.0
  C  C12  1  0.31347000  0.47303000  0.35053000  1.0
  C  C13  1  0.81348000  0.35053000  0.47303000  1.0
  C  C14  1  0.38905000  0.62077000  0.51459000  1.0
  C  C15  1  0.88906000  0.51459000  0.62079000  1.0
  C  C16  1  0.43147000  0.58298000  0.69571000  1.0
  C  C17  1  0.93147000  0.69571000  0.58295000  1.0
  C  C18  1  0.33276000  0.25625000  0.55722000  1.0
  C  C19  1  0.83275000  0.55721000  0.25624000  1.0
  C  C20  1  0.40431000  0.39791000  0.71890000  1.0
  C  C21  1  0.90429000  0.71889000  0.39792000  1.0
  S  S22  1  0.25318000  0.50127000  0.11805000  1.0
  S  S23  1  0.75318000  0.11805000  0.50127000  1.0
  N  N24  1  0.28749000  0.29510000  0.38129000  1.0
  N  N25  1  0.78748000  0.38127000  0.29512000  1.0
  Cl  Cl26  1  0.04147000  0.92013000  0.04264000  1.0
  Cl  Cl27  1  0.54146000  0.04264000  0.92013000  1.0
