# generated using pymatgen
data_Mn3H16C20(NO6)2
_symmetry_space_group_name_H-M   'P 1'
_cell_length_a   7.67139000
_cell_length_b   8.83435000
_cell_length_c   9.39946000
_cell_angle_alpha   68.01370000
_cell_angle_beta   84.05950000
_cell_angle_gamma   66.51460000
_symmetry_Int_Tables_number   1
_chemical_formula_structural   Mn3H16C20(NO6)2
_chemical_formula_sum   'Mn3 H16 C20 N2 O12'
_cell_volume   540.97508585
_cell_formula_units_Z   1
loop_
 _symmetry_equiv_pos_site_id
 _symmetry_equiv_pos_as_xyz
  1  'x, y, z'
loop_
 _atom_site_type_symbol
 _atom_site_label
 _atom_site_symmetry_multiplicity
 _atom_site_fract_x
 _atom_site_fract_y
 _atom_site_fract_z
 _atom_site_occupancy
  Mn  Mn0  1  0.49957000  0.00125000  0.49979000  1.0
  Mn  Mn1  1  0.29850000  0.45668000  0.49888000  1.0
  Mn  Mn2  1  0.70090000  0.54333000  0.50103000  1.0
  H  H3  1  0.49983000  0.11024000  0.08888000  1.0
  H  H4  1  0.50052000  0.88961000  0.91093000  1.0
  H  H5  1  0.43783000  0.15679000  0.81381000  1.0
  H  H6  1  0.56164000  0.84307000  0.18626000  1.0
  H  H7  1  0.10581000  0.68730000  0.71222000  1.0
  H  H8  1  0.89324000  0.31246000  0.28822000  1.0
  H  H9  1  0.14938000  0.66162000  0.98380000  1.0
  H  H10  1  0.85036000  0.33804000  0.01651000  1.0
  H  H11  1  0.89605000  0.04905000  0.33186000  1.0
  H  H12  1  0.10336000  0.95131000  0.66740000  1.0
  H  H13  1  0.83742000  0.00323000  0.18176000  1.0
  H  H14  1  0.16344000  0.99637000  0.81747000  1.0
  H  H15  1  0.18341000  0.77604000  0.20272000  1.0
  H  H16  1  0.81758000  0.22438000  0.79720000  1.0
  H  H17  1  0.15658000  0.00202000  0.14172000  1.0
  H  H18  1  0.84401000  0.99850000  0.85866000  1.0
  C  C19  1  0.37156000  0.35550000  0.21910000  1.0
  C  C20  1  0.62922000  0.64421000  0.78081000  1.0
  C  C21  1  0.33100000  0.38312000  0.05633000  1.0
  C  C22  1  0.66908000  0.61660000  0.94387000  1.0
  C  C23  1  0.41159000  0.23934000  0.00753000  1.0
  C  C24  1  0.58844000  0.76047000  0.99247000  1.0
  C  C25  1  0.37913000  0.26532000  0.85632000  1.0
  C  C26  1  0.62050000  0.73455000  0.14377000  1.0
  C  C27  1  0.19329000  0.56208000  0.79923000  1.0
  C  C28  1  0.80610000  0.43770000  0.20107000  1.0
  C  C29  1  0.21700000  0.54719000  0.94961000  1.0
  C  C30  1  0.78272000  0.45251000  0.05067000  1.0
  C  C31  1  0.89250000  0.79381000  0.40079000  1.0
  C  C32  1  0.10737000  0.20628000  0.59855000  1.0
  C  C33  1  0.93513000  0.94505000  0.28303000  1.0
  C  C34  1  0.06513000  0.05496000  0.71654000  1.0
  C  C35  1  0.14283000  0.88978000  0.23863000  1.0
  C  C36  1  0.85766000  0.11056000  0.76149000  1.0
  C  C37  1  0.28224000  0.84583000  0.36641000  1.0
  C  C38  1  0.71758000  0.15445000  0.63421000  1.0
  N  N39  1  0.27426000  0.42429000  0.75197000  1.0
  N  N40  1  0.72498000  0.57555000  0.24819000  1.0
  O  O41  1  0.49950000  0.20753000  0.29672000  1.0
  O  O42  1  0.50162000  0.79204000  0.70295000  1.0
  O  O43  1  0.27768000  0.48085000  0.26729000  1.0
  O  O44  1  0.72377000  0.51858000  0.73314000  1.0
  O  O45  1  0.02455000  0.65683000  0.48366000  1.0
  O  O46  1  0.97528000  0.34258000  0.51530000  1.0
  O  O47  1  0.71679000  0.81003000  0.41404000  1.0
  O  O48  1  0.28305000  0.19069000  0.58554000  1.0
  O  O49  1  0.39300000  0.68234000  0.43716000  1.0
  O  O50  1  0.60644000  0.31788000  0.56365000  1.0
  O  O51  1  0.28402000  0.97514000  0.39339000  1.0
  O  O52  1  0.71561000  0.02508000  0.60744000  1.0
