# generated using pymatgen
data_H12RhC16NO6
_symmetry_space_group_name_H-M   'P 1'
_cell_length_a   9.57453000
_cell_length_b   9.97870000
_cell_length_c   19.59700000
_cell_angle_alpha   98.13610000
_cell_angle_beta   89.99810000
_cell_angle_gamma   118.67000000
_symmetry_Int_Tables_number   1
_chemical_formula_structural   H12RhC16NO6
_chemical_formula_sum   'H48 Rh4 C64 N4 O24'
_cell_volume   1621.26566432
_cell_formula_units_Z   4
loop_
 _symmetry_equiv_pos_site_id
 _symmetry_equiv_pos_as_xyz
  1  'x, y, z'
loop_
 _atom_site_type_symbol
 _atom_site_label
 _atom_site_symmetry_multiplicity
 _atom_site_fract_x
 _atom_site_fract_y
 _atom_site_fract_z
 _atom_site_occupancy
  H  H0  1  0.92245000  0.85374000  0.53086000  1.0
  H  H1  1  0.93122000  0.85367000  0.03088000  1.0
  H  H2  1  0.07753000  0.14624000  0.46914000  1.0
  H  H3  1  0.06878000  0.14633000  0.96912000  1.0
  H  H4  1  0.86171000  0.71493000  0.40956000  1.0
  H  H5  1  0.85317000  0.71494000  0.90956000  1.0
  H  H6  1  0.13827000  0.28506000  0.59044000  1.0
  H  H7  1  0.14683000  0.28506000  0.09044000  1.0
  H  H8  1  0.58053000  0.57288000  0.35749000  1.0
  H  H9  1  0.99236000  0.57300000  0.85745000  1.0
  H  H10  1  0.41946000  0.42712000  0.64251000  1.0
  H  H11  1  0.00765000  0.42700000  0.14255000  1.0
  H  H12  1  0.36230000  0.57362000  0.42679000  1.0
  H  H13  1  0.21124000  0.57359000  0.92673000  1.0
  H  H14  1  0.63769000  0.42640000  0.57321000  1.0
  H  H15  1  0.78877000  0.42642000  0.07327000  1.0
  H  H16  1  0.42495000  0.71541000  0.54691000  1.0
  H  H17  1  0.29030000  0.71521000  0.04688000  1.0
  H  H18  1  0.57504000  0.28460000  0.45308000  1.0
  H  H19  1  0.70971000  0.28480000  0.95312000  1.0
  H  H20  1  0.75656000  0.53097000  0.79506000  1.0
  H  H21  1  0.77428000  0.53089000  0.29506000  1.0
  H  H22  1  0.24344000  0.46903000  0.20494000  1.0
  H  H23  1  0.22572000  0.46911000  0.70493000  1.0
  H  H24  1  0.63273000  0.28695000  0.84570000  1.0
  H  H25  1  0.65412000  0.28685000  0.34568000  1.0
  H  H26  1  0.36727000  0.71305000  0.15430000  1.0
  H  H27  1  0.34588000  0.71314000  0.65432000  1.0
  H  H28  1  0.36476000  0.19468000  0.89100000  1.0
  H  H29  1  0.82976000  0.19455000  0.39092000  1.0
  H  H30  1  0.63524000  0.80533000  0.10901000  1.0
  H  H31  1  0.17024000  0.80544000  0.60906000  1.0
  H  H32  1  0.21192000  0.33290000  0.87803000  1.0
  H  H33  1  0.12084000  0.33276000  0.37801000  1.0
  H  H34  1  0.78809000  0.66711000  0.12198000  1.0
  H  H35  1  0.87916000  0.66724000  0.62198000  1.0
  H  H36  1  0.33862000  0.57933000  0.82798000  1.0
  H  H37  1  0.24060000  0.57923000  0.32796000  1.0
  H  H38  1  0.66138000  0.42067000  0.17202000  1.0
  H  H39  1  0.75940000  0.42078000  0.67203000  1.0
  H  H40  1  0.07435000  0.86364000  0.82745000  1.0
  H  H41  1  0.78920000  0.86355000  0.32747000  1.0
  H  H42  1  0.92565000  0.13637000  0.17255000  1.0
  H  H43  1  0.21079000  0.13644000  0.67253000  1.0
  H  H44  1  0.33813000  0.86295000  0.82726000  1.0
  H  H45  1  0.52472000  0.86281000  0.32727000  1.0
  H  H46  1  0.66187000  0.13706000  0.17274000  1.0
  H  H47  1  0.47526000  0.13717000  0.67272000  1.0
  Rh  Rh48  1  0.90182000  0.00006000  0.75000000  1.0
  Rh  Rh49  1  0.09817000  0.99994000  0.24999000  1.0
  Rh  Rh50  1  0.64883000  0.00008000  0.75000000  1.0
  Rh  Rh51  1  0.35118000  0.99992000  0.25000000  1.0
  C  C52  1  0.71433000  0.87327000  0.61902000  1.0
  C  C53  1  0.15883000  0.87307000  0.11900000  1.0
  C  C54  1  0.28566000  0.12672000  0.38098000  1.0
  C  C55  1  0.84117000  0.12693000  0.88100000  1.0
  C  C56  1  0.67728000  0.79265000  0.54628000  1.0
  C  C57  1  0.11519000  0.79243000  0.04627000  1.0
  C  C58  1  0.32270000  0.20735000  0.45372000  1.0
  C  C59  1  0.88481000  0.20757000  0.95373000  1.0
  C  C60  1  0.80028000  0.79219000  0.50741000  1.0
  C  C61  1  0.99177000  0.79204000  0.00743000  1.0
  C  C62  1  0.19971000  0.20780000  0.49259000  1.0
  C  C63  1  0.00824000  0.20796000  0.99257000  1.0
  C  C64  1  0.76572000  0.71459000  0.43956000  1.0
  C  C65  1  0.94873000  0.71450000  0.93958000  1.0
  C  C66  1  0.23426000  0.28539000  0.56044000  1.0
  C  C67  1  0.05128000  0.28551000  0.06042000  1.0
  C  C68  1  0.60805000  0.63555000  0.41036000  1.0
  C  C69  1  0.02738000  0.63551000  0.91034000  1.0
  C  C70  1  0.39194000  0.36446000  0.58964000  1.0
  C  C71  1  0.97262000  0.36449000  0.08966000  1.0
  C  C72  1  0.48549000  0.63607000  0.44890000  1.0
  C  C73  1  0.15041000  0.63593000  0.94887000  1.0
  C  C74  1  0.51449000  0.36394000  0.55110000  1.0
  C  C75  1  0.84960000  0.36408000  0.05113000  1.0
  C  C76  1  0.51983000  0.71501000  0.51651000  1.0
  C  C77  1  0.19499000  0.71476000  0.01648000  1.0
  C  C78  1  0.48016000  0.28500000  0.48349000  1.0
  C  C79  1  0.80502000  0.28524000  0.98352000  1.0
  C  C80  1  0.63466000  0.72332000  0.78573000  1.0
  C  C81  1  0.08854000  0.72325000  0.28573000  1.0
  C  C82  1  0.36534000  0.27667000  0.21428000  1.0
  C  C83  1  0.91146000  0.27675000  0.71427000  1.0
  C  C84  1  0.55639000  0.57147000  0.81031000  1.0
  C  C85  1  0.01495000  0.57137000  0.31030000  1.0
  C  C86  1  0.44361000  0.42854000  0.18969000  1.0
  C  C87  1  0.98505000  0.42862000  0.68970000  1.0
  C  C88  1  0.63851000  0.48797000  0.81439000  1.0
  C  C89  1  0.84934000  0.48790000  0.31439000  1.0
  C  C90  1  0.36149000  0.51203000  0.18562000  1.0
  C  C91  1  0.15066000  0.51209000  0.68561000  1.0
  C  C92  1  0.56941000  0.35245000  0.84314000  1.0
  C  C93  1  0.78294000  0.35238000  0.34311000  1.0
  C  C94  1  0.43059000  0.64755000  0.15687000  1.0
  C  C95  1  0.21707000  0.64761000  0.65688000  1.0
  C  C96  1  0.41785000  0.29959000  0.86769000  1.0
  C  C97  1  0.88164000  0.29949000  0.36763000  1.0
  C  C98  1  0.58215000  0.70041000  0.13232000  1.0
  C  C99  1  0.11836000  0.70050000  0.63236000  1.0
  C  C100  1  0.33256000  0.37869000  0.86124000  1.0
  C  C101  1  0.04604000  0.37861000  0.36122000  1.0
  C  C102  1  0.66744000  0.62131000  0.13877000  1.0
  C  C103  1  0.95396000  0.62139000  0.63877000  1.0
  C  C104  1  0.40166000  0.51438000  0.83268000  1.0
  C  C105  1  0.11261000  0.51428000  0.33266000  1.0
  C  C106  1  0.59834000  0.48562000  0.16732000  1.0
  C  C107  1  0.88739000  0.48572000  0.66733000  1.0
  C  C108  1  0.16441000  0.92468000  0.79287000  1.0
  C  C109  1  0.76013000  0.92456000  0.29288000  1.0
  C  C110  1  0.83558000  0.07533000  0.20713000  1.0
  C  C111  1  0.23986000  0.07543000  0.70711000  1.0
  C  C112  1  0.30933000  0.92451000  0.79283000  1.0
  C  C113  1  0.61507000  0.92436000  0.29283000  1.0
  C  C114  1  0.69066000  0.07550000  0.20718000  1.0
  C  C115  1  0.38492000  0.07563000  0.70717000  1.0
  N  N116  1  0.12895000  0.00005000  0.74999000  1.0
  N  N117  1  0.87104000  0.99994000  0.25001000  1.0
  N  N118  1  0.42038000  0.00007000  0.75000000  1.0
  N  N119  1  0.57961000  0.99993000  0.25000000  1.0
  O  O120  1  0.85123000  0.91024000  0.64767000  1.0
  O  O121  1  0.05892000  0.91010000  0.14766000  1.0
  O  O122  1  0.14875000  0.08975000  0.35233000  1.0
  O  O123  1  0.94108000  0.08990000  0.85234000  1.0
  O  O124  1  0.60728000  0.89854000  0.64826000  1.0
  O  O125  1  0.29114000  0.89832000  0.14825000  1.0
  O  O126  1  0.39271000  0.10146000  0.35174000  1.0
  O  O127  1  0.70886000  0.10167000  0.85175000  1.0
  O  O128  1  0.78348000  0.78159000  0.77507000  1.0
  O  O129  1  0.99799000  0.78149000  0.27506000  1.0
  O  O130  1  0.21652000  0.21841000  0.22493000  1.0
  O  O131  1  0.00201000  0.21851000  0.72493000  1.0
  O  O132  1  0.54779000  0.78695000  0.77835000  1.0
  O  O133  1  0.23904000  0.78685000  0.27838000  1.0
  O  O134  1  0.45221000  0.21304000  0.22165000  1.0
  O  O135  1  0.76095000  0.21315000  0.72162000  1.0
  O  O136  1  0.31955000  0.91522000  0.50756000  1.0
  O  O137  1  0.59563000  0.91524000  0.00761000  1.0
  O  O138  1  0.68047000  0.08473000  0.49243000  1.0
  O  O139  1  0.40446000  0.08479000  0.99243000  1.0
  O  O140  1  0.23434000  0.83011000  0.45510000  1.0
  O  O141  1  0.59585000  0.83016000  0.95517000  1.0
  O  O142  1  0.76563000  0.16991000  0.54489000  1.0
  O  O143  1  0.40422000  0.16987000  0.04487000  1.0
