# generated using pymatgen
data_CuH6(C5N6)2
_symmetry_space_group_name_H-M   'P 1'
_cell_length_a   6.98306000
_cell_length_b   9.48832000
_cell_length_c   9.70441000
_cell_angle_alpha   94.52350000
_cell_angle_beta   89.99880000
_cell_angle_gamma   89.99970000
_symmetry_Int_Tables_number   1
_chemical_formula_structural   CuH6(C5N6)2
_chemical_formula_sum   'Cu2 H12 C20 N24'
_cell_volume   640.98715258
_cell_formula_units_Z   2
loop_
 _symmetry_equiv_pos_site_id
 _symmetry_equiv_pos_as_xyz
  1  'x, y, z'
loop_
 _atom_site_type_symbol
 _atom_site_label
 _atom_site_symmetry_multiplicity
 _atom_site_fract_x
 _atom_site_fract_y
 _atom_site_fract_z
 _atom_site_occupancy
  Cu  Cu0  1  0.50001000  0.49998000  0.49999000  1.0
  Cu  Cu1  1  0.99999000  0.50000000  0.99999000  1.0
  H  H2  1  0.89892000  0.63834000  0.57278000  1.0
  H  H3  1  0.39895000  0.36167000  0.92722000  1.0
  H  H4  1  0.10110000  0.36165000  0.42721000  1.0
  H  H5  1  0.60104000  0.63833000  0.07276000  1.0
  H  H6  1  0.06455000  0.85705000  0.50103000  1.0
  H  H7  1  0.56459000  0.14295000  0.99902000  1.0
  H  H8  1  0.93544000  0.14296000  0.49899000  1.0
  H  H9  1  0.43540000  0.85705000  0.00098000  1.0
  H  H10  1  0.58892000  0.95211000  0.26505000  1.0
  H  H11  1  0.08891000  0.04791000  0.23493000  1.0
  H  H12  1  0.41110000  0.04788000  0.73495000  1.0
  H  H13  1  0.91109000  0.95210000  0.76508000  1.0
  C  C14  1  0.38610000  0.70335000  0.31982000  1.0
  C  C15  1  0.88610000  0.29664000  0.18020000  1.0
  C  C16  1  0.61393000  0.29664000  0.68019000  1.0
  C  C17  1  0.11390000  0.70337000  0.81979000  1.0
  C  C18  1  0.83192000  0.70797000  0.50270000  1.0
  C  C19  1  0.33193000  0.29204000  0.99733000  1.0
  C  C20  1  0.16807000  0.29202000  0.49731000  1.0
  C  C21  1  0.66807000  0.70797000  0.00266000  1.0
  C  C22  1  0.57012000  0.75779000  0.36858000  1.0
  C  C23  1  0.07011000  0.24224000  0.13144000  1.0
  C  C24  1  0.42988000  0.24222000  0.63142000  1.0
  C  C25  1  0.92990000  0.75777000  0.86857000  1.0
  C  C26  1  0.92202000  0.82939000  0.46165000  1.0
  C  C27  1  0.42201000  0.17063000  0.03838000  1.0
  C  C28  1  0.07797000  0.17060000  0.53836000  1.0
  C  C29  1  0.57798000  0.82937000  0.96162000  1.0
  C  C30  1  0.66101000  0.88105000  0.33180000  1.0
  C  C31  1  0.16099000  0.11897000  0.16822000  1.0
  C  C32  1  0.33899000  0.11895000  0.66822000  1.0
  C  C33  1  0.83900000  0.88104000  0.83179000  1.0
  N  N34  1  0.31818000  0.58720000  0.37605000  1.0
  N  N35  1  0.81817000  0.41279000  0.12396000  1.0
  N  N36  1  0.68182000  0.41279000  0.62395000  1.0
  N  N37  1  0.18183000  0.58722000  0.87603000  1.0
  N  N38  1  0.15910000  0.54944000  0.30765000  1.0
  N  N39  1  0.65909000  0.45057000  0.19235000  1.0
  N  N40  1  0.84089000  0.45056000  0.69235000  1.0
  N  N41  1  0.34091000  0.54944000  0.80764000  1.0
  N  N42  1  0.27194000  0.73864000  0.21717000  1.0
  N  N43  1  0.77189000  0.26138000  0.28285000  1.0
  N  N44  1  0.72806000  0.26135000  0.78283000  1.0
  N  N45  1  0.22812000  0.73863000  0.71714000  1.0
  N  N46  1  0.13138000  0.64054000  0.21210000  1.0
  N  N47  1  0.63134000  0.35949000  0.28791000  1.0
  N  N48  1  0.86861000  0.35946000  0.78790000  1.0
  N  N49  1  0.36866000  0.64052000  0.71208000  1.0
  N  N50  1  0.65800000  0.67277000  0.45511000  1.0
  N  N51  1  0.15802000  0.32725000  0.04490000  1.0
  N  N52  1  0.34199000  0.32721000  0.54489000  1.0
  N  N53  1  0.84199000  0.67276000  0.95511000  1.0
  N  N54  1  0.83723000  0.91554000  0.37740000  1.0
  N  N55  1  0.33725000  0.08448000  0.12260000  1.0
  N  N56  1  0.16275000  0.08445000  0.62260000  1.0
  N  N57  1  0.66274000  0.91553000  0.87740000  1.0
