# generated using pymatgen
data_Cd2H9C9NO12
_symmetry_space_group_name_H-M   'P 1'
_cell_length_a   8.30030000
_cell_length_b   8.69752000
_cell_length_c   11.07228503
_cell_angle_alpha   75.33771491
_cell_angle_beta   71.73506609
_cell_angle_gamma   66.61700000
_symmetry_Int_Tables_number   1
_chemical_formula_structural   Cd2H9C9NO12
_chemical_formula_sum   'Cd4 H18 C18 N2 O24'
_cell_volume   689.07770620
_cell_formula_units_Z   2
loop_
 _symmetry_equiv_pos_site_id
 _symmetry_equiv_pos_as_xyz
  1  'x, y, z'
loop_
 _atom_site_type_symbol
 _atom_site_label
 _atom_site_symmetry_multiplicity
 _atom_site_fract_x
 _atom_site_fract_y
 _atom_site_fract_z
 _atom_site_occupancy
  Cd  Cd0  1  0.09488000  0.80188000  0.09948000  1.0
  Cd  Cd1  1  0.90512000  0.19812000  0.90052000  1.0
  Cd  Cd2  1  0.74389000  0.42328000  0.41958000  1.0
  Cd  Cd3  1  0.25611000  0.57672000  0.58042000  1.0
  H  H4  1  0.73615000  0.02375000  0.20309000  1.0
  H  H5  1  0.26385000  0.97625000  0.79691000  1.0
  H  H6  1  0.75893000  0.85321000  0.30622000  1.0
  H  H7  1  0.24107000  0.14680000  0.69378000  1.0
  H  H8  1  0.77953000  0.06398000  0.38049000  1.0
  H  H9  1  0.22047000  0.93601000  0.61951000  1.0
  H  H10  1  0.66784000  0.10291000  0.52054000  1.0
  H  H11  1  0.33217000  0.89708000  0.47946000  1.0
  H  H12  1  0.03350000  0.15046000  0.50513000  1.0
  H  H13  1  0.96650000  0.84954000  0.49487000  1.0
  H  H14  1  0.90851000  0.27514000  0.60823000  1.0
  H  H15  1  0.09149000  0.72486000  0.39177000  1.0
  H  H16  1  0.63721000  0.68071000  0.57654000  1.0
  H  H17  1  0.36279000  0.31929000  0.42346000  1.0
  H  H18  1  0.82816000  0.68069000  0.48711000  1.0
  H  H19  1  0.17184000  0.31931000  0.51289000  1.0
  H  H20  1  0.44394000  0.12802000  0.87393000  1.0
  H  H21  1  0.55606000  0.87199000  0.12606000  1.0
  C  C22  1  0.41170000  0.68869000  0.83972000  1.0
  C  C23  1  0.58829000  0.31131000  0.16028000  1.0
  C  C24  1  0.36229000  0.53289000  0.90519000  1.0
  C  C25  1  0.63771000  0.46711000  0.09481000  1.0
  C  C26  1  0.44061000  0.38307000  0.85026000  1.0
  C  C27  1  0.55939000  0.61693000  0.14973000  1.0
  C  C28  1  0.58601000  0.36744000  0.72751000  1.0
  C  C29  1  0.41399000  0.63256000  0.27248000  1.0
  C  C30  1  0.38127000  0.24741000  0.91266000  1.0
  C  C31  1  0.61874000  0.75259000  0.08733000  1.0
  C  C32  1  0.24441000  0.26396000  0.02626000  1.0
  C  C33  1  0.75560000  0.73604000  0.97374000  1.0
  C  C34  1  0.19234000  0.11164000  0.09746000  1.0
  C  C35  1  0.80765000  0.88836000  0.90254000  1.0
  C  C36  1  0.17004000  0.41961000  0.07251000  1.0
  C  C37  1  0.82996000  0.58039000  0.92749000  1.0
  C  C38  1  0.01303000  0.45699000  0.18762000  1.0
  C  C39  1  0.98698000  0.54300000  0.81238000  1.0
  N  N40  1  0.23175000  0.54706000  0.01337000  1.0
  N  N41  1  0.76825000  0.45294000  0.98663000  1.0
  O  O42  1  0.34315000  0.81514000  0.90066000  1.0
  O  O43  1  0.65685000  0.18486000  0.09934000  1.0
  O  O44  1  0.51145000  0.68341000  0.72775000  1.0
  O  O45  1  0.48854000  0.31660000  0.27225000  1.0
  O  O46  1  0.53776000  0.39602000  0.62190000  1.0
  O  O47  1  0.46223000  0.60399000  0.37810000  1.0
  O  O48  1  0.74855000  0.31637000  0.73374000  1.0
  O  O49  1  0.25145000  0.68363000  0.26626000  1.0
  O  O50  1  0.09063000  0.07366000  0.05003000  1.0
  O  O51  1  0.90937000  0.92634000  0.94997000  1.0
  O  O52  1  0.26042000  0.02773000  0.18894000  1.0
  O  O53  1  0.73959000  0.97227000  0.81106000  1.0
  O  O54  1  0.93812000  0.34507000  0.23592000  1.0
  O  O55  1  0.06189000  0.65492000  0.76408000  1.0
  O  O56  1  0.96061000  0.59571000  0.22948000  1.0
  O  O57  1  0.03939000  0.40429000  0.77052000  1.0
  O  O58  1  0.81220000  0.94116000  0.26351000  1.0
  O  O59  1  0.18780000  0.05883000  0.73649000  1.0
  O  O60  1  0.77536000  0.11204000  0.45502000  1.0
  O  O61  1  0.22464000  0.88796000  0.54498000  1.0
  O  O62  1  0.99120000  0.26893000  0.51875000  1.0
  O  O63  1  0.00880000  0.73107000  0.48125000  1.0
  O  O64  1  0.71255000  0.67011000  0.48728000  1.0
  O  O65  1  0.28745000  0.32990000  0.51272000  1.0
