# generated using pymatgen
data_ErPH11C9SNO9
_symmetry_space_group_name_H-M   'P 1'
_cell_length_a   6.72306000
_cell_length_b   7.48505000
_cell_length_c   13.31450000
_cell_angle_alpha   90.62450000
_cell_angle_beta   93.13140000
_cell_angle_gamma   102.10300000
_symmetry_Int_Tables_number   1
_chemical_formula_structural   ErPH11C9SNO9
_chemical_formula_sum   'Er2 P2 H22 C18 S2 N2 O18'
_cell_volume   653.97549352
_cell_formula_units_Z   2
loop_
 _symmetry_equiv_pos_site_id
 _symmetry_equiv_pos_as_xyz
  1  'x, y, z'
loop_
 _atom_site_type_symbol
 _atom_site_label
 _atom_site_symmetry_multiplicity
 _atom_site_fract_x
 _atom_site_fract_y
 _atom_site_fract_z
 _atom_site_occupancy
  Er  Er0  1  0.28500000  0.76830000  0.45588000  1.0
  Er  Er1  1  0.71500000  0.23170000  0.54412000  1.0
  P  P2  1  0.25100000  0.38353000  0.61961000  1.0
  P  P3  1  0.74900000  0.61648000  0.38039000  1.0
  H  H4  1  0.16246000  0.10221000  0.77407000  1.0
  H  H5  1  0.83754000  0.89778000  0.22593000  1.0
  H  H6  1  0.16291000  0.12214000  0.96141000  1.0
  H  H7  1  0.83708000  0.87786000  0.03858000  1.0
  H  H8  1  0.21061000  0.31848000  0.12029000  1.0
  H  H9  1  0.78938000  0.68150000  0.87971000  1.0
  H  H10  1  0.27187000  0.62877000  0.19864000  1.0
  H  H11  1  0.72813000  0.37120000  0.80137000  1.0
  H  H12  1  0.33234000  0.90173000  0.09465000  1.0
  H  H13  1  0.66767000  0.09825000  0.90536000  1.0
  H  H14  1  0.33900000  0.87203000  0.90623000  1.0
  H  H15  1  0.66100000  0.12797000  0.09378000  1.0
  H  H16  1  0.31364000  0.67741000  0.76539000  1.0
  H  H17  1  0.68636000  0.32259000  0.23462000  1.0
  H  H18  1  0.02326000  0.41911000  0.38625000  1.0
  H  H19  1  0.97674000  0.58090000  0.61375000  1.0
  H  H20  1  0.23092000  0.39296000  0.34449000  1.0
  H  H21  1  0.76909000  0.60706000  0.65551000  1.0
  H  H22  1  0.23110000  0.91910000  0.64558000  1.0
  H  H23  1  0.76889000  0.08091000  0.35441000  1.0
  H  H24  1  0.10739000  0.03482000  0.57646000  1.0
  H  H25  1  0.89262000  0.96519000  0.42353000  1.0
  C  C26  1  0.23875000  0.39399000  0.75741000  1.0
  C  C27  1  0.76125000  0.60600000  0.24259000  1.0
  C  C28  1  0.19449000  0.23355000  0.81366000  1.0
  C  C29  1  0.80551000  0.76645000  0.18634000  1.0
  C  C30  1  0.19428000  0.24559000  0.91697000  1.0
  C  C31  1  0.80572000  0.75441000  0.08302000  1.0
  C  C32  1  0.23351000  0.41754000  0.96758000  1.0
  C  C33  1  0.76649000  0.58245000  0.03242000  1.0
  C  C34  1  0.23539000  0.43893000  0.07348000  1.0
  C  C35  1  0.76461000  0.56105000  0.92652000  1.0
  C  C36  1  0.27144000  0.61107000  0.11745000  1.0
  C  C37  1  0.72856000  0.38891000  0.88256000  1.0
  C  C38  1  0.30649000  0.76790000  0.05729000  1.0
  C  C39  1  0.69351000  0.23209000  0.94271000  1.0
  C  C40  1  0.30879000  0.75314000  0.95388000  1.0
  C  C41  1  0.69122000  0.24685000  0.04613000  1.0
  C  C42  1  0.27258000  0.57720000  0.90829000  1.0
  C  C43  1  0.72742000  0.42279000  0.09171000  1.0
  S  S44  1  0.39358000  0.07804000  0.31000000  1.0
  S  S45  1  0.60642000  0.92196000  0.69000000  1.0
  N  N46  1  0.27437000  0.55619000  0.80577000  1.0
  N  N47  1  0.72563000  0.44381000  0.19423000  1.0
  O  O48  1  0.25004000  0.57860000  0.58669000  1.0
  O  O49  1  0.74996000  0.42141000  0.41331000  1.0
  O  O50  1  0.44372000  0.31631000  0.60242000  1.0
  O  O51  1  0.55627000  0.68370000  0.39758000  1.0
  O  O52  1  0.05691000  0.24698000  0.58353000  1.0
  O  O53  1  0.94309000  0.75302000  0.41646000  1.0
  O  O54  1  0.26611000  0.89250000  0.28891000  1.0
  O  O55  1  0.73387000  0.10751000  0.71109000  1.0
  O  O56  1  0.43140000  0.08483000  0.42378000  1.0
  O  O57  1  0.56860000  0.91518000  0.57622000  1.0
  O  O58  1  0.29279000  0.22379000  0.27536000  1.0
  O  O59  1  0.70723000  0.77622000  0.72465000  1.0
  O  O60  1  0.59344000  0.09731000  0.26199000  1.0
  O  O61  1  0.40655000  0.90269000  0.73801000  1.0
  O  O62  1  0.15966000  0.48625000  0.37027000  1.0
  O  O63  1  0.84034000  0.51377000  0.62972000  1.0
  O  O64  1  0.14162000  0.91197000  0.58314000  1.0
  O  O65  1  0.85838000  0.08804000  0.41686000  1.0
