# generated using pymatgen
data_AlH6C10BrO5
_symmetry_space_group_name_H-M   'P 1'
_cell_length_a   6.68582000
_cell_length_b   17.30400000
_cell_length_c   19.56520000
_cell_angle_alpha   71.53400000
_cell_angle_beta   89.99870000
_cell_angle_gamma   89.99870000
_symmetry_Int_Tables_number   1
_chemical_formula_structural   AlH6C10BrO5
_chemical_formula_sum   'Al4 H24 C40 Br4 O20'
_cell_volume   2146.98103046
_cell_formula_units_Z   4
loop_
 _symmetry_equiv_pos_site_id
 _symmetry_equiv_pos_as_xyz
  1  'x, y, z'
loop_
 _atom_site_type_symbol
 _atom_site_label
 _atom_site_symmetry_multiplicity
 _atom_site_fract_x
 _atom_site_fract_y
 _atom_site_fract_z
 _atom_site_occupancy
  Al  Al0  1  0.99636000  0.50334000  0.50016000  1.0
  Al  Al1  1  0.00364000  0.00334000  0.00016000  1.0
  Al  Al2  1  0.49758000  0.50237000  0.50018000  1.0
  Al  Al3  1  0.50242000  0.00236000  0.00018000  1.0
  H  H4  1  0.14332000  0.37701000  0.19933000  1.0
  H  H5  1  0.85677000  0.87701000  0.69933000  1.0
  H  H6  1  0.12991000  0.46093000  0.28131000  1.0
  H  H7  1  0.87020000  0.96092000  0.78132000  1.0
  H  H8  1  0.35017000  0.17245000  0.37574000  1.0
  H  H9  1  0.64977000  0.67246000  0.87573000  1.0
  H  H10  1  0.55440000  0.09157000  0.17166000  1.0
  H  H11  1  0.44556000  0.59160000  0.67165000  1.0
  H  H12  1  0.95909000  0.17659000  0.10587000  1.0
  H  H13  1  0.04089000  0.67658000  0.60587000  1.0
  H  H14  1  0.96841000  0.25989000  0.18882000  1.0
  H  H15  1  0.03160000  0.75988000  0.68881000  1.0
  H  H16  1  0.94418000  0.30743000  0.69138000  1.0
  H  H17  1  0.05584000  0.80745000  0.19138000  1.0
  H  H18  1  0.40491000  0.30415000  0.69814000  1.0
  H  H19  1  0.59510000  0.80414000  0.19814000  1.0
  H  H20  1  0.94796000  0.19494000  0.80609000  1.0
  H  H21  1  0.05205000  0.69496000  0.30610000  1.0
  H  H22  1  0.40824000  0.20345000  0.79936000  1.0
  H  H23  1  0.59179000  0.70344000  0.29935000  1.0
  H  H24  1  0.74835000  0.40800000  0.48674000  1.0
  H  H25  1  0.25165000  0.90799000  0.98675000  1.0
  H  H26  1  0.24863000  0.60710000  0.45748000  1.0
  H  H27  1  0.75136000  0.10709000  0.95748000  1.0
  C  C28  1  0.74936000  0.61748000  0.38837000  1.0
  C  C29  1  0.25064000  0.11747000  0.88838000  1.0
  C  C30  1  0.74401000  0.58116000  0.58243000  1.0
  C  C31  1  0.25599000  0.08115000  0.08243000  1.0
  C  C32  1  0.24472000  0.39012000  0.61029000  1.0
  C  C33  1  0.75527000  0.89012000  0.11029000  1.0
  C  C34  1  0.24760000  0.41956000  0.42034000  1.0
  C  C35  1  0.75240000  0.91955000  0.92036000  1.0
  C  C36  1  0.18736000  0.35051000  0.25560000  1.0
  C  C37  1  0.81270000  0.85051000  0.75560000  1.0
  C  C38  1  0.18167000  0.39796000  0.30127000  1.0
  C  C39  1  0.81841000  0.89795000  0.80128000  1.0
  C  C40  1  0.24537000  0.36633000  0.37293000  1.0
  C  C41  1  0.75464000  0.86632000  0.87293000  1.0
  C  C42  1  0.30609000  0.28483000  0.39828000  1.0
  C  C43  1  0.69387000  0.78483000  0.89828000  1.0
  C  C44  1  0.30717000  0.23614000  0.35373000  1.0
  C  C45  1  0.69281000  0.73614000  0.85373000  1.0
  C  C46  1  0.25291000  0.26921000  0.28093000  1.0
  C  C47  1  0.74710000  0.76922000  0.78092000  1.0
  C  C48  1  0.42324000  0.17026000  0.22610000  1.0
  C  C49  1  0.57673000  0.67028000  0.72609000  1.0
  C  C50  1  0.42426000  0.12710000  0.17697000  1.0
  C  C51  1  0.57571000  0.62712000  0.67696000  1.0
  C  C52  1  0.25618000  0.12902000  0.13381000  1.0
  C  C53  1  0.74379000  0.62903000  0.63380000  1.0
  C  C54  1  0.09080000  0.17651000  0.13871000  1.0
  C  C55  1  0.90919000  0.67651000  0.63871000  1.0
  C  C56  1  0.09670000  0.22253000  0.18536000  1.0
  C  C57  1  0.90331000  0.72253000  0.68535000  1.0
  C  C58  1  0.26031000  0.21984000  0.23147000  1.0
  C  C59  1  0.73969000  0.71985000  0.73146000  1.0
  C  C60  1  0.08993000  0.28532000  0.71490000  1.0
  C  C61  1  0.91007000  0.78533000  0.21490000  1.0
  C  C62  1  0.25367000  0.32239000  0.67875000  1.0
  C  C63  1  0.74636000  0.82239000  0.17876000  1.0
  C  C64  1  0.09247000  0.21874000  0.78245000  1.0
  C  C65  1  0.90756000  0.71875000  0.28245000  1.0
  C  C66  1  0.25792000  0.18388000  0.81900000  1.0
  C  C67  1  0.74207000  0.68388000  0.31900000  1.0
  Br  Br68  1  0.38499000  0.23727000  0.49649000  1.0
  Br  Br69  1  0.61485000  0.73728000  0.99648000  1.0
  Br  Br70  1  0.65917000  0.16182000  0.28335000  1.0
  Br  Br71  1  0.34080000  0.66185000  0.78334000  1.0
  O  O72  1  0.57503000  0.55859000  0.56564000  1.0
  O  O73  1  0.42494000  0.05858000  0.06566000  1.0
  O  O74  1  0.92014000  0.59017000  0.41408000  1.0
  O  O75  1  0.07985000  0.09015000  0.91408000  1.0
  O  O76  1  0.07805000  0.43809000  0.43998000  1.0
  O  O77  1  0.92197000  0.93807000  0.94000000  1.0
  O  O78  1  0.91292000  0.56740000  0.55860000  1.0
  O  O79  1  0.08706000  0.06741000  0.05859000  1.0
  O  O80  1  0.07473000  0.41858000  0.58514000  1.0
  O  O81  1  0.92529000  0.91859000  0.08515000  1.0
  O  O82  1  0.57945000  0.59314000  0.41757000  1.0
  O  O83  1  0.42054000  0.09314000  0.91758000  1.0
  O  O84  1  0.74739000  0.45416000  0.50476000  1.0
  O  O85  1  0.25261000  0.95416000  0.00476000  1.0
  O  O86  1  0.41403000  0.41458000  0.58138000  1.0
  O  O87  1  0.58599000  0.91457000  0.08138000  1.0
  O  O88  1  0.41823000  0.44144000  0.43606000  1.0
  O  O89  1  0.58178000  0.94145000  0.93605000  1.0
  O  O90  1  0.24758000  0.55208000  0.49087000  1.0
  O  O91  1  0.75241000  0.05208000  0.99087000  1.0
