# generated using pymatgen
data_Cd3P2H32C50(N3O5)2
_symmetry_space_group_name_H-M   'P 1'
_cell_length_a   13.70630000
_cell_length_b   14.54510000
_cell_length_c   15.37040000
_cell_angle_alpha   103.67000000
_cell_angle_beta   92.86870000
_cell_angle_gamma   110.56900000
_symmetry_Int_Tables_number   1
_chemical_formula_structural   Cd3P2H32C50(N3O5)2
_chemical_formula_sum   'Cd6 P4 H64 C100 N12 O20'
_cell_volume   2757.63533075
_cell_formula_units_Z   2
loop_
 _symmetry_equiv_pos_site_id
 _symmetry_equiv_pos_as_xyz
  1  'x, y, z'
loop_
 _atom_site_type_symbol
 _atom_site_label
 _atom_site_symmetry_multiplicity
 _atom_site_fract_x
 _atom_site_fract_y
 _atom_site_fract_z
 _atom_site_occupancy
  Cd  Cd0  1  0.81812000  0.49683000  0.05147000  1.0
  Cd  Cd1  1  0.18188000  0.50317000  0.94854000  1.0
  Cd  Cd2  1  0.58394000  0.24343000  0.31528000  1.0
  Cd  Cd3  1  0.41606000  0.75657000  0.68472000  1.0
  Cd  Cd4  1  0.04573000  0.68025000  0.96293000  1.0
  Cd  Cd5  1  0.95427000  0.31976000  0.03707000  1.0
  P  P6  1  0.90877000  0.42582000  0.88106000  1.0
  P  P7  1  0.09123000  0.57418000  0.11895000  1.0
  P  P8  1  0.74846000  0.30675000  0.14649000  1.0
  P  P9  1  0.25154000  0.69324000  0.85350000  1.0
  H  H10  1  0.70400000  0.25874000  0.80779000  1.0
  H  H11  1  0.29601000  0.74127000  0.19221000  1.0
  H  H12  1  0.65759000  0.26774000  0.95825000  1.0
  H  H13  1  0.34241000  0.73226000  0.04175000  1.0
  H  H14  1  0.69180000  0.08997000  0.13587000  1.0
  H  H15  1  0.30819000  0.91003000  0.86413000  1.0
  H  H16  1  0.57469000  0.10747000  0.83086000  1.0
  H  H17  1  0.42531000  0.89252000  0.16914000  1.0
  H  H18  1  0.61316000  0.93119000  0.00691000  1.0
  H  H19  1  0.38684000  0.06881000  0.99309000  1.0
  H  H20  1  0.95136000  0.46946000  0.70966000  1.0
  H  H21  1  0.04865000  0.53055000  0.29034000  1.0
  H  H22  1  0.60100000  0.18508000  0.65085000  1.0
  H  H23  1  0.39901000  0.81493000  0.34915000  1.0
  H  H24  1  0.84850000  0.39237000  0.55299000  1.0
  H  H25  1  0.15151000  0.60763000  0.44701000  1.0
  H  H26  1  0.19693000  0.82380000  0.15272000  1.0
  H  H27  1  0.80307000  0.17620000  0.84728000  1.0
  H  H28  1  0.22234000  0.98407000  0.27286000  1.0
  H  H29  1  0.77766000  0.01593000  0.72713000  1.0
  H  H30  1  0.09782000  0.07431000  0.25982000  1.0
  H  H31  1  0.90219000  0.92570000  0.74017000  1.0
  H  H32  1  0.94102000  0.08082000  0.17199000  1.0
  H  H33  1  0.05898000  0.91918000  0.82801000  1.0
  H  H34  1  0.80098000  0.00506000  0.03961000  1.0
  H  H35  1  0.19902000  0.99495000  0.96039000  1.0
  H  H36  1  0.70436000  0.85936000  0.89752000  1.0
  H  H37  1  0.29563000  0.14064000  0.10248000  1.0
  H  H38  1  0.70163000  0.70386000  0.78734000  1.0
  H  H39  1  0.29837000  0.29614000  0.21267000  1.0
  H  H40  1  0.84113000  0.63256000  0.81286000  1.0
  H  H41  1  0.15886000  0.36744000  0.18715000  1.0
  H  H42  1  0.93051000  0.69525000  0.22923000  1.0
  H  H43  1  0.06949000  0.30475000  0.77077000  1.0
  H  H44  1  0.90289000  0.85250000  0.31792000  1.0
  H  H45  1  0.09711000  0.14750000  0.68208000  1.0
  H  H46  1  0.75305000  0.89331000  0.25881000  1.0
  H  H47  1  0.24694000  0.10668000  0.74120000  1.0
  H  H48  1  0.49678000  0.73677000  0.98852000  1.0
  H  H49  1  0.50322000  0.26324000  0.01148000  1.0
  H  H50  1  0.60269000  0.84973000  0.13594000  1.0
  H  H51  1  0.39732000  0.15027000  0.86405000  1.0
  H  H52  1  0.45020000  0.57902000  0.86440000  1.0
  H  H53  1  0.54980000  0.42098000  0.13560000  1.0
  H  H54  1  0.49369000  0.42625000  0.78943000  1.0
  H  H55  1  0.50630000  0.57374000  0.21058000  1.0
  H  H56  1  0.64421000  0.39910000  0.86257000  1.0
  H  H57  1  0.35579000  0.60090000  0.13744000  1.0
  H  H58  1  0.73334000  0.46949000  0.29688000  1.0
  H  H59  1  0.26666000  0.53051000  0.70312000  1.0
  H  H60  1  0.74274000  0.65141000  0.33142000  1.0
  H  H61  1  0.25726000  0.34859000  0.66858000  1.0
  H  H62  1  0.58777000  0.68994000  0.38691000  1.0
  H  H63  1  0.41223000  0.31006000  0.61309000  1.0
  H  H64  1  0.25299000  0.48230000  0.44524000  1.0
  H  H65  1  0.74700000  0.51770000  0.55476000  1.0
  H  H66  1  0.40634000  0.62469000  0.42481000  1.0
  H  H67  1  0.59366000  0.37531000  0.57519000  1.0
  H  H68  1  0.17187000  0.29683000  0.44570000  1.0
  H  H69  1  0.82813000  0.70316000  0.55430000  1.0
  H  H70  1  0.19281000  0.12868000  0.42760000  1.0
  H  H71  1  0.80719000  0.87131000  0.57239000  1.0
  H  H72  1  0.36255000  0.11355000  0.38197000  1.0
  H  H73  1  0.63745000  0.88645000  0.61803000  1.0
  C  C74  1  0.83355000  0.36924000  0.76890000  1.0
  C  C75  1  0.16646000  0.63077000  0.23109000  1.0
  C  C76  1  0.68214000  0.19004000  0.05511000  1.0
  C  C77  1  0.31786000  0.80996000  0.94489000  1.0
  C  C78  1  0.73526000  0.28855000  0.75195000  1.0
  C  C79  1  0.26475000  0.71146000  0.24805000  1.0
  C  C80  1  0.64748000  0.19376000  0.96894000  1.0
  C  C81  1  0.35252000  0.80624000  0.03107000  1.0
  C  C82  1  0.66911000  0.09435000  0.06829000  1.0
  C  C83  1  0.33089000  0.90564000  0.93171000  1.0
  C  C84  1  0.60269000  0.10530000  0.89780000  1.0
  C  C85  1  0.39731000  0.89469000  0.10220000  1.0
  C  C86  1  0.62542000  0.00593000  0.99684000  1.0
  C  C87  1  0.37458000  0.99407000  0.00316000  1.0
  C  C88  1  0.59265000  0.01039000  0.91069000  1.0
  C  C89  1  0.40735000  0.98960000  0.08931000  1.0
  C  C90  1  0.54393000  0.91471000  0.83444000  1.0
  C  C91  1  0.45607000  0.08528000  0.16556000  1.0
  C  C92  1  0.87472000  0.40681000  0.69680000  1.0
  C  C93  1  0.12529000  0.59320000  0.30320000  1.0
  C  C94  1  0.67808000  0.24699000  0.66501000  1.0
  C  C95  1  0.32193000  0.75301000  0.33499000  1.0
  C  C96  1  0.71864000  0.28495000  0.59335000  1.0
  C  C97  1  0.28137000  0.71505000  0.40665000  1.0
  C  C98  1  0.65197000  0.24584000  0.50110000  1.0
  C  C99  1  0.34804000  0.75415000  0.49890000  1.0
  C  C100  1  0.81787000  0.36439000  0.60984000  1.0
  C  C101  1  0.18214000  0.63562000  0.39016000  1.0
  C  C102  1  0.14512000  0.86544000  0.14974000  1.0
  C  C103  1  0.85488000  0.13456000  0.85025000  1.0
  C  C104  1  0.15792000  0.95480000  0.21702000  1.0
  C  C105  1  0.84209000  0.04520000  0.78298000  1.0
  C  C106  1  0.08932000  0.00401000  0.20951000  1.0
  C  C107  1  0.91069000  0.99600000  0.79048000  1.0
  C  C108  1  0.00781000  0.96391000  0.13510000  1.0
  C  C109  1  0.99219000  0.03610000  0.86490000  1.0
  C  C110  1  0.00143000  0.87371000  0.07002000  1.0
  C  C111  1  0.99857000  0.12630000  0.92998000  1.0
  C  C112  1  0.93389000  0.01047000  0.12233000  1.0
  C  C113  1  0.06611000  0.98953000  0.87767000  1.0
  C  C114  1  0.85636000  0.96864000  0.04919000  1.0
  C  C115  1  0.14364000  0.03137000  0.95081000  1.0
  C  C116  1  0.84635000  0.87692000  0.98285000  1.0
  C  C117  1  0.15365000  0.12309000  0.01715000  1.0
  C  C118  1  0.76614000  0.82980000  0.90712000  1.0
  C  C119  1  0.23385000  0.17020000  0.09288000  1.0
  C  C120  1  0.76360000  0.74224000  0.84542000  1.0
  C  C121  1  0.23639000  0.25776000  0.15458000  1.0
  C  C122  1  0.84079000  0.70211000  0.85910000  1.0
  C  C123  1  0.15920000  0.29788000  0.14091000  1.0
  C  C124  1  0.86596000  0.71616000  0.20761000  1.0
  C  C125  1  0.13404000  0.28383000  0.79239000  1.0
  C  C126  1  0.84989000  0.80350000  0.25600000  1.0
  C  C127  1  0.15011000  0.19650000  0.74400000  1.0
  C  C128  1  0.76746000  0.82591000  0.22330000  1.0
  C  C129  1  0.23254000  0.17408000  0.77670000  1.0
  C  C130  1  0.70155000  0.76173000  0.14179000  1.0
  C  C131  1  0.29845000  0.23827000  0.85822000  1.0
  C  C132  1  0.72354000  0.67489000  0.09776000  1.0
  C  C133  1  0.27646000  0.32511000  0.90224000  1.0
  C  C134  1  0.57728000  0.63095000  0.97547000  1.0
  C  C135  1  0.42272000  0.36905000  0.02453000  1.0
  C  C136  1  0.55857000  0.71982000  0.02090000  1.0
  C  C137  1  0.44144000  0.28018000  0.97910000  1.0
  C  C138  1  0.61759000  0.78219000  0.10160000  1.0
  C  C139  1  0.38241000  0.21781000  0.89840000  1.0
  C  C140  1  0.51569000  0.56380000  0.89313000  1.0
  C  C141  1  0.48430000  0.43620000  0.10688000  1.0
  C  C142  1  0.53933000  0.48016000  0.85252000  1.0
  C  C143  1  0.46066000  0.51984000  0.14748000  1.0
  C  C144  1  0.62318000  0.46378000  0.89402000  1.0
  C  C145  1  0.37681000  0.53622000  0.10598000  1.0
  C  C146  1  0.65951000  0.60756000  0.01327000  1.0
  C  C147  1  0.34049000  0.39244000  0.98673000  1.0
  C  C148  1  0.91989000  0.83003000  0.99209000  1.0
  C  C149  1  0.08010000  0.16998000  0.00790000  1.0
  C  C150  1  0.66959000  0.49080000  0.32334000  1.0
  C  C151  1  0.33041000  0.50920000  0.67667000  1.0
  C  C152  1  0.67327000  0.59169000  0.34170000  1.0
  C  C153  1  0.32673000  0.40831000  0.65830000  1.0
  C  C154  1  0.58812000  0.61283000  0.37178000  1.0
  C  C155  1  0.41188000  0.38717000  0.62822000  1.0
  C  C156  1  0.49902000  0.53279000  0.38333000  1.0
  C  C157  1  0.50098000  0.46721000  0.61667000  1.0
  C  C158  1  0.50350000  0.43405000  0.36540000  1.0
  C  C159  1  0.49650000  0.56595000  0.63460000  1.0
  C  C160  1  0.41600000  0.35119000  0.38090000  1.0
  C  C161  1  0.58400000  0.64881000  0.61910000  1.0
  C  C162  1  0.32535000  0.36927000  0.40910000  1.0
  C  C163  1  0.67465000  0.63073000  0.59091000  1.0
  C  C164  1  0.32253000  0.46912000  0.42320000  1.0
  C  C165  1  0.67747000  0.53088000  0.57680000  1.0
  C  C166  1  0.40687000  0.54802000  0.41183000  1.0
  C  C167  1  0.59313000  0.45198000  0.58817000  1.0
  C  C168  1  0.24281000  0.28608000  0.42432000  1.0
  C  C169  1  0.75719000  0.71392000  0.57568000  1.0
  C  C170  1  0.25426000  0.19347000  0.41427000  1.0
  C  C171  1  0.74574000  0.80653000  0.58573000  1.0
  C  C172  1  0.34793000  0.18371000  0.38786000  1.0
  C  C173  1  0.65207000  0.81629000  0.61214000  1.0
  N  N174  1  0.68085000  0.52481000  0.97233000  1.0
  N  N175  1  0.31915000  0.47519000  0.02767000  1.0
  N  N176  1  0.80396000  0.65395000  0.13156000  1.0
  N  N177  1  0.19603000  0.34605000  0.86844000  1.0
  N  N178  1  0.42496000  0.25973000  0.37042000  1.0
  N  N179  1  0.57504000  0.74027000  0.62958000  1.0
  N  N180  1  0.58746000  0.41498000  0.33564000  1.0
  N  N181  1  0.41254000  0.58502000  0.66437000  1.0
  N  N182  1  0.06968000  0.82694000  0.07864000  1.0
  N  N183  1  0.93032000  0.17307000  0.92135000  1.0
  N  N184  1  0.91641000  0.74516000  0.93037000  1.0
  N  N185  1  0.08358000  0.25484000  0.06963000  1.0
  O  O186  1  0.90470000  0.53341000  0.91623000  1.0
  O  O187  1  0.09530000  0.46660000  0.08378000  1.0
  O  O188  1  0.84981000  0.36167000  0.94392000  1.0
  O  O189  1  0.15018000  0.63834000  0.05608000  1.0
  O  O190  1  0.01831000  0.42380000  0.87189000  1.0
  O  O191  1  0.98169000  0.57620000  0.12811000  1.0
  O  O192  1  0.71755000  0.39069000  0.12009000  1.0
  O  O193  1  0.28245000  0.60930000  0.87991000  1.0
  O  O194  1  0.71500000  0.28835000  0.23533000  1.0
  O  O195  1  0.28500000  0.71165000  0.76467000  1.0
  O  O196  1  0.54807000  0.83193000  0.84389000  1.0
  O  O197  1  0.45193000  0.16806000  0.15611000  1.0
  O  O198  1  0.49917000  0.92291000  0.76256000  1.0
  O  O199  1  0.50083000  0.07709000  0.23744000  1.0
  O  O200  1  0.69899000  0.28003000  0.43815000  1.0
  O  O201  1  0.30102000  0.71997000  0.56185000  1.0
  O  O202  1  0.55672000  0.18922000  0.49302000  1.0
  O  O203  1  0.44328000  0.81078000  0.50698000  1.0
  O  O204  1  0.86757000  0.32809000  0.14873000  1.0
  O  O205  1  0.13243000  0.67190000  0.85127000  1.0
