# generated using pymatgen
data_CuMo4H24C18N2O13
_symmetry_space_group_name_H-M   'P 1'
_cell_length_a   10.90150000
_cell_length_b   11.98400000
_cell_length_c   12.87380000
_cell_angle_alpha   98.20870000
_cell_angle_beta   113.74900000
_cell_angle_gamma   111.69100000
_symmetry_Int_Tables_number   1
_chemical_formula_structural   CuMo4H24C18N2O13
_chemical_formula_sum   'Cu2 Mo8 H48 C36 N4 O26'
_cell_volume   1343.72791390
_cell_formula_units_Z   2
loop_
 _symmetry_equiv_pos_site_id
 _symmetry_equiv_pos_as_xyz
  1  'x, y, z'
loop_
 _atom_site_type_symbol
 _atom_site_label
 _atom_site_symmetry_multiplicity
 _atom_site_fract_x
 _atom_site_fract_y
 _atom_site_fract_z
 _atom_site_occupancy
  Cu  Cu0  1  0.53765000  0.37986000  0.94532000  1.0
  Cu  Cu1  1  0.46235000  0.62013000  0.05469000  1.0
  Mo  Mo2  1  0.86707000  0.65374000  0.11550000  1.0
  Mo  Mo3  1  0.13292000  0.34625000  0.88450000  1.0
  Mo  Mo4  1  0.07332000  0.65752000  0.98716000  1.0
  Mo  Mo5  1  0.92667000  0.34248000  0.01284000  1.0
  Mo  Mo6  1  0.15840000  0.64329000  0.32063000  1.0
  Mo  Mo7  1  0.84159000  0.35670000  0.67937000  1.0
  Mo  Mo8  1  0.70749000  0.50964000  0.79454000  1.0
  Mo  Mo9  1  0.29252000  0.49036000  0.20547000  1.0
  H  H10  1  0.66346000  0.46577000  0.21875000  1.0
  H  H11  1  0.33654000  0.53424000  0.78126000  1.0
  H  H12  1  0.59241000  0.36186000  0.35388000  1.0
  H  H13  1  0.40759000  0.63814000  0.64612000  1.0
  H  H14  1  0.28837000  0.01167000  0.04710000  1.0
  H  H15  1  0.71164000  0.98833000  0.95290000  1.0
  H  H16  1  0.20560000  0.92899000  0.86602000  1.0
  H  H17  1  0.79441000  0.07101000  0.13398000  1.0
  H  H18  1  0.19498000  0.00484000  0.54563000  1.0
  H  H19  1  0.80503000  0.99517000  0.45437000  1.0
  H  H20  1  0.39161000  0.22887000  0.67636000  1.0
  H  H21  1  0.60840000  0.77114000  0.32364000  1.0
  H  H22  1  0.38046000  0.26014000  0.39985000  1.0
  H  H23  1  0.61955000  0.73986000  0.60015000  1.0
  H  H24  1  0.54999000  0.24647000  0.46199000  1.0
  H  H25  1  0.45001000  0.75353000  0.53801000  1.0
  H  H26  1  0.38699000  0.13439000  0.45802000  1.0
  H  H27  1  0.61301000  0.86561000  0.54199000  1.0
  H  H28  1  0.41157000  0.94721000  0.21455000  1.0
  H  H29  1  0.58842000  0.05279000  0.78545000  1.0
  H  H30  1  0.39727000  0.94980000  0.34776000  1.0
  H  H31  1  0.60273000  0.05020000  0.65224000  1.0
  H  H32  1  0.56628000  0.06247000  0.35739000  1.0
  H  H33  1  0.43372000  0.93752000  0.64262000  1.0
  H  H34  1  0.05374000  0.80528000  0.44856000  1.0
  H  H35  1  0.94626000  0.19472000  0.55143000  1.0
  H  H36  1  0.91748000  0.84160000  0.46589000  1.0
  H  H37  1  0.08252000  0.15840000  0.53411000  1.0
  H  H38  1  0.89163000  0.68283000  0.43790000  1.0
  H  H39  1  0.10837000  0.31718000  0.56210000  1.0
  H  H40  1  0.85406000  0.66773000  0.60868000  1.0
  H  H41  1  0.14594000  0.33227000  0.39132000  1.0
  H  H42  1  0.98725000  0.77602000  0.75718000  1.0
  H  H43  1  0.01275000  0.22398000  0.24282000  1.0
  H  H44  1  0.88048000  0.82679000  0.64738000  1.0
  H  H45  1  0.11952000  0.17321000  0.35262000  1.0
  H  H46  1  0.05798000  0.62383000  0.59780000  1.0
  H  H47  1  0.94202000  0.37617000  0.40220000  1.0
  H  H48  1  0.22508000  0.74936000  0.61609000  1.0
  H  H49  1  0.77492000  0.25064000  0.38391000  1.0
  H  H50  1  0.19918000  0.73991000  0.74332000  1.0
  H  H51  1  0.80082000  0.26009000  0.25668000  1.0
  H  H52  1  0.14941000  0.09094000  0.19284000  1.0
  H  H53  1  0.85059000  0.90906000  0.80716000  1.0
  H  H54  1  0.15700000  0.95327000  0.12938000  1.0
  H  H55  1  0.84300000  0.04672000  0.87062000  1.0
  H  H56  1  0.16082000  0.97931000  0.26928000  1.0
  H  H57  1  0.83918000  0.02068000  0.73071000  1.0
  C  C58  1  0.57955000  0.36561000  0.18441000  1.0
  C  C59  1  0.42044000  0.63439000  0.81559000  1.0
  C  C60  1  0.53845000  0.30597000  0.25898000  1.0
  C  C61  1  0.46156000  0.69404000  0.74103000  1.0
  C  C62  1  0.42952000  0.17690000  0.21101000  1.0
  C  C63  1  0.57048000  0.82310000  0.78898000  1.0
  C  C64  1  0.37038000  0.11280000  0.08830000  1.0
  C  C65  1  0.62962000  0.88720000  0.91170000  1.0
  C  C66  1  0.41378000  0.17746000  0.01775000  1.0
  C  C67  1  0.58622000  0.82254000  0.98226000  1.0
  C  C68  1  0.35007000  0.11957000  0.88722000  1.0
  C  C69  1  0.64993000  0.88043000  0.11278000  1.0
  C  C70  1  0.24220000  0.99246000  0.81996000  1.0
  C  C71  1  0.75780000  0.00754000  0.18004000  1.0
  C  C72  1  0.17897000  0.94675000  0.69416000  1.0
  C  C73  1  0.82104000  0.05325000  0.30584000  1.0
  C  C74  1  0.23519000  0.03375000  0.64222000  1.0
  C  C75  1  0.76481000  0.96625000  0.35777000  1.0
  C  C76  1  0.34547000  0.15943000  0.71423000  1.0
  C  C77  1  0.65453000  0.84056000  0.28577000  1.0
  C  C78  1  0.37498000  0.10343000  0.28410000  1.0
  C  C79  1  0.62503000  0.89657000  0.71590000  1.0
  C  C80  1  0.44204000  0.00994000  0.30166000  1.0
  C  C81  1  0.55796000  0.99005000  0.69834000  1.0
  C  C82  1  0.20017000  0.02755000  0.21408000  1.0
  C  C83  1  0.79983000  0.97245000  0.78592000  1.0
  C  C84  1  0.42609000  0.19216000  0.40793000  1.0
  C  C85  1  0.57391000  0.80784000  0.59207000  1.0
  C  C86  1  0.05893000  0.80760000  0.62162000  1.0
  C  C87  1  0.94108000  0.19240000  0.37838000  1.0
  C  C88  1  0.97675000  0.78404000  0.48583000  1.0
  C  C89  1  0.02325000  0.21596000  0.51416000  1.0
  C  C90  1  0.93875000  0.76817000  0.66181000  1.0
  C  C91  1  0.06125000  0.23183000  0.33819000  1.0
  C  C92  1  0.14093000  0.72548000  0.64645000  1.0
  C  C93  1  0.85907000  0.27452000  0.35355000  1.0
  N  N94  1  0.51685000  0.30349000  0.06628000  1.0
  N  N95  1  0.48316000  0.69651000  0.93373000  1.0
  N  N96  1  0.40033000  0.20179000  0.83379000  1.0
  N  N97  1  0.59967000  0.79821000  0.16620000  1.0
  O  O98  1  0.66912000  0.55510000  0.05849000  1.0
  O  O99  1  0.33088000  0.44490000  0.94151000  1.0
  O  O100  1  0.89902000  0.80152000  0.18277000  1.0
  O  O101  1  0.10097000  0.19848000  0.81723000  1.0
  O  O102  1  0.94168000  0.59376000  0.24193000  1.0
  O  O103  1  0.05831000  0.40623000  0.75806000  1.0
  O  O104  1  0.17174000  0.56973000  0.42596000  1.0
  O  O105  1  0.82826000  0.43028000  0.57404000  1.0
  O  O106  1  0.23596000  0.80160000  0.40013000  1.0
  O  O107  1  0.76404000  0.19841000  0.59987000  1.0
  O  O108  1  0.32398000  0.64690000  0.29400000  1.0
  O  O109  1  0.67602000  0.35310000  0.70600000  1.0
  O  O110  1  0.65800000  0.58284000  0.69339000  1.0
  O  O111  1  0.34199000  0.41716000  0.30661000  1.0
  O  O112  1  0.55250000  0.44903000  0.82197000  1.0
  O  O113  1  0.44751000  0.55097000  0.17803000  1.0
  O  O114  1  0.18098000  0.79942000  0.98022000  1.0
  O  O115  1  0.81902000  0.20057000  0.01978000  1.0
  O  O116  1  0.92554000  0.54979000  0.82643000  1.0
  O  O117  1  0.07446000  0.45021000  0.17357000  1.0
  O  O118  1  0.18088000  0.57461000  0.01563000  1.0
  O  O119  1  0.81912000  0.42539000  0.98438000  1.0
  O  O120  1  0.85222000  0.65322000  0.95463000  1.0
  O  O121  1  0.14778000  0.34678000  0.04537000  1.0
  O  O122  1  0.08079000  0.69194000  0.13784000  1.0
  O  O123  1  0.91921000  0.30807000  0.86216000  1.0
