# generated using pymatgen
data_InAgH16C24(NO2)4
_symmetry_space_group_name_H-M   'P 1'
_cell_length_a   11.55760000
_cell_length_b   13.28640000
_cell_length_c   14.08428035
_cell_angle_alpha   79.74844387
_cell_angle_beta   65.83342400
_cell_angle_gamma   64.25890000
_symmetry_Int_Tables_number   1
_chemical_formula_structural   InAgH16C24(NO2)4
_chemical_formula_sum   'In2 Ag2 H32 C48 N8 O16'
_cell_volume   1777.40863767
_cell_formula_units_Z   2
loop_
 _symmetry_equiv_pos_site_id
 _symmetry_equiv_pos_as_xyz
  1  'x, y, z'
loop_
 _atom_site_type_symbol
 _atom_site_label
 _atom_site_symmetry_multiplicity
 _atom_site_fract_x
 _atom_site_fract_y
 _atom_site_fract_z
 _atom_site_occupancy
  In  In0  1  0.87541000  0.74981000  0.24973000  1.0
  In  In1  1  0.12458000  0.25019000  0.75027000  1.0
  Ag  Ag2  1  0.62439000  0.25017000  0.74992000  1.0
  Ag  Ag3  1  0.37560000  0.74983000  0.25008000  1.0
  H  H4  1  0.95670000  0.90183000  0.49715000  1.0
  H  H5  1  0.54656000  0.59833000  0.49660000  1.0
  H  H6  1  0.64154000  0.90176000  0.00289000  1.0
  H  H7  1  0.35570000  0.59807000  0.00303000  1.0
  H  H8  1  0.04330000  0.09817000  0.50286000  1.0
  H  H9  1  0.45345000  0.40167000  0.50338000  1.0
  H  H10  1  0.35845000  0.09824000  0.99711000  1.0
  H  H11  1  0.64431000  0.40193000  0.99696000  1.0
  H  H12  1  0.55068000  0.06266000  0.48162000  1.0
  H  H13  1  0.96756000  0.43707000  0.48228000  1.0
  H  H14  1  0.88672000  0.06307000  0.01796000  1.0
  H  H15  1  0.09529000  0.43707000  0.01766000  1.0
  H  H16  1  0.44932000  0.93733000  0.51838000  1.0
  H  H17  1  0.03243000  0.56293000  0.51772000  1.0
  H  H18  1  0.11327000  0.93693000  0.98204000  1.0
  H  H19  1  0.90472000  0.56293000  0.98234000  1.0
  H  H20  1  0.86804000  0.03247000  0.64435000  1.0
  H  H21  1  0.48763000  0.46778000  0.64373000  1.0
  H  H22  1  0.59906000  0.03252000  0.85589000  1.0
  H  H23  1  0.54470000  0.46762000  0.85575000  1.0
  H  H24  1  0.13195000  0.96754000  0.35565000  1.0
  H  H25  1  0.51237000  0.53222000  0.35626000  1.0
  H  H26  1  0.40093000  0.96749000  0.14412000  1.0
  H  H27  1  0.45530000  0.53238000  0.14425000  1.0
  H  H28  1  0.47971000  0.18827000  0.62572000  1.0
  H  H29  1  0.89395000  0.31162000  0.62628000  1.0
  H  H30  1  0.83152000  0.18883000  0.87411000  1.0
  H  H31  1  0.29386000  0.31167000  0.87356000  1.0
  H  H32  1  0.52029000  0.81173000  0.37427000  1.0
  H  H33  1  0.10605000  0.68838000  0.37372000  1.0
  H  H34  1  0.16848000  0.81117000  0.12589000  1.0
  H  H35  1  0.70614000  0.68833000  0.12644000  1.0
  C  C36  1  0.85066000  0.96466000  0.52401000  1.0
  C  C37  1  0.62551000  0.53544000  0.52372000  1.0
  C  C38  1  0.68465000  0.96468000  0.97599000  1.0
  C  C39  1  0.33943000  0.53520000  0.97600000  1.0
  C  C40  1  0.14934000  0.03534000  0.47599000  1.0
  C  C41  1  0.37449000  0.46455000  0.47627000  1.0
  C  C42  1  0.31534000  0.03531000  0.02402000  1.0
  C  C43  1  0.66058000  0.46480000  0.02399000  1.0
  C  C44  1  0.62479000  0.05424000  0.51447000  1.0
  C  C45  1  0.86064000  0.44560000  0.51483000  1.0
  C  C46  1  0.82097000  0.05453000  0.98523000  1.0
  C  C47  1  0.19371000  0.44559000  0.98499000  1.0
  C  C48  1  0.37521000  0.94576000  0.48553000  1.0
  C  C49  1  0.13937000  0.55440000  0.48516000  1.0
  C  C50  1  0.17902000  0.94547000  0.01478000  1.0
  C  C51  1  0.80629000  0.55441000  0.01501000  1.0
  C  C52  1  0.80173000  0.03678000  0.60512000  1.0
  C  C53  1  0.59311000  0.46336000  0.60475000  1.0
  C  C54  1  0.66112000  0.03691000  0.89503000  1.0
  C  C55  1  0.44362000  0.46320000  0.89488000  1.0
  C  C56  1  0.19827000  0.96323000  0.39488000  1.0
  C  C57  1  0.40689000  0.53664000  0.39524000  1.0
  C  C58  1  0.33887000  0.96310000  0.10498000  1.0
  C  C59  1  0.55638000  0.53680000  0.10512000  1.0
  C  C60  1  0.58464000  0.12409000  0.59525000  1.0
  C  C61  1  0.81975000  0.37584000  0.59556000  1.0
  C  C62  1  0.79094000  0.12448000  0.90459000  1.0
  C  C63  1  0.30410000  0.37585000  0.90422000  1.0
  C  C64  1  0.41535000  0.87591000  0.40475000  1.0
  C  C65  1  0.18026000  0.62416000  0.40443000  1.0
  C  C66  1  0.20907000  0.87551000  0.09541000  1.0
  C  C67  1  0.69591000  0.62415000  0.09578000  1.0
  C  C68  1  0.80785000  0.89495000  0.39216000  1.0
  C  C69  1  0.80049000  0.60478000  0.39218000  1.0
  C  C70  1  0.79778000  0.89505000  0.10740000  1.0
  C  C71  1  0.09532000  0.60475000  0.10743000  1.0
  C  C72  1  0.19216000  0.10504000  0.60784000  1.0
  C  C73  1  0.19952000  0.39522000  0.60781000  1.0
  C  C74  1  0.20221000  0.10495000  0.89260000  1.0
  C  C75  1  0.90469000  0.39525000  0.89257000  1.0
  C  C76  1  0.76044000  0.97322000  0.47750000  1.0
  C  C77  1  0.76223000  0.52667000  0.47755000  1.0
  C  C78  1  0.76652000  0.97333000  0.02224000  1.0
  C  C79  1  0.21137000  0.52658000  0.02219000  1.0
  C  C80  1  0.23954000  0.02678000  0.52251000  1.0
  C  C81  1  0.23778000  0.47332000  0.52244000  1.0
  C  C82  1  0.23347000  0.02667000  0.97776000  1.0
  C  C83  1  0.78863000  0.47342000  0.97782000  1.0
  N  N84  1  0.67141000  0.11585000  0.64003000  1.0
  N  N85  1  0.68825000  0.38425000  0.63991000  1.0
  N  N86  1  0.71222000  0.11615000  0.86002000  1.0
  N  N87  1  0.42728000  0.38418000  0.85973000  1.0
  N  N88  1  0.32858000  0.88416000  0.35997000  1.0
  N  N89  1  0.31175000  0.61576000  0.36008000  1.0
  N  N90  1  0.28777000  0.88385000  0.13999000  1.0
  N  N91  1  0.57272000  0.61582000  0.14028000  1.0
  O  O92  1  0.71554000  0.88257000  0.37287000  1.0
  O  O93  1  0.91216000  0.61696000  0.37295000  1.0
  O  O94  1  0.90245000  0.88280000  0.12661000  1.0
  O  O95  1  0.97145000  0.61708000  0.12661000  1.0
  O  O96  1  0.28446000  0.11742000  0.62714000  1.0
  O  O97  1  0.08784000  0.38304000  0.62705000  1.0
  O  O98  1  0.09754000  0.11720000  0.87340000  1.0
  O  O99  1  0.02856000  0.38292000  0.87339000  1.0
  O  O100  1  0.93650000  0.84134000  0.34197000  1.0
  O  O101  1  0.72205000  0.65847000  0.34187000  1.0
  O  O102  1  0.72295000  0.84118000  0.15761000  1.0
  O  O103  1  0.12012000  0.65842000  0.15773000  1.0
  O  O104  1  0.06351000  0.15866000  0.65803000  1.0
  O  O105  1  0.27797000  0.34153000  0.65812000  1.0
  O  O106  1  0.27706000  0.15882000  0.84239000  1.0
  O  O107  1  0.87988000  0.34158000  0.84227000  1.0
