# generated using pymatgen
data_CdPH10C3NO7
_symmetry_space_group_name_H-M   'P 1'
_cell_length_a   4.90813000
_cell_length_b   5.49263000
_cell_length_c   16.89060000
_cell_angle_alpha   93.16450000
_cell_angle_beta   90.01990000
_cell_angle_gamma   116.28500000
_symmetry_Int_Tables_number   1
_chemical_formula_structural   CdPH10C3NO7
_chemical_formula_sum   'Cd2 P2 H20 C6 N2 O14'
_cell_volume   407.48537373
_cell_formula_units_Z   2
loop_
 _symmetry_equiv_pos_site_id
 _symmetry_equiv_pos_as_xyz
  1  'x, y, z'
loop_
 _atom_site_type_symbol
 _atom_site_label
 _atom_site_symmetry_multiplicity
 _atom_site_fract_x
 _atom_site_fract_y
 _atom_site_fract_z
 _atom_site_occupancy
  Cd  Cd0  1  0.03601000  0.92424000  0.32405000  1.0
  Cd  Cd1  1  0.89248000  0.92520000  0.82334000  1.0
  P  P2  1  0.75165000  0.32026000  0.41679000  1.0
  P  P3  1  0.57281000  0.32157000  0.91589000  1.0
  H  H4  1  0.52831000  0.46875000  0.28426000  1.0
  H  H5  1  0.92992000  0.46416000  0.78186000  1.0
  H  H6  1  0.97637000  0.12658000  0.18681000  1.0
  H  H7  1  0.14304000  0.12754000  0.68577000  1.0
  H  H8  1  0.67996000  0.78281000  0.48567000  1.0
  H  H9  1  0.09865000  0.78104000  0.98600000  1.0
  H  H10  1  0.32607000  0.56460000  0.45779000  1.0
  H  H11  1  0.24299000  0.56825000  0.95783000  1.0
  H  H12  1  0.36139000  0.19160000  0.51697000  1.0
  H  H13  1  0.84015000  0.18834000  0.01381000  1.0
  H  H14  1  0.72799000  0.41770000  0.55921000  1.0
  H  H15  1  0.69264000  0.40658000  0.05867000  1.0
  H  H16  1  0.23227000  0.48025000  0.60455000  1.0
  H  H17  1  0.24800000  0.47982000  0.10469000  1.0
  H  H18  1  0.24679000  0.77897000  0.56583000  1.0
  H  H19  1  0.52951000  0.78001000  0.06665000  1.0
  H  H20  1  0.76212000  0.20385000  0.24271000  1.0
  H  H21  1  0.43457000  0.18837000  0.73937000  1.0
  H  H22  1  0.48469000  0.69483000  0.23470000  1.0
  H  H23  1  0.20469000  0.68856000  0.73377000  1.0
  C  C24  1  0.57397000  0.37317000  0.50758000  1.0
  C  C25  1  0.80367000  0.36896000  0.00623000  1.0
  C  C26  1  0.38243000  0.67028000  0.57812000  1.0
  C  C27  1  0.28591000  0.66995000  0.07840000  1.0
  C  C28  1  0.64315000  0.84757000  0.63594000  1.0
  C  C29  1  0.19779000  0.84517000  0.13609000  1.0
  N  N30  1  0.49465000  0.60464000  0.50206000  1.0
  N  N31  1  0.11067000  0.60420000  0.00192000  1.0
  O  O32  1  0.50812000  0.24717000  0.35066000  1.0
  O  O33  1  0.74129000  0.24851000  0.84909000  1.0
  O  O34  1  0.02922000  0.59539000  0.40515000  1.0
  O  O35  1  0.57213000  0.59904000  0.90546000  1.0
  O  O36  1  0.84410000  0.09357000  0.43123000  1.0
  O  O37  1  0.25479000  0.09642000  0.93027000  1.0
  O  O38  1  0.56522000  0.87606000  0.70653000  1.0
  O  O39  1  0.30608000  0.87596000  0.20656000  1.0
  O  O40  1  0.90911000  0.95718000  0.60997000  1.0
  O  O41  1  0.03656000  0.95126000  0.11020000  1.0
  O  O42  1  0.63059000  0.62181000  0.24932000  1.0
  O  O43  1  0.98517000  0.61797000  0.74673000  1.0
  O  O44  1  0.97127000  0.22830000  0.23765000  1.0
  O  O45  1  0.25647000  0.22442000  0.73645000  1.0
