# generated using pymatgen
data_ZnH12C18N2ClO2
_symmetry_space_group_name_H-M   'P 1'
_cell_length_a   9.70083000
_cell_length_b   10.28690000
_cell_length_c   10.28690000
_cell_angle_alpha   66.92150000
_cell_angle_beta   61.87010000
_cell_angle_gamma   61.87010000
_symmetry_Int_Tables_number   1
_chemical_formula_structural   ZnH12C18N2ClO2
_chemical_formula_sum   'Zn2 H24 C36 N4 Cl2 O4'
_cell_volume   779.11911941
_cell_formula_units_Z   2
loop_
 _symmetry_equiv_pos_site_id
 _symmetry_equiv_pos_as_xyz
  1  'x, y, z'
loop_
 _atom_site_type_symbol
 _atom_site_label
 _atom_site_symmetry_multiplicity
 _atom_site_fract_x
 _atom_site_fract_y
 _atom_site_fract_z
 _atom_site_occupancy
  Zn  Zn0  1  0.88818000  0.61182000  0.61182000  1.0
  Zn  Zn1  1  0.11182000  0.38819000  0.38818000  1.0
  H  H2  1  0.67641000  0.04291000  0.60427000  1.0
  H  H3  1  0.67641000  0.60427000  0.04291000  1.0
  H  H4  1  0.32359000  0.39572000  0.95709000  1.0
  H  H5  1  0.32359000  0.95709000  0.39573000  1.0
  H  H6  1  0.58832000  0.31808000  0.50528000  1.0
  H  H7  1  0.58832000  0.50528000  0.31808000  1.0
  H  H8  1  0.41168000  0.49472000  0.68192000  1.0
  H  H9  1  0.41168000  0.68192000  0.49472000  1.0
  H  H10  1  0.08658000  0.43095000  0.82210000  1.0
  H  H11  1  0.66034000  0.82209000  0.43095000  1.0
  H  H12  1  0.91342000  0.17790000  0.56905000  1.0
  H  H13  1  0.33966000  0.56905000  0.17791000  1.0
  H  H14  1  0.91342000  0.56905000  0.17790000  1.0
  H  H15  1  0.33966000  0.17791000  0.56905000  1.0
  H  H16  1  0.08658000  0.82210000  0.43095000  1.0
  H  H17  1  0.66034000  0.43095000  0.82209000  1.0
  H  H18  1  0.08041000  0.23073000  0.05548000  1.0
  H  H19  1  0.63338000  0.05548000  0.23073000  1.0
  H  H20  1  0.91958000  0.94452000  0.76927000  1.0
  H  H21  1  0.36662000  0.76927000  0.94452000  1.0
  H  H22  1  0.91958000  0.76927000  0.94452000  1.0
  H  H23  1  0.36662000  0.94452000  0.76927000  1.0
  H  H24  1  0.08042000  0.05548000  0.23073000  1.0
  H  H25  1  0.63338000  0.23073000  0.05548000  1.0
  C  C26  1  0.70557000  0.79446000  0.79446000  1.0
  C  C27  1  0.29443000  0.20554000  0.20554000  1.0
  C  C28  1  0.59966000  0.90033000  0.90033000  1.0
  C  C29  1  0.40034000  0.09967000  0.09967000  1.0
  C  C30  1  0.55097000  0.05722000  0.84086000  1.0
  C  C31  1  0.55097000  0.84086000  0.05722000  1.0
  C  C32  1  0.44903000  0.15914000  0.94278000  1.0
  C  C33  1  0.44903000  0.94278000  0.15914000  1.0
  C  C34  1  0.59937000  0.11939000  0.68194000  1.0
  C  C35  1  0.59937000  0.68194000  0.11939000  1.0
  C  C36  1  0.40063000  0.31806000  0.88061000  1.0
  C  C37  1  0.40063000  0.88061000  0.31806000  1.0
  C  C38  1  0.55023000  0.27279000  0.62676000  1.0
  C  C39  1  0.55023000  0.62676000  0.27279000  1.0
  C  C40  1  0.44977000  0.37324000  0.72721000  1.0
  C  C41  1  0.44977000  0.72721000  0.37324000  1.0
  C  C42  1  0.98859000  0.38264000  0.87795000  1.0
  C  C43  1  0.75080000  0.87792000  0.38262000  1.0
  C  C44  1  0.01141000  0.12205000  0.61736000  1.0
  C  C45  1  0.24921000  0.61738000  0.12207000  1.0
  C  C46  1  0.01141000  0.61736000  0.12206000  1.0
  C  C47  1  0.24920000  0.12207000  0.61738000  1.0
  C  C48  1  0.98859000  0.87795000  0.38264000  1.0
  C  C49  1  0.75079000  0.38262000  0.87792000  1.0
  C  C50  1  0.98517000  0.26855000  0.00789000  1.0
  C  C51  1  0.73840000  0.00786000  0.26855000  1.0
  C  C52  1  0.01483000  0.99211000  0.73145000  1.0
  C  C53  1  0.26160000  0.73145000  0.99214000  1.0
  C  C54  1  0.01483000  0.73145000  0.99211000  1.0
  C  C55  1  0.26160000  0.99214000  0.73145000  1.0
  C  C56  1  0.98517000  0.00789000  0.26855000  1.0
  C  C57  1  0.73840000  0.26855000  0.00786000  1.0
  C  C58  1  0.85970000  0.20567000  0.07491000  1.0
  C  C59  1  0.85970000  0.07492000  0.20568000  1.0
  C  C60  1  0.14030000  0.92508000  0.79432000  1.0
  C  C61  1  0.14029000  0.79433000  0.92509000  1.0
  N  N62  1  0.87519000  0.43772000  0.81185000  1.0
  N  N63  1  0.87519000  0.81185000  0.43772000  1.0
  N  N64  1  0.12481000  0.18815000  0.56228000  1.0
  N  N65  1  0.12481000  0.56228000  0.18815000  1.0
  Cl  Cl66  1  0.81055000  0.50000000  0.50000000  1.0
  Cl  Cl67  1  0.18945000  0.50000000  0.50000000  1.0
  O  O68  1  0.63273000  0.75176000  0.75176000  1.0
  O  O69  1  0.86381000  0.75174000  0.75174000  1.0
  O  O70  1  0.36727000  0.24824000  0.24824000  1.0
  O  O71  1  0.13620000  0.24826000  0.24826000  1.0
