# generated using pymatgen
data_CdH24C21(NO)4
_symmetry_space_group_name_H-M   'P 1'
_cell_length_a   8.14869000
_cell_length_b   10.47460000
_cell_length_c   12.01740000
_cell_angle_alpha   80.49840000
_cell_angle_beta   85.73020000
_cell_angle_gamma   83.92160000
_symmetry_Int_Tables_number   1
_chemical_formula_structural   CdH24C21(NO)4
_chemical_formula_sum   'Cd2 H48 C42 N8 O8'
_cell_volume   1004.27776457
_cell_formula_units_Z   2
loop_
 _symmetry_equiv_pos_site_id
 _symmetry_equiv_pos_as_xyz
  1  'x, y, z'
loop_
 _atom_site_type_symbol
 _atom_site_label
 _atom_site_symmetry_multiplicity
 _atom_site_fract_x
 _atom_site_fract_y
 _atom_site_fract_z
 _atom_site_occupancy
  Cd  Cd0  1  0.99091000  0.69510000  0.38800000  1.0
  Cd  Cd1  1  0.00909000  0.30490000  0.61200000  1.0
  H  H2  1  0.94269000  0.16796000  0.40423000  1.0
  H  H3  1  0.05731000  0.83204000  0.59577000  1.0
  H  H4  1  0.87842000  0.46570000  0.11394000  1.0
  H  H5  1  0.12158000  0.53430000  0.88606000  1.0
  H  H6  1  0.94537000  0.06174000  0.07374000  1.0
  H  H7  1  0.05463000  0.93826000  0.92626000  1.0
  H  H8  1  0.75432000  0.30647000  0.93718000  1.0
  H  H9  1  0.24568000  0.69353000  0.06282000  1.0
  H  H10  1  0.95624000  0.23832000  0.90356000  1.0
  H  H11  1  0.04377000  0.76168000  0.09644000  1.0
  H  H12  1  0.91998000  0.40447000  0.92084000  1.0
  H  H13  1  0.08002000  0.59553000  0.07916000  1.0
  H  H14  1  0.80205000  0.91089000  0.56205000  1.0
  H  H15  1  0.19795000  0.08911000  0.43795000  1.0
  H  H16  1  0.59123000  0.61412000  0.43669000  1.0
  H  H17  1  0.40877000  0.38587000  0.56331000  1.0
  H  H18  1  0.35020000  0.74185000  0.56468000  1.0
  H  H19  1  0.64980000  0.25816000  0.43532000  1.0
  H  H20  1  0.36136000  0.97631000  0.64165000  1.0
  H  H21  1  0.63863000  0.02369000  0.35835000  1.0
  H  H22  1  0.56382000  0.01303000  0.66054000  1.0
  H  H23  1  0.43618000  0.98697000  0.33946000  1.0
  H  H24  1  0.41734000  0.92835000  0.84247000  1.0
  H  H25  1  0.58267000  0.07165000  0.15753000  1.0
  H  H26  1  0.38450000  0.78541000  0.79231000  1.0
  H  H27  1  0.61550000  0.21459000  0.20769000  1.0
  H  H28  1  0.72952000  0.86544000  0.82025000  1.0
  H  H29  1  0.27048000  0.13456000  0.17975000  1.0
  H  H30  1  0.68749000  0.72170000  0.77606000  1.0
  H  H31  1  0.31250000  0.27830000  0.22394000  1.0
  H  H32  1  0.52769000  0.66232000  0.96784000  1.0
  H  H33  1  0.47231000  0.33768000  0.03216000  1.0
  H  H34  1  0.74436000  0.66098000  0.96836000  1.0
  H  H35  1  0.25564000  0.33902000  0.03164000  1.0
  H  H36  1  0.49383000  0.88221000  0.03111000  1.0
  H  H37  1  0.50617000  0.11778000  0.96889000  1.0
  H  H38  1  0.71058000  0.88689000  0.01766000  1.0
  H  H39  1  0.28942000  0.11311000  0.98234000  1.0
  H  H40  1  0.74018000  0.68732000  0.17016000  1.0
  H  H41  1  0.25982000  0.31268000  0.82984000  1.0
  H  H42  1  0.64782000  0.83088000  0.21350000  1.0
  H  H43  1  0.35218000  0.16912000  0.78650000  1.0
  H  H44  1  0.32271000  0.84649000  0.26147000  1.0
  H  H45  1  0.67729000  0.15351000  0.73853000  1.0
  H  H46  1  0.57745000  0.48969000  0.19821000  1.0
  H  H47  1  0.42255000  0.51030000  0.80179000  1.0
  H  H48  1  0.27208000  0.44525000  0.31212000  1.0
  H  H49  1  0.72792000  0.55475000  0.68787000  1.0
  C  C50  1  0.95163000  0.10157000  0.24302000  1.0
  C  C51  1  0.04837000  0.89844000  0.75698000  1.0
  C  C52  1  0.93541000  0.19674000  0.31316000  1.0
  C  C53  1  0.06460000  0.80327000  0.68684000  1.0
  C  C54  1  0.90843000  0.32801000  0.26622000  1.0
  C  C55  1  0.09157000  0.67200000  0.73378000  1.0
  C  C56  1  0.89726000  0.36269000  0.14905000  1.0
  C  C57  1  0.10275000  0.63730000  0.85095000  1.0
  C  C58  1  0.90892000  0.26869000  0.07771000  1.0
  C  C59  1  0.09109000  0.73131000  0.92229000  1.0
  C  C60  1  0.93649000  0.13790000  0.12649000  1.0
  C  C61  1  0.06351000  0.86210000  0.87351000  1.0
  C  C62  1  0.98219000  0.96063000  0.29265000  1.0
  C  C63  1  0.01780000  0.03937000  0.70735000  1.0
  C  C64  1  0.89594000  0.43167000  0.34042000  1.0
  C  C65  1  0.10407000  0.56833000  0.65958000  1.0
  C  C66  1  0.88551000  0.30631000  0.95360000  1.0
  C  C67  1  0.11449000  0.69369000  0.04640000  1.0
  C  C68  1  0.71572000  0.84477000  0.54499000  1.0
  C  C69  1  0.28428000  0.15523000  0.45501000  1.0
  C  C70  1  0.59977000  0.69476000  0.48143000  1.0
  C  C71  1  0.40022000  0.30524000  0.51857000  1.0
  C  C72  1  0.47957000  0.75670000  0.54541000  1.0
  C  C73  1  0.52042000  0.24329000  0.45459000  1.0
  C  C74  1  0.48426000  0.93340000  0.66725000  1.0
  C  C75  1  0.51574000  0.06660000  0.33275000  1.0
  C  C76  1  0.47298000  0.85868000  0.78787000  1.0
  C  C77  1  0.52702000  0.14132000  0.21213000  1.0
  C  C78  1  0.63816000  0.79349000  0.83013000  1.0
  C  C79  1  0.36184000  0.20651000  0.16986000  1.0
  C  C80  1  0.62968000  0.72564000  0.95339000  1.0
  C  C81  1  0.37032000  0.27436000  0.04661000  1.0
  C  C82  1  0.61213000  0.82076000  0.03836000  1.0
  C  C83  1  0.38787000  0.17924000  0.96164000  1.0
  C  C84  1  0.63024000  0.75750000  0.16125000  1.0
  C  C85  1  0.36976000  0.24250000  0.83875000  1.0
  C  C86  1  0.34833000  0.74326000  0.25939000  1.0
  C  C87  1  0.65167000  0.25674000  0.74060000  1.0
  C  C88  1  0.47778000  0.55573000  0.22681000  1.0
  C  C89  1  0.52222000  0.44426000  0.77319000  1.0
  C  C90  1  0.32729000  0.53544000  0.28347000  1.0
  C  C91  1  0.67271000  0.46456000  0.71652000  1.0
  N  N92  1  0.74623000  0.75023000  0.48195000  1.0
  N  N93  1  0.25377000  0.24977000  0.51805000  1.0
  N  N94  1  0.55519000  0.85125000  0.58510000  1.0
  N  N95  1  0.44481000  0.14875000  0.41490000  1.0
  N  N96  1  0.24832000  0.65312000  0.30330000  1.0
  N  N97  1  0.75168000  0.34688000  0.69670000  1.0
  N  N98  1  0.48909000  0.68838000  0.21200000  1.0
  N  N99  1  0.51092000  0.31162000  0.78800000  1.0
  O  O100  1  0.06113000  0.92995000  0.38245000  1.0
  O  O101  1  0.93885000  0.07006000  0.61756000  1.0
  O  O102  1  0.92531000  0.87815000  0.24204000  1.0
  O  O103  1  0.07470000  0.12185000  0.75796000  1.0
  O  O104  1  0.88103000  0.39905000  0.44676000  1.0
  O  O105  1  0.11897000  0.60095000  0.55324000  1.0
  O  O106  1  0.90033000  0.54867000  0.28968000  1.0
  O  O107  1  0.09968000  0.45133000  0.71032000  1.0
