# generated using pymatgen
data_Zn4H16C40O13
_symmetry_space_group_name_H-M   'P 1'
_cell_length_a   25.70130000
_cell_length_b   25.70130000
_cell_length_c   26.96472675
_cell_angle_alpha   118.45414009
_cell_angle_beta   118.45957710
_cell_angle_gamma   90.00910000
_symmetry_Int_Tables_number   1
_chemical_formula_structural   Zn4H16C40O13
_chemical_formula_sum   'Zn8 H32 C80 O26'
_cell_volume   13159.35499928
_cell_formula_units_Z   2
loop_
 _symmetry_equiv_pos_site_id
 _symmetry_equiv_pos_as_xyz
  1  'x, y, z'
loop_
 _atom_site_type_symbol
 _atom_site_label
 _atom_site_symmetry_multiplicity
 _atom_site_fract_x
 _atom_site_fract_y
 _atom_site_fract_z
 _atom_site_occupancy
  Zn  Zn0  1  0.72119000  0.15903000  0.44235000  1.0
  Zn  Zn1  1  0.27881000  0.84097000  0.55765000  1.0
  Zn  Zn2  1  0.28332000  0.72116000  0.44235000  1.0
  Zn  Zn3  1  0.71668000  0.27884000  0.55765000  1.0
  Zn  Zn4  1  0.72116000  0.28331000  0.44233000  1.0
  Zn  Zn5  1  0.27884000  0.71669000  0.55767000  1.0
  Zn  Zn6  1  0.15902000  0.72117000  0.44233000  1.0
  Zn  Zn7  1  0.84098000  0.27883000  0.55767000  1.0
  H  H8  1  0.38226000  0.79871000  0.76450000  1.0
  H  H9  1  0.61774000  0.20129000  0.23550000  1.0
  H  H10  1  0.96579000  0.38224000  0.76450000  1.0
  H  H11  1  0.03421000  0.61776000  0.23550000  1.0
  H  H12  1  0.38225000  0.96579000  0.76450000  1.0
  H  H13  1  0.61775000  0.03421000  0.23550000  1.0
  H  H14  1  0.79871000  0.38226000  0.76450000  1.0
  H  H15  1  0.20129000  0.61774000  0.23550000  1.0
  H  H16  1  0.04584000  0.11448000  0.57756000  1.0
  H  H17  1  0.95415000  0.88552000  0.42244000  1.0
  H  H18  1  0.46314000  0.04584000  0.57761000  1.0
  H  H19  1  0.53686000  0.95416000  0.42239000  1.0
  H  H20  1  0.53174000  0.46310000  0.57759000  1.0
  H  H21  1  0.46826000  0.53690000  0.42241000  1.0
  H  H22  1  0.11447000  0.53177000  0.57761000  1.0
  H  H23  1  0.88553000  0.46823000  0.42239000  1.0
  H  H24  1  0.46823000  0.88553000  0.42239000  1.0
  H  H25  1  0.53177000  0.11447000  0.57761000  1.0
  H  H26  1  0.88551000  0.95415000  0.42243000  1.0
  H  H27  1  0.11449000  0.04585000  0.57757000  1.0
  H  H28  1  0.95416000  0.53686000  0.42239000  1.0
  H  H29  1  0.04584000  0.46314000  0.57761000  1.0
  H  H30  1  0.53689000  0.46826000  0.42241000  1.0
  H  H31  1  0.46311000  0.53174000  0.57759000  1.0
  H  H32  1  0.44498000  0.86103000  0.88994000  1.0
  H  H33  1  0.55502000  0.13897000  0.11006000  1.0
  H  H34  1  0.02891000  0.44496000  0.88994000  1.0
  H  H35  1  0.97109000  0.55504000  0.11006000  1.0
  H  H36  1  0.44496000  0.02892000  0.88994000  1.0
  H  H37  1  0.55504000  0.97108000  0.11006000  1.0
  H  H38  1  0.86102000  0.44498000  0.88994000  1.0
  H  H39  1  0.13898000  0.55502000  0.11006000  1.0
  C  C40  1  0.07763000  0.92237000  0.50000000  1.0
  C  C41  1  0.42234000  0.92234000  0.50000000  1.0
  C  C42  1  0.01532000  0.51535000  0.03066000  1.0
  C  C43  1  0.48469000  0.98466000  0.96934000  1.0
  C  C44  1  0.51531000  0.01534000  0.03066000  1.0
  C  C45  1  0.98468000  0.48465000  0.96934000  1.0
  C  C46  1  0.84118000  0.34118000  0.68238000  1.0
  C  C47  1  0.15882000  0.65882000  0.31762000  1.0
  C  C48  1  0.34120000  0.84120000  0.68238000  1.0
  C  C49  1  0.65880000  0.15880000  0.31762000  1.0
  C  C50  1  0.65076000  0.15076000  0.50000000  1.0
  C  C51  1  0.34924000  0.84924000  0.50000000  1.0
  C  C52  1  0.34927000  0.65074000  0.50001000  1.0
  C  C53  1  0.65073000  0.34926000  0.49999000  1.0
  C  C54  1  0.84925000  0.34925000  0.50000000  1.0
  C  C55  1  0.15075000  0.65075000  0.50000000  1.0
  C  C56  1  0.15073000  0.84926000  0.49999000  1.0
  C  C57  1  0.92236000  0.07763000  0.50000000  1.0
  C  C58  1  0.84927000  0.15074000  0.50001000  1.0
  C  C59  1  0.06436000  0.02623000  0.54383000  1.0
  C  C60  1  0.92235000  0.42235000  0.50000000  1.0
  C  C61  1  0.93564000  0.97377000  0.45617000  1.0
  C  C62  1  0.51762000  0.06436000  0.54383000  1.0
  C  C63  1  0.48238000  0.93564000  0.45617000  1.0
  C  C64  1  0.47948000  0.51762000  0.54384000  1.0
  C  C65  1  0.52052000  0.48238000  0.45616000  1.0
  C  C66  1  0.02621000  0.47948000  0.54384000  1.0
  C  C67  1  0.97379000  0.52052000  0.45616000  1.0
  C  C68  1  0.52053000  0.97379000  0.45617000  1.0
  C  C69  1  0.47947000  0.02621000  0.54383000  1.0
  C  C70  1  0.97377000  0.93564000  0.45617000  1.0
  C  C71  1  0.07765000  0.57765000  0.50000000  1.0
  C  C72  1  0.02623000  0.06436000  0.54383000  1.0
  C  C73  1  0.93564000  0.48237000  0.45616000  1.0
  C  C74  1  0.06436000  0.51763000  0.54384000  1.0
  C  C75  1  0.48238000  0.52052000  0.45615000  1.0
  C  C76  1  0.51762000  0.47948000  0.54385000  1.0
  C  C77  1  0.42237000  0.57763000  0.50000000  1.0
  C  C78  1  0.57763000  0.42237000  0.50000000  1.0
  C  C79  1  0.03872000  0.96129000  0.50000000  1.0
  C  C80  1  0.96128000  0.03871000  0.50000000  1.0
  C  C81  1  0.53873000  0.03873000  0.50000000  1.0
  C  C82  1  0.46127000  0.96127000  0.50000000  1.0
  C  C83  1  0.46129000  0.53872000  0.50000000  1.0
  C  C84  1  0.53871000  0.46128000  0.50000000  1.0
  C  C85  1  0.96128000  0.46128000  0.50000000  1.0
  C  C86  1  0.03872000  0.53872000  0.50000000  1.0
  C  C87  1  0.57766000  0.07766000  0.50000000  1.0
  C  C88  1  0.43115000  0.88379000  0.86230000  1.0
  C  C89  1  0.56885000  0.11621000  0.13770000  1.0
  C  C90  1  0.97851000  0.43115000  0.86230000  1.0
  C  C91  1  0.02149000  0.56885000  0.13770000  1.0
  C  C92  1  0.43116000  0.97852000  0.86230000  1.0
  C  C93  1  0.56884000  0.02148000  0.13770000  1.0
  C  C94  1  0.88378000  0.43114000  0.86230000  1.0
  C  C95  1  0.11622000  0.56886000  0.13770000  1.0
  C  C96  1  0.88884000  0.11115000  0.49999000  1.0
  C  C97  1  0.11116000  0.88885000  0.50001000  1.0
  C  C98  1  0.38882000  0.88882000  0.50000000  1.0
  C  C99  1  0.61118000  0.11118000  0.50000000  1.0
  C  C100  1  0.61116000  0.38885000  0.50001000  1.0
  C  C101  1  0.38884000  0.61115000  0.49999000  1.0
  C  C102  1  0.11117000  0.61118000  0.50000000  1.0
  C  C103  1  0.88883000  0.38882000  0.50000000  1.0
  C  C104  1  0.37862000  0.87860000  0.75720000  1.0
  C  C105  1  0.62138000  0.12140000  0.24280000  1.0
  C  C106  1  0.87860000  0.37858000  0.75720000  1.0
  C  C107  1  0.12140000  0.62142000  0.24280000  1.0
  C  C108  1  0.39633000  0.84910000  0.79264000  1.0
  C  C109  1  0.60367000  0.15090000  0.20736000  1.0
  C  C110  1  0.94353000  0.39631000  0.79264000  1.0
  C  C111  1  0.05647000  0.60369000  0.20736000  1.0
  C  C112  1  0.39633000  0.94353000  0.79264000  1.0
  C  C113  1  0.60367000  0.05647000  0.20736000  1.0
  C  C114  1  0.84911000  0.39631000  0.79264000  1.0
  C  C115  1  0.15089000  0.60369000  0.20736000  1.0
  C  C116  1  0.44919000  0.94918000  0.89836000  1.0
  C  C117  1  0.55081000  0.05082000  0.10164000  1.0
  C  C118  1  0.94918000  0.44917000  0.89836000  1.0
  C  C119  1  0.05082000  0.55083000  0.10164000  1.0
  O  O120  1  0.75001000  0.25001000  0.50000000  1.0
  O  O121  1  0.21770000  0.67337000  0.34673000  1.0
  O  O122  1  0.32665000  0.78232000  0.65327000  1.0
  O  O123  1  0.67335000  0.21768000  0.34673000  1.0
  O  O124  1  0.87096000  0.32662000  0.65327000  1.0
  O  O125  1  0.12904000  0.67338000  0.34673000  1.0
  O  O126  1  0.32664000  0.87097000  0.65327000  1.0
  O  O127  1  0.67336000  0.12903000  0.34673000  1.0
  O  O128  1  0.78230000  0.32663000  0.65327000  1.0
  O  O129  1  0.24999000  0.74999000  0.50000000  1.0
  O  O130  1  0.66462000  0.20890000  0.54093000  1.0
  O  O131  1  0.33538000  0.79110000  0.45907000  1.0
  O  O132  1  0.33204000  0.66460000  0.54093000  1.0
  O  O133  1  0.66796000  0.33540000  0.45907000  1.0
  O  O134  1  0.87632000  0.33203000  0.54092000  1.0
  O  O135  1  0.12368000  0.66798000  0.45908000  1.0
  O  O136  1  0.20888000  0.87632000  0.54091000  1.0
  O  O137  1  0.79112000  0.12368000  0.45909000  1.0
  O  O138  1  0.12367000  0.79111000  0.45907000  1.0
  O  O139  1  0.87633000  0.20889000  0.54093000  1.0
  O  O140  1  0.79111000  0.33540000  0.45908000  1.0
  O  O141  1  0.20889000  0.66460000  0.54092000  1.0
  O  O142  1  0.33541000  0.66797000  0.45909000  1.0
  O  O143  1  0.66459000  0.33203000  0.54091000  1.0
  O  O144  1  0.66797000  0.12369000  0.45907000  1.0
  O  O145  1  0.33203000  0.87631000  0.54093000  1.0
