# generated using pymatgen
data_GdH5(C3O2)3
_symmetry_space_group_name_H-M   'P 1'
_cell_length_a   6.63278000
_cell_length_b   10.69940000
_cell_length_c   12.97860000
_cell_angle_alpha   90.00000000
_cell_angle_beta   90.00000000
_cell_angle_gamma   95.15300000
_symmetry_Int_Tables_number   1
_chemical_formula_structural   GdH5(C3O2)3
_chemical_formula_sum   'Gd4 H20 C36 O24'
_cell_volume   917.32676987
_cell_formula_units_Z   4
loop_
 _symmetry_equiv_pos_site_id
 _symmetry_equiv_pos_as_xyz
  1  'x, y, z'
loop_
 _atom_site_type_symbol
 _atom_site_label
 _atom_site_symmetry_multiplicity
 _atom_site_fract_x
 _atom_site_fract_y
 _atom_site_fract_z
 _atom_site_occupancy
  Gd  Gd0  1  0.89787000  0.57496000  0.37327000  1.0
  Gd  Gd1  1  0.60212000  0.42504000  0.87327000  1.0
  Gd  Gd2  1  0.10212000  0.42504000  0.62673000  1.0
  Gd  Gd3  1  0.39787000  0.57496000  0.12673000  1.0
  H  H4  1  0.48161000  0.97438000  0.22309000  1.0
  H  H5  1  0.01839000  0.02562000  0.72309000  1.0
  H  H6  1  0.51839000  0.02562000  0.77690000  1.0
  H  H7  1  0.98161000  0.97438000  0.27691000  1.0
  H  H8  1  0.58710000  0.19679000  0.27462000  1.0
  H  H9  1  0.91290000  0.80321000  0.77462000  1.0
  H  H10  1  0.41290000  0.80321000  0.72538000  1.0
  H  H11  1  0.08710000  0.19679000  0.22538000  1.0
  H  H12  1  0.84514000  0.06482000  0.55332000  1.0
  H  H13  1  0.65487000  0.93518000  0.05332000  1.0
  H  H14  1  0.15486000  0.93518000  0.44668000  1.0
  H  H15  1  0.34514000  0.06482000  0.94668000  1.0
  H  H16  1  0.74348000  0.84257000  0.50089000  1.0
  H  H17  1  0.75653000  0.15743000  0.00089000  1.0
  H  H18  1  0.25653000  0.15743000  0.49911000  1.0
  H  H19  1  0.24347000  0.84256000  0.99911000  1.0
  H  H20  1  0.43049000  0.41645000  0.36631000  1.0
  H  H21  1  0.06951000  0.58355000  0.86631000  1.0
  H  H22  1  0.56951000  0.58355000  0.63369000  1.0
  H  H23  1  0.93049000  0.41645000  0.13369000  1.0
  C  C24  1  0.79389000  0.27428000  0.44933000  1.0
  C  C25  1  0.70611000  0.72572000  0.94933000  1.0
  C  C26  1  0.20611000  0.72572000  0.55067000  1.0
  C  C27  1  0.29390000  0.27428000  0.05066000  1.0
  C  C28  1  0.55475000  0.76267000  0.32593000  1.0
  C  C29  1  0.94525000  0.23733000  0.82593000  1.0
  C  C30  1  0.44525000  0.23733000  0.67407000  1.0
  C  C31  1  0.05475000  0.76267000  0.17407000  1.0
  C  C32  1  0.60578000  0.89557000  0.35912000  1.0
  C  C33  1  0.89422000  0.10443000  0.85912000  1.0
  C  C34  1  0.39422000  0.10443000  0.64087000  1.0
  C  C35  1  0.10578000  0.89557000  0.14088000  1.0
  C  C36  1  0.56085000  0.99529000  0.29535000  1.0
  C  C37  1  0.93916000  0.00471000  0.79535000  1.0
  C  C38  1  0.43916000  0.00471000  0.70465000  1.0
  C  C39  1  0.06084000  0.99529000  0.20466000  1.0
  C  C40  1  0.61993000  0.11862000  0.32393000  1.0
  C  C41  1  0.88007000  0.88138000  0.82393000  1.0
  C  C42  1  0.38007000  0.88138000  0.67607000  1.0
  C  C43  1  0.11993000  0.11862000  0.17607000  1.0
  C  C44  1  0.72398000  0.14336000  0.41687000  1.0
  C  C45  1  0.77603000  0.85664000  0.91688000  1.0
  C  C46  1  0.27602000  0.85664000  0.58312000  1.0
  C  C47  1  0.22398000  0.14336000  0.08313000  1.0
  C  C48  1  0.76646000  0.04352000  0.48103000  1.0
  C  C49  1  0.73354000  0.95648000  0.98103000  1.0
  C  C50  1  0.23354000  0.95648000  0.51897000  1.0
  C  C51  1  0.26646000  0.04352000  0.01898000  1.0
  C  C52  1  0.70879000  0.92062000  0.45218000  1.0
  C  C53  1  0.79121000  0.07938000  0.95218000  1.0
  C  C54  1  0.29121000  0.07938000  0.54782000  1.0
  C  C55  1  0.20879000  0.92062000  0.04782000  1.0
  C  C56  1  0.28323000  0.45705000  0.36798000  1.0
  C  C57  1  0.21677000  0.54295000  0.86798000  1.0
  C  C58  1  0.71677000  0.54295000  0.63202000  1.0
  C  C59  1  0.78323000  0.45706000  0.13202000  1.0
  O  O60  1  0.76801000  0.36391000  0.38680000  1.0
  O  O61  1  0.73199000  0.63609000  0.88680000  1.0
  O  O62  1  0.23199000  0.63609000  0.61320000  1.0
  O  O63  1  0.26801000  0.36391000  0.11320000  1.0
  O  O64  1  0.61166000  0.67502000  0.38415000  1.0
  O  O65  1  0.88834000  0.32498000  0.88415000  1.0
  O  O66  1  0.38834000  0.32498000  0.61585000  1.0
  O  O67  1  0.11166000  0.67502000  0.11585000  1.0
  O  O68  1  0.46333000  0.74221000  0.24132000  1.0
  O  O69  1  0.03667000  0.25779000  0.74132000  1.0
  O  O70  1  0.53667000  0.25779000  0.75868000  1.0
  O  O71  1  0.96333000  0.74221000  0.25868000  1.0
  O  O72  1  0.21845000  0.51018000  0.28803000  1.0
  O  O73  1  0.28155000  0.48982000  0.78803000  1.0
  O  O74  1  0.78155000  0.48982000  0.71197000  1.0
  O  O75  1  0.71845000  0.51018000  0.21197000  1.0
  O  O76  1  0.87855000  0.28747000  0.53715000  1.0
  O  O77  1  0.62145000  0.71253000  0.03716000  1.0
  O  O78  1  0.12145000  0.71253000  0.46284000  1.0
  O  O79  1  0.37855000  0.28747000  0.96285000  1.0
  O  O80  1  0.17784000  0.44935000  0.44951000  1.0
  O  O81  1  0.32216000  0.55065000  0.94951000  1.0
  O  O82  1  0.82216000  0.55065000  0.55049000  1.0
  O  O83  1  0.67784000  0.44935000  0.05049000  1.0
