# generated using pymatgen
data_ZnH13C23N3O4
_symmetry_space_group_name_H-M   'P 1'
_cell_length_a   10.30280000
_cell_length_b   10.64730000
_cell_length_c   11.53590000
_cell_angle_alpha   64.92110000
_cell_angle_beta   83.12530000
_cell_angle_gamma   72.94400000
_symmetry_Int_Tables_number   1
_chemical_formula_structural   ZnH13C23N3O4
_chemical_formula_sum   'Zn2 H26 C46 N6 O8'
_cell_volume   1095.72784593
_cell_formula_units_Z   2
loop_
 _symmetry_equiv_pos_site_id
 _symmetry_equiv_pos_as_xyz
  1  'x, y, z'
loop_
 _atom_site_type_symbol
 _atom_site_label
 _atom_site_symmetry_multiplicity
 _atom_site_fract_x
 _atom_site_fract_y
 _atom_site_fract_z
 _atom_site_occupancy
  Zn  Zn0  1  0.87986000  0.75290000  0.33557000  1.0
  Zn  Zn1  1  0.12014000  0.24711000  0.66442000  1.0
  H  H2  1  0.58125000  0.36875000  0.81331000  1.0
  H  H3  1  0.41876000  0.63125000  0.18669000  1.0
  H  H4  1  0.59809000  0.57811000  0.64257000  1.0
  H  H5  1  0.40191000  0.42189000  0.35742000  1.0
  H  H6  1  0.01367000  0.68808000  0.92341000  1.0
  H  H7  1  0.98634000  0.31193000  0.07659000  1.0
  H  H8  1  0.17062000  0.61396000  0.63030000  1.0
  H  H9  1  0.82938000  0.38604000  0.36971000  1.0
  H  H10  1  0.18211000  0.64454000  0.81327000  1.0
  H  H11  1  0.81790000  0.35547000  0.18673000  1.0
  H  H12  1  0.84921000  0.76935000  0.06958000  1.0
  H  H13  1  0.15080000  0.23066000  0.93042000  1.0
  H  H14  1  0.74078000  0.20065000  0.92350000  1.0
  H  H15  1  0.25922000  0.79935000  0.07650000  1.0
  H  H16  1  0.38608000  0.78919000  0.28326000  1.0
  H  H17  1  0.61391000  0.21080000  0.71674000  1.0
  H  H18  1  0.90567000  0.98757000  0.06989000  1.0
  H  H19  1  0.09434000  0.01243000  0.93011000  1.0
  H  H20  1  0.26027000  0.37965000  0.25540000  1.0
  H  H21  1  0.73973000  0.62035000  0.74460000  1.0
  H  H22  1  0.09219000  0.48242000  0.38689000  1.0
  H  H23  1  0.90781000  0.51758000  0.61311000  1.0
  H  H24  1  0.48337000  0.18671000  0.25258000  1.0
  H  H25  1  0.51663000  0.81330000  0.74743000  1.0
  H  H26  1  0.65877000  0.96509000  0.38470000  1.0
  H  H27  1  0.34123000  0.03491000  0.61531000  1.0
  C  C28  1  0.13762000  0.75178000  0.37422000  1.0
  C  C29  1  0.86237000  0.24821000  0.62578000  1.0
  C  C30  1  0.63398000  0.70883000  0.38673000  1.0
  C  C31  1  0.36602000  0.29117000  0.61326000  1.0
  C  C32  1  0.15623000  0.52944000  0.07694000  1.0
  C  C33  1  0.84377000  0.47056000  0.92306000  1.0
  C  C34  1  0.49164000  0.40348000  0.86399000  1.0
  C  C35  1  0.50836000  0.59652000  0.13601000  1.0
  C  C36  1  0.26800000  0.48366000  0.99762000  1.0
  C  C37  1  0.73200000  0.51634000  0.00238000  1.0
  C  C38  1  0.59360000  0.21171000  0.07618000  1.0
  C  C39  1  0.40640000  0.78829000  0.92382000  1.0
  C  C40  1  0.48317000  0.33475000  0.99731000  1.0
  C  C41  1  0.51683000  0.66525000  0.00269000  1.0
  C  C42  1  0.50386000  0.61399000  0.58987000  1.0
  C  C43  1  0.49614000  0.38601000  0.41013000  1.0
  C  C44  1  0.03603000  0.63800000  0.02550000  1.0
  C  C45  1  0.96397000  0.36200000  0.97450000  1.0
  C  C46  1  0.26439000  0.63659000  0.58330000  1.0
  C  C47  1  0.73561000  0.36341000  0.41670000  1.0
  C  C48  1  0.26761000  0.55503000  0.86412000  1.0
  C  C49  1  0.73240000  0.44497000  0.13588000  1.0
  C  C50  1  0.94370000  0.68561000  0.10601000  1.0
  C  C51  1  0.05630000  0.31439000  0.89399000  1.0
  C  C52  1  0.38130000  0.51515000  0.79497000  1.0
  C  C53  1  0.61870000  0.48485000  0.20503000  1.0
  C  C54  1  0.71610000  0.15575000  0.02505000  1.0
  C  C55  1  0.28390000  0.84425000  0.97496000  1.0
  C  C56  1  0.38347000  0.58984000  0.65449000  1.0
  C  C57  1  0.61654000  0.41015000  0.34551000  1.0
  C  C58  1  0.38503000  0.73273000  0.38702000  1.0
  C  C59  1  0.61497000  0.26726000  0.61297000  1.0
  C  C60  1  0.80968000  0.03440000  0.10607000  1.0
  C  C61  1  0.19032000  0.96560000  0.89393000  1.0
  C  C62  1  0.26456000  0.70780000  0.44988000  1.0
  C  C63  1  0.73544000  0.29219000  0.55012000  1.0
  C  C64  1  0.17153000  0.46767000  0.21044000  1.0
  C  C65  1  0.82847000  0.53233000  0.78957000  1.0
  C  C66  1  0.50514000  0.68491000  0.45654000  1.0
  C  C67  1  0.49486000  0.31509000  0.54345000  1.0
  C  C68  1  0.07702000  0.52369000  0.28412000  1.0
  C  C69  1  0.92298000  0.47630000  0.71588000  1.0
  C  C70  1  0.57563000  0.14479000  0.20897000  1.0
  C  C71  1  0.42437000  0.85521000  0.79104000  1.0
  C  C72  1  0.67287000  0.02319000  0.28240000  1.0
  C  C73  1  0.32713000  0.97681000  0.71760000  1.0
  N  N74  1  0.37347000  0.37486000  0.06220000  1.0
  N  N75  1  0.62654000  0.62514000  0.93781000  1.0
  N  N76  1  0.78759000  0.96593000  0.23195000  1.0
  N  N77  1  0.21241000  0.03407000  0.76806000  1.0
  N  N78  1  0.96629000  0.63397000  0.23262000  1.0
  N  N79  1  0.03371000  0.36603000  0.76738000  1.0
  O  O80  1  0.73449000  0.68983000  0.45703000  1.0
  O  O81  1  0.26550000  0.31017000  0.54297000  1.0
  O  O82  1  0.13752000  0.81457000  0.25458000  1.0
  O  O83  1  0.86248000  0.18541000  0.74542000  1.0
  O  O84  1  0.03353000  0.71618000  0.44248000  1.0
  O  O85  1  0.96647000  0.28381000  0.55752000  1.0
  O  O86  1  0.64035000  0.74726000  0.26815000  1.0
  O  O87  1  0.35963000  0.25275000  0.73184000  1.0
