# generated using pymatgen
data_ZnH26C40NO4
_symmetry_space_group_name_H-M   'P 1'
_cell_length_a   9.21299000
_cell_length_b   17.30050000
_cell_length_c   19.17190000
_cell_angle_alpha   90.00000000
_cell_angle_beta   101.56500000
_cell_angle_gamma   89.99990000
_symmetry_Int_Tables_number   1
_chemical_formula_structural   ZnH26C40NO4
_chemical_formula_sum   'Zn4 H104 C160 N4 O16'
_cell_volume   2993.75727441
_cell_formula_units_Z   4
loop_
 _symmetry_equiv_pos_site_id
 _symmetry_equiv_pos_as_xyz
  1  'x, y, z'
loop_
 _atom_site_type_symbol
 _atom_site_label
 _atom_site_symmetry_multiplicity
 _atom_site_fract_x
 _atom_site_fract_y
 _atom_site_fract_z
 _atom_site_occupancy
  Zn  Zn0  1  0.08326000  0.49555000  0.44363000  1.0
  Zn  Zn1  1  0.41675000  0.99555000  0.05637000  1.0
  Zn  Zn2  1  0.91675000  0.50444000  0.55637000  1.0
  Zn  Zn3  1  0.58325000  0.00444000  0.94363000  1.0
  H  H4  1  0.18297000  0.34799000  0.70664000  1.0
  H  H5  1  0.31703000  0.84799000  0.79336000  1.0
  H  H6  1  0.81703000  0.65201000  0.29336000  1.0
  H  H7  1  0.68296000  0.15201000  0.20664000  1.0
  H  H8  1  0.39861000  0.28651000  0.78770000  1.0
  H  H9  1  0.10140000  0.78651000  0.71230000  1.0
  H  H10  1  0.60140000  0.71349000  0.21231000  1.0
  H  H11  1  0.89860000  0.21349000  0.28770000  1.0
  H  H12  1  0.63395000  0.27981000  0.61422000  1.0
  H  H13  1  0.86605000  0.77981000  0.88578000  1.0
  H  H14  1  0.36605000  0.72019000  0.38578000  1.0
  H  H15  1  0.13395000  0.22019000  0.11422000  1.0
  H  H16  1  0.41798000  0.34046000  0.53549000  1.0
  H  H17  1  0.08202000  0.84046000  0.96451000  1.0
  H  H18  1  0.58202000  0.65953000  0.46451000  1.0
  H  H19  1  0.91798000  0.15953000  0.03549000  1.0
  H  H20  1  0.63627000  0.23016000  0.80879000  1.0
  H  H21  1  0.86373000  0.73015000  0.69121000  1.0
  H  H22  1  0.36373000  0.76984000  0.19121000  1.0
  H  H23  1  0.13627000  0.26984000  0.30879000  1.0
  H  H24  1  0.81544000  0.24807000  0.69020000  1.0
  H  H25  1  0.68456000  0.74807000  0.80980000  1.0
  H  H26  1  0.18456000  0.75192000  0.30980000  1.0
  H  H27  1  0.31543000  0.25192000  0.19020000  1.0
  H  H28  1  0.81629000  0.18583000  0.88254000  1.0
  H  H29  1  0.68372000  0.68583000  0.61746000  1.0
  H  H30  1  0.18370000  0.81416000  0.11746000  1.0
  H  H31  1  0.31630000  0.31416000  0.38255000  1.0
  H  H32  1  0.03652000  0.12657000  0.95886000  1.0
  H  H33  1  0.46349000  0.62657000  0.54114000  1.0
  H  H34  1  0.96346000  0.87342000  0.04114000  1.0
  H  H35  1  0.53654000  0.37342000  0.45886000  1.0
  H  H36  1  0.27574000  0.14062000  0.78931000  1.0
  H  H37  1  0.22426000  0.64062000  0.71069000  1.0
  H  H38  1  0.72426000  0.85938000  0.21070000  1.0
  H  H39  1  0.77573000  0.35938000  0.28930000  1.0
  H  H40  1  0.05537000  0.19938000  0.71055000  1.0
  H  H41  1  0.44463000  0.69938000  0.78945000  1.0
  H  H42  1  0.94464000  0.80062000  0.28945000  1.0
  H  H43  1  0.55535000  0.30062000  0.21055000  1.0
  H  H44  1  0.38980000  0.53133000  0.42431000  1.0
  H  H45  1  0.11020000  0.03133000  0.07569000  1.0
  H  H46  1  0.61020000  0.46867000  0.57568000  1.0
  H  H47  1  0.88980000  0.96866000  0.92432000  1.0
  H  H48  1  0.51990000  0.54265000  0.32224000  1.0
  H  H49  1  0.98011000  0.04265000  0.17776000  1.0
  H  H50  1  0.48011000  0.45735000  0.67776000  1.0
  H  H51  1  0.01988000  0.95735000  0.82224000  1.0
  H  H52  1  0.11457000  0.46500000  0.18487000  1.0
  H  H53  1  0.38543000  0.96499000  0.31513000  1.0
  H  H54  1  0.88545000  0.53500000  0.81512000  1.0
  H  H55  1  0.61455000  0.03500000  0.68488000  1.0
  H  H56  1  0.00385000  0.45578000  0.29241000  1.0
  H  H57  1  0.49615000  0.95578000  0.20759000  1.0
  H  H58  1  0.99616000  0.54421000  0.70758000  1.0
  H  H59  1  0.50384000  0.04422000  0.79242000  1.0
  H  H60  1  0.50476000  0.54770000  0.19494000  1.0
  H  H61  1  0.99524000  0.04770000  0.30506000  1.0
  H  H62  1  0.49525000  0.45230000  0.80506000  1.0
  H  H63  1  0.00475000  0.95230000  0.69494000  1.0
  H  H64  1  0.25497000  0.44722000  0.11013000  1.0
  H  H65  1  0.24503000  0.94722000  0.38987000  1.0
  H  H66  1  0.74504000  0.55278000  0.88987000  1.0
  H  H67  1  0.75496000  0.05278000  0.61013000  1.0
  H  H68  1  0.63535000  0.36568000  0.88984000  1.0
  H  H69  1  0.86466000  0.86568000  0.61016000  1.0
  H  H70  1  0.36466000  0.63432000  0.11016000  1.0
  H  H71  1  0.13534000  0.13432000  0.38984000  1.0
  H  H72  1  0.56659000  0.23790000  0.93109000  1.0
  H  H73  1  0.93341000  0.73790000  0.56891000  1.0
  H  H74  1  0.43341000  0.76210000  0.06891000  1.0
  H  H75  1  0.06659000  0.26210000  0.43109000  1.0
  H  H76  1  0.42769000  0.22854000  0.02943000  1.0
  H  H77  1  0.07231000  0.72855000  0.47057000  1.0
  H  H78  1  0.57232000  0.77146000  0.97057000  1.0
  H  H79  1  0.92769000  0.27146000  0.52944000  1.0
  H  H80  1  0.36566000  0.34643000  0.08920000  1.0
  H  H81  1  0.13434000  0.84643000  0.41080000  1.0
  H  H82  1  0.63434000  0.65357000  0.91079000  1.0
  H  H83  1  0.86565000  0.15357000  0.58921000  1.0
  H  H84  1  0.01561000  0.30163000  0.95937000  1.0
  H  H85  1  0.48439000  0.80163000  0.54063000  1.0
  H  H86  1  0.98439000  0.69838000  0.04064000  1.0
  H  H87  1  0.51562000  0.19838000  0.45936000  1.0
  H  H88  1  0.15260000  0.29444000  0.86279000  1.0
  H  H89  1  0.34741000  0.79444000  0.63721000  1.0
  H  H90  1  0.84741000  0.70557000  0.13722000  1.0
  H  H91  1  0.65260000  0.20557000  0.36278000  1.0
  H  H92  1  0.24339000  0.41434000  0.81366000  1.0
  H  H93  1  0.25662000  0.91433000  0.68634000  1.0
  H  H94  1  0.75663000  0.58566000  0.18635000  1.0
  H  H95  1  0.74337000  0.08567000  0.31364000  1.0
  H  H96  1  0.27078000  0.55423000  0.81495000  1.0
  H  H97  1  0.22923000  0.05422000  0.68505000  1.0
  H  H98  1  0.72923000  0.44578000  0.18506000  1.0
  H  H99  1  0.77076000  0.94579000  0.31493000  1.0
  H  H100  1  0.22721000  0.68251000  0.86677000  1.0
  H  H101  1  0.27279000  0.18250000  0.63323000  1.0
  H  H102  1  0.77280000  0.31750000  0.13324000  1.0
  H  H103  1  0.72720000  0.81751000  0.36675000  1.0
  H  H104  1  0.09706000  0.69088000  0.96565000  1.0
  H  H105  1  0.40293000  0.19088000  0.53435000  1.0
  H  H106  1  0.90294000  0.30913000  0.03436000  1.0
  H  H107  1  0.59706000  0.80913000  0.46563000  1.0
  C  C108  1  0.16746000  0.39223000  0.56887000  1.0
  C  C109  1  0.33254000  0.89223000  0.93113000  1.0
  C  C110  1  0.83254000  0.60777000  0.43113000  1.0
  C  C111  1  0.66746000  0.10777000  0.06887000  1.0
  C  C112  1  0.28838000  0.34825000  0.61623000  1.0
  C  C113  1  0.21162000  0.84825000  0.88378000  1.0
  C  C114  1  0.71162000  0.65174000  0.38378000  1.0
  C  C115  1  0.78838000  0.15175000  0.11622000  1.0
  C  C116  1  0.28262000  0.33239000  0.68737000  1.0
  C  C117  1  0.21738000  0.83239000  0.81263000  1.0
  C  C118  1  0.71739000  0.66760000  0.31264000  1.0
  C  C119  1  0.78261000  0.16760000  0.18737000  1.0
  C  C120  1  0.40324000  0.29832000  0.73222000  1.0
  C  C121  1  0.09677000  0.79832000  0.76778000  1.0
  C  C122  1  0.59677000  0.70168000  0.26778000  1.0
  C  C123  1  0.90323000  0.20168000  0.23222000  1.0
  C  C124  1  0.53336000  0.27946000  0.70755000  1.0
  C  C125  1  0.96664000  0.77946000  0.79245000  1.0
  C  C126  1  0.46664000  0.72054000  0.29246000  1.0
  C  C127  1  0.03336000  0.22054000  0.20755000  1.0
  C  C128  1  0.53631000  0.29453000  0.63555000  1.0
  C  C129  1  0.96369000  0.79452000  0.86445000  1.0
  C  C130  1  0.46369000  0.70547000  0.36445000  1.0
  C  C131  1  0.03631000  0.20547000  0.13555000  1.0
  C  C132  1  0.41595000  0.32802000  0.59096000  1.0
  C  C133  1  0.08405000  0.82802000  0.90904000  1.0
  C  C134  1  0.58405000  0.67198000  0.40905000  1.0
  C  C135  1  0.91595000  0.17198000  0.09096000  1.0
  C  C136  1  0.65791000  0.24541000  0.75646000  1.0
  C  C137  1  0.84210000  0.74541000  0.74354000  1.0
  C  C138  1  0.34209000  0.75459000  0.24354000  1.0
  C  C139  1  0.15790000  0.25459000  0.25647000  1.0
  C  C140  1  0.79386000  0.23181000  0.74231000  1.0
  C  C141  1  0.70614000  0.73181000  0.75770000  1.0
  C  C142  1  0.20614000  0.76819000  0.25770000  1.0
  C  C143  1  0.29385000  0.26819000  0.24231000  1.0
  C  C144  1  0.91916000  0.19725000  0.79027000  1.0
  C  C145  1  0.58084000  0.69725000  0.70973000  1.0
  C  C146  1  0.08084000  0.80274000  0.20973000  1.0
  C  C147  1  0.41916000  0.30274000  0.29027000  1.0
  C  C148  1  0.91609000  0.17669000  0.86118000  1.0
  C  C149  1  0.58391000  0.67669000  0.63882000  1.0
  C  C150  1  0.08390000  0.82330000  0.13882000  1.0
  C  C151  1  0.41610000  0.32330000  0.36118000  1.0
  C  C152  1  0.03904000  0.14380000  0.90449000  1.0
  C  C153  1  0.46096000  0.64380000  0.59552000  1.0
  C  C154  1  0.96094000  0.85620000  0.09552000  1.0
  C  C155  1  0.53905000  0.35620000  0.40448000  1.0
  C  C156  1  0.16947000  0.13021000  0.87915000  1.0
  C  C157  1  0.33053000  0.63021000  0.62085000  1.0
  C  C158  1  0.83052000  0.86979000  0.12085000  1.0
  C  C159  1  0.66948000  0.36979000  0.37914000  1.0
  C  C160  1  0.17424000  0.15078000  0.80891000  1.0
  C  C161  1  0.32576000  0.65078000  0.69109000  1.0
  C  C162  1  0.82575000  0.84922000  0.19110000  1.0
  C  C163  1  0.67424000  0.34922000  0.30890000  1.0
  C  C164  1  0.05095000  0.18364000  0.76524000  1.0
  C  C165  1  0.44906000  0.68364000  0.73476000  1.0
  C  C166  1  0.94905000  0.81636000  0.23477000  1.0
  C  C167  1  0.55094000  0.31636000  0.26523000  1.0
  C  C168  1  0.29771000  0.09037000  0.92553000  1.0
  C  C169  1  0.20229000  0.59036000  0.57447000  1.0
  C  C170  1  0.70227000  0.90963000  0.07448000  1.0
  C  C171  1  0.79772000  0.40963000  0.42552000  1.0
  C  C172  1  0.33437000  0.51668000  0.37020000  1.0
  C  C173  1  0.16563000  0.01668000  0.12980000  1.0
  C  C174  1  0.66564000  0.48332000  0.62979000  1.0
  C  C175  1  0.83436000  0.98332000  0.87021000  1.0
  C  C176  1  0.40531000  0.52312000  0.31324000  1.0
  C  C177  1  0.09469000  0.02312000  0.18676000  1.0
  C  C178  1  0.59470000  0.47688000  0.68676000  1.0
  C  C179  1  0.90530000  0.97688000  0.81324000  1.0
  C  C180  1  0.32881000  0.50494000  0.24420000  1.0
  C  C181  1  0.17119000  0.00494000  0.25580000  1.0
  C  C182  1  0.67120000  0.49506000  0.75580000  1.0
  C  C183  1  0.82880000  0.99506000  0.74420000  1.0
  C  C184  1  0.18155000  0.47914000  0.23676000  1.0
  C  C185  1  0.31845000  0.97913000  0.26324000  1.0
  C  C186  1  0.81846000  0.52086000  0.76324000  1.0
  C  C187  1  0.68154000  0.02086000  0.73676000  1.0
  C  C188  1  0.11822000  0.47430000  0.29612000  1.0
  C  C189  1  0.38178000  0.97430000  0.20387000  1.0
  C  C190  1  0.88179000  0.52569000  0.70387000  1.0
  C  C191  1  0.61821000  0.02570000  0.79613000  1.0
  C  C192  1  0.40154000  0.51468000  0.18423000  1.0
  C  C193  1  0.09846000  0.01468000  0.31577000  1.0
  C  C194  1  0.59846000  0.48532000  0.81577000  1.0
  C  C195  1  0.90153000  0.98532000  0.68423000  1.0
  C  C196  1  0.35296000  0.48444000  0.11877000  1.0
  C  C197  1  0.14704000  0.98444000  0.38124000  1.0
  C  C198  1  0.64705000  0.51556000  0.88123000  1.0
  C  C199  1  0.85295000  0.01556000  0.61877000  1.0
  C  C200  1  0.42634000  0.49377000  0.05855000  1.0
  C  C201  1  0.07366000  0.99377000  0.44145000  1.0
  C  C202  1  0.57367000  0.50623000  0.94145000  1.0
  C  C203  1  0.92633000  0.00623000  0.55855000  1.0
  C  C204  1  0.45680000  0.42634000  0.02175000  1.0
  C  C205  1  0.04320000  0.92634000  0.47825000  1.0
  C  C206  1  0.54321000  0.57366000  0.97825000  1.0
  C  C207  1  0.95679000  0.07366000  0.52175000  1.0
  C  C208  1  0.53240000  0.43215000  0.96298000  1.0
  C  C209  1  0.96760000  0.93215000  0.53702000  1.0
  C  C210  1  0.46761000  0.56785000  0.03702000  1.0
  C  C211  1  0.03239000  0.06785000  0.46298000  1.0
  C  C212  1  0.57129000  0.36209000  0.93168000  1.0
  C  C213  1  0.92872000  0.86209000  0.56832000  1.0
  C  C214  1  0.42872000  0.63791000  0.06832000  1.0
  C  C215  1  0.07128000  0.13791000  0.43168000  1.0
  C  C216  1  0.53406000  0.29089000  0.95475000  1.0
  C  C217  1  0.96595000  0.79089000  0.54525000  1.0
  C  C218  1  0.46595000  0.70911000  0.04524000  1.0
  C  C219  1  0.03405000  0.20911000  0.45476000  1.0
  C  C220  1  0.45637000  0.28528000  0.01133000  1.0
  C  C221  1  0.04363000  0.78528000  0.48867000  1.0
  C  C222  1  0.54364000  0.71472000  0.98867000  1.0
  C  C223  1  0.95636000  0.21472000  0.51133000  1.0
  C  C224  1  0.42084000  0.35126000  0.04415000  1.0
  C  C225  1  0.07916000  0.85126000  0.45585000  1.0
  C  C226  1  0.57917000  0.64875000  0.95585000  1.0
  C  C227  1  0.92083000  0.14875000  0.54415000  1.0
  C  C228  1  0.07752000  0.49513000  0.94215000  1.0
  C  C229  1  0.42248000  0.99513000  0.55785000  1.0
  C  C230  1  0.92250000  0.50488000  0.05786000  1.0
  C  C231  1  0.57750000  0.00488000  0.44214000  1.0
  C  C232  1  0.02483000  0.42581000  0.96938000  1.0
  C  C233  1  0.47517000  0.92581000  0.53062000  1.0
  C  C234  1  0.97518000  0.57420000  0.03063000  1.0
  C  C235  1  0.52482000  0.07420000  0.46937000  1.0
  C  C236  1  0.05312000  0.35538000  0.93942000  1.0
  C  C237  1  0.44689000  0.85538000  0.56057000  1.0
  C  C238  1  0.94689000  0.64463000  0.06058000  1.0
  C  C239  1  0.55311000  0.14463000  0.43942000  1.0
  C  C240  1  0.13135000  0.35087000  0.88376000  1.0
  C  C241  1  0.36866000  0.85086000  0.61623000  1.0
  C  C242  1  0.86867000  0.64914000  0.11625000  1.0
  C  C243  1  0.63133000  0.14915000  0.38375000  1.0
  C  C244  1  0.18204000  0.41710000  0.85669000  1.0
  C  C245  1  0.31797000  0.91710000  0.64331000  1.0
  C  C246  1  0.81798000  0.58290000  0.14333000  1.0
  C  C247  1  0.68201000  0.08291000  0.35667000  1.0
  C  C248  1  0.15669000  0.49037000  0.88492000  1.0
  C  C249  1  0.34331000  0.99036000  0.61508000  1.0
  C  C250  1  0.84333000  0.50964000  0.11510000  1.0
  C  C251  1  0.65667000  0.00964000  0.38490000  1.0
  C  C252  1  0.20933000  0.55887000  0.85789000  1.0
  C  C253  1  0.29067000  0.05886000  0.64211000  1.0
  C  C254  1  0.79069000  0.44114000  0.14212000  1.0
  C  C255  1  0.70930000  0.94115000  0.35787000  1.0
  C  C256  1  0.18573000  0.62966000  0.88668000  1.0
  C  C257  1  0.31426000  0.12966000  0.61332000  1.0
  C  C258  1  0.81428000  0.37035000  0.11333000  1.0
  C  C259  1  0.68572000  0.87035000  0.38666000  1.0
  C  C260  1  0.11020000  0.63428000  0.94329000  1.0
  C  C261  1  0.38980000  0.13428000  0.55671000  1.0
  C  C262  1  0.88981000  0.36573000  0.05672000  1.0
  C  C263  1  0.61019000  0.86573000  0.44327000  1.0
  C  C264  1  0.05462000  0.56904000  0.97154000  1.0
  C  C265  1  0.44538000  0.06904000  0.52846000  1.0
  C  C266  1  0.94539000  0.43097000  0.02847000  1.0
  C  C267  1  0.55461000  0.93097000  0.47152000  1.0
  N  N268  1  0.19266000  0.49324000  0.36202000  1.0
  N  N269  1  0.30734000  0.99324000  0.13798000  1.0
  N  N270  1  0.80735000  0.50675000  0.63797000  1.0
  N  N271  1  0.69265000  0.00676000  0.86203000  1.0
  O  O272  1  0.05912000  0.41465000  0.59579000  1.0
  O  O273  1  0.44088000  0.91465000  0.90421000  1.0
  O  O274  1  0.94087000  0.58534000  0.40421000  1.0
  O  O275  1  0.55912000  0.08534000  0.09579000  1.0
  O  O276  1  0.18592000  0.40643000  0.50592000  1.0
  O  O277  1  0.31408000  0.90643000  0.99408000  1.0
  O  O278  1  0.81408000  0.59357000  0.49408000  1.0
  O  O279  1  0.68592000  0.09357000  0.00592000  1.0
  O  O280  1  0.28131000  0.06994000  0.98742000  1.0
  O  O281  1  0.21870000  0.56994000  0.51258000  1.0
  O  O282  1  0.71868000  0.93006000  0.01259000  1.0
  O  O283  1  0.78132000  0.43006000  0.48741000  1.0
  O  O284  1  0.41181000  0.07816000  0.89904000  1.0
  O  O285  1  0.08819000  0.57816000  0.60096000  1.0
  O  O286  1  0.58817000  0.92183000  0.10097000  1.0
  O  O287  1  0.91183000  0.42183000  0.39903000  1.0
