# generated using pymatgen
data_ZnH11C10N3O5
_symmetry_space_group_name_H-M   'P 1'
_cell_length_a   9.12359000
_cell_length_b   9.74799000
_cell_length_c   13.69060000
_cell_angle_alpha   89.99960000
_cell_angle_beta   71.66800000
_cell_angle_gamma   89.99970000
_symmetry_Int_Tables_number   1
_chemical_formula_structural   ZnH11C10N3O5
_chemical_formula_sum   'Zn4 H44 C40 N12 O20'
_cell_volume   1155.80323647
_cell_formula_units_Z   4
loop_
 _symmetry_equiv_pos_site_id
 _symmetry_equiv_pos_as_xyz
  1  'x, y, z'
loop_
 _atom_site_type_symbol
 _atom_site_label
 _atom_site_symmetry_multiplicity
 _atom_site_fract_x
 _atom_site_fract_y
 _atom_site_fract_z
 _atom_site_occupancy
  Zn  Zn0  1  0.91868000  0.61928000  0.68881000  1.0
  Zn  Zn1  1  0.58132000  0.11928000  0.81119000  1.0
  Zn  Zn2  1  0.08132000  0.38072000  0.31119000  1.0
  Zn  Zn3  1  0.41868000  0.88072000  0.18881000  1.0
  H  H4  1  0.65253000  0.33770000  0.63363000  1.0
  H  H5  1  0.84747000  0.83770000  0.86637000  1.0
  H  H6  1  0.34747000  0.66230000  0.36637000  1.0
  H  H7  1  0.15253000  0.16230000  0.13363000  1.0
  H  H8  1  0.92338000  0.37183000  0.59768000  1.0
  H  H9  1  0.57662000  0.87183000  0.90232000  1.0
  H  H10  1  0.07662000  0.62817000  0.40232000  1.0
  H  H11  1  0.42337000  0.12817000  0.09768000  1.0
  H  H12  1  0.83520000  0.36879000  0.72688000  1.0
  H  H13  1  0.66480000  0.86879000  0.77312000  1.0
  H  H14  1  0.16480000  0.63121000  0.27312000  1.0
  H  H15  1  0.33520000  0.13121000  0.22688000  1.0
  H  H16  1  0.18841000  0.39841000  0.58159000  1.0
  H  H17  1  0.31159000  0.89841000  0.91842000  1.0
  H  H18  1  0.81159000  0.60159000  0.41841000  1.0
  H  H19  1  0.68841000  0.10159000  0.08158000  1.0
  H  H20  1  0.45359000  0.35847000  0.59033000  1.0
  H  H21  1  0.04641000  0.85847000  0.90967000  1.0
  H  H22  1  0.54641000  0.64153000  0.40967000  1.0
  H  H23  1  0.95359000  0.14153000  0.09033000  1.0
  H  H24  1  0.16253000  0.77981000  0.71918000  1.0
  H  H25  1  0.33747000  0.27981000  0.78082000  1.0
  H  H26  1  0.83747000  0.22020000  0.28082000  1.0
  H  H27  1  0.66253000  0.72019000  0.21918000  1.0
  H  H28  1  0.42902000  0.75606000  0.73370000  1.0
  H  H29  1  0.07098000  0.25606000  0.76630000  1.0
  H  H30  1  0.57098000  0.24394000  0.26630000  1.0
  H  H31  1  0.92902000  0.74394000  0.23370000  1.0
  H  H32  1  0.86240000  0.59850000  0.04382000  1.0
  H  H33  1  0.63761000  0.09850000  0.45618000  1.0
  H  H34  1  0.13762000  0.40150000  0.95617000  1.0
  H  H35  1  0.36239000  0.90149000  0.54382000  1.0
  H  H36  1  0.05050000  0.65061000  0.97811000  1.0
  H  H37  1  0.44950000  0.15061000  0.52188000  1.0
  H  H38  1  0.94951000  0.34939000  0.02188000  1.0
  H  H39  1  0.55050000  0.84939000  0.47812000  1.0
  H  H40  1  0.08348000  0.90752000  0.40749000  1.0
  H  H41  1  0.41652000  0.40752000  0.09251000  1.0
  H  H42  1  0.91652000  0.09248000  0.59251000  1.0
  H  H43  1  0.58348000  0.59248000  0.90749000  1.0
  H  H44  1  0.88573000  0.94108000  0.44821000  1.0
  H  H45  1  0.61427000  0.44108000  0.05179000  1.0
  H  H46  1  0.11428000  0.05892000  0.55179000  1.0
  H  H47  1  0.38573000  0.55892000  0.94821000  1.0
  C  C48  1  0.61806000  0.54423000  0.67793000  1.0
  C  C49  1  0.88193000  0.04424000  0.82207000  1.0
  C  C50  1  0.38194000  0.45576000  0.32207000  1.0
  C  C51  1  0.11806000  0.95576000  0.17793000  1.0
  C  C52  1  0.46074000  0.55355000  0.66680000  1.0
  C  C53  1  0.03926000  0.05355000  0.83321000  1.0
  C  C54  1  0.53926000  0.44645000  0.33321000  1.0
  C  C55  1  0.96073000  0.94645000  0.16679000  1.0
  C  C56  1  0.95799000  0.81053000  0.54783000  1.0
  C  C57  1  0.54201000  0.31053000  0.95217000  1.0
  C  C58  1  0.04201000  0.18947000  0.45217000  1.0
  C  C59  1  0.45799000  0.68947000  0.04784000  1.0
  C  C60  1  0.24471000  0.47432000  0.61650000  1.0
  C  C61  1  0.25529000  0.97432000  0.88350000  1.0
  C  C62  1  0.75529000  0.52568000  0.38350000  1.0
  C  C63  1  0.74471000  0.02568000  0.11650000  1.0
  C  C64  1  0.39346000  0.45317000  0.62127000  1.0
  C  C65  1  0.10653000  0.95317000  0.87874000  1.0
  C  C66  1  0.60654000  0.54683000  0.37874000  1.0
  C  C67  1  0.89346000  0.04683000  0.12126000  1.0
  C  C68  1  0.23082000  0.68743000  0.69336000  1.0
  C  C69  1  0.26917000  0.18743000  0.80664000  1.0
  C  C70  1  0.76918000  0.31257000  0.30664000  1.0
  C  C71  1  0.73083000  0.81257000  0.19336000  1.0
  C  C72  1  0.37718000  0.67353000  0.70256000  1.0
  C  C73  1  0.12281000  0.17354000  0.79744000  1.0
  C  C74  1  0.62281000  0.32647000  0.29744000  1.0
  C  C75  1  0.87718000  0.82647000  0.20256000  1.0
  C  C76  1  0.93381000  0.55135000  0.88319000  1.0
  C  C77  1  0.56618000  0.05136000  0.61681000  1.0
  C  C78  1  0.06620000  0.44865000  0.11680000  1.0
  C  C79  1  0.43382000  0.94864000  0.38319000  1.0
  C  C80  1  0.96869000  0.56584000  0.98398000  1.0
  C  C81  1  0.53131000  0.06583000  0.51602000  1.0
  C  C82  1  0.03132000  0.43416000  0.01602000  1.0
  C  C83  1  0.46869000  0.93416000  0.48398000  1.0
  C  C84  1  0.98609000  0.93270000  0.47622000  1.0
  C  C85  1  0.51391000  0.43270000  0.02378000  1.0
  C  C86  1  0.01391000  0.06730000  0.52378000  1.0
  C  C87  1  0.48609000  0.56730000  0.97622000  1.0
  N  N88  1  0.70198000  0.43076000  0.64308000  1.0
  N  N89  1  0.79802000  0.93076000  0.85692000  1.0
  N  N90  1  0.29802000  0.56924000  0.35692000  1.0
  N  N91  1  0.20197000  0.06924000  0.14308000  1.0
  N  N92  1  0.16370000  0.58893000  0.65318000  1.0
  N  N93  1  0.33630000  0.08893000  0.84683000  1.0
  N  N94  1  0.83630000  0.41107000  0.34682000  1.0
  N  N95  1  0.66370000  0.91107000  0.15317000  1.0
  N  N96  1  0.84615000  0.42249000  0.66008000  1.0
  N  N97  1  0.65385000  0.92249000  0.83992000  1.0
  N  N98  1  0.15385000  0.57751000  0.33992000  1.0
  N  N99  1  0.34615000  0.07751000  0.16008000  1.0
  O  O100  1  0.66962000  0.64288000  0.71627000  1.0
  O  O101  1  0.83038000  0.14288000  0.78374000  1.0
  O  O102  1  0.33039000  0.35712000  0.28373000  1.0
  O  O103  1  0.16961000  0.85712000  0.21627000  1.0
  O  O104  1  0.95028000  0.82643000  0.64212000  1.0
  O  O105  1  0.54972000  0.32643000  0.85788000  1.0
  O  O106  1  0.04973000  0.17357000  0.35788000  1.0
  O  O107  1  0.45027000  0.67357000  0.14212000  1.0
  O  O108  1  0.94355000  0.69196000  0.51241000  1.0
  O  O109  1  0.55645000  0.19196000  0.98759000  1.0
  O  O110  1  0.05645000  0.30804000  0.48759000  1.0
  O  O111  1  0.44355000  0.80804000  0.01241000  1.0
  O  O112  1  0.90323000  0.66381000  0.84142000  1.0
  O  O113  1  0.59677000  0.16381000  0.65858000  1.0
  O  O114  1  0.09677000  0.33619000  0.15857000  1.0
  O  O115  1  0.40323000  0.83619000  0.34142000  1.0
  O  O116  1  0.93752000  0.43605000  0.84303000  1.0
  O  O117  1  0.56247000  0.93605000  0.65698000  1.0
  O  O118  1  0.06250000  0.56396000  0.15696000  1.0
  O  O119  1  0.43753000  0.06395000  0.34302000  1.0
