# generated using pymatgen
data_Cu3H4C8IN8
_symmetry_space_group_name_H-M   'P 1'
_cell_length_a   7.90352000
_cell_length_b   9.27006459
_cell_length_c   9.27004615
_cell_angle_alpha   86.25341422
_cell_angle_beta   65.36722428
_cell_angle_gamma   65.36688834
_symmetry_Int_Tables_number   1
_chemical_formula_structural   Cu3H4C8IN8
_chemical_formula_sum   'Cu6 H8 C16 I2 N16'
_cell_volume   556.34110548
_cell_formula_units_Z   2
loop_
 _symmetry_equiv_pos_site_id
 _symmetry_equiv_pos_as_xyz
  1  'x, y, z'
loop_
 _atom_site_type_symbol
 _atom_site_label
 _atom_site_symmetry_multiplicity
 _atom_site_fract_x
 _atom_site_fract_y
 _atom_site_fract_z
 _atom_site_occupancy
  Cu  Cu0  1  0.49999000  0.31112000  0.68889000  1.0
  Cu  Cu1  1  0.50001000  0.68888000  0.31111000  1.0
  Cu  Cu2  1  0.00001000  0.36536000  0.63463000  1.0
  Cu  Cu3  1  1.00000000  0.63464000  0.36536000  1.0
  Cu  Cu4  1  0.19447000  0.70235000  0.70235000  1.0
  Cu  Cu5  1  0.80553000  0.29765000  0.29765000  1.0
  H  H6  1  0.87815000  0.70146000  0.70146000  1.0
  H  H7  1  0.12185000  0.29854000  0.29854000  1.0
  H  H8  1  0.31247000  0.11627000  0.77793000  1.0
  H  H9  1  0.68751000  0.22208000  0.88374000  1.0
  H  H10  1  0.68753000  0.88373000  0.22207000  1.0
  H  H11  1  0.31249000  0.77792000  0.11626000  1.0
  H  H12  1  0.12892000  0.02847000  0.02849000  1.0
  H  H13  1  0.87108000  0.97153000  0.97151000  1.0
  C  C14  1  0.71995000  0.96390000  0.57417000  1.0
  C  C15  1  0.28003000  0.42585000  0.03611000  1.0
  C  C16  1  0.28005000  0.03610000  0.42583000  1.0
  C  C17  1  0.71997000  0.57415000  0.96389000  1.0
  C  C18  1  0.60869000  0.91415000  0.72252000  1.0
  C  C19  1  0.39132000  0.27749000  0.08584000  1.0
  C  C20  1  0.39132000  0.08584000  0.27748000  1.0
  C  C21  1  0.60869000  0.72251000  0.91415000  1.0
  C  C22  1  0.71324000  0.77230000  0.77230000  1.0
  C  C23  1  0.28675000  0.22771000  0.22771000  1.0
  C  C24  1  0.39754000  0.00699000  0.81623000  1.0
  C  C25  1  0.60244000  0.18379000  0.99301000  1.0
  C  C26  1  0.60246000  0.99301000  0.18377000  1.0
  C  C27  1  0.39755000  0.81622000  0.00699000  1.0
  C  C28  1  0.29345000  0.95757000  0.95758000  1.0
  C  C29  1  0.70655000  0.04243000  0.04242000  1.0
  I  I30  1  0.28436000  0.47766000  0.47766000  1.0
  I  I31  1  0.71564000  0.52234000  0.52234000  1.0
  N  N32  1  0.68204000  0.11701000  0.54987000  1.0
  N  N33  1  0.31797000  0.45013000  0.88299000  1.0
  N  N34  1  0.31796000  0.88299000  0.45013000  1.0
  N  N35  1  0.68205000  0.54986000  0.11700000  1.0
  N  N36  1  0.81803000  0.11019000  0.39795000  1.0
  N  N37  1  0.18197000  0.60205000  0.88981000  1.0
  N  N38  1  0.18197000  0.88981000  0.60205000  1.0
  N  N39  1  0.81803000  0.39795000  0.11019000  1.0
  N  N40  1  0.93561000  0.96055000  0.33187000  1.0
  N  N41  1  0.06438000  0.66814000  0.03945000  1.0
  N  N42  1  0.06439000  0.03945000  0.66813000  1.0
  N  N43  1  0.93562000  0.33186000  0.96055000  1.0
  N  N44  1  0.87729000  0.86614000  0.43960000  1.0
  N  N45  1  0.12271000  0.56041000  0.13386000  1.0
  N  N46  1  0.12271000  0.13386000  0.56040000  1.0
  N  N47  1  0.87730000  0.43959000  0.86613000  1.0
