# generated using pymatgen
data_Cd2H29C25N3O11
_symmetry_space_group_name_H-M   'P 1'
_cell_length_a   9.96340000
_cell_length_b   10.33980000
_cell_length_c   15.25280000
_cell_angle_alpha   99.03710000
_cell_angle_beta   90.36630000
_cell_angle_gamma   96.32740000
_symmetry_Int_Tables_number   1
_chemical_formula_structural   Cd2H29C25N3O11
_chemical_formula_sum   'Cd4 H58 C50 N6 O22'
_cell_volume   1541.92853660
_cell_formula_units_Z   2
loop_
 _symmetry_equiv_pos_site_id
 _symmetry_equiv_pos_as_xyz
  1  'x, y, z'
loop_
 _atom_site_type_symbol
 _atom_site_label
 _atom_site_symmetry_multiplicity
 _atom_site_fract_x
 _atom_site_fract_y
 _atom_site_fract_z
 _atom_site_occupancy
  Cd  Cd0  1  0.24301000  0.41753000  0.61050000  1.0
  Cd  Cd1  1  0.75699000  0.58247000  0.38950000  1.0
  Cd  Cd2  1  0.22410000  0.21485000  0.77479000  1.0
  Cd  Cd3  1  0.77590000  0.78515000  0.22521000  1.0
  H  H4  1  0.73379000  0.39706000  0.62400000  1.0
  H  H5  1  0.26620000  0.60294000  0.37600000  1.0
  H  H6  1  0.92607000  0.09648000  0.72634000  1.0
  H  H7  1  0.07393000  0.90352000  0.27366000  1.0
  H  H8  1  0.70105000  0.98080000  0.75181000  1.0
  H  H9  1  0.29895000  0.01920000  0.24819000  1.0
  H  H10  1  0.49149000  0.07397000  0.71337000  1.0
  H  H11  1  0.50851000  0.92603000  0.28663000  1.0
  H  H12  1  0.99721000  0.52477000  0.94219000  1.0
  H  H13  1  0.00279000  0.47524000  0.05781000  1.0
  H  H14  1  0.89524000  0.72981000  0.00634000  1.0
  H  H15  1  0.10475000  0.27020000  0.99366000  1.0
  H  H16  1  0.95692000  0.93626000  0.94261000  1.0
  H  H17  1  0.04308000  0.06374000  0.05739000  1.0
  H  H18  1  0.23646000  0.74097000  0.76928000  1.0
  H  H19  1  0.76354000  0.25903000  0.23071000  1.0
  H  H20  1  0.07412000  0.65134000  0.56861000  1.0
  H  H21  1  0.92589000  0.34866000  0.43139000  1.0
  H  H22  1  0.40263000  0.84670000  0.59935000  1.0
  H  H23  1  0.59737000  0.15330000  0.40065000  1.0
  H  H24  1  0.32681000  0.99608000  0.59920000  1.0
  H  H25  1  0.67319000  0.00393000  0.40080000  1.0
  H  H26  1  0.36625000  0.89958000  0.49651000  1.0
  H  H27  1  0.63375000  0.10042000  0.50349000  1.0
  H  H28  1  0.09448000  0.92911000  0.48327000  1.0
  H  H29  1  0.90552000  0.07089000  0.51673000  1.0
  H  H30  1  0.08202000  0.97845000  0.60012000  1.0
  H  H31  1  0.91798000  0.02154000  0.39988000  1.0
  H  H32  1  0.98923000  0.82758000  0.54558000  1.0
  H  H33  1  0.01077000  0.17242000  0.45442000  1.0
  H  H34  1  0.42977000  0.35329000  0.44439000  1.0
  H  H35  1  0.57023000  0.64671000  0.55561000  1.0
  H  H36  1  0.12777000  0.19739000  0.29731000  1.0
  H  H37  1  0.87223000  0.80261000  0.70269000  1.0
  H  H38  1  0.19719000  0.28112000  0.21150000  1.0
  H  H39  1  0.80281000  0.71888000  0.78850000  1.0
  H  H40  1  0.12662000  0.37137000  0.30691000  1.0
  H  H41  1  0.87338000  0.62863000  0.69309000  1.0
  H  H42  1  0.52892000  0.32507000  0.31652000  1.0
  H  H43  1  0.47108000  0.67493000  0.68348000  1.0
  H  H44  1  0.44442000  0.39769000  0.23760000  1.0
  H  H45  1  0.55558000  0.60231000  0.76240000  1.0
  H  H46  1  0.43715000  0.22179000  0.22562000  1.0
  H  H47  1  0.56285000  0.77821000  0.77438000  1.0
  H  H48  1  0.44309000  0.44650000  0.86521000  1.0
  H  H49  1  0.55692000  0.55351000  0.13479000  1.0
  H  H50  1  0.62050000  0.18009000  0.91302000  1.0
  H  H51  1  0.37950000  0.81991000  0.08698000  1.0
  H  H52  1  0.71137000  0.28578000  0.00388000  1.0
  H  H53  1  0.28863000  0.71421000  0.99612000  1.0
  H  H54  1  0.77825000  0.27258000  0.89512000  1.0
  H  H55  1  0.22175000  0.72742000  0.10488000  1.0
  H  H56  1  0.76503000  0.51679000  0.87721000  1.0
  H  H57  1  0.23498000  0.48321000  0.12279000  1.0
  H  H58  1  0.73017000  0.53772000  0.99272000  1.0
  H  H59  1  0.26983000  0.46228000  0.00728000  1.0
  H  H60  1  0.61447000  0.58398000  0.91664000  1.0
  H  H61  1  0.38553000  0.41602000  0.08336000  1.0
  C  C62  1  0.47486000  0.29627000  0.64219000  1.0
  C  C63  1  0.52514000  0.70373000  0.35781000  1.0
  C  C64  1  0.60008000  0.24124000  0.66645000  1.0
  C  C65  1  0.39992000  0.75876000  0.33355000  1.0
  C  C66  1  0.72705000  0.30659000  0.65277000  1.0
  C  C67  1  0.27295000  0.69341000  0.34723000  1.0
  C  C68  1  0.84461000  0.25375000  0.67316000  1.0
  C  C69  1  0.15539000  0.74625000  0.32684000  1.0
  C  C70  1  0.83441000  0.13578000  0.70864000  1.0
  C  C71  1  0.16559000  0.86422000  0.29136000  1.0
  C  C72  1  0.70793000  0.07150000  0.72316000  1.0
  C  C73  1  0.29207000  0.92850000  0.27684000  1.0
  C  C74  1  0.59068000  0.12326000  0.70193000  1.0
  C  C75  1  0.40932000  0.87673000  0.29807000  1.0
  C  C76  1  0.98006000  0.31888000  0.65305000  1.0
  C  C77  1  0.01994000  0.68113000  0.34695000  1.0
  C  C78  1  0.18697000  0.49850000  0.82026000  1.0
  C  C79  1  0.81303000  0.50150000  0.17974000  1.0
  C  C80  1  0.12257000  0.62054000  0.85297000  1.0
  C  C81  1  0.87743000  0.37946000  0.14703000  1.0
  C  C82  1  0.02501000  0.61777000  0.91862000  1.0
  C  C83  1  0.97498000  0.38223000  0.08138000  1.0
  C  C84  1  0.96663000  0.73101000  0.95258000  1.0
  C  C85  1  0.03337000  0.26899000  0.04742000  1.0
  C  C86  1  0.00280000  0.84705000  0.91852000  1.0
  C  C87  1  0.99720000  0.15295000  0.08148000  1.0
  C  C88  1  0.09962000  0.85100000  0.85230000  1.0
  C  C89  1  0.90037000  0.14900000  0.14770000  1.0
  C  C90  1  0.16024000  0.73777000  0.82001000  1.0
  C  C91  1  0.83976000  0.26223000  0.17998000  1.0
  C  C92  1  0.13946000  0.97735000  0.81830000  1.0
  C  C93  1  0.86054000  0.02264000  0.18170000  1.0
  C  C94  1  0.18023000  0.69576000  0.57174000  1.0
  C  C95  1  0.81977000  0.30425000  0.42826000  1.0
  C  C96  1  0.33165000  0.89556000  0.56450000  1.0
  C  C97  1  0.66836000  0.10444000  0.43550000  1.0
  C  C98  1  0.08385000  0.89320000  0.54722000  1.0
  C  C99  1  0.91616000  0.10680000  0.45278000  1.0
  C  C100  1  0.32658000  0.33264000  0.41533000  1.0
  C  C101  1  0.67343000  0.66736000  0.58467000  1.0
  C  C102  1  0.18471000  0.28879000  0.28326000  1.0
  C  C103  1  0.81529000  0.71121000  0.71674000  1.0
  C  C104  1  0.43850000  0.31330000  0.27357000  1.0
  C  C105  1  0.56150000  0.68670000  0.72643000  1.0
  C  C106  1  0.48444000  0.35793000  0.88146000  1.0
  C  C107  1  0.51558000  0.64210000  0.11854000  1.0
  C  C108  1  0.68466000  0.27313000  0.93284000  1.0
  C  C109  1  0.31535000  0.72687000  0.06716000  1.0
  C  C110  1  0.68421000  0.51186000  0.92570000  1.0
  C  C111  1  0.31580000  0.48814000  0.07430000  1.0
  N  N112  1  0.19786000  0.82231000  0.56226000  1.0
  N  N113  1  0.80215000  0.17769000  0.43774000  1.0
  N  N114  1  0.31801000  0.30926000  0.32694000  1.0
  N  N115  1  0.68199000  0.69073000  0.67305000  1.0
  N  N116  1  0.61125000  0.38042000  0.91409000  1.0
  N  N117  1  0.38875000  0.61958000  0.08590000  1.0
  O  O118  1  0.35994000  0.23160000  0.65355000  1.0
  O  O119  1  0.64006000  0.76840000  0.34645000  1.0
  O  O120  1  0.48381000  0.40277000  0.61012000  1.0
  O  O121  1  0.51619000  0.59723000  0.38988000  1.0
  O  O122  1  0.08256000  0.25319000  0.65702000  1.0
  O  O123  1  0.91744000  0.74682000  0.34298000  1.0
  O  O124  1  0.99190000  0.43145000  0.62952000  1.0
  O  O125  1  0.00810000  0.56856000  0.37048000  1.0
  O  O126  1  0.27923000  0.50289000  0.76290000  1.0
  O  O127  1  0.72076000  0.49711000  0.23710000  1.0
  O  O128  1  0.14669000  0.39543000  0.85375000  1.0
  O  O129  1  0.85331000  0.60457000  0.14625000  1.0
  O  O130  1  0.23385000  0.98313000  0.76236000  1.0
  O  O131  1  0.76615000  0.01687000  0.23764000  1.0
  O  O132  1  0.07735000  0.07680000  0.84770000  1.0
  O  O133  1  0.92264000  0.92320000  0.15229000  1.0
  O  O134  1  0.27654000  0.63000000  0.58357000  1.0
  O  O135  1  0.72346000  0.37000000  0.41643000  1.0
  O  O136  1  0.22293000  0.33158000  0.46247000  1.0
  O  O137  1  0.77707000  0.66842000  0.53753000  1.0
  O  O138  1  0.41632000  0.24689000  0.86867000  1.0
  O  O139  1  0.58368000  0.75309000  0.13133000  1.0
