# generated using pymatgen
data_CoH12C14N4(Cl2O3)2
_symmetry_space_group_name_H-M   'P 1'
_cell_length_a   10.57430000
_cell_length_b   10.71980000
_cell_length_c   10.72210000
_cell_angle_alpha   67.74510000
_cell_angle_beta   67.03150000
_cell_angle_gamma   67.03610000
_symmetry_Int_Tables_number   1
_chemical_formula_structural   CoH12C14N4(Cl2O3)2
_chemical_formula_sum   'Co2 H24 C28 N8 Cl8 O12'
_cell_volume   992.90718650
_cell_formula_units_Z   2
loop_
 _symmetry_equiv_pos_site_id
 _symmetry_equiv_pos_as_xyz
  1  'x, y, z'
loop_
 _atom_site_type_symbol
 _atom_site_label
 _atom_site_symmetry_multiplicity
 _atom_site_fract_x
 _atom_site_fract_y
 _atom_site_fract_z
 _atom_site_occupancy
  Co  Co0  1  0.50000000  0.00000000  0.00000000  1.0
  Co  Co1  1  0.00000000  0.00000000  0.00000000  1.0
  H  H2  1  0.65662000  0.06150000  0.10668000  1.0
  H  H3  1  0.84338000  0.89344000  0.93851000  1.0
  H  H4  1  0.34338000  0.93850000  0.89332000  1.0
  H  H5  1  0.15662000  0.10655000  0.06150000  1.0
  H  H6  1  0.51772000  0.19500000  0.06479000  1.0
  H  H7  1  0.98226000  0.93530000  0.80503000  1.0
  H  H8  1  0.48228000  0.80499000  0.93521000  1.0
  H  H9  1  0.01774000  0.06470000  0.19497000  1.0
  H  H10  1  0.54981000  0.30199000  0.81260000  1.0
  H  H11  1  0.95018000  0.18738000  0.69798000  1.0
  H  H12  1  0.45018000  0.69801000  0.18741000  1.0
  H  H13  1  0.04982000  0.81263000  0.30202000  1.0
  H  H14  1  0.71515000  0.32824000  0.53293000  1.0
  H  H15  1  0.78485000  0.46709000  0.67173000  1.0
  H  H16  1  0.28484000  0.67177000  0.46708000  1.0
  H  H17  1  0.21515000  0.53291000  0.32827000  1.0
  H  H18  1  0.78351000  0.08467000  0.49506000  1.0
  H  H19  1  0.71648000  0.50498000  0.91525000  1.0
  H  H20  1  0.21648000  0.91533000  0.50494000  1.0
  H  H21  1  0.28352000  0.49502000  0.08476000  1.0
  H  H22  1  0.68002000  0.91365000  0.72054000  1.0
  H  H23  1  0.81994000  0.27948000  0.08624000  1.0
  H  H24  1  0.31997000  0.08636000  0.27946000  1.0
  H  H25  1  0.18006000  0.72051000  0.91376000  1.0
  C  C26  1  0.72435000  0.70593000  0.97956000  1.0
  C  C27  1  0.77565000  0.02040000  0.29410000  1.0
  C  C28  1  0.27565000  0.29406000  0.02044000  1.0
  C  C29  1  0.22435000  0.97960000  0.70590000  1.0
  C  C30  1  0.86853000  0.60111000  0.98915000  1.0
  C  C31  1  0.63148000  0.01084000  0.39890000  1.0
  C  C32  1  0.13147000  0.39888000  0.01085000  1.0
  C  C33  1  0.36853000  0.98916000  0.60110000  1.0
  C  C34  1  0.88506000  0.51375000  0.12069000  1.0
  C  C35  1  0.61494000  0.87928000  0.48627000  1.0
  C  C36  1  0.11494000  0.48624000  0.87931000  1.0
  C  C37  1  0.38506000  0.12072000  0.51372000  1.0
  C  C38  1  0.01604000  0.41281000  0.13155000  1.0
  C  C39  1  0.48395000  0.86843000  0.58720000  1.0
  C  C40  1  0.98396000  0.58718000  0.86845000  1.0
  C  C41  1  0.51605000  0.13157000  0.41279000  1.0
  C  C42  1  0.60042000  0.22559000  0.75195000  1.0
  C  C43  1  0.89954000  0.24803000  0.77437000  1.0
  C  C44  1  0.39958000  0.77441000  0.24806000  1.0
  C  C45  1  0.10046000  0.75197000  0.22562000  1.0
  C  C46  1  0.68204000  0.23994000  0.61401000  1.0
  C  C47  1  0.81794000  0.38600000  0.76001000  1.0
  C  C48  1  0.31795000  0.76006000  0.38600000  1.0
  C  C49  1  0.18206000  0.61400000  0.23999000  1.0
  C  C50  1  0.66703000  0.02203000  0.70971000  1.0
  C  C51  1  0.83293000  0.29030000  0.97788000  1.0
  C  C52  1  0.33296000  0.97797000  0.29029000  1.0
  C  C53  1  0.16707000  0.70970000  0.02211000  1.0
  N  N54  1  0.59182000  0.08897000  0.81069000  1.0
  N  N55  1  0.90812000  0.18929000  0.91097000  1.0
  N  N56  1  0.40817000  0.91103000  0.18932000  1.0
  N  N57  1  0.09188000  0.81071000  0.08903000  1.0
  N  N58  1  0.72390000  0.11035000  0.58996000  1.0
  N  N59  1  0.77607000  0.41006000  0.88958000  1.0
  N  N60  1  0.27609000  0.88965000  0.41004000  1.0
  N  N61  1  0.22393000  0.58994000  0.11042000  1.0
  Cl  Cl62  1  0.74150000  0.53156000  0.26788000  1.0
  Cl  Cl63  1  0.75850000  0.73208000  0.46850000  1.0
  Cl  Cl64  1  0.25850000  0.46844000  0.73212000  1.0
  Cl  Cl65  1  0.24150000  0.26793000  0.53150000  1.0
  Cl  Cl66  1  0.03663000  0.30613000  0.29374000  1.0
  Cl  Cl67  1  0.46335000  0.70622000  0.69391000  1.0
  Cl  Cl68  1  0.96338000  0.69387000  0.70626000  1.0
  Cl  Cl69  1  0.53665000  0.29378000  0.30609000  1.0
  O  O70  1  0.70240000  0.82598000  0.99248000  1.0
  O  O71  1  0.79757000  0.00754000  0.17406000  1.0
  O  O72  1  0.29761000  0.17401000  0.00752000  1.0
  O  O73  1  0.20243000  0.99247000  0.82593000  1.0
  O  O74  1  0.63743000  0.66405000  0.96131000  1.0
  O  O75  1  0.86261000  0.03857000  0.33599000  1.0
  O  O76  1  0.36256000  0.33595000  0.03869000  1.0
  O  O77  1  0.13739000  0.96143000  0.66401000  1.0
  O  O78  1  0.56676000  0.09313000  0.07978000  1.0
  O  O79  1  0.93355000  0.91980000  0.90697000  1.0
  O  O80  1  0.43324000  0.90686000  0.92022000  1.0
  O  O81  1  0.06645000  0.08020000  0.09302000  1.0
