# generated using pymatgen
data_ZnH27C19NO9
_symmetry_space_group_name_H-M   'P 1'
_cell_length_a   10.42670000
_cell_length_b   10.87560000
_cell_length_c   10.88050000
_cell_angle_alpha   85.23210000
_cell_angle_beta   74.99110000
_cell_angle_gamma   67.62830000
_symmetry_Int_Tables_number   1
_chemical_formula_structural   ZnH27C19NO9
_chemical_formula_sum   'Zn2 H54 C38 N2 O18'
_cell_volume   1101.86042406
_cell_formula_units_Z   2
loop_
 _symmetry_equiv_pos_site_id
 _symmetry_equiv_pos_as_xyz
  1  'x, y, z'
loop_
 _atom_site_type_symbol
 _atom_site_label
 _atom_site_symmetry_multiplicity
 _atom_site_fract_x
 _atom_site_fract_y
 _atom_site_fract_z
 _atom_site_occupancy
  Zn  Zn0  1  0.15492000  0.44741000  0.96312000  1.0
  Zn  Zn1  1  0.84508000  0.55259000  0.03688000  1.0
  H  H2  1  0.94340000  0.87527000  0.19687000  1.0
  H  H3  1  0.05660000  0.12473000  0.80313000  1.0
  H  H4  1  0.20501000  0.93390000  0.66603000  1.0
  H  H5  1  0.79499000  0.06610000  0.33397000  1.0
  H  H6  1  0.04029000  0.02072000  0.62161000  1.0
  H  H7  1  0.95971000  0.97928000  0.37839000  1.0
  H  H8  1  0.05131000  0.80386000  0.54390000  1.0
  H  H9  1  0.94869000  0.19614000  0.45610000  1.0
  H  H10  1  0.20129000  0.84307000  0.46245000  1.0
  H  H11  1  0.79871000  0.15693000  0.53755000  1.0
  H  H12  1  0.19418000  0.65200000  0.68720000  1.0
  H  H13  1  0.80582000  0.34800000  0.31280000  1.0
  H  H14  1  0.26608000  0.60180000  0.52382000  1.0
  H  H15  1  0.73392000  0.39820000  0.47618000  1.0
  H  H16  1  0.48736000  0.48366000  0.61421000  1.0
  H  H17  1  0.51264000  0.51634000  0.38578000  1.0
  H  H18  1  0.39846000  0.57420000  0.76127000  1.0
  H  H19  1  0.60154000  0.42580000  0.23873000  1.0
  H  H20  1  0.55721000  0.59387000  0.66322000  1.0
  H  H21  1  0.44279000  0.40613000  0.33678000  1.0
  H  H22  1  0.83472000  0.69149000  0.64390000  1.0
  H  H23  1  0.16528000  0.30851000  0.35610000  1.0
  H  H24  1  0.31894000  0.33213000  0.60925000  1.0
  H  H25  1  0.68106000  0.66787000  0.39075000  1.0
  H  H26  1  0.36773000  0.21377000  0.48367000  1.0
  H  H27  1  0.63227000  0.78623000  0.51633000  1.0
  H  H28  1  0.30523000  0.15783000  0.77070000  1.0
  H  H29  1  0.69477000  0.84217000  0.22930000  1.0
  H  H30  1  0.35843000  0.03761000  0.64748000  1.0
  H  H31  1  0.64157000  0.96239000  0.35252000  1.0
  H  H32  1  0.59125000  0.07149000  0.56667000  1.0
  H  H33  1  0.40875000  0.92851000  0.43333000  1.0
  H  H34  1  0.53729000  0.19138000  0.69060000  1.0
  H  H35  1  0.46271000  0.80862000  0.30940000  1.0
  H  H36  1  0.78923000  0.93052000  0.64972000  1.0
  H  H37  1  0.21077000  0.06948000  0.35028000  1.0
  H  H38  1  0.75183000  0.88578000  0.81399000  1.0
  H  H39  1  0.24817000  0.11422000  0.18601000  1.0
  H  H40  1  0.73809000  0.05212000  0.77259000  1.0
  H  H41  1  0.26191000  0.94788000  0.22741000  1.0
  H  H42  1  0.38066000  0.23909000  0.05342000  1.0
  H  H43  1  0.61934000  0.76091000  0.94658000  1.0
  H  H44  1  0.74461000  0.25767000  0.82845000  1.0
  H  H45  1  0.25539000  0.74233000  0.17155000  1.0
  H  H46  1  0.70728000  0.36982000  0.95432000  1.0
  H  H47  1  0.29272000  0.63018000  0.04568000  1.0
  H  H48  1  0.58951000  0.40877000  0.84935000  1.0
  H  H49  1  0.41049000  0.59123000  0.15065000  1.0
  H  H50  1  0.56401000  0.11902000  0.12316000  1.0
  H  H51  1  0.43599000  0.88098000  0.87684000  1.0
  H  H52  1  0.67873000  0.20534000  0.12938000  1.0
  H  H53  1  0.32127000  0.79466000  0.87062000  1.0
  H  H54  1  0.73260000  0.08106000  0.00959000  1.0
  H  H55  1  0.26740000  0.91893000  0.99041000  1.0
  C  C56  1  0.98309000  0.74443000  0.98282000  1.0
  C  C57  1  0.01691000  0.25557000  0.01718000  1.0
  C  C58  1  0.96768000  0.93115000  0.11193000  1.0
  C  C59  1  0.03232000  0.06885000  0.88807000  1.0
  C  C60  1  0.98777000  0.87891000  0.99230000  1.0
  C  C61  1  0.01223000  0.12109000  0.00770000  1.0
  C  C62  1  0.01935000  0.94669000  0.88035000  1.0
  C  C63  1  0.98065000  0.05331000  0.11965000  1.0
  C  C64  1  0.10848000  0.92391000  0.65212000  1.0
  C  C65  1  0.89152000  0.07610000  0.34788000  1.0
  C  C66  1  0.14871000  0.81410000  0.55527000  1.0
  C  C67  1  0.85129000  0.18589000  0.44473000  1.0
  C  C68  1  0.24574000  0.68002000  0.59319000  1.0
  C  C69  1  0.75426000  0.31998000  0.40681000  1.0
  C  C70  1  0.45879000  0.57928000  0.66268000  1.0
  C  C71  1  0.54121000  0.42072000  0.33732000  1.0
  C  C72  1  0.98742000  0.49169000  0.76797000  1.0
  C  C73  1  0.01258000  0.50831000  0.23203000  1.0
  C  C74  1  0.90597000  0.60749000  0.58027000  1.0
  C  C75  1  0.09403000  0.39251000  0.41973000  1.0
  C  C76  1  0.99117000  0.49166000  0.63022000  1.0
  C  C77  1  0.00883000  0.50834000  0.36978000  1.0
  C  C78  1  0.08475000  0.38239000  0.54982000  1.0
  C  C79  1  0.91525000  0.61761000  0.45018000  1.0
  C  C80  1  0.31027000  0.24006000  0.58421000  1.0
  C  C81  1  0.68973000  0.75994000  0.41579000  1.0
  C  C82  1  0.36868000  0.12898000  0.67248000  1.0
  C  C83  1  0.63132000  0.87102000  0.32752000  1.0
  C  C84  1  0.52476000  0.10093000  0.66471000  1.0
  C  C85  1  0.47524000  0.89907000  0.33529000  1.0
  C  C86  1  0.72048000  0.96496000  0.74593000  1.0
  C  C87  1  0.27952000  0.03504000  0.25407000  1.0
  C  C88  1  0.43528000  0.29479000  0.98515000  1.0
  C  C89  1  0.56472000  0.70521000  0.01485000  1.0
  C  C90  1  0.65814000  0.32937000  0.89852000  1.0
  C  C91  1  0.34186000  0.67063000  0.10148000  1.0
  C  C92  1  0.64052000  0.16104000  0.06621000  1.0
  C  C93  1  0.35948000  0.83896000  0.93379000  1.0
  N  N94  1  0.57216000  0.26261000  0.98250000  1.0
  N  N95  1  0.42784000  0.73739000  0.01750000  1.0
  O  O96  1  0.10404000  0.64923000  0.95428000  1.0
  O  O97  1  0.89596000  0.35077000  0.04572000  1.0
  O  O98  1  0.86045000  0.73716000  0.00678000  1.0
  O  O99  1  0.13955000  0.26283000  0.99322000  1.0
  O  O100  1  0.03314000  0.88589000  0.76976000  1.0
  O  O101  1  0.96686000  0.11411000  0.23024000  1.0
  O  O102  1  0.37796000  0.68900000  0.59794000  1.0
  O  O103  1  0.62204000  0.31100000  0.40206000  1.0
  O  O104  1  0.10866000  0.44904000  0.79433000  1.0
  O  O105  1  0.89134000  0.55096000  0.20567000  1.0
  O  O106  1  0.86507000  0.53830000  0.84542000  1.0
  O  O107  1  0.13493000  0.46170000  0.15458000  1.0
  O  O108  1  0.15998000  0.26397000  0.60028000  1.0
  O  O109  1  0.84002000  0.73603000  0.39972000  1.0
  O  O110  1  0.57402000  0.99637000  0.75004000  1.0
  O  O111  1  0.42597000  0.00363000  0.24996000  1.0
  O  O112  1  0.37018000  0.38264000  0.91537000  1.0
  O  O113  1  0.62983000  0.61736000  0.08463000  1.0
