# generated using pymatgen
data_AgH6C10(NO)3
_symmetry_space_group_name_H-M   'P 1'
_cell_length_a   7.48761000
_cell_length_b   9.73809000
_cell_length_c   13.80670000
_cell_angle_alpha   89.99870000
_cell_angle_beta   81.02510000
_cell_angle_gamma   89.99940000
_symmetry_Int_Tables_number   1
_chemical_formula_structural   AgH6C10(NO)3
_chemical_formula_sum   'Ag4 H24 C40 N12 O12'
_cell_volume   994.39036038
_cell_formula_units_Z   4
loop_
 _symmetry_equiv_pos_site_id
 _symmetry_equiv_pos_as_xyz
  1  'x, y, z'
loop_
 _atom_site_type_symbol
 _atom_site_label
 _atom_site_symmetry_multiplicity
 _atom_site_fract_x
 _atom_site_fract_y
 _atom_site_fract_z
 _atom_site_occupancy
  Ag  Ag0  1  0.35416000  0.55477000  0.07839000  1.0
  Ag  Ag1  1  0.14584000  0.05477000  0.92161000  1.0
  Ag  Ag2  1  0.64584000  0.44523000  0.92161000  1.0
  Ag  Ag3  1  0.85416000  0.94523000  0.07839000  1.0
  H  H4  1  0.50737000  0.37990000  0.22848000  1.0
  H  H5  1  0.99262000  0.87991000  0.77152000  1.0
  H  H6  1  0.49262000  0.62010000  0.77152000  1.0
  H  H7  1  0.00737000  0.12009000  0.22848000  1.0
  H  H8  1  0.67633000  0.64020000  0.45244000  1.0
  H  H9  1  0.82368000  0.14020000  0.54756000  1.0
  H  H10  1  0.32368000  0.35981000  0.54755000  1.0
  H  H11  1  0.17633000  0.85981000  0.45244000  1.0
  H  H12  1  0.64620000  0.89124000  0.43414000  1.0
  H  H13  1  0.85381000  0.39124000  0.56587000  1.0
  H  H14  1  0.35380000  0.10876000  0.56586000  1.0
  H  H15  1  0.14619000  0.60877000  0.43413000  1.0
  H  H16  1  0.58572000  0.09114000  0.33141000  1.0
  H  H17  1  0.91429000  0.59114000  0.66859000  1.0
  H  H18  1  0.41428000  0.90886000  0.66858000  1.0
  H  H19  1  0.08572000  0.40886000  0.33142000  1.0
  H  H20  1  0.47658000  0.05262000  0.17175000  1.0
  H  H21  1  0.02342000  0.55263000  0.82825000  1.0
  H  H22  1  0.52342000  0.94738000  0.82825000  1.0
  H  H23  1  0.97658000  0.44737000  0.17175000  1.0
  H  H24  1  0.43246000  0.81677000  0.11240000  1.0
  H  H25  1  0.06754000  0.31677000  0.88760000  1.0
  H  H26  1  0.56753000  0.18323000  0.88760000  1.0
  H  H27  1  0.93247000  0.68323000  0.11240000  1.0
  C  C28  1  0.53166000  0.48120000  0.25682000  1.0
  C  C29  1  0.96834000  0.98119000  0.74318000  1.0
  C  C30  1  0.46834000  0.51880000  0.74318000  1.0
  C  C31  1  0.03167000  0.01881000  0.25682000  1.0
  C  C32  1  0.60227000  0.49512000  0.34606000  1.0
  C  C33  1  0.89773000  0.99513000  0.65394000  1.0
  C  C34  1  0.39773000  0.50488000  0.65394000  1.0
  C  C35  1  0.10227000  0.00487000  0.34606000  1.0
  C  C36  1  0.62357000  0.62512000  0.38392000  1.0
  C  C37  1  0.87643000  0.12511000  0.61608000  1.0
  C  C38  1  0.37644000  0.37488000  0.61608000  1.0
  C  C39  1  0.12357000  0.87489000  0.38392000  1.0
  C  C40  1  0.60094000  0.87676000  0.36353000  1.0
  C  C41  1  0.89905000  0.37673000  0.63646000  1.0
  C  C42  1  0.39905000  0.12324000  0.63647000  1.0
  C  C43  1  0.10095000  0.62327000  0.36354000  1.0
  C  C44  1  0.56686000  0.98673000  0.30655000  1.0
  C  C45  1  0.93314000  0.48677000  0.69346000  1.0
  C  C46  1  0.43313000  0.01326000  0.69345000  1.0
  C  C47  1  0.06685000  0.51324000  0.30654000  1.0
  C  C48  1  0.50865000  0.96489000  0.21486000  1.0
  C  C49  1  0.99136000  0.46487000  0.78514000  1.0
  C  C50  1  0.49136000  0.03510000  0.78514000  1.0
  C  C51  1  0.00864000  0.53512000  0.21486000  1.0
  C  C52  1  0.48316000  0.83336000  0.18152000  1.0
  C  C53  1  0.01684000  0.33333333  0.81849000  1.0
  C  C54  1  0.51684000  0.16664000  0.81848000  1.0
  C  C55  1  0.98316000  0.66662000  0.18151000  1.0
  C  C56  1  0.51838000  0.71864000  0.23830000  1.0
  C  C57  1  0.98162000  0.21863000  0.76170000  1.0
  C  C58  1  0.48162000  0.28136000  0.76170000  1.0
  C  C59  1  0.01838000  0.78138000  0.23830000  1.0
  C  C60  1  0.58065000  0.74034000  0.33028000  1.0
  C  C61  1  0.91936000  0.24036000  0.66973000  1.0
  C  C62  1  0.41936000  0.25965000  0.66972000  1.0
  C  C63  1  0.08064000  0.75964000  0.33027000  1.0
  C  C64  1  0.65503000  0.37472000  0.39253000  1.0
  C  C65  1  0.84496000  0.87472000  0.60747000  1.0
  C  C66  1  0.34496000  0.62528000  0.60747000  1.0
  C  C67  1  0.15504000  0.12528000  0.39253000  1.0
  N  N68  1  0.49108000  0.58810000  0.20542000  1.0
  N  N69  1  0.00892000  0.08812000  0.79459000  1.0
  N  N70  1  0.50891000  0.41190000  0.79458000  1.0
  N  N71  1  0.99108000  0.91188000  0.20541000  1.0
  N  N72  1  0.70115000  0.27519000  0.42896000  1.0
  N  N73  1  0.79886000  0.77518000  0.57104000  1.0
  N  N74  1  0.29886000  0.72482000  0.57105000  1.0
  N  N75  1  0.20114000  0.22481000  0.42896000  1.0
  N  N76  1  0.22454000  0.73140000  0.92186000  1.0
  N  N77  1  0.27545000  0.23140000  0.07814000  1.0
  N  N78  1  0.77545000  0.26860000  0.07814000  1.0
  N  N79  1  0.72455000  0.76860000  0.92186000  1.0
  O  O80  1  0.24527000  0.60352000  0.94088000  1.0
  O  O81  1  0.25472000  0.10353000  0.05913000  1.0
  O  O82  1  0.75473000  0.39647000  0.05912000  1.0
  O  O83  1  0.74527000  0.89648000  0.94087000  1.0
  O  O84  1  0.17746000  0.76296000  0.84128000  1.0
  O  O85  1  0.32254000  0.26297000  0.15872000  1.0
  O  O86  1  0.82253000  0.23704000  0.15872000  1.0
  O  O87  1  0.67746000  0.73704000  0.84128000  1.0
  O  O88  1  0.25124000  0.82189000  0.98388000  1.0
  O  O89  1  0.24876000  0.32189000  0.01613000  1.0
  O  O90  1  0.74876000  0.17811000  0.01612000  1.0
  O  O91  1  0.75123000  0.67811000  0.98387000  1.0
