# generated using pymatgen
data_ZnH12(CO)7
_symmetry_space_group_name_H-M   'P 1'
_cell_length_a   5.01854000
_cell_length_b   9.00060000
_cell_length_c   10.78540000
_cell_angle_alpha   79.66300000
_cell_angle_beta   89.95590000
_cell_angle_gamma   89.95390000
_symmetry_Int_Tables_number   1
_chemical_formula_structural   ZnH12(CO)7
_chemical_formula_sum   'Zn2 H24 C14 O14'
_cell_volume   479.26771553
_cell_formula_units_Z   2
loop_
 _symmetry_equiv_pos_site_id
 _symmetry_equiv_pos_as_xyz
  1  'x, y, z'
loop_
 _atom_site_type_symbol
 _atom_site_label
 _atom_site_symmetry_multiplicity
 _atom_site_fract_x
 _atom_site_fract_y
 _atom_site_fract_z
 _atom_site_occupancy
  Zn  Zn0  1  0.78721000  0.99959000  0.25026000  1.0
  Zn  Zn1  1  0.21271000  0.00028000  0.74992000  1.0
  H  H2  1  0.59656000  0.36332000  0.48870000  1.0
  H  H3  1  0.59618000  0.63690000  0.01075000  1.0
  H  H4  1  0.40382000  0.63676000  0.51119000  1.0
  H  H5  1  0.40350000  0.36318000  0.98910000  1.0
  H  H6  1  0.31889000  0.24525000  0.52753000  1.0
  H  H7  1  0.31902000  0.75560000  0.97229000  1.0
  H  H8  1  0.68128000  0.75501000  0.47246000  1.0
  H  H9  1  0.68080000  0.24462000  0.02771000  1.0
  H  H10  1  0.16877000  0.49244000  0.40715000  1.0
  H  H11  1  0.16724000  0.50875000  0.09238000  1.0
  H  H12  1  0.83206000  0.50795000  0.59276000  1.0
  H  H13  1  0.83205000  0.49156000  0.90754000  1.0
  H  H14  1  0.09900000  0.35282000  0.32031000  1.0
  H  H15  1  0.09963000  0.64802000  0.17996000  1.0
  H  H16  1  0.90079000  0.64746000  0.67985000  1.0
  H  H17  1  0.90064000  0.35219000  0.82020000  1.0
  H  H18  1  0.10885000  0.86501000  0.42607000  1.0
  H  H19  1  0.10848000  0.13457000  0.07434000  1.0
  H  H20  1  0.89142000  0.13505000  0.57403000  1.0
  H  H21  1  0.89115000  0.86545000  0.92578000  1.0
  H  H22  1  0.20448000  0.83735000  0.28996000  1.0
  H  H23  1  0.20361000  0.16197000  0.21054000  1.0
  H  H24  1  0.79573000  0.16258000  0.71018000  1.0
  H  H25  1  0.79607000  0.83793000  0.78960000  1.0
  C  C26  1  0.57746000  0.18278000  0.38900000  1.0
  C  C27  1  0.57776000  0.81706000  0.11100000  1.0
  C  C28  1  0.42248000  0.81719000  0.61105000  1.0
  C  C29  1  0.42232000  0.18288000  0.88903000  1.0
  C  C30  1  0.43976000  0.30204000  0.44789000  1.0
  C  C31  1  0.43963000  0.69834000  0.05180000  1.0
  C  C32  1  0.56047000  0.69807000  0.55207000  1.0
  C  C33  1  0.56020000  0.30175000  0.94813000  1.0
  C  C34  1  0.26634000  0.40993000  0.35754000  1.0
  C  C35  1  0.26602000  0.59055000  0.14213000  1.0
  C  C36  1  0.73392000  0.59022000  0.64241000  1.0
  C  C37  1  0.73382000  0.40956000  0.85782000  1.0
  C  C38  1  0.42266000  0.49966000  0.24945000  1.0
  C  C39  1  0.57736000  0.50007000  0.75022000  1.0
  O  O40  1  0.66786000  0.49854000  0.24876000  1.0
  O  O41  1  0.33222000  0.50040000  0.75039000  1.0
  O  O42  1  0.77821000  0.11168000  0.44128000  1.0
  O  O43  1  0.77790000  0.88852000  0.05859000  1.0
  O  O44  1  0.22191000  0.88838000  0.55875000  1.0
  O  O45  1  0.22188000  0.11156000  0.94145000  1.0
  O  O46  1  0.49254000  0.15139000  0.28404000  1.0
  O  O47  1  0.49378000  0.84741000  0.21658000  1.0
  O  O48  1  0.50706000  0.84827000  0.71619000  1.0
  O  O49  1  0.50659000  0.15218000  0.78365000  1.0
  O  O50  1  0.04112000  0.84371000  0.34223000  1.0
  O  O51  1  0.04051000  0.15560000  0.15827000  1.0
  O  O52  1  0.95909000  0.15628000  0.65788000  1.0
  O  O53  1  0.95917000  0.84434000  0.84185000  1.0
