# generated using pymatgen
data_CdH8C10Br2(NO)2
_symmetry_space_group_name_H-M   'P 1'
_cell_length_a   3.97564000
_cell_length_b   8.37057000
_cell_length_c   18.56480000
_cell_angle_alpha   92.27320000
_cell_angle_beta   90.03700000
_cell_angle_gamma   103.56700000
_symmetry_Int_Tables_number   1
_chemical_formula_structural   CdH8C10Br2(NO)2
_chemical_formula_sum   'Cd2 H16 C20 Br4 N4 O4'
_cell_volume   600.06313743
_cell_formula_units_Z   2
loop_
 _symmetry_equiv_pos_site_id
 _symmetry_equiv_pos_as_xyz
  1  'x, y, z'
loop_
 _atom_site_type_symbol
 _atom_site_label
 _atom_site_symmetry_multiplicity
 _atom_site_fract_x
 _atom_site_fract_y
 _atom_site_fract_z
 _atom_site_occupancy
  Cd  Cd0  1  0.27695000  0.99985000  0.74953000  1.0
  Cd  Cd1  1  0.72304000  0.00015000  0.25047000  1.0
  H  H2  1  0.85243000  0.52803000  0.71449000  1.0
  H  H3  1  0.32906000  0.47258000  0.78524000  1.0
  H  H4  1  0.14756000  0.47197000  0.28551000  1.0
  H  H5  1  0.67094000  0.52742000  0.21476000  1.0
  H  H6  1  0.57844000  0.24690000  0.47653000  1.0
  H  H7  1  0.32392000  0.75182000  0.02331000  1.0
  H  H8  1  0.42154000  0.75310000  0.52347000  1.0
  H  H9  1  0.67611000  0.24818000  0.97669000  1.0
  H  H10  1  0.27416000  0.13902000  0.58778000  1.0
  H  H11  1  0.12848000  0.86017000  0.91181000  1.0
  H  H12  1  0.72583000  0.86098000  0.41222000  1.0
  H  H13  1  0.87153000  0.13983000  0.08820000  1.0
  H  H14  1  0.17716000  0.65233000  0.61085000  1.0
  H  H15  1  0.53129000  0.34855000  0.88898000  1.0
  H  H16  1  0.82283000  0.34767000  0.38915000  1.0
  H  H17  1  0.46871000  0.65144000  0.11102000  1.0
  C  C18  1  0.80573000  0.47037000  0.66068000  1.0
  C  C19  1  0.33839000  0.53009000  0.83906000  1.0
  C  C20  1  0.19426000  0.52963000  0.33932000  1.0
  C  C21  1  0.66162000  0.46991000  0.16094000  1.0
  C  C22  1  0.65411000  0.31464000  0.52762000  1.0
  C  C23  1  0.33496000  0.68465000  0.97217000  1.0
  C  C24  1  0.34588000  0.68536000  0.47238000  1.0
  C  C25  1  0.66506000  0.31535000  0.02783000  1.0
  C  C26  1  0.48115000  0.25012000  0.58821000  1.0
  C  C27  1  0.22701000  0.74938000  0.91147000  1.0
  C  C28  1  0.51885000  0.74988000  0.41179000  1.0
  C  C29  1  0.77301000  0.25062000  0.08853000  1.0
  C  C30  1  0.98182000  0.53823000  0.60113000  1.0
  C  C31  1  0.44708000  0.46225000  0.89871000  1.0
  C  C32  1  0.01816000  0.46177000  0.39887000  1.0
  C  C33  1  0.55292000  0.53775000  0.10129000  1.0
  C  C34  1  0.90989000  0.46317000  0.53196000  1.0
  C  C35  1  0.44649000  0.53674000  0.96796000  1.0
  C  C36  1  0.09009000  0.53683000  0.46804000  1.0
  C  C37  1  0.55352000  0.46325000  0.03204000  1.0
  Br  Br38  1  0.81604000  0.08880000  0.84849000  1.0
  Br  Br39  1  0.72954000  0.91170000  0.65046000  1.0
  Br  Br40  1  0.18396000  0.91120000  0.15151000  1.0
  Br  Br41  1  0.27046000  0.08830000  0.34954000  1.0
  N  N42  1  0.55466000  0.32866000  0.65412000  1.0
  N  N43  1  0.22564000  0.67139000  0.84552000  1.0
  N  N44  1  0.44534000  0.67134000  0.34588000  1.0
  N  N45  1  0.77436000  0.32861000  0.15448000  1.0
  O  O46  1  0.37721000  0.27302000  0.71159000  1.0
  O  O47  1  0.10375000  0.72701000  0.78794000  1.0
  O  O48  1  0.62278000  0.72698000  0.28841000  1.0
  O  O49  1  0.89626000  0.27299000  0.21206000  1.0
