# generated using pymatgen
data_ZnH6C20Br3NO4
_symmetry_space_group_name_H-M   'P 1'
_cell_length_a   14.83740000
_cell_length_b   15.84110000
_cell_length_c   16.21490000
_cell_angle_alpha   89.81130000
_cell_angle_beta   89.58230000
_cell_angle_gamma   65.66730000
_symmetry_Int_Tables_number   1
_chemical_formula_structural   ZnH6C20Br3NO4
_chemical_formula_sum   'Zn2 H12 C40 Br6 N2 O8'
_cell_volume   3472.51746610
_cell_formula_units_Z   2
loop_
 _symmetry_equiv_pos_site_id
 _symmetry_equiv_pos_as_xyz
  1  'x, y, z'
loop_
 _atom_site_type_symbol
 _atom_site_label
 _atom_site_symmetry_multiplicity
 _atom_site_fract_x
 _atom_site_fract_y
 _atom_site_fract_z
 _atom_site_occupancy
  Zn  Zn0  1  0.59836000  0.49060000  0.49903000  1.0
  Zn  Zn1  1  0.40163000  0.50940000  0.50098000  1.0
  H  H2  1  0.76716000  0.88608000  0.51398000  1.0
  H  H3  1  0.23283000  0.11392000  0.48600000  1.0
  H  H4  1  0.53910000  0.76639000  0.48892000  1.0
  H  H5  1  0.46090000  0.23361000  0.51106000  1.0
  H  H6  1  0.23624000  0.81508000  0.51963000  1.0
  H  H7  1  0.76376000  0.18492000  0.48038000  1.0
  H  H8  1  0.15077000  0.35075000  0.50785000  1.0
  H  H9  1  0.84924000  0.64924000  0.49215000  1.0
  H  H10  1  0.81187000  0.01312000  0.48114000  1.0
  H  H11  1  0.18812000  0.98688000  0.51885000  1.0
  H  H12  1  0.63572000  0.51608000  0.92016000  1.0
  H  H13  1  0.36429000  0.48391000  0.07985000  1.0
  C  C14  1  0.50058000  0.49678000  0.33909000  1.0
  C  C15  1  0.49941000  0.50323000  0.66091000  1.0
  C  C16  1  0.61898000  0.89689000  0.51977000  1.0
  C  C17  1  0.38101000  0.10311000  0.48020000  1.0
  C  C18  1  0.68897000  0.93083000  0.50601000  1.0
  C  C19  1  0.31102000  0.06917000  0.49397000  1.0
  C  C20  1  0.57648000  0.50911000  0.95543000  1.0
  C  C21  1  0.42354000  0.49088000  0.04457000  1.0
  C  C22  1  0.49813000  0.50076000  0.91234000  1.0
  C  C23  1  0.50188000  0.49922000  0.08767000  1.0
  C  C24  1  0.42172000  0.49152000  0.95910000  1.0
  C  C25  1  0.57830000  0.50847000  0.04090000  1.0
  C  C26  1  0.49809000  0.50188000  0.82528000  1.0
  C  C27  1  0.50192000  0.49811000  0.17472000  1.0
  C  C28  1  0.50044000  0.49711000  0.24983000  1.0
  C  C29  1  0.49956000  0.50289000  0.75017000  1.0
  C  C30  1  0.99104000  0.41500000  0.50469000  1.0
  C  C31  1  0.00896000  0.58499000  0.49531000  1.0
  C  C32  1  0.90641000  0.49977000  0.49982000  1.0
  C  C33  1  0.09360000  0.50022000  0.50018000  1.0
  C  C34  1  0.91553000  0.58455000  0.49511000  1.0
  C  C35  1  0.08447000  0.41544000  0.50489000  1.0
  C  C36  1  0.57710000  0.31983000  0.50087000  1.0
  C  C37  1  0.42288000  0.68017000  0.49912000  1.0
  C  C38  1  0.81064000  0.50002000  0.49924000  1.0
  C  C39  1  0.18936000  0.49998000  0.50075000  1.0
  C  C40  1  0.60823000  0.21717000  0.49568000  1.0
  C  C41  1  0.39177000  0.78283000  0.50431000  1.0
  C  C42  1  0.73435000  0.06212000  0.48460000  1.0
  C  C43  1  0.26564000  0.93788000  0.51539000  1.0
  C  C44  1  0.70864000  0.15619000  0.48530000  1.0
  C  C45  1  0.29136000  0.84381000  0.51470000  1.0
  C  C46  1  0.53588000  0.18307000  0.50033000  1.0
  C  C47  1  0.46411000  0.81693000  0.49966000  1.0
  C  C48  1  0.55851000  0.08767000  0.49350000  1.0
  C  C49  1  0.44149000  0.91233000  0.50648000  1.0
  C  C50  1  0.66115000  0.02644000  0.49114000  1.0
  C  C51  1  0.33884000  0.97356000  0.50884000  1.0
  C  C52  1  0.48513000  0.04891000  0.49329000  1.0
  C  C53  1  0.51487000  0.95110000  0.50670000  1.0
  Br  Br54  1  0.67200000  0.77618000  0.57075000  1.0
  Br  Br55  1  0.32800000  0.22382000  0.42923000  1.0
  Br  Br56  1  0.68511000  0.52035000  0.09523000  1.0
  Br  Br57  1  0.31491000  0.47963000  0.90477000  1.0
  Br  Br58  1  0.97760000  0.30206000  0.51125000  1.0
  Br  Br59  1  0.02240000  0.69793000  0.48876000  1.0
  N  N60  1  0.26741000  0.50019000  0.50146000  1.0
  N  N61  1  0.73259000  0.49981000  0.49854000  1.0
  O  O62  1  0.58130000  0.48722000  0.37305000  1.0
  O  O63  1  0.41872000  0.51277000  0.62696000  1.0
  O  O64  1  0.42010000  0.50611000  0.37455000  1.0
  O  O65  1  0.57990000  0.49393000  0.62545000  1.0
  O  O66  1  0.64474000  0.34978000  0.50038000  1.0
  O  O67  1  0.35526000  0.65022000  0.49964000  1.0
  O  O68  1  0.48437000  0.36944000  0.50455000  1.0
  O  O69  1  0.51563000  0.63056000  0.49543000  1.0
