# generated using pymatgen
data_Ag2H22C21N3O5F14
_symmetry_space_group_name_H-M   'P 1'
_cell_length_a   8.76554000
_cell_length_b   12.28890000
_cell_length_c   14.90400000
_cell_angle_alpha   109.74600000
_cell_angle_beta   96.73550000
_cell_angle_gamma   104.41900000
_symmetry_Int_Tables_number   1
_chemical_formula_structural   Ag2H22C21N3O5F14
_chemical_formula_sum   'Ag4 H44 C42 N6 O10 F28'
_cell_volume   1427.27277948
_cell_formula_units_Z   2
loop_
 _symmetry_equiv_pos_site_id
 _symmetry_equiv_pos_as_xyz
  1  'x, y, z'
loop_
 _atom_site_type_symbol
 _atom_site_label
 _atom_site_symmetry_multiplicity
 _atom_site_fract_x
 _atom_site_fract_y
 _atom_site_fract_z
 _atom_site_occupancy
  Ag  Ag0  1  0.64426000  0.26545000  0.32300000  1.0
  Ag  Ag1  1  0.35574000  0.73455000  0.67700000  1.0
  Ag  Ag2  1  0.79731000  0.89052000  0.87302000  1.0
  Ag  Ag3  1  0.20269000  0.10948000  0.12698000  1.0
  H  H4  1  0.36310000  0.14853000  0.37216000  1.0
  H  H5  1  0.63690000  0.85147000  0.62784000  1.0
  H  H6  1  0.71906000  0.37290000  0.20035000  1.0
  H  H7  1  0.28094000  0.62710000  0.79965000  1.0
  H  H8  1  0.81213000  0.37001000  0.09993000  1.0
  H  H9  1  0.18787000  0.62999000  0.90006000  1.0
  H  H10  1  0.92485000  0.37406000  0.20751000  1.0
  H  H11  1  0.07515000  0.62594000  0.79249000  1.0
  H  H12  1  0.52286000  0.03839000  0.27143000  1.0
  H  H13  1  0.47713000  0.96161000  0.72857000  1.0
  H  H14  1  0.60389000  0.91499000  0.22882000  1.0
  H  H15  1  0.39611000  0.08501000  0.77118000  1.0
  H  H16  1  0.41347000  0.90678000  0.16674000  1.0
  H  H17  1  0.58653000  0.09322000  0.83326000  1.0
  H  H18  1  0.60312000  0.77742000  0.94637000  1.0
  H  H19  1  0.39688000  0.22258000  0.05363000  1.0
  H  H20  1  0.48276000  0.78316000  0.03544000  1.0
  H  H21  1  0.51724000  0.21684000  0.96456000  1.0
  H  H22  1  0.68853000  0.79437000  0.06719000  1.0
  H  H23  1  0.31147000  0.20562000  0.93281000  1.0
  H  H24  1  0.91672000  0.11940000  0.92213000  1.0
  H  H25  1  0.08329000  0.88060000  0.07787000  1.0
  H  H26  1  0.00659000  0.25102000  0.03122000  1.0
  H  H27  1  0.99341000  0.74898000  0.96878000  1.0
  H  H28  1  0.83285000  0.24210000  0.95219000  1.0
  H  H29  1  0.16715000  0.75790000  0.04782000  1.0
  H  H30  1  0.68762000  0.61658000  0.47909000  1.0
  H  H31  1  0.31239000  0.38342000  0.52091000  1.0
  H  H32  1  0.65593000  0.54676000  0.56350000  1.0
  H  H33  1  0.34408000  0.45323000  0.43650000  1.0
  H  H34  1  0.59954000  0.45611000  0.43613000  1.0
  H  H35  1  0.40046000  0.54389000  0.56387000  1.0
  H  H36  1  0.95274000  0.72242000  0.69421000  1.0
  H  H37  1  0.04727000  0.27758000  0.30579000  1.0
  H  H38  1  0.88871000  0.75596000  0.59274000  1.0
  H  H39  1  0.11130000  0.24403000  0.40726000  1.0
  H  H40  1  0.09941000  0.79929000  0.64499000  1.0
  H  H41  1  0.90059000  0.20070000  0.35501000  1.0
  H  H42  1  0.54193000  0.07415000  0.45001000  1.0
  H  H43  1  0.45806000  0.92586000  0.54999000  1.0
  H  H44  1  0.42513000  0.14284000  0.53002000  1.0
  H  H45  1  0.57487000  0.85717000  0.46999000  1.0
  H  H46  1  0.62748000  0.22679000  0.53737000  1.0
  H  H47  1  0.37251000  0.77322000  0.46263000  1.0
  C  C48  1  0.26841000  0.52030000  0.08301000  1.0
  C  C49  1  0.73159000  0.47970000  0.91699000  1.0
  C  C50  1  0.38862000  0.57438000  0.18427000  1.0
  C  C51  1  0.61137000  0.42562000  0.81574000  1.0
  C  C52  1  0.34320000  0.51701000  0.26000000  1.0
  C  C53  1  0.65679000  0.48299000  0.74001000  1.0
  C  C54  1  0.32961000  0.37884000  0.22757000  1.0
  C  C55  1  0.67038000  0.62115000  0.77243000  1.0
  C  C56  1  0.05575000  0.26190000  0.64181000  1.0
  C  C57  1  0.94425000  0.73811000  0.35819000  1.0
  C  C58  1  0.02214000  0.19308000  0.71199000  1.0
  C  C59  1  0.97786000  0.80692000  0.28801000  1.0
  C  C60  1  0.99182000  0.05297000  0.66757000  1.0
  C  C61  1  0.00818000  0.94703000  0.33242000  1.0
  C  C62  1  0.93613000  0.99270000  0.74025000  1.0
  C  C63  1  0.06389000  0.00729000  0.25975000  1.0
  C  C64  1  0.75052000  0.20149000  0.12230000  1.0
  C  C65  1  0.24948000  0.79851000  0.87770000  1.0
  C  C66  1  0.61897000  0.02570000  0.14424000  1.0
  C  C67  1  0.38103000  0.97430000  0.85576000  1.0
  C  C68  1  0.65257000  0.95456000  0.05737000  1.0
  C  C69  1  0.34743000  0.04544000  0.94263000  1.0
  C  C70  1  0.78948000  0.13068000  0.03741000  1.0
  C  C71  1  0.21052000  0.86932000  0.96259000  1.0
  C  C72  1  0.80368000  0.33709000  0.15941000  1.0
  C  C73  1  0.19632000  0.66291000  0.84059000  1.0
  C  C74  1  0.53517000  0.96839000  0.20613000  1.0
  C  C75  1  0.46483000  0.03161000  0.79386000  1.0
  C  C76  1  0.60303000  0.81975000  0.02410000  1.0
  C  C77  1  0.39698000  0.18025000  0.97590000  1.0
  C  C78  1  0.89131000  0.18856000  0.98226000  1.0
  C  C79  1  0.10869000  0.81144000  0.01774000  1.0
  C  C80  1  0.85251000  0.51723000  0.49639000  1.0
  C  C81  1  0.14750000  0.48277000  0.50360000  1.0
  C  C82  1  0.99194000  0.60937000  0.55941000  1.0
  C  C83  1  0.00806000  0.39063000  0.44059000  1.0
  C  C84  1  0.69054000  0.53507000  0.49325000  1.0
  C  C85  1  0.30947000  0.46492000  0.50675000  1.0
  C  C86  1  0.98300000  0.72836000  0.62598000  1.0
  C  C87  1  0.01700000  0.27164000  0.37402000  1.0
  C  C88  1  0.51636000  0.15965000  0.48741000  1.0
  C  C89  1  0.48364000  0.84035000  0.51259000  1.0
  N  N90  1  0.66666667  0.14750000  0.17434000  1.0
  N  N91  1  0.33337000  0.85250000  0.82566000  1.0
  N  N92  1  0.73760000  0.00807000  0.00570000  1.0
  N  N93  1  0.26240000  0.99193000  0.99431000  1.0
  N  N94  1  0.86312000  0.40971000  0.43810000  1.0
  N  N95  1  0.13688000  0.59029000  0.56190000  1.0
  O  O96  1  0.78584000  0.93975000  0.72445000  1.0
  O  O97  1  0.21417000  0.06025000  0.27555000  1.0
  O  O98  1  0.04433000  0.00592000  0.80894000  1.0
  O  O99  1  0.95570000  0.99406000  0.19104000  1.0
  O  O100  1  0.46287000  0.20925000  0.41958000  1.0
  O  O101  1  0.53712000  0.79075000  0.58042000  1.0
  O  O102  1  0.46012000  0.35680000  0.24130000  1.0
  O  O103  1  0.53986000  0.64319000  0.75870000  1.0
  O  O104  1  0.18771000  0.30605000  0.18920000  1.0
  O  O105  1  0.81227000  0.69394000  0.81080000  1.0
  F  F106  1  0.11861000  0.52543000  0.09230000  1.0
  F  F107  1  0.88138000  0.47457000  0.90770000  1.0
  F  F108  1  0.32183000  0.58554000  0.02895000  1.0
  F  F109  1  0.67817000  0.41447000  0.97105000  1.0
  F  F110  1  0.26030000  0.40370000  0.03336000  1.0
  F  F111  1  0.73969000  0.59630000  0.96664000  1.0
  F  F112  1  0.53471000  0.56329000  0.16665000  1.0
  F  F113  1  0.46528000  0.43672000  0.83335000  1.0
  F  F114  1  0.40351000  0.69583000  0.22402000  1.0
  F  F115  1  0.59648000  0.30417000  0.77598000  1.0
  F  F116  1  0.20229000  0.53792000  0.28239000  1.0
  F  F117  1  0.79771000  0.46209000  0.71761000  1.0
  F  F118  1  0.46290000  0.58431000  0.34318000  1.0
  F  F119  1  0.53709000  0.41568000  0.65682000  1.0
  F  F120  1  0.09594000  0.38315000  0.69310000  1.0
  F  F121  1  0.90405000  0.61685000  0.30691000  1.0
  F  F122  1  0.92377000  0.22896000  0.57006000  1.0
  F  F123  1  0.07624000  0.77104000  0.42994000  1.0
  F  F124  1  0.17964000  0.23886000  0.60033000  1.0
  F  F125  1  0.82038000  0.76116000  0.39968000  1.0
  F  F126  1  0.15174000  0.24502000  0.78967000  1.0
  F  F127  1  0.84826000  0.75498000  0.21033000  1.0
  F  F128  1  0.88866000  0.21396000  0.74543000  1.0
  F  F129  1  0.11133000  0.78603000  0.25456000  1.0
  F  F130  1  0.87838000  0.00526000  0.58105000  1.0
  F  F131  1  0.12162000  0.99474000  0.41895000  1.0
  F  F132  1  0.13281000  0.03245000  0.64525000  1.0
  F  F133  1  0.86720000  0.96755000  0.35474000  1.0
