# generated using pymatgen
data_CuH9C9BrN3
_symmetry_space_group_name_H-M   'P 1'
_cell_length_a   4.02124000
_cell_length_b   13.66840000
_cell_length_c   17.19190000
_cell_angle_alpha   89.99990000
_cell_angle_beta   89.27040000
_cell_angle_gamma   89.99980000
_symmetry_Int_Tables_number   1
_chemical_formula_structural   CuH9C9BrN3
_chemical_formula_sum   'Cu4 H36 C36 Br4 N12'
_cell_volume   944.85755069
_cell_formula_units_Z   4
loop_
 _symmetry_equiv_pos_site_id
 _symmetry_equiv_pos_as_xyz
  1  'x, y, z'
loop_
 _atom_site_type_symbol
 _atom_site_label
 _atom_site_symmetry_multiplicity
 _atom_site_fract_x
 _atom_site_fract_y
 _atom_site_fract_z
 _atom_site_occupancy
  Cu  Cu0  1  0.64485000  0.05808000  0.41730000  1.0
  Cu  Cu1  1  0.35516000  0.55808000  0.08270000  1.0
  Cu  Cu2  1  0.35518000  0.94191000  0.58270000  1.0
  Cu  Cu3  1  0.64484000  0.44192000  0.91730000  1.0
  H  H4  1  0.61779000  0.32854000  0.72100000  1.0
  H  H5  1  0.38221000  0.82854000  0.77900000  1.0
  H  H6  1  0.38222000  0.67146000  0.27900000  1.0
  H  H7  1  0.61780000  0.17146000  0.22100000  1.0
  H  H8  1  0.07260000  0.07485000  0.69778000  1.0
  H  H9  1  0.92738000  0.57484000  0.80221000  1.0
  H  H10  1  0.92736000  0.92516000  0.30221000  1.0
  H  H11  1  0.07262000  0.42516000  0.19779000  1.0
  H  H12  1  0.15489000  0.19567000  0.73304000  1.0
  H  H13  1  0.84509000  0.69566000  0.76695000  1.0
  H  H14  1  0.84508000  0.80434000  0.26696000  1.0
  H  H15  1  0.15492000  0.30434000  0.23305000  1.0
  H  H16  1  0.96324000  0.45109000  0.65061000  1.0
  H  H17  1  0.03677000  0.95110000  0.84939000  1.0
  H  H18  1  0.03679000  0.54890000  0.34939000  1.0
  H  H19  1  0.96324000  0.04890000  0.15061000  1.0
  H  H20  1  0.01998000  0.26727000  0.44510000  1.0
  H  H21  1  0.98001000  0.76727000  0.05490000  1.0
  H  H22  1  0.98003000  0.73272000  0.55490000  1.0
  H  H23  1  0.01997000  0.23272000  0.94510000  1.0
  H  H24  1  0.16506000  0.42213000  0.51585000  1.0
  H  H25  1  0.83495000  0.92213000  0.98415000  1.0
  H  H26  1  0.83497000  0.57786000  0.48415000  1.0
  H  H27  1  0.16504000  0.07786000  0.01586000  1.0
  H  H28  1  0.59222000  0.01228000  0.76146000  1.0
  H  H29  1  0.40775000  0.51228000  0.73853000  1.0
  H  H30  1  0.40772000  0.98772000  0.23854000  1.0
  H  H31  1  0.59225000  0.48773000  0.26146000  1.0
  H  H32  1  0.43753000  0.19980000  0.85656000  1.0
  H  H33  1  0.56245000  0.69980000  0.64344000  1.0
  H  H34  1  0.56244000  0.80020000  0.14344000  1.0
  H  H35  1  0.43756000  0.30021000  0.35656000  1.0
  H  H36  1  0.68840000  0.09263000  0.88762000  1.0
  H  H37  1  0.31156000  0.59264000  0.61237000  1.0
  H  H38  1  0.31155000  0.90736000  0.11238000  1.0
  H  H39  1  0.68845000  0.40737000  0.38762000  1.0
  C  C40  1  0.70319000  0.31553000  0.66151000  1.0
  C  C41  1  0.29682000  0.81553000  0.83849000  1.0
  C  C42  1  0.29681000  0.68447000  0.33849000  1.0
  C  C43  1  0.70320000  0.18447000  0.16152000  1.0
  C  C44  1  0.62713000  0.22962000  0.62110000  1.0
  C  C45  1  0.37287000  0.72962000  0.87890000  1.0
  C  C46  1  0.37288000  0.77038000  0.37890000  1.0
  C  C47  1  0.62714000  0.27039000  0.12110000  1.0
  C  C48  1  0.26939000  0.12701000  0.71318000  1.0
  C  C49  1  0.73060000  0.62700000  0.78681000  1.0
  C  C50  1  0.73059000  0.87300000  0.28682000  1.0
  C  C51  1  0.26941000  0.37300000  0.21318000  1.0
  C  C52  1  0.89610000  0.38344000  0.62130000  1.0
  C  C53  1  0.10390000  0.88344000  0.87870000  1.0
  C  C54  1  0.10391000  0.61655000  0.37870000  1.0
  C  C55  1  0.89610000  0.11656000  0.12131000  1.0
  C  C56  1  0.93223000  0.28201000  0.50407000  1.0
  C  C57  1  0.06778000  0.78201000  0.99593000  1.0
  C  C58  1  0.06779000  0.71799000  0.49593000  1.0
  C  C59  1  0.93222000  0.21799000  0.00407000  1.0
  C  C60  1  0.73780000  0.21261000  0.54394000  1.0
  C  C61  1  0.26219000  0.71261000  0.95606000  1.0
  C  C62  1  0.26220000  0.78738000  0.45607000  1.0
  C  C63  1  0.73780000  0.28739000  0.04394000  1.0
  C  C64  1  0.00889000  0.36705000  0.54406000  1.0
  C  C65  1  0.99110000  0.86705000  0.95594000  1.0
  C  C66  1  0.99112000  0.63294000  0.45594000  1.0
  C  C67  1  0.00888000  0.13294000  0.04406000  1.0
  C  C68  1  0.48512000  0.08393000  0.77494000  1.0
  C  C69  1  0.51486000  0.58393000  0.72504000  1.0
  C  C70  1  0.51485000  0.91607000  0.22505000  1.0
  C  C71  1  0.48515000  0.41607000  0.27495000  1.0
  C  C72  1  0.53876000  0.12751000  0.84307000  1.0
  C  C73  1  0.46122000  0.62751000  0.65693000  1.0
  C  C74  1  0.46123000  0.87250000  0.15693000  1.0
  C  C75  1  0.53880000  0.37250000  0.34306000  1.0
  Br  Br76  1  0.13865000  0.11491000  0.34378000  1.0
  Br  Br77  1  0.86137000  0.61491000  0.15622000  1.0
  Br  Br78  1  0.86136000  0.88509000  0.65623000  1.0
  Br  Br79  1  0.13864000  0.38509000  0.84377000  1.0
  N  N80  1  0.61925000  0.12282000  0.52108000  1.0
  N  N81  1  0.38075000  0.62282000  0.97892000  1.0
  N  N82  1  0.38076000  0.87717000  0.47893000  1.0
  N  N83  1  0.61925000  0.37718000  0.02107000  1.0
  N  N84  1  0.44600000  0.08439000  0.57962000  1.0
  N  N85  1  0.55400000  0.58439000  0.92038000  1.0
  N  N86  1  0.55402000  0.91560000  0.42038000  1.0
  N  N87  1  0.44599000  0.41561000  0.07962000  1.0
  N  N88  1  0.44758000  0.14815000  0.64046000  1.0
  N  N89  1  0.55240000  0.64815000  0.85954000  1.0
  N  N90  1  0.55241000  0.85185000  0.35955000  1.0
  N  N91  1  0.44759000  0.35185000  0.14046000  1.0
