# generated using pymatgen
data_LaH10C8SO10
_symmetry_space_group_name_H-M   'P 1'
_cell_length_a   7.78776000
_cell_length_b   8.56406000
_cell_length_c   10.85410000
_cell_angle_alpha   70.03240000
_cell_angle_beta   88.40690000
_cell_angle_gamma   70.57110000
_symmetry_Int_Tables_number   1
_chemical_formula_structural   LaH10C8SO10
_chemical_formula_sum   'La2 H20 C16 S2 O20'
_cell_volume   638.63742780
_cell_formula_units_Z   2
loop_
 _symmetry_equiv_pos_site_id
 _symmetry_equiv_pos_as_xyz
  1  'x, y, z'
loop_
 _atom_site_type_symbol
 _atom_site_label
 _atom_site_symmetry_multiplicity
 _atom_site_fract_x
 _atom_site_fract_y
 _atom_site_fract_z
 _atom_site_occupancy
  La  La0  1  0.67506000  0.22444000  0.11761000  1.0
  La  La1  1  0.32494000  0.77556000  0.88239000  1.0
  H  H2  1  0.08715000  0.94533000  0.12830000  1.0
  H  H3  1  0.91286000  0.05467000  0.87170000  1.0
  H  H4  1  0.10039000  0.12745000  0.13079000  1.0
  H  H5  1  0.89961000  0.87255000  0.86921000  1.0
  H  H6  1  0.79792000  0.05119000  0.43724000  1.0
  H  H7  1  0.20208000  0.94881000  0.56276000  1.0
  H  H8  1  0.96762000  0.08163000  0.36035000  1.0
  H  H9  1  0.03238000  0.91838000  0.63965000  1.0
  H  H10  1  0.74866000  0.57554000  0.08031000  1.0
  H  H11  1  0.25134000  0.42446000  0.91969000  1.0
  H  H12  1  0.94564000  0.41749000  0.14203000  1.0
  H  H13  1  0.05436000  0.58251000  0.85796000  1.0
  H  H14  1  0.24266000  0.16432000  0.57882000  1.0
  H  H15  1  0.75732000  0.83569000  0.42118000  1.0
  H  H16  1  0.22864000  0.35931000  0.70307000  1.0
  H  H17  1  0.77135000  0.64070000  0.29693000  1.0
  H  H18  1  0.24445000  0.66066000  0.58720000  1.0
  H  H19  1  0.75555000  0.33934000  0.41280000  1.0
  H  H20  1  0.27727000  0.75999000  0.34745000  1.0
  H  H21  1  0.72274000  0.24000000  0.65255000  1.0
  C  C22  1  0.31318000  0.58734000  0.18381000  1.0
  C  C23  1  0.68682000  0.41265000  0.81619000  1.0
  C  C24  1  0.28419000  0.51718000  0.32626000  1.0
  C  C25  1  0.71581000  0.48281000  0.67374000  1.0
  C  C26  1  0.27423000  0.34757000  0.39342000  1.0
  C  C27  1  0.72576000  0.65243000  0.60658000  1.0
  C  C28  1  0.25256000  0.29373000  0.52788000  1.0
  C  C29  1  0.74743000  0.70628000  0.47213000  1.0
  C  C30  1  0.24334000  0.40532000  0.59786000  1.0
  C  C31  1  0.75666000  0.59469000  0.40214000  1.0
  C  C32  1  0.25209000  0.57311000  0.53283000  1.0
  C  C33  1  0.74790000  0.42690000  0.46717000  1.0
  C  C34  1  0.27002000  0.62878000  0.39812000  1.0
  C  C35  1  0.72998000  0.37122000  0.60188000  1.0
  C  C36  1  0.58340000  0.91564000  0.03629000  1.0
  C  C37  1  0.41660000  0.08435000  0.96371000  1.0
  S  S38  1  0.28322000  0.19501000  0.31272000  1.0
  S  S39  1  0.71678000  0.80499000  0.68728000  1.0
  O  O40  1  0.42397000  0.48819000  0.12962000  1.0
  O  O41  1  0.57603000  0.51181000  0.87038000  1.0
  O  O42  1  0.22998000  0.75017000  0.11767000  1.0
  O  O43  1  0.77002000  0.24982000  0.88233000  1.0
  O  O44  1  0.47716000  0.11326000  0.29527000  1.0
  O  O45  1  0.52284000  0.88674000  0.70474000  1.0
  O  O46  1  0.17033000  0.29476000  0.18585000  1.0
  O  O47  1  0.82968000  0.70524000  0.81415000  1.0
  O  O48  1  0.21031000  0.06179000  0.39952000  1.0
  O  O49  1  0.78969000  0.93821000  0.60048000  1.0
  O  O50  1  0.70124000  0.92982000  0.10509000  1.0
  O  O51  1  0.29876000  0.07018000  0.89491000  1.0
  O  O52  1  0.58675000  0.77540000  0.01885000  1.0
  O  O53  1  0.41325000  0.22459000  0.98115000  1.0
  O  O54  1  0.01558000  0.06640000  0.12643000  1.0
  O  O55  1  0.98442000  0.93359000  0.87357000  1.0
  O  O56  1  0.83578000  0.10241000  0.34905000  1.0
  O  O57  1  0.16422000  0.89759000  0.65095000  1.0
  O  O58  1  0.81465000  0.44510000  0.11829000  1.0
  O  O59  1  0.18536000  0.55489000  0.88171000  1.0
