# generated using pymatgen
data_AlH5C10ClO5
_symmetry_space_group_name_H-M   'P 1'
_cell_length_a   6.64705000
_cell_length_b   11.04289595
_cell_length_c   11.07840000
_cell_angle_alpha   88.22583394
_cell_angle_beta   73.12150000
_cell_angle_gamma   73.60453119
_symmetry_Int_Tables_number   1
_chemical_formula_structural   AlH5C10ClO5
_chemical_formula_sum   'Al2 H10 C20 Cl2 O10'
_cell_volume   745.35916012
_cell_formula_units_Z   2
loop_
 _symmetry_equiv_pos_site_id
 _symmetry_equiv_pos_as_xyz
  1  'x, y, z'
loop_
 _atom_site_type_symbol
 _atom_site_label
 _atom_site_symmetry_multiplicity
 _atom_site_fract_x
 _atom_site_fract_y
 _atom_site_fract_z
 _atom_site_occupancy
  Al  Al0  1  0.00748000  0.50069000  0.49526000  1.0
  Al  Al1  1  0.50898000  0.49873000  0.49532000  1.0
  H  H2  1  0.37371000  0.36600000  0.38624000  1.0
  H  H3  1  0.64377000  0.65060000  0.56936000  1.0
  H  H4  1  0.60910000  0.56897000  0.11204000  1.0
  H  H5  1  0.40628000  0.43610000  0.87821000  1.0
  H  H6  1  0.73469000  0.57178000  0.87510000  1.0
  H  H7  1  0.28078000  0.43386000  0.11522000  1.0
  H  H8  1  0.49366000  0.23274000  0.66358000  1.0
  H  H9  1  0.76050000  0.76465000  0.66584000  1.0
  H  H10  1  0.38218000  0.88576000  0.41072000  1.0
  H  H11  1  0.25732000  0.12236000  0.42425000  1.0
  C  C12  1  0.86195000  0.27427000  0.51623000  1.0
  C  C13  1  0.86469000  0.49682000  0.26698000  1.0
  C  C14  1  0.14437000  0.72758000  0.49600000  1.0
  C  C15  1  0.15191000  0.50358000  0.72330000  1.0
  C  C16  1  0.93807000  0.50044000  0.12658000  1.0
  C  C17  1  0.07742000  0.50339000  0.86379000  1.0
  C  C18  1  0.78300000  0.53969000  0.05976000  1.0
  C  C19  1  0.23248000  0.46504000  0.93059000  1.0
  C  C20  1  0.85244000  0.54117000  0.92874000  1.0
  C  C21  1  0.16303000  0.46373000  0.06152000  1.0
  C  C22  1  0.92545000  0.13432000  0.52612000  1.0
  C  C23  1  0.77220000  0.06775000  0.58966000  1.0
  C  C24  1  0.14266000  0.06892000  0.46815000  1.0
  C  C25  1  0.55349000  0.13023000  0.66089000  1.0
  C  C26  1  0.41412000  0.06347000  0.72801000  1.0
  C  C27  1  0.06713000  0.86809000  0.51589000  1.0
  C  C28  1  0.21315000  0.93623000  0.46158000  1.0
  C  C29  1  0.84658000  0.93209000  0.58682000  1.0
  C  C30  1  0.70202000  0.86642000  0.65987000  1.0
  C  C31  1  0.49033000  0.92937000  0.72848000  1.0
  Cl  Cl32  1  0.15012000  0.14376000  0.81277000  1.0
  Cl  Cl33  1  0.32238000  0.84397000  0.81510000  1.0
  O  O34  1  0.99951000  0.33060000  0.52591000  1.0
  O  O35  1  0.66120000  0.51097000  0.32020000  1.0
  O  O36  1  0.33571000  0.67252000  0.50412000  1.0
  O  O37  1  0.00419000  0.52541000  0.66686000  1.0
  O  O38  1  0.01404000  0.67315000  0.47179000  1.0
  O  O39  1  0.35677000  0.48342000  0.66971000  1.0
  O  O40  1  0.68029000  0.32655000  0.49380000  1.0
  O  O41  1  0.01261000  0.47823000  0.32314000  1.0
  O  O42  1  0.31136000  0.44150000  0.44189000  1.0
  O  O43  1  0.70327000  0.56045000  0.54811000  1.0
