# generated using pymatgen
data_Zn2H17C34N2O8F5
_symmetry_space_group_name_H-M   'P 1'
_cell_length_a   9.93534000
_cell_length_b   10.98660000
_cell_length_c   24.06450000
_cell_angle_alpha   89.77970000
_cell_angle_beta   89.98660000
_cell_angle_gamma   89.70140000
_symmetry_Int_Tables_number   1
_chemical_formula_structural   Zn2H17C34N2O8F5
_chemical_formula_sum   'Zn4 H34 C68 N4 O16 F10'
_cell_volume   2626.71994285
_cell_formula_units_Z   2
loop_
 _symmetry_equiv_pos_site_id
 _symmetry_equiv_pos_as_xyz
  1  'x, y, z'
loop_
 _atom_site_type_symbol
 _atom_site_label
 _atom_site_symmetry_multiplicity
 _atom_site_fract_x
 _atom_site_fract_y
 _atom_site_fract_z
 _atom_site_occupancy
  Zn  Zn0  1  0.62476000  0.51558000  0.50619000  1.0
  Zn  Zn1  1  0.33776000  0.52111000  0.49962000  1.0
  Zn  Zn2  1  0.37961000  0.49610000  0.04815000  1.0
  Zn  Zn3  1  0.66602000  0.49727000  0.05072000  1.0
  H  H4  1  0.23081000  0.69227000  0.57476000  1.0
  H  H5  1  0.10775000  0.80449000  0.64814000  1.0
  H  H6  1  0.73327000  0.64292000  0.59577000  1.0
  H  H7  1  0.85919000  0.77899000  0.65909000  1.0
  H  H8  1  0.42588000  0.80261000  0.61306000  1.0
  H  H9  1  0.34281000  0.92331000  0.69241000  1.0
  H  H10  1  0.37030000  0.25249000  0.59539000  1.0
  H  H11  1  0.31171000  0.14896000  0.68304000  1.0
  H  H12  1  0.72872000  0.48455000  0.88272000  1.0
  H  H13  1  0.24105000  0.51390000  0.67017000  1.0
  H  H14  1  0.68358000  0.70402000  0.17294000  1.0
  H  H15  1  0.83594000  0.83807000  0.22513000  1.0
  H  H16  1  0.68363000  0.69788000  0.37988000  1.0
  H  H17  1  0.83753000  0.83341000  0.32893000  1.0
  H  H18  1  0.76902000  0.63792000  0.96410000  1.0
  H  H19  1  0.89257000  0.75880000  0.89354000  1.0
  H  H20  1  0.27176000  0.64319000  0.96410000  1.0
  H  H21  1  0.14408000  0.76044000  0.89331000  1.0
  H  H22  1  0.59535000  0.79005000  0.93574000  1.0
  H  H23  1  0.66413000  0.91779000  0.85586000  1.0
  H  H24  1  0.62716000  0.24040000  0.95586000  1.0
  H  H25  1  0.68062000  0.14401000  0.86641000  1.0
  H  H26  1  0.10546000  0.41068000  0.78125000  1.0
  H  H27  1  0.16248000  0.54560000  0.81289000  1.0
  H  H28  1  0.10800000  0.54753000  0.74261000  1.0
  H  H29  1  0.22330000  0.32168000  0.83903000  1.0
  H  H30  1  0.30455000  0.30952000  0.90449000  1.0
  H  H31  1  0.20931000  0.44009000  0.88915000  1.0
  H  H32  1  0.85865000  0.39117000  0.76527000  1.0
  H  H33  1  0.81661000  0.54125000  0.74523000  1.0
  H  H34  1  0.86949000  0.51001000  0.81428000  1.0
  H  H35  1  0.73999000  0.32452000  0.70188000  1.0
  H  H36  1  0.66496000  0.34911000  0.63604000  1.0
  H  H37  1  0.76452000  0.46373000  0.66558000  1.0
  C  C38  1  0.50069000  0.75358000  0.51110000  1.0
  C  C39  1  0.45771000  0.49004000  0.60994000  1.0
  C  C40  1  0.47628000  0.28385000  0.49948000  1.0
  C  C41  1  0.49139000  0.53974000  0.39703000  1.0
  C  C42  1  0.53220000  0.73298000  0.03734000  1.0
  C  C43  1  0.51049000  0.46145000  0.94184000  1.0
  C  C44  1  0.53837000  0.26251000  0.05606000  1.0
  C  C45  1  0.50848000  0.53146000  0.15455000  1.0
  C  C46  1  0.05352000  0.60140000  0.54443000  1.0
  C  C47  1  0.05208000  0.46660000  0.47134000  1.0
  C  C48  1  0.12320000  0.68004000  0.58046000  1.0
  C  C49  1  0.05316000  0.74287000  0.62091000  1.0
  C  C50  1  0.90953000  0.45600000  0.47603000  1.0
  C  C51  1  0.91028000  0.58981000  0.54949000  1.0
  C  C52  1  0.84146000  0.65420000  0.59153000  1.0
  C  C53  1  0.91278000  0.72895000  0.62681000  1.0
  C  C54  1  0.49499000  0.89007000  0.51092000  1.0
  C  C55  1  0.44687000  0.95758000  0.55758000  1.0
  C  C56  1  0.53164000  0.95144000  0.46332000  1.0
  C  C57  1  0.41335000  0.90088000  0.60889000  1.0
  C  C58  1  0.36666000  0.96857000  0.65319000  1.0
  C  C59  1  0.47583000  0.14718000  0.50335000  1.0
  C  C60  1  0.52328000  0.07937000  0.45971000  1.0
  C  C61  1  0.43468000  0.08764000  0.55326000  1.0
  C  C62  1  0.38398000  0.15430000  0.59927000  1.0
  C  C63  1  0.35022000  0.09604000  0.64816000  1.0
  C  C64  1  0.40490000  0.42594000  0.84672000  1.0
  C  C65  1  0.64456000  0.46568000  0.85511000  1.0
  C  C66  1  0.66666667  0.45637000  0.79877000  1.0
  C  C67  1  0.55163000  0.44442000  0.76274000  1.0
  C  C68  1  0.56445000  0.44004000  0.70318000  1.0
  C  C69  1  0.32494000  0.48699000  0.69679000  1.0
  C  C70  1  0.30399000  0.46959000  0.75285000  1.0
  C  C71  1  0.41874000  0.44422000  0.78766000  1.0
  C  C72  1  0.51728000  0.44798000  0.87997000  1.0
  C  C73  1  0.45150000  0.46949000  0.67136000  1.0
  C  C74  1  0.50389000  0.54426000  0.21652000  1.0
  C  C75  1  0.59456000  0.62143000  0.24620000  1.0
  C  C76  1  0.41266000  0.47540000  0.24604000  1.0
  C  C77  1  0.68390000  0.70144000  0.21816000  1.0
  C  C78  1  0.76923000  0.77627000  0.24743000  1.0
  C  C79  1  0.49794000  0.54630000  0.33488000  1.0
  C  C80  1  0.40917000  0.47706000  0.30458000  1.0
  C  C81  1  0.59312000  0.62098000  0.30600000  1.0
  C  C82  1  0.68381000  0.69806000  0.33469000  1.0
  C  C83  1  0.76989000  0.77388000  0.30607000  1.0
  C  C84  1  0.94934000  0.57222000  0.00424000  1.0
  C  C85  1  0.95186000  0.44626000  0.08100000  1.0
  C  C86  1  0.87824000  0.63943000  0.96362000  1.0
  C  C87  1  0.94822000  0.70568000  0.92433000  1.0
  C  C88  1  0.09532000  0.44516000  0.08020000  1.0
  C  C89  1  0.09368000  0.57285000  0.00400000  1.0
  C  C90  1  0.16255000  0.64153000  0.96342000  1.0
  C  C91  1  0.09019000  0.70688000  0.92431000  1.0
  C  C92  1  0.52927000  0.86983000  0.03870000  1.0
  C  C93  1  0.56952000  0.94185000  0.99228000  1.0
  C  C94  1  0.49175000  0.92596000  0.08724000  1.0
  C  C95  1  0.60253000  0.88860000  0.94030000  1.0
  C  C96  1  0.64095000  0.95992000  0.89575000  1.0
  C  C97  1  0.53650000  0.12659000  0.04929000  1.0
  C  C98  1  0.49380000  0.05382000  0.09238000  1.0
  C  C99  1  0.57586000  0.07185000  0.99793000  1.0
  C  C100  1  0.61819000  0.14218000  0.95148000  1.0
  C  C101  1  0.64958000  0.08765000  0.90154000  1.0
  C  C102  1  0.16330000  0.49417000  0.77391000  1.0
  C  C103  1  0.27784000  0.37253000  0.87082000  1.0
  C  C104  1  0.80962000  0.47532000  0.77949000  1.0
  C  C105  1  0.69074000  0.39278000  0.67543000  1.0
  N  N106  1  0.12174000  0.53610000  0.50423000  1.0
  N  N107  1  0.84086000  0.51573000  0.51330000  1.0
  N  N108  1  0.88142000  0.50661000  0.04437000  1.0
  N  N109  1  0.16372000  0.50629000  0.04337000  1.0
  O  O110  1  0.61467000  0.70358000  0.50377000  1.0
  O  O111  1  0.38910000  0.69947000  0.51826000  1.0
  O  O112  1  0.34840000  0.47702000  0.58276000  1.0
  O  O113  1  0.56932000  0.52369000  0.58886000  1.0
  O  O114  1  0.36679000  0.33653000  0.48690000  1.0
  O  O115  1  0.58862000  0.33297000  0.51078000  1.0
  O  O116  1  0.60057000  0.51511000  0.42242000  1.0
  O  O117  1  0.37679000  0.55825000  0.41920000  1.0
  O  O118  1  0.42234000  0.67869000  0.02811000  1.0
  O  O119  1  0.64632000  0.68402000  0.04634000  1.0
  O  O120  1  0.62126000  0.48365000  0.96677000  1.0
  O  O121  1  0.39630000  0.45545000  0.96577000  1.0
  O  O122  1  0.65339000  0.31237000  0.05289000  1.0
  O  O123  1  0.42561000  0.31504000  0.06283000  1.0
  O  O124  1  0.39732000  0.54183000  0.12860000  1.0
  O  O125  1  0.62301000  0.50939000  0.13311000  1.0
  F  F126  1  0.84637000  0.38246000  0.44120000  1.0
  F  F127  1  0.11457000  0.40296000  0.43226000  1.0
  F  F128  1  0.56366000  0.13363000  0.41200000  1.0
  F  F129  1  0.57437000  0.89067000  0.41778000  1.0
  F  F130  1  0.31866000  0.40353000  0.32973000  1.0
  F  F131  1  0.32625000  0.39926000  0.22039000  1.0
  F  F132  1  0.15971000  0.37879000  0.11797000  1.0
  F  F133  1  0.88945000  0.38344000  0.12043000  1.0
  F  F134  1  0.45579000  0.10224000  0.14152000  1.0
  F  F135  1  0.45422000  0.85901000  0.13198000  1.0
