# generated using pymatgen
data_MgH30(C7O)2
_symmetry_space_group_name_H-M   'P 1'
_cell_length_a   9.26835000
_cell_length_b   9.59019000
_cell_length_c   10.69140000
_cell_angle_alpha   98.05570000
_cell_angle_beta   90.03150000
_cell_angle_gamma   118.88300000
_symmetry_Int_Tables_number   1
_chemical_formula_structural   MgH30(C7O)2
_chemical_formula_sum   'Mg2 H60 C28 O4'
_cell_volume   821.32994855
_cell_formula_units_Z   2
loop_
 _symmetry_equiv_pos_site_id
 _symmetry_equiv_pos_as_xyz
  1  'x, y, z'
loop_
 _atom_site_type_symbol
 _atom_site_label
 _atom_site_symmetry_multiplicity
 _atom_site_fract_x
 _atom_site_fract_y
 _atom_site_fract_z
 _atom_site_occupancy
  Mg  Mg0  1  0.25912000  0.99978000  0.74995000  1.0
  Mg  Mg1  1  0.74088000  0.00022000  0.25005000  1.0
  H  H2  1  0.47924000  0.23810000  0.98178000  1.0
  H  H3  1  0.24107000  0.76195000  0.51789000  1.0
  H  H4  1  0.52076000  0.76190000  0.01822000  1.0
  H  H5  1  0.75893000  0.23805000  0.48211000  1.0
  H  H6  1  0.65977000  0.21575000  0.96311000  1.0
  H  H7  1  0.44385000  0.78420000  0.53684000  1.0
  H  H8  1  0.34023000  0.78426000  0.03689000  1.0
  H  H9  1  0.55614000  0.21580000  0.46316000  1.0
  H  H10  1  0.40691000  0.79726000  0.81328000  1.0
  H  H11  1  0.60940000  0.20257000  0.68685000  1.0
  H  H12  1  0.59310000  0.20274000  0.18672000  1.0
  H  H13  1  0.39060000  0.79743000  0.31315000  1.0
  H  H14  1  0.61655000  0.95035000  0.86201000  1.0
  H  H15  1  0.66598000  0.04945000  0.63829000  1.0
  H  H16  1  0.38345000  0.04965000  0.13799000  1.0
  H  H17  1  0.33402000  0.95055000  0.36171000  1.0
  H  H18  1  0.99637000  0.73938000  0.61880000  1.0
  H  H19  1  0.25686000  0.26031000  0.88123000  1.0
  H  H20  1  0.00362000  0.26061000  0.38120000  1.0
  H  H21  1  0.74314000  0.73970000  0.11877000  1.0
  H  H22  1  0.11272000  0.67251000  0.69602000  1.0
  H  H23  1  0.43994000  0.32687000  0.80400000  1.0
  H  H24  1  0.88728000  0.32749000  0.30398000  1.0
  H  H25  1  0.56006000  0.67313000  0.19600000  1.0
  H  H26  1  0.74150000  0.74590000  0.89026000  1.0
  H  H27  1  0.99565000  0.25419000  0.60938000  1.0
  H  H28  1  0.25850000  0.25411000  0.10974000  1.0
  H  H29  1  0.00436000  0.74582000  0.39062000  1.0
  H  H30  1  0.92528000  0.91953000  0.86096000  1.0
  H  H31  1  0.00566000  0.08043000  0.63869000  1.0
  H  H32  1  0.07472000  0.08047000  0.13905000  1.0
  H  H33  1  0.99434000  0.91958000  0.36131000  1.0
  H  H34  1  0.78077000  0.78727000  0.73240000  1.0
  H  H35  1  0.99328000  0.21255000  0.76722000  1.0
  H  H36  1  0.21923000  0.21273000  0.26760000  1.0
  H  H37  1  0.00673000  0.78745000  0.23278000  1.0
  H  H38  1  0.70701000  0.46602000  0.83193000  1.0
  H  H39  1  0.24123000  0.53396000  0.66810000  1.0
  H  H40  1  0.29299000  0.53398000  0.16808000  1.0
  H  H41  1  0.75878000  0.46604000  0.33190000  1.0
  H  H42  1  0.73862000  0.49836000  0.67180000  1.0
  H  H43  1  0.24046000  0.50154000  0.82823000  1.0
  H  H44  1  0.26137000  0.50163000  0.32821000  1.0
  H  H45  1  0.75955000  0.49846000  0.17177000  1.0
  H  H46  1  0.86530000  0.44169000  0.75281000  1.0
  H  H47  1  0.42371000  0.55795000  0.74731000  1.0
  H  H48  1  0.13469000  0.55830000  0.24719000  1.0
  H  H49  1  0.57629000  0.44206000  0.25270000  1.0
  H  H50  1  0.07750000  0.63659000  0.92856000  1.0
  H  H51  1  0.44084000  0.36339000  0.57165000  1.0
  H  H52  1  0.92249000  0.36341000  0.07144000  1.0
  H  H53  1  0.55916000  0.63661000  0.42835000  1.0
  H  H54  1  0.09908000  0.83200000  0.97603000  1.0
  H  H55  1  0.26713000  0.16799000  0.52395000  1.0
  H  H56  1  0.90092000  0.16800000  0.02397000  1.0
  H  H57  1  0.73287000  0.83201000  0.47605000  1.0
  H  H58  1  0.91813000  0.65770000  0.00672000  1.0
  H  H59  1  0.26039000  0.34234000  0.49336000  1.0
  H  H60  1  0.08187000  0.34230000  0.99328000  1.0
  H  H61  1  0.73961000  0.65766000  0.50664000  1.0
  C  C62  1  0.52945000  0.15598000  0.98545000  1.0
  C  C63  1  0.37339000  0.84407000  0.51437000  1.0
  C  C64  1  0.47056000  0.84402000  0.01454000  1.0
  C  C65  1  0.62661000  0.15594000  0.48563000  1.0
  C  C66  1  0.48715000  0.89832000  0.88681000  1.0
  C  C67  1  0.58867000  0.10155000  0.61333000  1.0
  C  C68  1  0.51286000  0.10169000  0.11319000  1.0
  C  C69  1  0.41132000  0.89845000  0.38668000  1.0
  C  C70  1  0.06059000  0.75549000  0.71163000  1.0
  C  C71  1  0.30480000  0.24404000  0.78840000  1.0
  C  C72  1  0.93940000  0.24450000  0.28837000  1.0
  C  C73  1  0.69520000  0.75596000  0.21160000  1.0
  C  C74  1  0.92921000  0.69286000  0.80789000  1.0
  C  C75  1  0.23621000  0.30693000  0.69211000  1.0
  C  C76  1  0.07078000  0.30713000  0.19211000  1.0
  C  C77  1  0.76379000  0.69307000  0.30789000  1.0
  C  C78  1  0.83867000  0.79198000  0.82394000  1.0
  C  C79  1  0.04658000  0.20796000  0.67577000  1.0
  C  C80  1  0.16133000  0.20802000  0.17606000  1.0
  C  C81  1  0.95342000  0.79204000  0.32423000  1.0
  C  C82  1  0.80195000  0.51413000  0.76406000  1.0
  C  C83  1  0.28794000  0.48571000  0.73600000  1.0
  C  C84  1  0.19804000  0.48587000  0.23595000  1.0
  C  C85  1  0.71207000  0.51429000  0.26399000  1.0
  C  C86  1  0.01052000  0.70558000  0.93728000  1.0
  C  C87  1  0.30485000  0.29435000  0.56280000  1.0
  C  C88  1  0.98948000  0.29441000  0.06272000  1.0
  C  C89  1  0.69516000  0.70566000  0.43720000  1.0
  O  O90  1  0.43481000  0.01815000  0.88826000  1.0
  O  O91  1  0.41649000  0.98180000  0.61159000  1.0
  O  O92  1  0.56519000  0.98185000  0.11174000  1.0
  O  O93  1  0.58351000  0.01821000  0.38841000  1.0
