# generated using pymatgen
data_ZnH22C29(NO4)2
_symmetry_space_group_name_H-M   'P 1'
_cell_length_a   8.62637000
_cell_length_b   12.34520000
_cell_length_c   13.32480000
_cell_angle_alpha   72.89990000
_cell_angle_beta   80.88110000
_cell_angle_gamma   85.70450000
_symmetry_Int_Tables_number   1
_chemical_formula_structural   ZnH22C29(NO4)2
_chemical_formula_sum   'Zn2 H44 C58 N4 O16'
_cell_volume   1338.54013741
_cell_formula_units_Z   2
loop_
 _symmetry_equiv_pos_site_id
 _symmetry_equiv_pos_as_xyz
  1  'x, y, z'
loop_
 _atom_site_type_symbol
 _atom_site_label
 _atom_site_symmetry_multiplicity
 _atom_site_fract_x
 _atom_site_fract_y
 _atom_site_fract_z
 _atom_site_occupancy
  Zn  Zn0  1  0.94222000  0.39320000  0.24657000  1.0
  Zn  Zn1  1  0.05778000  0.60680000  0.75343000  1.0
  H  H2  1  0.00533000  0.97054000  0.58774000  1.0
  H  H3  1  0.99467000  0.02946000  0.41226000  1.0
  H  H4  1  0.54442000  0.28196000  0.18688000  1.0
  H  H5  1  0.45558000  0.71804000  0.81312000  1.0
  H  H6  1  0.40013000  0.18283000  0.36130000  1.0
  H  H7  1  0.59987000  0.81717000  0.63870000  1.0
  H  H8  1  0.31697000  0.01468000  0.69732000  1.0
  H  H9  1  0.68303000  0.98532000  0.30268000  1.0
  H  H10  1  0.73400000  0.20675000  0.56055000  1.0
  H  H11  1  0.26600000  0.79325000  0.43945000  1.0
  H  H12  1  0.70835000  0.09215000  0.73987000  1.0
  H  H13  1  0.29165000  0.90785000  0.26013000  1.0
  H  H14  1  0.55550000  0.99409000  0.79421000  1.0
  H  H15  1  0.44450000  0.00591000  0.20579000  1.0
  H  H16  1  0.33653000  0.24364000  0.70932000  1.0
  H  H17  1  0.66347000  0.75636000  0.29069000  1.0
  H  H18  1  0.31958000  0.36113000  0.98291000  1.0
  H  H19  1  0.68043000  0.63887000  0.01709000  1.0
  H  H20  1  0.64154000  0.08862000  0.94346000  1.0
  H  H21  1  0.35846000  0.91138000  0.05654000  1.0
  H  H22  1  0.00461000  0.37371000  0.46122000  1.0
  H  H23  1  0.99538000  0.62629000  0.53878000  1.0
  H  H24  1  0.21308000  0.42428000  0.54663000  1.0
  H  H25  1  0.78692000  0.57572000  0.45336000  1.0
  H  H26  1  0.49589000  0.51681000  0.23635000  1.0
  H  H27  1  0.50411000  0.48319000  0.76365000  1.0
  H  H28  1  0.27591000  0.46094000  0.16488000  1.0
  H  H29  1  0.72409000  0.53907000  0.83512000  1.0
  H  H30  1  0.13572000  0.18141000  0.25186000  1.0
  H  H31  1  0.86428000  0.81859000  0.74814000  1.0
  H  H32  1  0.51746000  0.60692000  0.40481000  1.0
  H  H33  1  0.48254000  0.39308000  0.59519000  1.0
  H  H34  1  0.61747000  0.47812000  0.40769000  1.0
  H  H35  1  0.38253000  0.52189000  0.59231000  1.0
  H  H36  1  0.17033000  0.03901000  0.15087000  1.0
  H  H37  1  0.82967000  0.96099000  0.84913000  1.0
  H  H38  1  0.17321000  0.02379000  0.95362000  1.0
  H  H39  1  0.82679000  0.97621000  0.04638000  1.0
  H  H40  1  0.01151000  0.09011000  0.89082000  1.0
  H  H41  1  0.98849000  0.90989000  0.10918000  1.0
  H  H42  1  0.90018000  0.26386000  0.92389000  1.0
  H  H43  1  0.09982000  0.73614000  0.07610000  1.0
  H  H44  1  0.87356000  0.39765000  0.03580000  1.0
  H  H45  1  0.12644000  0.60235000  0.96420000  1.0
  C  C46  1  0.57842000  0.20180000  0.45150000  1.0
  C  C47  1  0.42158000  0.79820000  0.54850000  1.0
  C  C48  1  0.43681000  0.16254000  0.43940000  1.0
  C  C49  1  0.56319000  0.83746000  0.56060000  1.0
  C  C50  1  0.34210000  0.09620000  0.52817000  1.0
  C  C51  1  0.65790000  0.90380000  0.47183000  1.0
  C  C52  1  0.38959000  0.06842000  0.62894000  1.0
  C  C53  1  0.61041000  0.93158000  0.37106000  1.0
  C  C54  1  0.53061000  0.10824000  0.64185000  1.0
  C  C55  1  0.46939000  0.89176000  0.35815000  1.0
  C  C56  1  0.62317000  0.17503000  0.55277000  1.0
  C  C57  1  0.37683000  0.82497000  0.44723000  1.0
  C  C58  1  0.58049000  0.08268000  0.74970000  1.0
  C  C59  1  0.41951000  0.91732000  0.25030000  1.0
  C  C60  1  0.50151000  0.15776000  0.81605000  1.0
  C  C61  1  0.49849000  0.84223000  0.18395000  1.0
  C  C62  1  0.38116000  0.23600000  0.78319000  1.0
  C  C63  1  0.61884000  0.76400000  0.21681000  1.0
  C  C64  1  0.31550000  0.30904000  0.84255000  1.0
  C  C65  1  0.68450000  0.69096000  0.15745000  1.0
  C  C66  1  0.36875000  0.30313000  0.93771000  1.0
  C  C67  1  0.63125000  0.69688000  0.06229000  1.0
  C  C68  1  0.48481000  0.22183000  0.97410000  1.0
  C  C69  1  0.51519000  0.77817000  0.02591000  1.0
  C  C70  1  0.55040000  0.15024000  0.91317000  1.0
  C  C71  1  0.44960000  0.84975000  0.08683000  1.0
  C  C72  1  0.68337000  0.27175000  0.35807000  1.0
  C  C73  1  0.31663000  0.72825000  0.64193000  1.0
  C  C74  1  0.19241000  0.05471000  0.51425000  1.0
  C  C75  1  0.80760000  0.94529000  0.48575000  1.0
  C  C76  1  0.19621000  0.39751000  0.79728000  1.0
  C  C77  1  0.80379000  0.60249000  0.20272000  1.0
  C  C78  1  0.54345000  0.20893000  0.07660000  1.0
  C  C79  1  0.45655000  0.79107000  0.92340000  1.0
  C  C80  1  0.11591000  0.40605000  0.41471000  1.0
  C  C81  1  0.88409000  0.59395000  0.58529000  1.0
  C  C82  1  0.23364000  0.43539000  0.46127000  1.0
  C  C83  1  0.76636000  0.56461000  0.53872000  1.0
  C  C84  1  0.37402000  0.47804000  0.39797000  1.0
  C  C85  1  0.62599000  0.52196000  0.60203000  1.0
  C  C86  1  0.38848000  0.48697000  0.28939000  1.0
  C  C87  1  0.61153000  0.51303000  0.71061000  1.0
  C  C88  1  0.26633000  0.45574000  0.24876000  1.0
  C  C89  1  0.73367000  0.54426000  0.75124000  1.0
  C  C90  1  0.50727000  0.51449000  0.43995000  1.0
  C  C91  1  0.49273000  0.48551000  0.56005000  1.0
  C  C92  1  0.08538000  0.19636000  0.17873000  1.0
  C  C93  1  0.91463000  0.80364000  0.82126000  1.0
  C  C94  1  0.10352000  0.11742000  0.12200000  1.0
  C  C95  1  0.89648000  0.88258000  0.87800000  1.0
  C  C96  1  0.03632000  0.13877000  0.02881000  1.0
  C  C97  1  0.96368000  0.86123000  0.97119000  1.0
  C  C98  1  0.04989000  0.05213000  0.96881000  1.0
  C  C99  1  0.95011000  0.94787000  0.03119000  1.0
  C  C100  1  0.95358000  0.24189000  0.99646000  1.0
  C  C101  1  0.04642000  0.75811000  0.00354000  1.0
  C  C102  1  0.93901000  0.31717000  0.05726000  1.0
  C  C103  1  0.06099000  0.68283000  0.94274000  1.0
  N  N104  1  0.13092000  0.41620000  0.31016000  1.0
  N  N105  1  0.86908000  0.58380000  0.68984000  1.0
  N  N106  1  0.00311000  0.29469000  0.14735000  1.0
  N  N107  1  0.99690000  0.70531000  0.85265000  1.0
  O  O108  1  0.81052000  0.30510000  0.37831000  1.0
  O  O109  1  0.18948000  0.69490000  0.62169000  1.0
  O  O110  1  0.64767000  0.29695000  0.26599000  1.0
  O  O111  1  0.35233000  0.70306000  0.73402000  1.0
  O  O112  1  0.15124000  0.07287000  0.42464000  1.0
  O  O113  1  0.84876000  0.92713000  0.57536000  1.0
  O  O114  1  0.10720000  0.99795000  0.60305000  1.0
  O  O115  1  0.89280000  0.00205000  0.39695000  1.0
  O  O116  1  0.14458000  0.39638000  0.71498000  1.0
  O  O117  1  0.85543000  0.60362000  0.28502000  1.0
  O  O118  1  0.15856000  0.47483000  0.84617000  1.0
  O  O119  1  0.84144000  0.52517000  0.15383000  1.0
  O  O120  1  0.48856000  0.28945000  0.12276000  1.0
  O  O121  1  0.51143000  0.71056000  0.87724000  1.0
  O  O122  1  0.63404000  0.13069000  0.11450000  1.0
  O  O123  1  0.36596000  0.86931000  0.88551000  1.0
