# generated using pymatgen
data_BaH8C2(N2O)4
_symmetry_space_group_name_H-M   'P 1'
_cell_length_a   7.25425000
_cell_length_b   7.57227000
_cell_length_c   9.40814000
_cell_angle_alpha   73.78930000
_cell_angle_beta   83.90540000
_cell_angle_gamma   85.69140000
_symmetry_Int_Tables_number   1
_chemical_formula_structural   BaH8C2(N2O)4
_chemical_formula_sum   'Ba2 H16 C4 N16 O8'
_cell_volume   492.88754698
_cell_formula_units_Z   2
loop_
 _symmetry_equiv_pos_site_id
 _symmetry_equiv_pos_as_xyz
  1  'x, y, z'
loop_
 _atom_site_type_symbol
 _atom_site_label
 _atom_site_symmetry_multiplicity
 _atom_site_fract_x
 _atom_site_fract_y
 _atom_site_fract_z
 _atom_site_occupancy
  Ba  Ba0  1  0.06563000  0.28022000  0.37110000  1.0
  Ba  Ba1  1  0.93437000  0.71978000  0.62890000  1.0
  H  H2  1  0.47595000  0.44150000  0.21486000  1.0
  H  H3  1  0.52405000  0.55850000  0.78514000  1.0
  H  H4  1  0.42083000  0.27421000  0.16527000  1.0
  H  H5  1  0.57917000  0.72579000  0.83473000  1.0
  H  H6  1  0.77564000  0.46552000  0.12699000  1.0
  H  H7  1  0.22436000  0.53448000  0.87301000  1.0
  H  H8  1  0.86126000  0.31622000  0.04870000  1.0
  H  H9  1  0.13874000  0.68377000  0.95130000  1.0
  H  H10  1  0.67580000  0.42963000  0.54146000  1.0
  H  H11  1  0.32421000  0.57037000  0.45854000  1.0
  H  H12  1  0.69085000  0.60072000  0.39464000  1.0
  H  H13  1  0.30915000  0.39928000  0.60536000  1.0
  H  H14  1  0.64270000  0.11664000  0.41219000  1.0
  H  H15  1  0.35729000  0.88336000  0.58781000  1.0
  H  H16  1  0.75280000  0.00524000  0.31499000  1.0
  H  H17  1  0.24719000  0.99476000  0.68502000  1.0
  C  C18  1  0.20043000  0.94572000  0.09759000  1.0
  C  C19  1  0.79956000  0.05428000  0.90241000  1.0
  C  C20  1  0.28556000  0.08572000  0.97467000  1.0
  C  C21  1  0.71444000  0.91428000  0.02533000  1.0
  N  N22  1  0.36294000  0.23229000  0.99537000  1.0
  N  N23  1  0.63706000  0.76771000  0.00463000  1.0
  N  N24  1  0.38324000  0.24893000  0.76011000  1.0
  N  N25  1  0.61676000  0.75107000  0.23989000  1.0
  N  N26  1  0.29808000  0.09287000  0.82912000  1.0
  N  N27  1  0.70192000  0.90713000  0.17089000  1.0
  N  N28  1  0.42121000  0.33240000  0.85920000  1.0
  N  N29  1  0.57879000  0.66760000  0.14080000  1.0
  N  N30  1  0.15941000  0.96865000  0.23483000  1.0
  N  N31  1  0.84059000  0.03134000  0.76517000  1.0
  N  N32  1  0.09343000  0.80788000  0.31711000  1.0
  N  N33  1  0.90657000  0.19212000  0.68289000  1.0
  N  N34  1  0.09372000  0.69250000  0.23360000  1.0
  N  N35  1  0.90628000  0.30750000  0.76640000  1.0
  N  N36  1  0.15921000  0.77648000  0.09468000  1.0
  N  N37  1  0.84079000  0.22352000  0.90532000  1.0
  O  O38  1  0.42940000  0.31559000  0.25636000  1.0
  O  O39  1  0.57060000  0.68441000  0.74364000  1.0
  O  O40  1  0.87434000  0.36958000  0.13354000  1.0
  O  O41  1  0.12565000  0.63042000  0.86646000  1.0
  O  O42  1  0.76294000  0.50934000  0.47108000  1.0
  O  O43  1  0.23707000  0.49066000  0.52892000  1.0
  O  O44  1  0.75527000  0.03688000  0.41153000  1.0
  O  O45  1  0.24472000  0.96312000  0.58847000  1.0
