# generated using pymatgen
data_CdH32C36(IN6)2
_symmetry_space_group_name_H-M   'P 1'
_cell_length_a   7.52912000
_cell_length_b   8.84059000
_cell_length_c   15.16180000
_cell_angle_alpha   90.48110000
_cell_angle_beta   97.87760000
_cell_angle_gamma   110.48950000
_symmetry_Int_Tables_number   1
_chemical_formula_structural   CdH32C36(IN6)2
_chemical_formula_sum   'Cd1 H32 C36 I2 N12'
_cell_volume   934.70126317
_cell_formula_units_Z   1
loop_
 _symmetry_equiv_pos_site_id
 _symmetry_equiv_pos_as_xyz
  1  'x, y, z'
loop_
 _atom_site_type_symbol
 _atom_site_label
 _atom_site_symmetry_multiplicity
 _atom_site_fract_x
 _atom_site_fract_y
 _atom_site_fract_z
 _atom_site_occupancy
  Cd  Cd0  1  0.00000000  0.00000000  0.50000000  1.0
  H  H1  1  0.07454000  0.83549000  0.71162000  1.0
  H  H2  1  0.92546000  0.16451000  0.28837000  1.0
  H  H3  1  0.43794000  0.26470000  0.61882000  1.0
  H  H4  1  0.56208000  0.73532000  0.38119000  1.0
  H  H5  1  0.57007000  0.34600000  0.83525000  1.0
  H  H6  1  0.42992000  0.65401000  0.16475000  1.0
  H  H7  1  0.70219000  0.33826000  0.74740000  1.0
  H  H8  1  0.29782000  0.66175000  0.25261000  1.0
  H  H9  1  0.61816000  0.22780000  0.97403000  1.0
  H  H10  1  0.38184000  0.77221000  0.02598000  1.0
  H  H11  1  0.79539000  0.09667000  0.07259000  1.0
  H  H12  1  0.20462000  0.90333000  0.92741000  1.0
  H  H13  1  0.05295000  0.99980000  0.85079000  1.0
  H  H14  1  0.94705000  0.00020000  0.14921000  1.0
  H  H15  1  0.86467000  0.12409000  0.75145000  1.0
  H  H16  1  0.13533000  0.87592000  0.24856000  1.0
  H  H17  1  0.85068000  0.58200000  0.55434000  1.0
  H  H18  1  0.14932000  0.41799000  0.44565000  1.0
  H  H19  1  0.56299000  0.90163000  0.59611000  1.0
  H  H20  1  0.43701000  0.09837000  0.40389000  1.0
  H  H21  1  0.23519000  0.50063000  0.63847000  1.0
  H  H22  1  0.76482000  0.49937000  0.36152000  1.0
  H  H23  1  0.29114000  0.70879000  0.66605000  1.0
  H  H24  1  0.70886000  0.29121000  0.33395000  1.0
  H  H25  1  0.12186000  0.38836000  0.77249000  1.0
  H  H26  1  0.87813000  0.61163000  0.22750000  1.0
  H  H27  1  0.18969000  0.33686000  0.92914000  1.0
  H  H28  1  0.81030000  0.66314000  0.07086000  1.0
  H  H29  1  0.74987000  0.71076000  0.94793000  1.0
  H  H30  1  0.25011000  0.28925000  0.05207000  1.0
  H  H31  1  0.67669000  0.76563000  0.79309000  1.0
  H  H32  1  0.32330000  0.23437000  0.20691000  1.0
  C  C33  1  0.19300000  0.94770000  0.70790000  1.0
  C  C34  1  0.80701000  0.05231000  0.29209000  1.0
  C  C35  1  0.37263000  0.16321000  0.65806000  1.0
  C  C36  1  0.62739000  0.83680000  0.34194000  1.0
  C  C37  1  0.61729000  0.26627000  0.79596000  1.0
  C  C38  1  0.38271000  0.73373000  0.20405000  1.0
  C  C39  1  0.72886000  0.18571000  0.85586000  1.0
  C  C40  1  0.27115000  0.81430000  0.14415000  1.0
  C  C41  1  0.71324000  0.17702000  0.94666000  1.0
  C  C42  1  0.28676000  0.82298000  0.05335000  1.0
  C  C43  1  0.81687000  0.10355000  0.00293000  1.0
  C  C44  1  0.18314000  0.89646000  0.99708000  1.0
  C  C45  1  0.94249000  0.03772000  0.97036000  1.0
  C  C46  1  0.05752000  0.96229000  0.02964000  1.0
  C  C47  1  0.95564000  0.04660000  0.87868000  1.0
  C  C48  1  0.04437000  0.95340000  0.12133000  1.0
  C  C49  1  0.85035000  0.11810000  0.82228000  1.0
  C  C50  1  0.14966000  0.88191000  0.17772000  1.0
  C  C51  1  0.74900000  0.63200000  0.57518000  1.0
  C  C52  1  0.25100000  0.36800000  0.42482000  1.0
  C  C53  1  0.60581000  0.79647000  0.59521000  1.0
  C  C54  1  0.39419000  0.20353000  0.40479000  1.0
  C  C55  1  0.34641000  0.60907000  0.67367000  1.0
  C  C56  1  0.65359000  0.39092000  0.32633000  1.0
  C  C57  1  0.39375000  0.58017000  0.77072000  1.0
  C  C58  1  0.60624000  0.41983000  0.22928000  1.0
  C  C59  1  0.25901000  0.46110000  0.81157000  1.0
  C  C60  1  0.74098000  0.53890000  0.18843000  1.0
  C  C61  1  0.29910000  0.43163000  0.90089000  1.0
  C  C62  1  0.70089000  0.56837000  0.09911000  1.0
  C  C63  1  0.47710000  0.51787000  0.95288000  1.0
  C  C64  1  0.52288000  0.48213000  0.04712000  1.0
  C  C65  1  0.61042000  0.63881000  0.91110000  1.0
  C  C66  1  0.38957000  0.36118000  0.08890000  1.0
  C  C67  1  0.56927000  0.66995000  0.82225000  1.0
  C  C68  1  0.43072000  0.33005000  0.17776000  1.0
  I  I69  1  0.84959000  0.24181000  0.56718000  1.0
  I  I70  1  0.15040000  0.75819000  0.43282000  1.0
  N  N71  1  0.75682000  0.78669000  0.56149000  1.0
  N  N72  1  0.24317000  0.21331000  0.43851000  1.0
  N  N73  1  0.21083000  0.03640000  0.63439000  1.0
  N  N74  1  0.78918000  0.96361000  0.36561000  1.0
  N  N75  1  0.44647000  0.14923000  0.74220000  1.0
  N  N76  1  0.55354000  0.85077000  0.25780000  1.0
  N  N77  1  0.33373000  0.01220000  0.77556000  1.0
  N  N78  1  0.66628000  0.98780000  0.22444000  1.0
  N  N79  1  0.51329000  0.65382000  0.62770000  1.0
  N  N80  1  0.48671000  0.34618000  0.37229000  1.0
  N  N81  1  0.60293000  0.54697000  0.61569000  1.0
  N  N82  1  0.39706000  0.45303000  0.38431000  1.0
