# generated using pymatgen
data_Zn4H29C48O13F
_symmetry_space_group_name_H-M   'P 1'
_cell_length_a   19.54740000
_cell_length_b   19.59160000
_cell_length_c   19.61960000
_cell_angle_alpha   84.42430000
_cell_angle_beta   84.63420000
_cell_angle_gamma   89.56770000
_symmetry_Int_Tables_number   1
_chemical_formula_structural   Zn4H29C48O13F
_chemical_formula_sum   'Zn4 H29 C48 O13 F1'
_cell_volume   7445.28962230
_cell_formula_units_Z   1
loop_
 _symmetry_equiv_pos_site_id
 _symmetry_equiv_pos_as_xyz
  1  'x, y, z'
loop_
 _atom_site_type_symbol
 _atom_site_label
 _atom_site_symmetry_multiplicity
 _atom_site_fract_x
 _atom_site_fract_y
 _atom_site_fract_z
 _atom_site_occupancy
  Zn  Zn0  1  0.55792000  0.44254000  0.44128000  1.0
  Zn  Zn1  1  0.44876000  0.56368000  0.44055000  1.0
  Zn  Zn2  1  0.55593000  0.55343000  0.55303000  1.0
  Zn  Zn3  1  0.43761000  0.44096000  0.56523000  1.0
  H  H4  1  0.56936000  0.23399000  0.42985000  1.0
  H  H5  1  0.89254000  0.56758000  0.55510000  1.0
  H  H6  1  0.55638000  0.76391000  0.58250000  1.0
  H  H7  1  0.09970000  0.46250000  0.62243000  1.0
  H  H8  1  0.56908000  0.56372000  0.76045000  1.0
  H  H9  1  0.55623000  0.41158000  0.23094000  1.0
  H  H10  1  0.46463000  0.61151000  0.22777000  1.0
  H  H11  1  0.51279000  0.57195000  0.99099000  1.0
  H  H12  1  0.42497000  0.38959000  0.90863000  1.0
  H  H13  1  0.55612000  0.41585000  0.10346000  1.0
  H  H14  1  0.42098000  0.40073000  0.78116000  1.0
  H  H15  1  0.46805000  0.90336000  0.38417000  1.0
  H  H16  1  0.48748000  0.41639000  0.00961000  1.0
  H  H17  1  0.57306000  0.55390000  0.88756000  1.0
  H  H18  1  0.46444000  0.77549000  0.39145000  1.0
  H  H19  1  0.46771000  0.61821000  0.09974000  1.0
  H  H20  1  0.51331000  0.00817000  0.42609000  1.0
  H  H21  1  0.42515000  0.09835000  0.61651000  1.0
  H  H22  1  0.55700000  0.89161000  0.57782000  1.0
  H  H23  1  0.42120000  0.22638000  0.60621000  1.0
  H  H24  1  0.48771000  0.99167000  0.58376000  1.0
  H  H25  1  0.57317000  0.10635000  0.43870000  1.0
  H  H26  1  0.76464000  0.56411000  0.56319000  1.0
  H  H27  1  0.22778000  0.46061000  0.61250000  1.0
  H  H28  1  0.99244000  0.50804000  0.57493000  1.0
  H  H29  1  0.90090000  0.43145000  0.39459000  1.0
  H  H30  1  0.10717000  0.55711000  0.41339000  1.0
  H  H31  1  0.77261000  0.42789000  0.40413000  1.0
  H  H32  1  0.00707000  0.49040000  0.42027000  1.0
  C  C33  1  0.31614000  0.50758000  0.50733000  1.0
  C  C34  1  0.49906000  0.01840000  0.53235000  1.0
  C  C35  1  0.50920000  0.98114000  0.47781000  1.0
  C  C36  1  0.68451000  0.49520000  0.48912000  1.0
  C  C37  1  0.50952000  0.76218000  0.48773000  1.0
  C  C38  1  0.76111000  0.49532000  0.48462000  1.0
  C  C39  1  0.79521000  0.53438000  0.52737000  1.0
  C  C40  1  0.86643000  0.53572000  0.52296000  1.0
  C  C41  1  0.90578000  0.49848000  0.47536000  1.0
  C  C42  1  0.87106000  0.46035000  0.43189000  1.0
  C  C43  1  0.79967000  0.45807000  0.43698000  1.0
  C  C44  1  0.49826000  0.09322000  0.52733000  1.0
  C  C45  1  0.13216000  0.53491000  0.45771000  1.0
  C  C46  1  0.20335000  0.53521000  0.45421000  1.0
  C  C47  1  0.20017000  0.48197000  0.56967000  1.0
  C  C48  1  0.50857000  0.50783000  0.31325000  1.0
  C  C49  1  0.12895000  0.48303000  0.57489000  1.0
  C  C50  1  0.09354000  0.50842000  0.51837000  1.0
  C  C51  1  0.98069000  0.49921000  0.47033000  1.0
  C  C52  1  0.01866000  0.50650000  0.52334000  1.0
  C  C53  1  0.23962000  0.50854000  0.50940000  1.0
  C  C54  1  0.49433000  0.48327000  0.76328000  1.0
  C  C55  1  0.45663000  0.12806000  0.57529000  1.0
  C  C56  1  0.53697000  0.52656000  0.79363000  1.0
  C  C57  1  0.53863000  0.52115000  0.86450000  1.0
  C  C58  1  0.49808000  0.47212000  0.90730000  1.0
  C  C59  1  0.45645000  0.42803000  0.87619000  1.0
  C  C60  1  0.49359000  0.48899000  0.68702000  1.0
  C  C61  1  0.45392000  0.43403000  0.80527000  1.0
  C  C62  1  0.53529000  0.45848000  0.13070000  1.0
  C  C63  1  0.53575000  0.45595000  0.20166000  1.0
  C  C64  1  0.48485000  0.56924000  0.19976000  1.0
  C  C65  1  0.48649000  0.57252000  0.12858000  1.0
  C  C66  1  0.45411000  0.19933000  0.56979000  1.0
  C  C67  1  0.51033000  0.51670000  0.09281000  1.0
  C  C68  1  0.49879000  0.46686000  0.98196000  1.0
  C  C69  1  0.50873000  0.52053000  0.01835000  1.0
  C  C70  1  0.50976000  0.51096000  0.23693000  1.0
  C  C71  1  0.50771000  0.68590000  0.49127000  1.0
  C  C72  1  0.49425000  0.31424000  0.51185000  1.0
  C  C73  1  0.49462000  0.23778000  0.51710000  1.0
  C  C74  1  0.53719000  0.20360000  0.46977000  1.0
  C  C75  1  0.53878000  0.13249000  0.47472000  1.0
  C  C76  1  0.53582000  0.86623000  0.53736000  1.0
  C  C77  1  0.53588000  0.79510000  0.54008000  1.0
  C  C78  1  0.48483000  0.80168000  0.43171000  1.0
  C  C79  1  0.48681000  0.87278000  0.42809000  1.0
  C  C80  1  0.51084000  0.90644000  0.48153000  1.0
  O  O81  1  0.49969000  0.49941000  0.50021000  1.0
  O  O82  1  0.47177000  0.65966000  0.44930000  1.0
  O  O83  1  0.45153000  0.34294000  0.55350000  1.0
  O  O84  1  0.54200000  0.65283000  0.53609000  1.0
  O  O85  1  0.53710000  0.34490000  0.46600000  1.0
  O  O86  1  0.54323000  0.46011000  0.34316000  1.0
  O  O87  1  0.45153000  0.45065000  0.66207000  1.0
  O  O88  1  0.34959000  0.54925000  0.46266000  1.0
  O  O89  1  0.65370000  0.53359000  0.53126000  1.0
  O  O90  1  0.34139000  0.46488000  0.55174000  1.0
  O  O91  1  0.65603000  0.45715000  0.45051000  1.0
  O  O92  1  0.47262000  0.55319000  0.34270000  1.0
  O  O93  1  0.53551000  0.53196000  0.65258000  1.0
  F  F94  1  0.23725000  0.56177000  0.39405000  1.0
