# generated using pymatgen
data_Al2H5C5O8
_symmetry_space_group_name_H-M   'P 1'
_cell_length_a   7.14143000
_cell_length_b   7.48177000
_cell_length_c   11.11110000
_cell_angle_alpha   107.51300000
_cell_angle_beta   106.49500000
_cell_angle_gamma   96.39110000
_symmetry_Int_Tables_number   1
_chemical_formula_structural   Al2H5C5O8
_chemical_formula_sum   'Al4 H10 C10 O16'
_cell_volume   530.13815364
_cell_formula_units_Z   2
loop_
 _symmetry_equiv_pos_site_id
 _symmetry_equiv_pos_as_xyz
  1  'x, y, z'
loop_
 _atom_site_type_symbol
 _atom_site_label
 _atom_site_symmetry_multiplicity
 _atom_site_fract_x
 _atom_site_fract_y
 _atom_site_fract_z
 _atom_site_occupancy
  Al  Al0  1  0.29180000  0.29181000  0.58364000  1.0
  Al  Al1  1  0.70821000  0.70820000  0.41636000  1.0
  Al  Al2  1  0.50000000  0.00000000  0.50000000  1.0
  Al  Al3  1  0.00000000  0.50000000  0.50000000  1.0
  H  H4  1  0.45132000  0.66546000  0.99994000  1.0
  H  H5  1  0.54868000  0.33453000  0.00006000  1.0
  H  H6  1  0.65369000  0.33074000  0.67118000  1.0
  H  H7  1  0.01748000  0.34051000  0.67125000  1.0
  H  H8  1  0.34632000  0.66927000  0.32883000  1.0
  H  H9  1  0.98251000  0.65949000  0.32875000  1.0
  H  H10  1  0.32342000  0.52349000  0.46116000  1.0
  H  H11  1  0.13766000  0.93758000  0.46121000  1.0
  H  H12  1  0.67659000  0.47652000  0.53885000  1.0
  H  H13  1  0.86235000  0.06242000  0.53879000  1.0
  C  C14  1  0.32939000  0.68026000  0.75026000  1.0
  C  C15  1  0.42131000  0.07013000  0.75037000  1.0
  C  C16  1  0.67060000  0.31974000  0.24974000  1.0
  C  C17  1  0.57869000  0.92987000  0.24963000  1.0
  C  C18  1  0.42611000  0.84514000  0.87878000  1.0
  C  C19  1  0.45301000  0.03371000  0.87885000  1.0
  C  C20  1  0.57387000  0.15485000  0.12122000  1.0
  C  C21  1  0.54698000  0.96628000  0.12115000  1.0
  C  C22  1  0.47498000  0.81199000  0.99996000  1.0
  C  C23  1  0.52500000  0.18800000  0.00004000  1.0
  O  O24  1  0.55716000  0.27632000  0.58117000  1.0
  O  O25  1  0.02405000  0.30496000  0.58126000  1.0
  O  O26  1  0.44285000  0.72369000  0.41884000  1.0
  O  O27  1  0.97595000  0.69504000  0.41874000  1.0
  O  O28  1  0.22456000  0.42363000  0.46386000  1.0
  O  O29  1  0.23928000  0.04019000  0.46401000  1.0
  O  O30  1  0.77545000  0.57637000  0.53614000  1.0
  O  O31  1  0.76073000  0.95982000  0.53599000  1.0
  O  O32  1  0.40778000  0.53390000  0.73354000  1.0
  O  O33  1  0.32591000  0.19953000  0.73354000  1.0
  O  O34  1  0.59222000  0.46610000  0.26646000  1.0
  O  O35  1  0.67409000  0.80046000  0.26645000  1.0
  O  O36  1  0.16942000  0.69526000  0.67004000  1.0
  O  O37  1  0.50123000  0.97504000  0.67021000  1.0
  O  O38  1  0.83057000  0.30474000  0.32995000  1.0
  O  O39  1  0.49878000  0.02496000  0.32979000  1.0
