# generated using pymatgen
data_CdH16(C8N5)2
_symmetry_space_group_name_H-M   'P 1'
_cell_length_a   6.97191000
_cell_length_b   10.47430000
_cell_length_c   13.70040000
_cell_angle_alpha   105.05700000
_cell_angle_beta   103.18200000
_cell_angle_gamma   96.00750000
_symmetry_Int_Tables_number   1
_chemical_formula_structural   CdH16(C8N5)2
_chemical_formula_sum   'Cd2 H32 C32 N20'
_cell_volume   926.27515206
_cell_formula_units_Z   2
loop_
 _symmetry_equiv_pos_site_id
 _symmetry_equiv_pos_as_xyz
  1  'x, y, z'
loop_
 _atom_site_type_symbol
 _atom_site_label
 _atom_site_symmetry_multiplicity
 _atom_site_fract_x
 _atom_site_fract_y
 _atom_site_fract_z
 _atom_site_occupancy
  Cd  Cd0  1  0.67620000  0.40409000  0.44757000  1.0
  Cd  Cd1  1  0.32379000  0.59592000  0.55244000  1.0
  H  H2  1  0.46517000  0.51791000  0.26272000  1.0
  H  H3  1  0.53483000  0.48208000  0.73728000  1.0
  H  H4  1  0.51753000  0.63068000  0.19258000  1.0
  H  H5  1  0.48247000  0.36931000  0.80742000  1.0
  H  H6  1  0.72398000  0.78689000  0.53857000  1.0
  H  H7  1  0.27602000  0.21312000  0.46144000  1.0
  H  H8  1  0.54741000  0.01804000  0.32398000  1.0
  H  H9  1  0.45259000  0.98196000  0.67601000  1.0
  H  H10  1  0.94444000  0.82431000  0.94146000  1.0
  H  H11  1  0.05558000  0.17569000  0.05854000  1.0
  H  H12  1  0.74746000  0.86597000  0.22251000  1.0
  H  H13  1  0.25254000  0.13402000  0.77749000  1.0
  H  H14  1  0.19812000  0.90170000  0.28519000  1.0
  H  H15  1  0.80188000  0.09831000  0.71481000  1.0
  H  H16  1  0.82006000  0.95650000  0.45012000  1.0
  H  H17  1  0.17994000  0.04349000  0.54987000  1.0
  H  H18  1  0.11858000  0.64237000  0.97680000  1.0
  H  H19  1  0.88143000  0.35762000  0.02320000  1.0
  H  H20  1  0.10527000  0.56699000  0.13621000  1.0
  H  H21  1  0.89473000  0.43300000  0.86380000  1.0
  H  H22  1  0.65214000  0.45673000  0.07584000  1.0
  H  H23  1  0.34787000  0.54327000  0.92416000  1.0
  H  H24  1  0.40564000  0.39197000  0.07542000  1.0
  H  H25  1  0.59436000  0.60803000  0.92458000  1.0
  H  H26  1  0.61480000  0.34369000  0.15045000  1.0
  H  H27  1  0.38521000  0.65631000  0.84955000  1.0
  H  H28  1  0.72823000  0.98502000  0.98361000  1.0
  H  H29  1  0.27178000  0.01498000  0.01638000  1.0
  H  H30  1  0.81493000  0.06937000  0.12052000  1.0
  H  H31  1  0.18507000  0.93063000  0.87948000  1.0
  H  H32  1  0.58115000  0.96171000  0.07041000  1.0
  H  H33  1  0.41885000  0.03828000  0.92958000  1.0
  C  C34  1  0.76919000  0.59367000  0.29329000  1.0
  C  C35  1  0.23081000  0.40633000  0.70671000  1.0
  C  C36  1  0.56740000  0.54599000  0.21884000  1.0
  C  C37  1  0.43260000  0.45401000  0.78116000  1.0
  C  C38  1  0.08141000  0.69524000  0.36470000  1.0
  C  C39  1  0.91859000  0.30476000  0.63530000  1.0
  C  C40  1  0.27992000  0.77445000  0.38487000  1.0
  C  C41  1  0.72008000  0.22555000  0.61513000  1.0
  C  C42  1  0.61273000  0.81133000  0.47912000  1.0
  C  C43  1  0.38727000  0.18868000  0.52088000  1.0
  C  C44  1  0.92323000  0.71250000  0.18554000  1.0
  C  C45  1  0.07676000  0.28749000  0.81445000  1.0
  C  C46  1  0.51500000  0.93936000  0.35963000  1.0
  C  C47  1  0.48500000  0.06063000  0.64037000  1.0
  C  C48  1  0.94025000  0.79500000  0.01177000  1.0
  C  C49  1  0.05976000  0.20499000  0.98823000  1.0
  C  C50  1  0.82474000  0.81592000  0.16686000  1.0
  C  C51  1  0.17526000  0.18408000  0.83314000  1.0
  C  C52  1  0.31842000  0.87349000  0.33683000  1.0
  C  C53  1  0.68158000  0.12651000  0.66317000  1.0
  C  C54  1  0.66515000  0.90680000  0.43066000  1.0
  C  C55  1  0.33485000  0.09320000  0.56933000  1.0
  C  C56  1  0.03824000  0.69088000  0.03138000  1.0
  C  C57  1  0.96176000  0.30911000  0.96861000  1.0
  C  C58  1  0.03114000  0.64828000  0.11894000  1.0
  C  C59  1  0.96886000  0.35171000  0.88107000  1.0
  C  C60  1  0.83363000  0.85957000  0.07930000  1.0
  C  C61  1  0.16638000  0.14042000  0.92070000  1.0
  C  C62  1  0.56020000  0.42695000  0.12412000  1.0
  C  C63  1  0.43981000  0.57305000  0.87588000  1.0
  C  C64  1  0.73398000  0.97469000  0.06179000  1.0
  C  C65  1  0.26604000  0.02530000  0.93821000  1.0
  N  N66  1  0.83443000  0.17452000  0.32728000  1.0
  N  N67  1  0.16556000  0.82549000  0.67273000  1.0
  N  N68  1  0.66387000  0.58135000  0.59715000  1.0
  N  N69  1  0.33613000  0.41866000  0.40286000  1.0
  N  N70  1  0.77812000  0.60106000  0.68240000  1.0
  N  N71  1  0.22187000  0.39894000  0.31760000  1.0
  N  N72  1  0.70051000  0.23624000  0.31083000  1.0
  N  N73  1  0.29948000  0.76377000  0.68918000  1.0
  N  N74  1  0.83414000  0.56687000  0.38358000  1.0
  N  N75  1  0.16586000  0.43314000  0.61643000  1.0
  N  N76  1  0.02825000  0.63024000  0.42826000  1.0
  N  N77  1  0.97175000  0.36977000  0.57175000  1.0
  N  N78  1  0.42508000  0.74600000  0.45609000  1.0
  N  N79  1  0.57492000  0.25401000  0.54391000  1.0
  N  N80  1  0.92195000  0.67398000  0.27868000  1.0
  N  N81  1  0.07804000  0.32602000  0.72132000  1.0
  N  N82  1  0.88966000  0.61824000  0.76420000  1.0
  N  N83  1  0.11033000  0.38176000  0.23580000  1.0
  N  N84  1  0.96056000  0.10979000  0.34001000  1.0
  N  N85  1  0.03943000  0.89022000  0.65999000  1.0
