# generated using pymatgen
data_CdH12C12(SeN3)2
_symmetry_space_group_name_H-M   'P 1'
_cell_length_a   5.68383000
_cell_length_b   13.99140000
_cell_length_c   18.83800000
_cell_angle_alpha   90.00000000
_cell_angle_beta   90.00000000
_cell_angle_gamma   90.00000000
_symmetry_Int_Tables_number   1
_chemical_formula_structural   CdH12C12(SeN3)2
_chemical_formula_sum   'Cd4 H48 C48 Se8 N24'
_cell_volume   1498.08703445
_cell_formula_units_Z   4
loop_
 _symmetry_equiv_pos_site_id
 _symmetry_equiv_pos_as_xyz
  1  'x, y, z'
loop_
 _atom_site_type_symbol
 _atom_site_label
 _atom_site_symmetry_multiplicity
 _atom_site_fract_x
 _atom_site_fract_y
 _atom_site_fract_z
 _atom_site_occupancy
  Cd  Cd0  1  0.99999000  0.50000000  0.50000000  1.0
  Cd  Cd1  1  0.00001000  0.00000000  0.00000000  1.0
  Cd  Cd2  1  0.49999000  0.99999000  0.50000000  1.0
  Cd  Cd3  1  0.50000000  0.50000000  0.00000000  1.0
  H  H4  1  0.57698000  0.63664000  0.43898000  1.0
  H  H5  1  0.42301000  0.86336000  0.93898000  1.0
  H  H6  1  0.92300000  0.13664000  0.56102000  1.0
  H  H7  1  0.07700000  0.36336000  0.06101000  1.0
  H  H8  1  0.42299000  0.36336000  0.56102000  1.0
  H  H9  1  0.57700000  0.13664000  0.06102000  1.0
  H  H10  1  0.07700000  0.86336000  0.43898000  1.0
  H  H11  1  0.92300000  0.63664000  0.93898000  1.0
  H  H12  1  0.41571000  0.70027000  0.32794000  1.0
  H  H13  1  0.58429000  0.79973000  0.82794000  1.0
  H  H14  1  0.08428000  0.20027000  0.67206000  1.0
  H  H15  1  0.91572000  0.29973000  0.17206000  1.0
  H  H16  1  0.58426000  0.29973000  0.67206000  1.0
  H  H17  1  0.41573000  0.20027000  0.17206000  1.0
  H  H18  1  0.91574000  0.79973000  0.32794000  1.0
  H  H19  1  0.08427000  0.70028000  0.82794000  1.0
  H  H20  1  0.01881000  0.57856000  0.21945000  1.0
  H  H21  1  0.98120000  0.92145000  0.71945000  1.0
  H  H22  1  0.48119000  0.07855000  0.78055000  1.0
  H  H23  1  0.51882000  0.42145000  0.28055000  1.0
  H  H24  1  0.98117000  0.42145000  0.78055000  1.0
  H  H25  1  0.01882000  0.07856000  0.28055000  1.0
  H  H26  1  0.51883000  0.92144000  0.21945000  1.0
  H  H27  1  0.48119000  0.57856000  0.71945000  1.0
  H  H28  1  0.15568000  0.52027000  0.33683000  1.0
  H  H29  1  0.84432000  0.97973000  0.83683000  1.0
  H  H30  1  0.34432000  0.02026000  0.66317000  1.0
  H  H31  1  0.65569000  0.47973000  0.16317000  1.0
  H  H32  1  0.84431000  0.47974000  0.66317000  1.0
  H  H33  1  0.15569000  0.02026000  0.16317000  1.0
  H  H34  1  0.65569000  0.97974000  0.33683000  1.0
  H  H35  1  0.34432000  0.52026000  0.83683000  1.0
  H  H36  1  0.45757000  0.70809000  0.19690000  1.0
  H  H37  1  0.54244000  0.79192000  0.69690000  1.0
  H  H38  1  0.04243000  0.20809000  0.80310000  1.0
  H  H39  1  0.95757000  0.29191000  0.30310000  1.0
  H  H40  1  0.54241000  0.29191000  0.80310000  1.0
  H  H41  1  0.45758000  0.20809000  0.30310000  1.0
  H  H42  1  0.95758000  0.79191000  0.19690000  1.0
  H  H43  1  0.04243000  0.70809000  0.69690000  1.0
  H  H44  1  0.68606000  0.65372000  0.15366000  1.0
  H  H45  1  0.31395000  0.84629000  0.65366000  1.0
  H  H46  1  0.81393000  0.15371000  0.84634000  1.0
  H  H47  1  0.18607000  0.34629000  0.34634000  1.0
  H  H48  1  0.31392000  0.34628000  0.84634000  1.0
  H  H49  1  0.68607000  0.15372000  0.34634000  1.0
  H  H50  1  0.18608000  0.84628000  0.15366000  1.0
  H  H51  1  0.81394000  0.65372000  0.65366000  1.0
  C  C52  1  0.50334000  0.39639000  0.44161000  1.0
  C  C53  1  0.49665000  0.10362000  0.94160000  1.0
  C  C54  1  0.99663000  0.89638000  0.55839000  1.0
  C  C55  1  0.00337000  0.60363000  0.05840000  1.0
  C  C56  1  0.49663000  0.60362000  0.55839000  1.0
  C  C57  1  0.50337000  0.89638000  0.05838000  1.0
  C  C58  1  0.00333000  0.10361000  0.44161000  1.0
  C  C59  1  0.99663000  0.39637000  0.94161000  1.0
  C  C60  1  0.67179000  0.62497000  0.38959000  1.0
  C  C61  1  0.32821000  0.87503000  0.88959000  1.0
  C  C62  1  0.82820000  0.12497000  0.61041000  1.0
  C  C63  1  0.17180000  0.37502000  0.11041000  1.0
  C  C64  1  0.32819000  0.37502000  0.61041000  1.0
  C  C65  1  0.67180000  0.12497000  0.11041000  1.0
  C  C66  1  0.17181000  0.87502000  0.38959000  1.0
  C  C67  1  0.82821000  0.62497000  0.88959000  1.0
  C  C68  1  0.58096000  0.66083000  0.32690000  1.0
  C  C69  1  0.41905000  0.83917000  0.82690000  1.0
  C  C70  1  0.91903000  0.16083000  0.67310000  1.0
  C  C71  1  0.08096000  0.33917000  0.17310000  1.0
  C  C72  1  0.41902000  0.33917000  0.67310000  1.0
  C  C73  1  0.58097000  0.16084000  0.17310000  1.0
  C  C74  1  0.08098000  0.83916000  0.32690000  1.0
  C  C75  1  0.91903000  0.66083000  0.82690000  1.0
  C  C76  1  0.70227000  0.64510000  0.26258000  1.0
  C  C77  1  0.29774000  0.85490000  0.76258000  1.0
  C  C78  1  0.79773000  0.14510000  0.73742000  1.0
  C  C79  1  0.20228000  0.35490000  0.23742000  1.0
  C  C80  1  0.29770000  0.35490000  0.73742000  1.0
  C  C81  1  0.70229000  0.14511000  0.23742000  1.0
  C  C82  1  0.20229000  0.85490000  0.26258000  1.0
  C  C83  1  0.79772000  0.64511000  0.76258000  1.0
  C  C84  1  0.91481000  0.59277000  0.26692000  1.0
  C  C85  1  0.08520000  0.90724000  0.76692000  1.0
  C  C86  1  0.58519000  0.09276000  0.73308000  1.0
  C  C87  1  0.41481000  0.40723000  0.23308000  1.0
  C  C88  1  0.08518000  0.40723000  0.73308000  1.0
  C  C89  1  0.91482000  0.09277000  0.23308000  1.0
  C  C90  1  0.41482000  0.90723000  0.26692000  1.0
  C  C91  1  0.58519000  0.59277000  0.76692000  1.0
  C  C92  1  0.99164000  0.55999000  0.33225000  1.0
  C  C93  1  0.00837000  0.94001000  0.83225000  1.0
  C  C94  1  0.50836000  0.05999000  0.66775000  1.0
  C  C95  1  0.49164000  0.44001000  0.16775000  1.0
  C  C96  1  0.00835000  0.44001000  0.66775000  1.0
  C  C97  1  0.99165000  0.05999000  0.16775000  1.0
  C  C98  1  0.49164000  0.94001000  0.33225000  1.0
  C  C99  1  0.50836000  0.55999000  0.83225000  1.0
  Se  Se100  1  0.76705000  0.32881000  0.45714000  1.0
  Se  Se101  1  0.23296000  0.17119000  0.95714000  1.0
  Se  Se102  1  0.73293000  0.82880000  0.54286000  1.0
  Se  Se103  1  0.26705000  0.67120000  0.04287000  1.0
  Se  Se104  1  0.23295000  0.67119000  0.54286000  1.0
  Se  Se105  1  0.76705000  0.82881000  0.04285000  1.0
  Se  Se106  1  0.26704000  0.17119000  0.45714000  1.0
  Se  Se107  1  0.73296000  0.32881000  0.95715000  1.0
  N  N108  1  0.32654000  0.43955000  0.43253000  1.0
  N  N109  1  0.67345000  0.06044000  0.93253000  1.0
  N  N110  1  0.17341000  0.93954000  0.56747000  1.0
  N  N111  1  0.82657000  0.56045000  0.06747000  1.0
  N  N112  1  0.67342000  0.56046000  0.56747000  1.0
  N  N113  1  0.32656000  0.93955000  0.06746000  1.0
  N  N114  1  0.82655000  0.06045000  0.43254000  1.0
  N  N115  1  0.17343000  0.43955000  0.93253000  1.0
  N  N116  1  0.87401000  0.57464000  0.39362000  1.0
  N  N117  1  0.12599000  0.92536000  0.89362000  1.0
  N  N118  1  0.62598000  0.07464000  0.60638000  1.0
  N  N119  1  0.37402000  0.42536000  0.10638000  1.0
  N  N120  1  0.12597000  0.42536000  0.60638000  1.0
  N  N121  1  0.87402000  0.07464000  0.10638000  1.0
  N  N122  1  0.37402000  0.92536000  0.39362000  1.0
  N  N123  1  0.62598000  0.57463000  0.89362000  1.0
  N  N124  1  0.62500000  0.68237000  0.19989000  1.0
  N  N125  1  0.37501000  0.81763000  0.69989000  1.0
  N  N126  1  0.87499000  0.18237000  0.80011000  1.0
  N  N127  1  0.12501000  0.31763000  0.30011000  1.0
  N  N128  1  0.37498000  0.31763000  0.80011000  1.0
  N  N129  1  0.62502000  0.18238000  0.30011000  1.0
  N  N130  1  0.12502000  0.81762000  0.19989000  1.0
  N  N131  1  0.87499000  0.68238000  0.69989000  1.0
