# generated using pymatgen
data_ZnH20(C13N5)2
_symmetry_space_group_name_H-M   'P 1'
_cell_length_a   10.25110000
_cell_length_b   15.99961962
_cell_length_c   16.00350000
_cell_angle_alpha   115.56799500
_cell_angle_beta   102.30900000
_cell_angle_gamma   102.32676614
_symmetry_Int_Tables_number   1
_chemical_formula_structural   ZnH20(C13N5)2
_chemical_formula_sum   'Zn3 H60 C78 N30'
_cell_volume   2169.91011415
_cell_formula_units_Z   3
loop_
 _symmetry_equiv_pos_site_id
 _symmetry_equiv_pos_as_xyz
  1  'x, y, z'
loop_
 _atom_site_type_symbol
 _atom_site_label
 _atom_site_symmetry_multiplicity
 _atom_site_fract_x
 _atom_site_fract_y
 _atom_site_fract_z
 _atom_site_occupancy
  Zn  Zn0  1  0.00000000  1.00000000  0.50000000  1.0
  Zn  Zn1  1  0.00000000  0.50000000  0.00000000  1.0
  Zn  Zn2  1  0.50000000  0.50000000  0.50000000  1.0
  H  H3  1  0.00936000  0.14744000  0.41277000  1.0
  H  H4  1  0.86214000  0.26550000  0.85265000  1.0
  H  H5  1  0.59627000  0.58684000  0.73443000  1.0
  H  H6  1  0.99064000  0.85256000  0.58724000  1.0
  H  H7  1  0.13786000  0.73450000  0.14735000  1.0
  H  H8  1  0.40373000  0.41316000  0.26557000  1.0
  H  H9  1  0.15713000  0.20584000  0.32737000  1.0
  H  H10  1  0.95151000  0.12171000  0.79420000  1.0
  H  H11  1  0.82929000  0.67238000  0.87821000  1.0
  H  H12  1  0.84287000  0.79416000  0.67263000  1.0
  H  H13  1  0.04849000  0.87829000  0.20580000  1.0
  H  H14  1  0.17072000  0.32763000  0.12180000  1.0
  H  H15  1  0.34162000  0.13119000  0.28546000  1.0
  H  H16  1  0.21053000  0.15436000  0.86896000  1.0
  H  H17  1  0.05566000  0.71449000  0.84550000  1.0
  H  H18  1  0.65838000  0.86881000  0.71454000  1.0
  H  H19  1  0.78948000  0.84564000  0.13104000  1.0
  H  H20  1  0.94433000  0.28551000  0.15449000  1.0
  H  H21  1  0.26487000  0.77437000  0.59768000  1.0
  H  H22  1  0.49035000  0.82344000  0.22560000  1.0
  H  H23  1  0.66764000  0.40238000  0.17694000  1.0
  H  H24  1  0.73514000  0.22563000  0.40232000  1.0
  H  H25  1  0.50965000  0.17656000  0.77440000  1.0
  H  H26  1  0.33236000  0.59761000  0.82305000  1.0
  H  H27  1  0.37343000  0.65434000  0.61556000  1.0
  H  H28  1  0.71882000  0.96134000  0.34568000  1.0
  H  H29  1  0.75800000  0.38453000  0.03893000  1.0
  H  H30  1  0.62657000  0.34566000  0.38444000  1.0
  H  H31  1  0.28117000  0.03866000  0.65432000  1.0
  H  H32  1  0.24200000  0.61547000  0.96107000  1.0
  H  H33  1  0.54099000  0.62929000  0.39574000  1.0
  H  H34  1  0.91136000  0.76650000  0.37067000  1.0
  H  H35  1  0.14543000  0.60420000  0.23341000  1.0
  H  H36  1  0.45901000  0.37071000  0.60426000  1.0
  H  H37  1  0.08864000  0.23350000  0.62933000  1.0
  H  H38  1  0.85457000  0.39580000  0.76659000  1.0
  H  H39  1  0.44101000  0.74989000  0.37009000  1.0
  H  H40  1  0.69099000  0.62025000  0.24994000  1.0
  H  H41  1  0.07141000  0.62982000  0.37976000  1.0
  H  H42  1  0.55899000  0.25011000  0.62991000  1.0
  H  H43  1  0.30901000  0.37975000  0.75006000  1.0
  H  H44  1  0.92859000  0.37018000  0.62024000  1.0
  H  H45  1  0.46148000  0.02240000  0.28271000  1.0
  H  H46  1  0.43903000  0.26039000  0.97785000  1.0
  H  H47  1  0.17828000  0.71720000  0.73952000  1.0
  H  H48  1  0.53852000  0.97760000  0.71729000  1.0
  H  H49  1  0.56097000  0.73961000  0.02215000  1.0
  H  H50  1  0.82172000  0.28280000  0.26048000  1.0
  H  H51  1  0.35641000  0.90970000  0.27023000  1.0
  H  H52  1  0.44651000  0.36060000  0.09049000  1.0
  H  H53  1  0.08579000  0.72969000  0.63931000  1.0
  H  H54  1  0.64359000  0.09030000  0.72977000  1.0
  H  H55  1  0.55349000  0.63940000  0.90951000  1.0
  H  H56  1  0.91421000  0.27031000  0.36069000  1.0
  H  H57  1  0.48360000  0.00078000  0.38495000  1.0
  H  H58  1  0.48273000  0.38427000  0.99942000  1.0
  H  H59  1  0.09826000  0.61493000  0.61569000  1.0
  H  H60  1  0.51640000  0.99922000  0.61505000  1.0
  H  H61  1  0.51727000  0.61573000  0.00058000  1.0
  H  H62  1  0.90174000  0.38507000  0.38431000  1.0
  C  C63  1  0.09109000  0.11757000  0.39179000  1.0
  C  C64  1  0.97368000  0.27437000  0.88253000  1.0
  C  C65  1  0.69894000  0.60794000  0.72556000  1.0
  C  C66  1  0.90891000  0.88243000  0.60821000  1.0
  C  C67  1  0.02632000  0.72563000  0.11747000  1.0
  C  C68  1  0.30106000  0.39206000  0.27444000  1.0
  C  C69  1  0.17279000  0.14926000  0.34477000  1.0
  C  C70  1  0.02369000  0.19565000  0.85083000  1.0
  C  C71  1  0.82758000  0.65502000  0.80425000  1.0
  C  C72  1  0.82721000  0.85074000  0.65523000  1.0
  C  C73  1  0.97631000  0.80435000  0.14917000  1.0
  C  C74  1  0.17242000  0.34498000  0.19575000  1.0
  C  C75  1  0.27516000  0.10733000  0.32157000  1.0
  C  C76  1  0.16792000  0.21435000  0.89282000  1.0
  C  C77  1  0.95314000  0.67832000  0.78554000  1.0
  C  C78  1  0.72484000  0.89267000  0.67843000  1.0
  C  C79  1  0.83209000  0.78565000  0.10718000  1.0
  C  C80  1  0.04687000  0.32169000  0.21447000  1.0
  C  C81  1  0.29627000  0.03534000  0.34491000  1.0
  C  C82  1  0.26094000  0.30967000  0.96485000  1.0
  C  C83  1  0.95096000  0.65501000  0.69024000  1.0
  C  C84  1  0.70373000  0.96466000  0.65509000  1.0
  C  C85  1  0.73906000  0.69033000  0.03515000  1.0
  C  C86  1  0.04904000  0.34499000  0.30975000  1.0
  C  C87  1  0.20947000  0.00813000  0.39329000  1.0
  C  C88  1  0.20138000  0.38527000  0.99201000  1.0
  C  C89  1  0.81588000  0.60664000  0.61470000  1.0
  C  C90  1  0.79052000  0.99186000  0.60670000  1.0
  C  C91  1  0.79862000  0.61473000  0.00799000  1.0
  C  C92  1  0.18412000  0.39336000  0.38530000  1.0
  C  C93  1  0.21991000  0.93702000  0.42645000  1.0
  C  C94  1  0.28291000  0.48954000  0.06305000  1.0
  C  C95  1  0.79335000  0.57356000  0.51049000  1.0
  C  C96  1  0.78009000  0.06298000  0.57355000  1.0
  C  C97  1  0.71709000  0.51046000  0.93695000  1.0
  C  C98  1  0.20665000  0.42644000  0.48951000  1.0
  C  C99  1  0.27500000  0.83709000  0.46702000  1.0
  C  C100  1  0.43786000  0.63003000  0.16285000  1.0
  C  C101  1  0.80828000  0.53301000  0.37011000  1.0
  C  C102  1  0.72500000  0.16291000  0.53298000  1.0
  C  C103  1  0.56214000  0.36997000  0.83715000  1.0
  C  C104  1  0.19172000  0.46699000  0.62989000  1.0
  C  C105  1  0.34256000  0.77068000  0.48119000  1.0
  C  C106  1  0.57177000  0.71061000  0.22924000  1.0
  C  C107  1  0.86181000  0.51881000  0.28959000  1.0
  C  C108  1  0.65744000  0.22932000  0.51881000  1.0
  C  C109  1  0.42823000  0.28939000  0.77076000  1.0
  C  C110  1  0.13819000  0.48119000  0.71041000  1.0
  C  C111  1  0.32615000  0.74394000  0.55217000  1.0
  C  C112  1  0.58207000  0.80836000  0.25602000  1.0
  C  C113  1  0.77438000  0.44782000  0.19191000  1.0
  C  C114  1  0.67385000  0.25606000  0.44783000  1.0
  C  C115  1  0.41793000  0.19164000  0.74398000  1.0
  C  C116  1  0.22561000  0.55217000  0.80808000  1.0
  C  C117  1  0.38636000  0.67753000  0.56207000  1.0
  C  C118  1  0.70859000  0.88465000  0.32247000  1.0
  C  C119  1  0.82454000  0.43796000  0.11557000  1.0
  C  C120  1  0.61364000  0.32247000  0.43793000  1.0
  C  C121  1  0.29141000  0.11535000  0.67753000  1.0
  C  C122  1  0.17546000  0.56204000  0.88443000  1.0
  C  C123  1  0.47995000  0.66376000  0.43972000  1.0
  C  C124  1  0.81592000  0.77604000  0.33617000  1.0
  C  C125  1  0.04048000  0.56023000  0.22400000  1.0
  C  C126  1  0.52005000  0.33624000  0.56028000  1.0
  C  C127  1  0.18408000  0.22396000  0.66382000  1.0
  C  C128  1  0.95952000  0.43977000  0.77600000  1.0
  C  C129  1  0.42421000  0.73039000  0.42522000  1.0
  C  C130  1  0.69365000  0.69491000  0.26949000  1.0
  C  C131  1  0.99938000  0.57471000  0.30518000  1.0
  C  C132  1  0.57580000  0.26961000  0.57478000  1.0
  C  C133  1  0.30635000  0.30509000  0.73050000  1.0
  C  C134  1  0.00062000  0.42529000  0.69482000  1.0
  C  C135  1  0.40580000  0.99010000  0.31903000  1.0
  C  C136  1  0.41564000  0.32901000  0.01012000  1.0
  C  C137  1  0.08638000  0.68090000  0.67092000  1.0
  C  C138  1  0.59420000  0.00990000  0.68097000  1.0
  C  C139  1  0.58437000  0.67099000  0.98988000  1.0
  C  C140  1  0.91363000  0.31911000  0.32909000  1.0
  N  N141  1  0.10925000  0.04885000  0.41499000  1.0
  N  N142  1  0.06050000  0.36627000  0.95127000  1.0
  N  N143  1  0.69397000  0.58486000  0.63369000  1.0
  N  N144  1  0.89075000  0.95115000  0.58501000  1.0
  N  N145  1  0.93951000  0.63373000  0.04873000  1.0
  N  N146  1  0.30603000  0.41514000  0.36631000  1.0
  N  N147  1  0.13802000  0.92224000  0.47888000  1.0
  N  N148  1  0.21584000  0.55677000  0.07766000  1.0
  N  N149  1  0.65917000  0.52101000  0.44320000  1.0
  N  N150  1  0.86197000  0.07775000  0.52111000  1.0
  N  N151  1  0.78416000  0.44323000  0.92234000  1.0
  N  N152  1  0.34083000  0.47899000  0.55680000  1.0
  N  N153  1  0.17304000  0.85892000  0.50585000  1.0
  N  N154  1  0.31413000  0.64705000  0.14091000  1.0
  N  N155  1  0.66748000  0.49407000  0.35300000  1.0
  N  N156  1  0.82696000  0.14108000  0.49415000  1.0
  N  N157  1  0.68587000  0.35295000  0.85909000  1.0
  N  N158  1  0.33252000  0.50593000  0.64701000  1.0
  N  N159  1  0.30690000  0.88363000  0.41647000  1.0
  N  N160  1  0.42321000  0.53294000  0.11646000  1.0
  N  N161  1  0.89046000  0.58363000  0.46721000  1.0
  N  N162  1  0.69310000  0.11637000  0.58353000  1.0
  N  N163  1  0.57679000  0.46706000  0.88354000  1.0
  N  N164  1  0.10954000  0.41637000  0.53279000  1.0
  N  N165  1  0.46077000  0.63632000  0.50613000  1.0
  N  N166  1  0.82415000  0.86989000  0.36366000  1.0
  N  N167  1  0.95481000  0.49388000  0.13020000  1.0
  N  N168  1  0.53923000  0.36368000  0.49387000  1.0
  N  N169  1  0.17585000  0.13011000  0.63634000  1.0
  N  N170  1  0.04520000  0.50612000  0.86980000  1.0
