# generated using pymatgen
data_CdH7C5N2O5
_symmetry_space_group_name_H-M   'P 1'
_cell_length_a   8.30051000
_cell_length_b   8.93072000
_cell_length_c   12.32690000
_cell_angle_alpha   80.14680000
_cell_angle_beta   89.99970000
_cell_angle_gamma   89.99980000
_symmetry_Int_Tables_number   1
_chemical_formula_structural   CdH7C5N2O5
_chemical_formula_sum   'Cd4 H28 C20 N8 O20'
_cell_volume   900.30842935
_cell_formula_units_Z   4
loop_
 _symmetry_equiv_pos_site_id
 _symmetry_equiv_pos_as_xyz
  1  'x, y, z'
loop_
 _atom_site_type_symbol
 _atom_site_label
 _atom_site_symmetry_multiplicity
 _atom_site_fract_x
 _atom_site_fract_y
 _atom_site_fract_z
 _atom_site_occupancy
  Cd  Cd0  1  0.82134000  0.07966000  0.38437000  1.0
  Cd  Cd1  1  0.32134000  0.92033000  0.11563000  1.0
  Cd  Cd2  1  0.17866000  0.92034000  0.61563000  1.0
  Cd  Cd3  1  0.67866000  0.07966000  0.88437000  1.0
  H  H4  1  0.83648000  0.94342000  0.63008000  1.0
  H  H5  1  0.33647000  0.05657000  0.86992000  1.0
  H  H6  1  0.16352000  0.05657000  0.36992000  1.0
  H  H7  1  0.66352000  0.94343000  0.13007000  1.0
  H  H8  1  0.67914000  0.58794000  0.63787000  1.0
  H  H9  1  0.17913000  0.41205000  0.86213000  1.0
  H  H10  1  0.32086000  0.41205000  0.36214000  1.0
  H  H11  1  0.82086000  0.58795000  0.13786000  1.0
  H  H12  1  0.96127000  0.23313000  0.54100000  1.0
  H  H13  1  0.46127000  0.76687000  0.95899000  1.0
  H  H14  1  0.03874000  0.76687000  0.45899000  1.0
  H  H15  1  0.53873000  0.23313000  0.04101000  1.0
  H  H16  1  0.77074000  0.20030000  0.58449000  1.0
  H  H17  1  0.27074000  0.79970000  0.91550000  1.0
  H  H18  1  0.22927000  0.79970000  0.41551000  1.0
  H  H19  1  0.72925000  0.20031000  0.08449000  1.0
  H  H20  1  0.92344000  0.05683000  0.70751000  1.0
  H  H21  1  0.42344000  0.94317000  0.79249000  1.0
  H  H22  1  0.07657000  0.94316000  0.29249000  1.0
  H  H23  1  0.57655000  0.05683000  0.20751000  1.0
  H  H24  1  0.47180000  0.15838000  0.38316000  1.0
  H  H25  1  0.97180000  0.84162000  0.11684000  1.0
  H  H26  1  0.52820000  0.84162000  0.61684000  1.0
  H  H27  1  0.02820000  0.15838000  0.88316000  1.0
  H  H28  1  0.56507000  0.28622000  0.30055000  1.0
  H  H29  1  0.06507000  0.71377000  0.19945000  1.0
  H  H30  1  0.43494000  0.71378000  0.69945000  1.0
  H  H31  1  0.93494000  0.28622000  0.80055000  1.0
  C  C32  1  0.66250000  0.79204000  0.45072000  1.0
  C  C33  1  0.16250000  0.20795000  0.04929000  1.0
  C  C34  1  0.33749000  0.20796000  0.54929000  1.0
  C  C35  1  0.83751000  0.79205000  0.95072000  1.0
  C  C36  1  0.57856000  0.64116000  0.47426000  1.0
  C  C37  1  0.07857000  0.35884000  0.02574000  1.0
  C  C38  1  0.42143000  0.35884000  0.52574000  1.0
  C  C39  1  0.92144000  0.64116000  0.97426000  1.0
  C  C40  1  0.44147000  0.68806000  0.28691000  1.0
  C  C41  1  0.94147000  0.31196000  0.21310000  1.0
  C  C42  1  0.55852000  0.31194000  0.71309000  1.0
  C  C43  1  0.05853000  0.68805000  0.78690000  1.0
  C  C44  1  0.47976000  0.58978000  0.39543000  1.0
  C  C45  1  0.97977000  0.41022000  0.10458000  1.0
  C  C46  1  0.52023000  0.41022000  0.60458000  1.0
  C  C47  1  0.02024000  0.58978000  0.89542000  1.0
  C  C48  1  0.59825000  0.55033000  0.57785000  1.0
  C  C49  1  0.09825000  0.44967000  0.92215000  1.0
  C  C50  1  0.40175000  0.44966000  0.42215000  1.0
  C  C51  1  0.90175000  0.55034000  0.07785000  1.0
  N  N52  1  0.87013000  0.15489000  0.55072000  1.0
  N  N53  1  0.37013000  0.84511000  0.94927000  1.0
  N  N54  1  0.12988000  0.84511000  0.44927000  1.0
  N  N55  1  0.62987000  0.15490000  0.05072000  1.0
  N  N56  1  0.92228000  0.02599000  0.63064000  1.0
  N  N57  1  0.42228000  0.97401000  0.86935000  1.0
  N  N58  1  0.07772000  0.97401000  0.36935000  1.0
  N  N59  1  0.57772000  0.02599000  0.13064000  1.0
  O  O60  1  0.66490000  0.87268000  0.52761000  1.0
  O  O61  1  0.16491000  0.12732000  0.97239000  1.0
  O  O62  1  0.33509000  0.12732000  0.47238000  1.0
  O  O63  1  0.83509000  0.87267000  0.02763000  1.0
  O  O64  1  0.72897000  0.83439000  0.35800000  1.0
  O  O65  1  0.22898000  0.16561000  0.14200000  1.0
  O  O66  1  0.27101000  0.16561000  0.64200000  1.0
  O  O67  1  0.77103000  0.83440000  0.85800000  1.0
  O  O68  1  0.36978000  0.81379000  0.29625000  1.0
  O  O69  1  0.86975000  0.18625000  0.20377000  1.0
  O  O70  1  0.63023000  0.18621000  0.70376000  1.0
  O  O71  1  0.13025000  0.81377000  0.79624000  1.0
  O  O72  1  0.47032000  0.64465000  0.19741000  1.0
  O  O73  1  0.97036000  0.35537000  0.30259000  1.0
  O  O74  1  0.52966000  0.35535000  0.80259000  1.0
  O  O75  1  0.02965000  0.64465000  0.69740000  1.0
  O  O76  1  0.56431000  0.17721000  0.32782000  1.0
  O  O77  1  0.06432000  0.82278000  0.17218000  1.0
  O  O78  1  0.43569000  0.82278000  0.67218000  1.0
  O  O79  1  0.93569000  0.17722000  0.82782000  1.0
