# generated using pymatgen
data_CdH19C19(NO)5
_symmetry_space_group_name_H-M   'P 1'
_cell_length_a   8.90743000
_cell_length_b   10.49920000
_cell_length_c   13.04920000
_cell_angle_alpha   101.63000000
_cell_angle_beta   104.35800000
_cell_angle_gamma   101.34800000
_symmetry_Int_Tables_number   1
_chemical_formula_structural   CdH19C19(NO)5
_chemical_formula_sum   'Cd2 H38 C38 N10 O10'
_cell_volume   1118.14166715
_cell_formula_units_Z   2
loop_
 _symmetry_equiv_pos_site_id
 _symmetry_equiv_pos_as_xyz
  1  'x, y, z'
loop_
 _atom_site_type_symbol
 _atom_site_label
 _atom_site_symmetry_multiplicity
 _atom_site_fract_x
 _atom_site_fract_y
 _atom_site_fract_z
 _atom_site_occupancy
  Cd  Cd0  1  0.63864000  0.15353000  0.44298000  1.0
  Cd  Cd1  1  0.36137000  0.84647000  0.55702000  1.0
  H  H2  1  0.50926000  0.35099000  0.14851000  1.0
  H  H3  1  0.49075000  0.64902000  0.85149000  1.0
  H  H4  1  0.98309000  0.42949000  0.17870000  1.0
  H  H5  1  0.01691000  0.57051000  0.82130000  1.0
  H  H6  1  0.17987000  0.49050000  0.17501000  1.0
  H  H7  1  0.82013000  0.50948000  0.82498000  1.0
  H  H8  1  0.48656000  0.76201000  0.16162000  1.0
  H  H9  1  0.51344000  0.23799000  0.83838000  1.0
  H  H10  1  0.18166000  0.35592000  0.79227000  1.0
  H  H11  1  0.81834000  0.64407000  0.20773000  1.0
  H  H12  1  0.87571000  0.37821000  0.34566000  1.0
  H  H13  1  0.12428000  0.62178000  0.65433000  1.0
  H  H14  1  0.12219000  0.15711000  0.89955000  1.0
  H  H15  1  0.87779000  0.84287000  0.10044000  1.0
  H  H16  1  0.91590000  0.09373000  0.88320000  1.0
  H  H17  1  0.08409000  0.90626000  0.11680000  1.0
  H  H18  1  0.72214000  0.08517000  0.70608000  1.0
  H  H19  1  0.27785000  0.91484000  0.29391000  1.0
  H  H20  1  0.99185000  0.19214000  0.09988000  1.0
  H  H21  1  0.00814000  0.80786000  0.90012000  1.0
  H  H22  1  0.19178000  0.25295000  0.10105000  1.0
  H  H23  1  0.80821000  0.74704000  0.89894000  1.0
  H  H24  1  0.19902000  0.13486000  0.33251000  1.0
  H  H25  1  0.80100000  0.86515000  0.66750000  1.0
  H  H26  1  0.00823000  0.34500000  0.57990000  1.0
  H  H27  1  0.99178000  0.65501000  0.42011000  1.0
  H  H28  1  0.28006000  0.35375000  0.30197000  1.0
  H  H29  1  0.71994000  0.64625000  0.69803000  1.0
  H  H30  1  0.20006000  0.48109000  0.36213000  1.0
  H  H31  1  0.79994000  0.51891000  0.63787000  1.0
  H  H32  1  0.93433000  0.99975000  0.38312000  1.0
  H  H33  1  0.06571000  0.00026000  0.61689000  1.0
  H  H34  1  0.89733000  0.32392000  0.96737000  1.0
  H  H35  1  0.10266000  0.67608000  0.03263000  1.0
  H  H36  1  0.09816000  0.39344000  0.97368000  1.0
  H  H37  1  0.90183000  0.60655000  0.02632000  1.0
  H  H38  1  0.60898000  0.63731000  0.45927000  1.0
  H  H39  1  0.39101000  0.36270000  0.54074000  1.0
  C  C40  1  0.52073000  0.45258000  0.19516000  1.0
  C  C41  1  0.47928000  0.54742000  0.80484000  1.0
  C  C42  1  0.09807000  0.40315000  0.18443000  1.0
  C  C43  1  0.90192000  0.59684000  0.81557000  1.0
  C  C44  1  0.49799000  0.55478000  0.14401000  1.0
  C  C45  1  0.50202000  0.44522000  0.85599000  1.0
  C  C46  1  0.50782000  0.68403000  0.20293000  1.0
  C  C47  1  0.49218000  0.31597000  0.79707000  1.0
  C  C48  1  0.06213000  0.29799000  0.74182000  1.0
  C  C49  1  0.93788000  0.70201000  0.25818000  1.0
  C  C50  1  0.92307000  0.29084000  0.34671000  1.0
  C  C51  1  0.07694000  0.70915000  0.65329000  1.0
  C  C52  1  0.55990000  0.48266000  0.30942000  1.0
  C  C53  1  0.44011000  0.51734000  0.69058000  1.0
  C  C54  1  0.00651000  0.18359000  0.88675000  1.0
  C  C55  1  0.99347000  0.81640000  0.11325000  1.0
  C  C56  1  0.82254000  0.15638000  0.69872000  1.0
  C  C57  1  0.17745000  0.84362000  0.30128000  1.0
  C  C58  1  0.07595000  0.27937000  0.09188000  1.0
  C  C59  1  0.92404000  0.72062000  0.90812000  1.0
  C  C60  1  0.58266000  0.37341000  0.36605000  1.0
  C  C61  1  0.41734000  0.62660000  0.63395000  1.0
  C  C62  1  0.08944000  0.16092000  0.33926000  1.0
  C  C63  1  0.91058000  0.83908000  0.66075000  1.0
  C  C64  1  0.97424000  0.29290000  0.63779000  1.0
  C  C65  1  0.02577000  0.70711000  0.36222000  1.0
  C  C66  1  0.16992000  0.38647000  0.29833000  1.0
  C  C67  1  0.83008000  0.61353000  0.70167000  1.0
  C  C68  1  0.95948000  0.09738000  0.36603000  1.0
  C  C69  1  0.04055000  0.90263000  0.63398000  1.0
  C  C70  1  0.01610000  0.30324000  0.97890000  1.0
  C  C71  1  0.98389000  0.69675000  0.02110000  1.0
  C  C72  1  0.54776000  0.71331000  0.31736000  1.0
  C  C73  1  0.45224000  0.28670000  0.68264000  1.0
  C  C74  1  0.57608000  0.61330000  0.37019000  1.0
  C  C75  1  0.42392000  0.38670000  0.62981000  1.0
  C  C76  1  0.56338000  0.85312000  0.38313000  1.0
  C  C77  1  0.43661000  0.14688000  0.61687000  1.0
  N  N78  1  0.96437000  0.21070000  0.77918000  1.0
  N  N79  1  0.03562000  0.78929000  0.22082000  1.0
  N  N80  1  0.06389000  0.28318000  0.32696000  1.0
  N  N81  1  0.93612000  0.71682000  0.67304000  1.0
  N  N82  1  0.82486000  0.20445000  0.61194000  1.0
  N  N83  1  0.17514000  0.79556000  0.38806000  1.0
  N  N84  1  0.45303000  0.52760000  0.02574000  1.0
  N  N85  1  0.54697000  0.47240000  0.97426000  1.0
  N  N86  1  0.85662000  0.17959000  0.37036000  1.0
  N  N87  1  0.14340000  0.82041000  0.62965000  1.0
  O  O88  1  0.68317000  0.40571000  0.46075000  1.0
  O  O89  1  0.31683000  0.59430000  0.53925000  1.0
  O  O90  1  0.50016000  0.25312000  0.31415000  1.0
  O  O91  1  0.49985000  0.74689000  0.68585000  1.0
  O  O92  1  0.32921000  0.55807000  0.97407000  1.0
  O  O93  1  0.67080000  0.44193000  0.02593000  1.0
  O  O94  1  0.58432000  0.87451000  0.48560000  1.0
  O  O95  1  0.41568000  0.12550000  0.51439000  1.0
  O  O96  1  0.55562000  0.94228000  0.32968000  1.0
  O  O97  1  0.44437000  0.05773000  0.67031000  1.0
