# generated using pymatgen
data_UH14(C2O)8
_symmetry_space_group_name_H-M   'P 1'
_cell_length_a   6.17532000
_cell_length_b   7.06298000
_cell_length_c   17.76130000
_cell_angle_alpha   90.00030000
_cell_angle_beta   90.00010000
_cell_angle_gamma   89.21330000
_symmetry_Int_Tables_number   1
_chemical_formula_structural   UH14(C2O)8
_chemical_formula_sum   'U2 H28 C32 O16'
_cell_volume   774.60670918
_cell_formula_units_Z   2
loop_
 _symmetry_equiv_pos_site_id
 _symmetry_equiv_pos_as_xyz
  1  'x, y, z'
loop_
 _atom_site_type_symbol
 _atom_site_label
 _atom_site_symmetry_multiplicity
 _atom_site_fract_x
 _atom_site_fract_y
 _atom_site_fract_z
 _atom_site_occupancy
  U  U0  1  0.00000000  0.50000000  0.50000000  1.0
  U  U1  1  0.00000000  0.99999000  0.00000000  1.0
  H  H2  1  0.36249000  0.83802000  0.82937000  1.0
  H  H3  1  0.63751000  0.66200000  0.32937000  1.0
  H  H4  1  0.63750000  0.16198000  0.17063000  1.0
  H  H5  1  0.36248000  0.33802000  0.67064000  1.0
  H  H6  1  0.76915000  0.97597000  0.59430000  1.0
  H  H7  1  0.23083000  0.52402000  0.09430000  1.0
  H  H8  1  0.23085000  0.02403000  0.40570000  1.0
  H  H9  1  0.76918000  0.47596000  0.90570000  1.0
  H  H10  1  0.19405000  0.77934000  0.70508000  1.0
  H  H11  1  0.80595000  0.72065000  0.20507000  1.0
  H  H12  1  0.80596000  0.22064000  0.29493000  1.0
  H  H13  1  0.19405000  0.27936000  0.79493000  1.0
  H  H14  1  0.94083000  0.03097000  0.71928000  1.0
  H  H15  1  0.05916000  0.46904000  0.21928000  1.0
  H  H16  1  0.05916000  0.96904000  0.28072000  1.0
  H  H17  1  0.94084000  0.53096000  0.78072000  1.0
  H  H18  1  0.22105000  0.91762000  0.55693000  1.0
  H  H19  1  0.77895000  0.58239000  0.05695000  1.0
  H  H20  1  0.77895000  0.08241000  0.44306000  1.0
  H  H21  1  0.22108000  0.41760000  0.94306000  1.0
  H  H22  1  0.48307000  0.85832000  0.52073000  1.0
  H  H23  1  0.51693000  0.64165000  0.02073000  1.0
  H  H24  1  0.51693000  0.14167000  0.47927000  1.0
  H  H25  1  0.48308000  0.35831000  0.97928000  1.0
  H  H26  1  0.43863000  0.55454000  0.57277000  1.0
  H  H27  1  0.56134000  0.94547000  0.07277000  1.0
  H  H28  1  0.56136000  0.44549000  0.42722000  1.0
  H  H29  1  0.43862000  0.05450000  0.92722000  1.0
  C  C30  1  0.46937000  0.87695000  0.64181000  1.0
  C  C31  1  0.53063000  0.62305000  0.14181000  1.0
  C  C32  1  0.53063000  0.12307000  0.35819000  1.0
  C  C33  1  0.46938000  0.37694000  0.85820000  1.0
  C  C34  1  0.66328000  0.93739000  0.78205000  1.0
  C  C35  1  0.33672000  0.56261000  0.28205000  1.0
  C  C36  1  0.33672000  0.06262000  0.21796000  1.0
  C  C37  1  0.66328000  0.43739000  0.71795000  1.0
  C  C38  1  0.45088000  0.86999000  0.77804000  1.0
  C  C39  1  0.54912000  0.63001000  0.27804000  1.0
  C  C40  1  0.54912000  0.13001000  0.22196000  1.0
  C  C41  1  0.45087000  0.37000000  0.72196000  1.0
  C  C42  1  0.67968000  0.94803000  0.64598000  1.0
  C  C43  1  0.32031000  0.55196000  0.14597000  1.0
  C  C44  1  0.32031000  0.05198000  0.35403000  1.0
  C  C45  1  0.67970000  0.44802000  0.85403000  1.0
  C  C46  1  0.77137000  0.95993000  0.85552000  1.0
  C  C47  1  0.22863000  0.54007000  0.35553000  1.0
  C  C48  1  0.22864000  0.04007000  0.14448000  1.0
  C  C49  1  0.77136000  0.45995000  0.64447000  1.0
  C  C50  1  0.35544000  0.83939000  0.70840000  1.0
  C  C51  1  0.64455000  0.66061000  0.20840000  1.0
  C  C52  1  0.64455000  0.16061000  0.29160000  1.0
  C  C53  1  0.35545000  0.33939000  0.79161000  1.0
  C  C54  1  0.77652000  0.97769000  0.71569000  1.0
  C  C55  1  0.22348000  0.52231000  0.21569000  1.0
  C  C56  1  0.22348000  0.02232000  0.28432000  1.0
  C  C57  1  0.77652000  0.47769000  0.78431000  1.0
  C  C58  1  0.36848000  0.83251000  0.56681000  1.0
  C  C59  1  0.63151000  0.66749000  0.06681000  1.0
  C  C60  1  0.63151000  0.16750000  0.43319000  1.0
  C  C61  1  0.36850000  0.33249000  0.93319000  1.0
  O  O62  1  0.30427000  0.63658000  0.56451000  1.0
  O  O63  1  0.69570000  0.86342000  0.06450000  1.0
  O  O64  1  0.69570000  0.36343000  0.43550000  1.0
  O  O65  1  0.30429000  0.13656000  0.93550000  1.0
  O  O66  1  0.97418000  0.98765000  0.85995000  1.0
  O  O67  1  0.02582000  0.51232000  0.35994000  1.0
  O  O68  1  0.02582000  0.01235000  0.14005000  1.0
  O  O69  1  0.97418000  0.48766000  0.64006000  1.0
  O  O70  1  0.66406000  0.94883000  0.91800000  1.0
  O  O71  1  0.33593000  0.55120000  0.41800000  1.0
  O  O72  1  0.33594000  0.05117000  0.08200000  1.0
  O  O73  1  0.66406000  0.44882000  0.58200000  1.0
  O  O74  1  0.89837000  0.74085000  0.49126000  1.0
  O  O75  1  0.10164000  0.75915000  0.99126000  1.0
  O  O76  1  0.10161000  0.25913000  0.50874000  1.0
  O  O77  1  0.89840000  0.24086000  0.00875000  1.0
