# generated using pymatgen
data_MgH12C8(NO4)2
_symmetry_space_group_name_H-M   'P 1'
_cell_length_a   7.56991000
_cell_length_b   7.64855000
_cell_length_c   9.42292000
_cell_angle_alpha   89.99980000
_cell_angle_beta   90.00000000
_cell_angle_gamma   108.99500000
_symmetry_Int_Tables_number   1
_chemical_formula_structural   MgH12C8(NO4)2
_chemical_formula_sum   'Mg2 H24 C16 N4 O16'
_cell_volume   515.86782744
_cell_formula_units_Z   2
loop_
 _symmetry_equiv_pos_site_id
 _symmetry_equiv_pos_as_xyz
  1  'x, y, z'
loop_
 _atom_site_type_symbol
 _atom_site_label
 _atom_site_symmetry_multiplicity
 _atom_site_fract_x
 _atom_site_fract_y
 _atom_site_fract_z
 _atom_site_occupancy
  Mg  Mg0  1  0.00000000  0.00000000  0.00000000  1.0
  Mg  Mg1  1  0.50000000  0.00000000  0.50000000  1.0
  H  H2  1  0.15936000  0.33293000  0.61564000  1.0
  H  H3  1  0.34064000  0.66707000  0.11563000  1.0
  H  H4  1  0.84064000  0.66707000  0.38436000  1.0
  H  H5  1  0.65935000  0.33293000  0.88436000  1.0
  H  H6  1  0.91215000  0.22314000  0.61022000  1.0
  H  H7  1  0.58784000  0.77686000  0.11022000  1.0
  H  H8  1  0.08785000  0.77686000  0.38978000  1.0
  H  H9  1  0.41215000  0.22314000  0.88978000  1.0
  H  H10  1  0.13893000  0.13743000  0.41798000  1.0
  H  H11  1  0.36107000  0.86257000  0.91797000  1.0
  H  H12  1  0.86107000  0.86257000  0.58202000  1.0
  H  H13  1  0.63894000  0.13744000  0.08202000  1.0
  H  H14  1  0.14582000  0.25082000  0.25358000  1.0
  H  H15  1  0.35417000  0.74917000  0.75357000  1.0
  H  H16  1  0.85418000  0.74918000  0.74642000  1.0
  H  H17  1  0.64583000  0.25083000  0.24642000  1.0
  H  H18  1  0.95453000  0.65035000  0.08714000  1.0
  H  H19  1  0.54547000  0.34965000  0.58714000  1.0
  H  H20  1  0.04547000  0.34965000  0.91286000  1.0
  H  H21  1  0.45453000  0.65035000  0.41286000  1.0
  H  H22  1  0.96097000  0.64337000  0.91905000  1.0
  H  H23  1  0.53903000  0.35663000  0.41905000  1.0
  H  H24  1  0.03903000  0.35662000  0.08096000  1.0
  H  H25  1  0.46097000  0.64337000  0.58095000  1.0
  C  C26  1  0.00139000  0.49223000  0.34790000  1.0
  C  C27  1  0.49861000  0.50777000  0.84789000  1.0
  C  C28  1  0.99861000  0.50777000  0.65210000  1.0
  C  C29  1  0.50139000  0.49223000  0.15211000  1.0
  C  C30  1  0.02743000  0.34690000  0.57649000  1.0
  C  C31  1  0.47256000  0.65310000  0.07648000  1.0
  C  C32  1  0.97256000  0.65310000  0.42352000  1.0
  C  C33  1  0.52743000  0.34690000  0.92351000  1.0
  C  C34  1  0.87490000  0.05191000  0.30969000  1.0
  C  C35  1  0.62510000  0.94809000  0.80967000  1.0
  C  C36  1  0.12510000  0.94809000  0.69031000  1.0
  C  C37  1  0.37491000  0.05191000  0.19033000  1.0
  C  C38  1  0.06072000  0.20084000  0.34787000  1.0
  C  C39  1  0.43928000  0.79916000  0.84786000  1.0
  C  C40  1  0.93928000  0.79916000  0.65214000  1.0
  C  C41  1  0.56072000  0.20084000  0.15214000  1.0
  N  N42  1  0.03294000  0.35694000  0.42228000  1.0
  N  N43  1  0.46706000  0.64305000  0.92228000  1.0
  N  N44  1  0.96706000  0.64305000  0.57772000  1.0
  N  N45  1  0.53294000  0.35695000  0.07772000  1.0
  O  O46  1  0.74832000  0.01664000  0.40285000  1.0
  O  O47  1  0.75168000  0.98336000  0.90285000  1.0
  O  O48  1  0.25168000  0.98336000  0.59715000  1.0
  O  O49  1  0.24831000  0.01665000  0.09714000  1.0
  O  O50  1  0.99720000  0.49285000  0.21371000  1.0
  O  O51  1  0.50281000  0.50715000  0.71371000  1.0
  O  O52  1  0.00281000  0.50715000  0.78629000  1.0
  O  O53  1  0.49720000  0.49286000  0.28628000  1.0
  O  O54  1  0.92789000  0.70967000  0.00002000  1.0
  O  O55  1  0.57210000  0.29033000  0.50002000  1.0
  O  O56  1  0.07211000  0.29033000  0.99998000  1.0
  O  O57  1  0.42789000  0.70967000  0.49998000  1.0
  O  O58  1  0.86126000  0.97109000  0.19111000  1.0
  O  O59  1  0.63873000  0.02890000  0.69112000  1.0
  O  O60  1  0.13873000  0.02890000  0.80888000  1.0
  O  O61  1  0.36127000  0.97110000  0.30887000  1.0
