# generated using pymatgen
data_Zn4H5C24S4NO15F2
_symmetry_space_group_name_H-M   'P 1'
_cell_length_a   19.62590000
_cell_length_b   19.68700000
_cell_length_c   33.33810000
_cell_angle_alpha   79.17440000
_cell_angle_beta   79.35910000
_cell_angle_gamma   64.05190000
_symmetry_Int_Tables_number   1
_chemical_formula_structural   Zn4H5C24S4NO15F2
_chemical_formula_sum   'Zn16 H20 C96 S16 N4 O60 F8'
_cell_volume   11299.52691091
_cell_formula_units_Z   4
loop_
 _symmetry_equiv_pos_site_id
 _symmetry_equiv_pos_as_xyz
  1  'x, y, z'
loop_
 _atom_site_type_symbol
 _atom_site_label
 _atom_site_symmetry_multiplicity
 _atom_site_fract_x
 _atom_site_fract_y
 _atom_site_fract_z
 _atom_site_occupancy
  Zn  Zn0  1  0.05656000  0.40128000  0.47799000  1.0
  Zn  Zn1  1  0.98328000  0.48370000  0.56027000  1.0
  Zn  Zn2  1  0.06084000  0.55968000  0.48210000  1.0
  Zn  Zn3  1  0.89940000  0.55506000  0.47981000  1.0
  Zn  Zn4  1  0.69504000  0.34942000  0.27106000  1.0
  Zn  Zn5  1  0.69101000  0.18881000  0.26703000  1.0
  Zn  Zn6  1  0.76808000  0.26787000  0.18982000  1.0
  Zn  Zn7  1  0.84888000  0.19406000  0.27286000  1.0
  Zn  Zn8  1  0.26598000  0.76776000  0.68956000  1.0
  Zn  Zn9  1  0.34792000  0.69560000  0.77201000  1.0
  Zn  Zn10  1  0.19282000  0.84971000  0.77093000  1.0
  Zn  Zn11  1  0.19000000  0.68878000  0.76660000  1.0
  Zn  Zn12  1  0.56073000  0.06032000  0.98308000  1.0
  Zn  Zn13  1  0.40064000  0.05556000  0.97843000  1.0
  Zn  Zn14  1  0.55508000  0.90202000  0.97804000  1.0
  Zn  Zn15  1  0.48311000  0.98394000  0.06036000  1.0
  H  H16  1  0.95283000  0.24833000  0.35254000  1.0
  H  H17  1  0.74760000  0.45566000  0.34989000  1.0
  H  H18  1  0.99957000  0.29773000  0.40104000  1.0
  H  H19  1  0.09938000  0.59554000  0.69939000  1.0
  H  H20  1  0.20007000  0.70310000  0.59697000  1.0
  H  H21  1  0.05189000  0.54839000  0.65015000  1.0
  H  H22  1  0.46521000  0.23791000  0.34148000  1.0
  H  H23  1  0.47866000  0.70443000  0.60183000  1.0
  H  H24  1  0.20210000  0.97974000  0.60066000  1.0
  H  H25  1  0.94910000  0.96949000  0.34983000  1.0
  H  H26  1  0.54881000  0.05184000  0.15267000  1.0
  H  H27  1  0.65494000  0.15118000  0.04885000  1.0
  H  H28  1  0.59771000  0.10099000  0.20016000  1.0
  H  H29  1  0.54563000  0.77163000  0.14847000  1.0
  H  H30  1  0.16187000  0.13966000  0.04047000  1.0
  H  H31  1  0.50132000  0.79748000  0.89809000  1.0
  H  H32  1  0.29414000  0.00293000  0.89977000  1.0
  H  H33  1  0.45146000  0.75125000  0.84962000  1.0
  H  H34  1  0.30027000  0.27950000  0.90219000  1.0
  H  H35  1  0.78800000  0.00974000  0.90961000  1.0
  C  C36  1  0.06271000  0.31695000  0.56125000  1.0
  C  C37  1  0.06996000  0.56883000  0.56843000  1.0
  C  C38  1  0.18449000  0.43847000  0.43781000  1.0
  C  C39  1  0.93721000  0.68257000  0.43909000  1.0
  C  C40  1  0.93069000  0.42987000  0.43194000  1.0
  C  C41  1  0.81611000  0.56080000  0.56283000  1.0
  C  C42  1  0.56645000  0.31046000  0.31052000  1.0
  C  C43  1  0.68050000  0.18185000  0.18122000  1.0
  C  C44  1  0.69160000  0.43472000  0.18840000  1.0
  C  C45  1  0.93440000  0.18573000  0.18970000  1.0
  C  C46  1  0.81892000  0.32006000  0.31965000  1.0
  C  C47  1  0.81190000  0.06559000  0.31271000  1.0
  C  C48  1  0.43296000  0.69103000  0.68876000  1.0
  C  C49  1  0.31874000  0.82015000  0.81851000  1.0
  C  C50  1  0.18611000  0.93412000  0.68753000  1.0
  C  C51  1  0.06708000  0.80969000  0.81202000  1.0
  C  C52  1  0.18095000  0.68070000  0.68004000  1.0
  C  C53  1  0.31225000  0.56524000  0.81056000  1.0
  C  C54  1  0.43803000  0.18397000  0.93864000  1.0
  C  C55  1  0.42983000  0.93137000  0.93054000  1.0
  C  C56  1  0.68404000  0.93952000  0.93837000  1.0
  C  C57  1  0.56041000  0.81721000  0.06155000  1.0
  C  C58  1  0.57005000  0.06968000  0.06932000  1.0
  C  C59  1  0.31542000  0.06246000  0.06132000  1.0
  C  C60  1  0.90123000  0.40397000  0.40212000  1.0
  C  C61  1  0.84763000  0.34898000  0.34836000  1.0
  C  C62  1  0.83041000  0.44778000  0.38716000  1.0
  C  C63  1  0.91882000  0.30431000  0.36258000  1.0
  C  C64  1  0.80298000  0.42109000  0.36089000  1.0
  C  C65  1  0.94479000  0.33172000  0.38926000  1.0
  C  C66  1  0.09772000  0.60007000  0.59642000  1.0
  C  C67  1  0.15230000  0.65215000  0.65114000  1.0
  C  C68  1  0.13933000  0.64415000  0.58206000  1.0
  C  C69  1  0.11042000  0.60869000  0.66630000  1.0
  C  C70  1  0.16727000  0.66956000  0.60871000  1.0
  C  C71  1  0.08392000  0.58286000  0.63909000  1.0
  C  C72  1  0.30474000  0.45299000  0.39946000  1.0
  C  C73  1  0.44767000  0.29513000  0.34887000  1.0
  C  C74  1  0.25926000  0.41362000  0.41317000  1.0
  C  C75  1  0.49185000  0.33567000  0.33562000  1.0
  C  C76  1  0.37956000  0.33813000  0.37239000  1.0
  C  C77  1  0.37360000  0.41072000  0.37626000  1.0
  C  C78  1  0.72479000  0.57622000  0.63018000  1.0
  C  C79  1  0.52338000  0.67520000  0.62195000  1.0
  C  C80  1  0.74163000  0.58590000  0.58776000  1.0
  C  C81  1  0.50815000  0.66525000  0.66432000  1.0
  C  C82  1  0.60268000  0.64281000  0.60967000  1.0
  C  C83  1  0.64585000  0.60851000  0.64323000  1.0
  C  C84  1  0.07702000  0.22538000  0.62853000  1.0
  C  C85  1  0.17281000  0.02442000  0.62060000  1.0
  C  C86  1  0.08690000  0.24241000  0.58610000  1.0
  C  C87  1  0.16171000  0.00920000  0.66294000  1.0
  C  C88  1  0.14135000  0.10356000  0.60820000  1.0
  C  C89  1  0.10744000  0.14654000  0.64165000  1.0
  C  C90  1  0.84430000  0.79967000  0.39723000  1.0
  C  C91  1  0.90466000  0.94911000  0.35386000  1.0
  C  C92  1  0.91225000  0.75727000  0.41435000  1.0
  C  C93  1  0.83629000  0.99049000  0.33732000  1.0
  C  C94  1  0.90722000  0.87950000  0.37578000  1.0
  C  C95  1  0.84046000  0.86955000  0.37519000  1.0
  C  C96  1  0.65449000  0.15200000  0.15163000  1.0
  C  C97  1  0.59906000  0.09837000  0.09802000  1.0
  C  C98  1  0.67034000  0.16512000  0.10878000  1.0
  C  C99  1  0.58296000  0.08392000  0.14066000  1.0
  C  C100  1  0.64270000  0.13966000  0.08199000  1.0
  C  C101  1  0.61020000  0.11088000  0.16694000  1.0
  C  C102  1  0.67523000  0.52599000  0.12095000  1.0
  C  C103  1  0.57526000  0.72695000  0.12856000  1.0
  C  C104  1  0.66581000  0.50914000  0.16342000  1.0
  C  C105  1  0.58564000  0.74213000  0.08618000  1.0
  C  C106  1  0.60790000  0.64785000  0.14107000  1.0
  C  C107  1  0.64251000  0.60476000  0.10770000  1.0
  C  C108  1  0.08123000  0.12379000  0.17759000  1.0
  C  C109  1  0.16963000  0.12388000  0.07290000  1.0
  C  C110  1  0.00896000  0.16096000  0.16478000  1.0
  C  C111  1  0.24095000  0.08677000  0.08656000  1.0
  C  C112  1  0.11143000  0.13721000  0.10632000  1.0
  C  C113  1  0.14028000  0.10979000  0.14471000  1.0
  C  C114  1  0.34507000  0.84954000  0.84817000  1.0
  C  C115  1  0.40078000  0.90279000  0.90182000  1.0
  C  C116  1  0.30144000  0.92025000  0.86291000  1.0
  C  C117  1  0.44523000  0.83167000  0.88788000  1.0
  C  C118  1  0.32855000  0.94757000  0.88902000  1.0
  C  C119  1  0.41754000  0.80593000  0.86122000  1.0
  C  C120  1  0.40557000  0.44820000  0.85215000  1.0
  C  C121  1  0.34481000  0.29985000  0.89753000  1.0
  C  C122  1  0.33718000  0.49075000  0.83551000  1.0
  C  C123  1  0.41358000  0.25870000  0.91368000  1.0
  C  C124  1  0.34218000  0.36913000  0.87510000  1.0
  C  C125  1  0.40939000  0.37878000  0.87480000  1.0
  C  C126  1  0.94551000  0.79656000  0.84934000  1.0
  C  C127  1  0.80450000  0.95322000  0.90147000  1.0
  C  C128  1  0.99249000  0.83458000  0.83689000  1.0
  C  C129  1  0.75888000  0.91398000  0.91351000  1.0
  C  C130  1  0.87271000  0.90997000  0.87806000  1.0
  C  C131  1  0.87705000  0.83864000  0.87284000  1.0
  S  S132  1  0.30136000  0.32310000  0.39752000  1.0
  S  S133  1  0.45151000  0.42591000  0.35148000  1.0
  S  S134  1  0.65952000  0.63535000  0.56318000  1.0
  S  S135  1  0.58943000  0.61651000  0.68964000  1.0
  S  S136  1  0.13441000  0.16046000  0.56166000  1.0
  S  S137  1  0.11353000  0.09015000  0.68811000  1.0
  S  S138  1  0.97268000  0.80360000  0.40346000  1.0
  S  S139  1  0.77474000  0.94542000  0.34802000  1.0
  S  S140  1  0.61577000  0.59112000  0.18770000  1.0
  S  S141  1  0.63477000  0.66103000  0.06115000  1.0
  S  S142  1  0.01304000  0.17904000  0.11141000  1.0
  S  S143  1  0.23826000  0.06776000  0.13984000  1.0
  S  S144  1  0.27613000  0.44511000  0.84778000  1.0
  S  S145  1  0.47548000  0.30330000  0.90195000  1.0
  S  S146  1  0.95240000  0.92360000  0.85431000  1.0
  S  S147  1  0.79794000  0.82463000  0.89660000  1.0
  N  N148  1  0.78135000  0.52626000  0.39719000  1.0
  N  N149  1  0.15405000  0.66884000  0.53776000  1.0
  N  N150  1  0.71936000  0.20481000  0.08919000  1.0
  N  N151  1  0.22273000  0.96937000  0.85284000  1.0
  O  O152  1  0.00020000  0.49952000  0.49992000  1.0
  O  O153  1  0.07397000  0.31596000  0.52218000  1.0
  O  O154  1  0.02318000  0.54007000  0.58524000  1.0
  O  O155  1  0.15398000  0.50662000  0.44657000  1.0
  O  O156  1  0.03312000  0.37537000  0.58048000  1.0
  O  O157  1  0.15671000  0.38874000  0.44812000  1.0
  O  O158  1  0.09626000  0.57263000  0.53063000  1.0
  O  O159  1  0.00194000  0.65845000  0.45259000  1.0
  O  O160  1  0.88333000  0.48777000  0.44921000  1.0
  O  O161  1  0.89308000  0.64872000  0.44481000  1.0
  O  O162  1  0.00044000  0.39067000  0.43779000  1.0
  O  O163  1  0.87488000  0.52093000  0.58158000  1.0
  O  O164  1  0.81473000  0.58162000  0.52408000  1.0
  O  O165  1  0.75054000  0.24990000  0.25025000  1.0
  O  O166  1  0.59811000  0.35687000  0.30329000  1.0
  O  O167  1  0.67103000  0.15741000  0.21912000  1.0
  O  O168  1  0.73081000  0.37641000  0.16954000  1.0
  O  O169  1  0.59266000  0.24499000  0.29823000  1.0
  O  O170  1  0.67214000  0.43554000  0.22728000  1.0
  O  O171  1  0.70859000  0.22964000  0.16608000  1.0
  O  O172  1  0.87633000  0.21801000  0.16955000  1.0
  O  O173  1  0.86192000  0.25366000  0.30973000  1.0
  O  O174  1  0.93403000  0.17333000  0.22869000  1.0
  O  O175  1  0.75409000  0.36436000  0.30765000  1.0
  O  O176  1  0.74523000  0.09325000  0.30113000  1.0
  O  O177  1  0.85889000  0.09650000  0.30512000  1.0
  O  O178  1  0.24920000  0.75040000  0.74984000  1.0
  O  O179  1  0.37482000  0.72368000  0.66891000  1.0
  O  O180  1  0.35918000  0.75118000  0.81200000  1.0
  O  O181  1  0.16705000  0.93405000  0.72636000  1.0
  O  O182  1  0.43291000  0.67822000  0.72790000  1.0
  O  O183  1  0.22387000  0.87617000  0.66807000  1.0
  O  O184  1  0.25923000  0.86667000  0.80201000  1.0
  O  O185  1  0.09881000  0.85610000  0.80571000  1.0
  O  O186  1  0.16597000  0.66272000  0.71833000  1.0
  O  O187  1  0.09330000  0.74503000  0.79896000  1.0
  O  O188  1  0.21769000  0.72070000  0.66378000  1.0
  O  O189  1  0.35888000  0.59644000  0.80218000  1.0
  O  O190  1  0.24522000  0.59200000  0.79951000  1.0
  O  O191  1  0.49987000  0.00046000  0.00001000  1.0
  O  O192  1  0.50452000  0.15686000  0.95035000  1.0
  O  O193  1  0.38599000  0.99664000  0.94180000  1.0
  O  O194  1  0.65216000  0.89321000  0.94564000  1.0
  O  O195  1  0.39110000  0.15302000  0.94631000  1.0
  O  O196  1  0.65765000  0.00510000  0.95048000  1.0
  O  O197  1  0.49582000  0.88789000  0.94126000  1.0
  O  O198  1  0.57559000  0.81726000  0.02250000  1.0
  O  O199  1  0.53127000  0.03181000  0.08579000  1.0
  O  O200  1  0.52599000  0.87524000  0.08119000  1.0
  O  O201  1  0.58673000  0.08553000  0.03095000  1.0
  O  O202  1  0.31496000  0.07722000  0.02236000  1.0
  O  O203  1  0.37413000  0.02844000  0.08091000  1.0
  O  O204  1  0.80156000  0.57661000  0.37959000  1.0
  O  O205  1  0.72214000  0.53534000  0.42059000  1.0
  O  O206  1  0.09966000  0.72015000  0.52129000  1.0
  O  O207  1  0.22050000  0.63905000  0.52156000  1.0
  O  O208  1  0.78878000  0.16833000  0.09024000  1.0
  O  O209  1  0.68703000  0.26959000  0.07146000  1.0
  O  O210  1  0.17216000  0.94958000  0.87073000  1.0
  O  O211  1  0.21363000  0.02824000  0.82915000  1.0
  F  F212  1  0.28661000  0.52378000  0.40711000  1.0
  F  F213  1  0.77715000  0.54043000  0.65676000  1.0
  F  F214  1  0.04184000  0.27747000  0.65502000  1.0
  F  F215  1  0.78718000  0.77799000  0.40099000  1.0
  F  F216  1  0.71128000  0.47389000  0.09456000  1.0
  F  F217  1  0.09519000  0.10258000  0.21706000  1.0
  F  F218  1  0.46311000  0.46957000  0.84769000  1.0
  F  F219  1  0.96220000  0.72681000  0.84039000  1.0
