# generated using pymatgen
data_Er2Cu3H38C42(N3O17)2
_symmetry_space_group_name_H-M   'P 1'
_cell_length_a   11.32590000
_cell_length_b   13.06190000
_cell_length_c   19.06110000
_cell_angle_alpha   89.90010000
_cell_angle_beta   92.00920000
_cell_angle_gamma   89.99410000
_symmetry_Int_Tables_number   1
_chemical_formula_structural   Er2Cu3H38C42(N3O17)2
_chemical_formula_sum   'Er4 Cu6 H76 C84 N12 O68'
_cell_volume   2818.11874846
_cell_formula_units_Z   2
loop_
 _symmetry_equiv_pos_site_id
 _symmetry_equiv_pos_as_xyz
  1  'x, y, z'
loop_
 _atom_site_type_symbol
 _atom_site_label
 _atom_site_symmetry_multiplicity
 _atom_site_fract_x
 _atom_site_fract_y
 _atom_site_fract_z
 _atom_site_occupancy
  Er  Er0  1  0.86388000  0.06921000  0.64627000  1.0
  Er  Er1  1  0.63567000  0.56778000  0.85461000  1.0
  Er  Er2  1  0.13833000  0.93829000  0.35110000  1.0
  Er  Er3  1  0.36177000  0.43881000  0.14838000  1.0
  Cu  Cu4  1  0.15660000  0.40210000  0.82795000  1.0
  Cu  Cu5  1  0.34339000  0.90420000  0.67056000  1.0
  Cu  Cu6  1  0.84196000  0.59589000  0.17707000  1.0
  Cu  Cu7  1  0.65838000  0.09551000  0.32253000  1.0
  Cu  Cu8  1  0.00238000  0.00042000  0.00346000  1.0
  Cu  Cu9  1  0.49806000  0.50023000  0.49683000  1.0
  H  H10  1  0.80565000  0.25605000  0.68465000  1.0
  H  H11  1  0.69505000  0.75421000  0.81583000  1.0
  H  H12  1  0.19102000  0.74854000  0.31538000  1.0
  H  H13  1  0.30967000  0.24877000  0.18415000  1.0
  H  H14  1  0.80426000  0.20770000  0.76156000  1.0
  H  H15  1  0.69518000  0.70649000  0.73893000  1.0
  H  H16  1  0.19595000  0.79400000  0.23787000  1.0
  H  H17  1  0.30481000  0.29389000  0.26167000  1.0
  H  H18  1  0.85349000  0.26164000  0.56290000  1.0
  H  H19  1  0.64664000  0.76066000  0.93704000  1.0
  H  H20  1  0.14768000  0.74570000  0.43747000  1.0
  H  H21  1  0.35243000  0.24654000  0.06189000  1.0
  H  H22  1  0.98839000  0.25547000  0.59624000  1.0
  H  H23  1  0.51140000  0.75388000  0.90413000  1.0
  H  H24  1  0.01371000  0.75129000  0.40431000  1.0
  H  H25  1  0.48645000  0.25221000  0.09494000  1.0
  H  H26  1  0.64895000  0.91753000  0.68065000  1.0
  H  H27  1  0.84985000  0.41600000  0.82021000  1.0
  H  H28  1  0.35506000  0.08144000  0.31951000  1.0
  H  H29  1  0.14530000  0.58156000  0.18054000  1.0
  H  H30  1  0.74741000  0.94360000  0.74181000  1.0
  H  H31  1  0.74940000  0.43989000  0.75980000  1.0
  H  H32  1  0.24444000  0.07981000  0.26472000  1.0
  H  H33  1  0.25594000  0.57902000  0.23537000  1.0
  H  H34  1  0.82089000  0.03264000  0.49728000  1.0
  H  H35  1  0.67931000  0.53424000  0.00405000  1.0
  H  H36  1  0.18095000  0.98008000  0.49830000  1.0
  H  H37  1  0.31844000  0.48124000  0.00135000  1.0
  H  H38  1  0.89540000  0.93596000  0.53011000  1.0
  H  H39  1  0.60326000  0.43755000  0.97276000  1.0
  H  H40  1  0.04173000  0.01425000  0.48918000  1.0
  H  H41  1  0.45719000  0.51704000  0.01080000  1.0
  H  H42  1  0.03254000  0.90140000  0.65207000  1.0
  H  H43  1  0.46734000  0.39900000  0.85063000  1.0
  H  H44  1  0.96720000  0.10044000  0.33998000  1.0
  H  H45  1  0.53275000  0.60109000  0.15958000  1.0
  H  H46  1  0.91119000  0.84690000  0.67141000  1.0
  H  H47  1  0.58915000  0.34175000  0.83559000  1.0
  H  H48  1  0.06861000  0.14289000  0.39125000  1.0
  H  H49  1  0.43102000  0.64444000  0.10874000  1.0
  H  H50  1  0.39320000  0.34607000  0.68705000  1.0
  H  H51  1  0.10626000  0.84391000  0.81469000  1.0
  H  H52  1  0.60876000  0.65322000  0.31273000  1.0
  H  H53  1  0.89127000  0.15359000  0.18680000  1.0
  H  H54  1  0.57284000  0.23669000  0.70427000  1.0
  H  H55  1  0.92718000  0.73455000  0.79582000  1.0
  H  H56  1  0.42982000  0.76147000  0.29079000  1.0
  H  H57  1  0.07018000  0.26165000  0.20901000  1.0
  H  H58  1  0.55062000  0.04762000  0.70041000  1.0
  H  H59  1  0.95009000  0.54543000  0.79724000  1.0
  H  H60  1  0.45124000  0.95107000  0.29258000  1.0
  H  H61  1  0.04875000  0.45126000  0.20732000  1.0
  H  H62  1  0.20093000  0.96236000  0.83473000  1.0
  H  H63  1  0.29773000  0.46435000  0.66470000  1.0
  H  H64  1  0.79625000  0.03558000  0.16133000  1.0
  H  H65  1  0.70464000  0.53513000  0.33837000  1.0
  H  H66  1  0.38064000  0.06451000  0.85642000  1.0
  H  H67  1  0.11844000  0.56707000  0.64240000  1.0
  H  H68  1  0.61555000  0.93287000  0.14433000  1.0
  H  H69  1  0.88526000  0.43211000  0.35529000  1.0
  H  H70  1  0.36277000  0.25772000  0.85965000  1.0
  H  H71  1  0.13674000  0.76016000  0.63917000  1.0
  H  H72  1  0.63249000  0.73975000  0.14729000  1.0
  H  H73  1  0.86813000  0.23909000  0.35224000  1.0
  H  H74  1  0.07385000  0.56241000  0.98401000  1.0
  H  H75  1  0.42652000  0.06207000  0.51548000  1.0
  H  H76  1  0.92519000  0.43772000  0.01745000  1.0
  H  H77  1  0.57504000  0.93755000  0.48224000  1.0
  H  H78  1  0.25111000  0.67449000  0.99631000  1.0
  H  H79  1  0.24922000  0.17430000  0.50360000  1.0
  H  H80  1  0.74889000  0.32193000  0.00765000  1.0
  H  H81  1  0.75140000  0.82177000  0.49214000  1.0
  H  H82  1  0.22280000  0.86518000  0.00553000  1.0
  H  H83  1  0.27754000  0.36508000  0.49477000  1.0
  H  H84  1  0.78005000  0.13319000  0.99800000  1.0
  H  H85  1  0.72039000  0.63301000  0.50207000  1.0
  C  C86  1  0.16121000  0.04765000  0.66024000  1.0
  C  C87  1  0.33874000  0.54526000  0.84014000  1.0
  C  C88  1  0.83950000  0.95292000  0.33795000  1.0
  C  C89  1  0.66063000  0.45353000  0.16142000  1.0
  C  C90  1  0.27073000  0.11045000  0.67013000  1.0
  C  C91  1  0.22935000  0.60818000  0.82974000  1.0
  C  C92  1  0.73035000  0.88939000  0.32828000  1.0
  C  C93  1  0.76975000  0.38987000  0.17120000  1.0
  C  C94  1  0.27438000  0.21786000  0.67103000  1.0
  C  C95  1  0.22558000  0.71560000  0.82942000  1.0
  C  C96  1  0.72675000  0.78200000  0.32891000  1.0
  C  C97  1  0.77333000  0.28248000  0.17058000  1.0
  C  C98  1  0.16919000  0.28839000  0.65513000  1.0
  C  C99  1  0.33057000  0.78623000  0.84542000  1.0
  C  C100  1  0.83189000  0.71231000  0.34663000  1.0
  C  C101  1  0.66820000  0.21287000  0.15284000  1.0
  C  C102  1  0.38502000  0.26321000  0.68549000  1.0
  C  C103  1  0.11486000  0.76105000  0.81520000  1.0
  C  C104  1  0.61656000  0.73614000  0.31380000  1.0
  C  C105  1  0.88353000  0.23652000  0.18575000  1.0
  C  C106  1  0.48527000  0.20354000  0.69587000  1.0
  C  C107  1  0.01486000  0.70142000  0.80394000  1.0
  C  C108  1  0.51648000  0.79529000  0.30116000  1.0
  C  C109  1  0.98357000  0.29556000  0.19852000  1.0
  C  C110  1  0.47424000  0.09724000  0.69331000  1.0
  C  C111  1  0.02613000  0.59513000  0.80540000  1.0
  C  C112  1  0.52727000  0.90168000  0.30230000  1.0
  C  C113  1  0.97276000  0.40195000  0.19742000  1.0
  C  C114  1  0.97074000  0.26326000  0.83375000  1.0
  C  C115  1  0.52859000  0.76469000  0.66666667  1.0
  C  C116  1  0.02574000  0.73468000  0.16630000  1.0
  C  C117  1  0.47488000  0.23442000  0.33338000  1.0
  C  C118  1  0.08114000  0.19991000  0.83365000  1.0
  C  C119  1  0.41803000  0.70162000  0.66651000  1.0
  C  C120  1  0.91515000  0.79777000  0.16665000  1.0
  C  C121  1  0.58551000  0.29744000  0.33297000  1.0
  C  C122  1  0.08303000  0.09313000  0.82853000  1.0
  C  C123  1  0.41587000  0.59483000  0.67168000  1.0
  C  C124  1  0.91357000  0.90459000  0.16975000  1.0
  C  C125  1  0.58718000  0.40430000  0.32989000  1.0
  C  C126  1  0.97510000  0.02554000  0.81622000  1.0
  C  C127  1  0.52367000  0.52691000  0.68413000  1.0
  C  C128  1  0.02266000  0.97104000  0.18028000  1.0
  C  C129  1  0.47816000  0.47086000  0.31912000  1.0
  C  C130  1  0.19359000  0.04515000  0.83688000  1.0
  C  C131  1  0.30525000  0.54715000  0.66276000  1.0
  C  C132  1  0.80319000  0.95268000  0.16114000  1.0
  C  C133  1  0.69761000  0.45224000  0.33856000  1.0
  C  C134  1  0.29559000  0.10232000  0.84839000  1.0
  C  C135  1  0.20351000  0.60462000  0.65086000  1.0
  C  C136  1  0.70079000  0.89525000  0.15203000  1.0
  C  C137  1  0.79996000  0.39466000  0.34760000  1.0
  C  C138  1  0.28644000  0.20860000  0.85034000  1.0
  C  C139  1  0.21289000  0.71089000  0.64895000  1.0
  C  C140  1  0.70957000  0.78891000  0.15295000  1.0
  C  C141  1  0.79108000  0.28832000  0.34663000  1.0
  C  C142  1  0.82813000  0.85375000  0.99659000  1.0
  C  C143  1  0.67219000  0.35345000  0.50306000  1.0
  C  C144  1  0.17444000  0.14867000  0.00305000  1.0
  C  C145  1  0.32595000  0.64841000  0.49661000  1.0
  C  C146  1  0.94265000  0.79513000  0.99475000  1.0
  C  C147  1  0.55769000  0.29486000  0.50501000  1.0
  C  C148  1  0.05934000  0.20643000  0.00601000  1.0
  C  C149  1  0.44103000  0.70619000  0.49377000  1.0
  C  C150  1  0.95007000  0.68883000  0.98878000  1.0
  C  C151  1  0.55030000  0.18851000  0.51088000  1.0
  C  C152  1  0.05045000  0.31266000  0.01192000  1.0
  C  C153  1  0.44983000  0.81245000  0.48791000  1.0
  C  C154  1  0.84222000  0.62171000  0.97891000  1.0
  C  C155  1  0.65824000  0.12151000  0.52121000  1.0
  C  C156  1  0.15683000  0.38172000  0.02150000  1.0
  C  C157  1  0.34329000  0.88139000  0.47826000  1.0
  C  C158  1  0.06300000  0.64475000  0.98982000  1.0
  C  C159  1  0.43737000  0.14446000  0.50983000  1.0
  C  C160  1  0.93683000  0.35546000  0.01150000  1.0
  C  C161  1  0.56343000  0.85528000  0.48829000  1.0
  C  C162  1  0.16253000  0.70670000  0.99651000  1.0
  C  C163  1  0.33781000  0.20649000  0.50337000  1.0
  C  C164  1  0.83836000  0.29225000  0.00565000  1.0
  C  C165  1  0.66194000  0.79207000  0.49420000  1.0
  C  C166  1  0.14835000  0.81252000  0.00149000  1.0
  C  C167  1  0.35198000  0.31236000  0.49858000  1.0
  C  C168  1  0.85386000  0.18661000  0.00095000  1.0
  C  C169  1  0.64653000  0.68641000  0.49903000  1.0
  N  N170  1  0.36936000  0.05265000  0.68108000  1.0
  N  N171  1  0.13094000  0.55050000  0.81787000  1.0
  N  N172  1  0.63183000  0.94664000  0.31521000  1.0
  N  N173  1  0.86825000  0.44701000  0.18440000  1.0
  N  N174  1  0.18177000  0.25499000  0.84234000  1.0
  N  N175  1  0.31763000  0.75698000  0.65732000  1.0
  N  N176  1  0.81438000  0.74254000  0.16036000  1.0
  N  N177  1  0.68622000  0.24208000  0.33927000  1.0
  N  N178  1  0.04048000  0.85411000  0.00056000  1.0
  N  N179  1  0.45986000  0.35391000  0.49940000  1.0
  N  N180  1  0.96230000  0.14638000  0.00110000  1.0
  N  N181  1  0.53811000  0.64615000  0.49882000  1.0
  O  O182  1  0.17295000  0.94936000  0.66573000  1.0
  O  O183  1  0.32730000  0.44707000  0.83389000  1.0
  O  O184  1  0.82695000  0.05084000  0.32993000  1.0
  O  O185  1  0.67318000  0.55136000  0.16970000  1.0
  O  O186  1  0.06358000  0.09050000  0.64832000  1.0
  O  O187  1  0.43599000  0.58800000  0.85337000  1.0
  O  O188  1  0.93728000  0.91170000  0.35209000  1.0
  O  O189  1  0.56292000  0.41248000  0.14693000  1.0
  O  O190  1  0.12427000  0.28315000  0.59344000  1.0
  O  O191  1  0.37572000  0.78082000  0.90708000  1.0
  O  O192  1  0.87669000  0.72049000  0.40824000  1.0
  O  O193  1  0.62351000  0.22119000  0.09120000  1.0
  O  O194  1  0.14081000  0.34877000  0.70333000  1.0
  O  O195  1  0.35844000  0.84684000  0.79712000  1.0
  O  O196  1  0.86071000  0.64948000  0.29994000  1.0
  O  O197  1  0.63928000  0.14997000  0.19961000  1.0
  O  O198  1  0.98576000  0.36194000  0.83185000  1.0
  O  O199  1  0.51379000  0.86346000  0.66787000  1.0
  O  O200  1  0.01065000  0.63601000  0.16868000  1.0
  O  O201  1  0.48991000  0.13573000  0.33112000  1.0
  O  O202  1  0.87145000  0.22225000  0.83697000  1.0
  O  O203  1  0.62781000  0.72348000  0.66397000  1.0
  O  O204  1  0.12478000  0.77559000  0.16224000  1.0
  O  O205  1  0.37585000  0.27533000  0.33745000  1.0
  O  O206  1  0.91696000  0.03596000  0.75736000  1.0
  O  O207  1  0.58038000  0.53522000  0.74360000  1.0
  O  O208  1  0.07820000  0.96483000  0.23979000  1.0
  O  O209  1  0.42261000  0.46438000  0.25963000  1.0
  O  O210  1  0.95526000  0.95963000  0.86148000  1.0
  O  O211  1  0.54449000  0.46255000  0.63815000  1.0
  O  O212  1  0.04521000  0.03213000  0.13210000  1.0
  O  O213  1  0.45573000  0.53221000  0.36701000  1.0
  O  O214  1  0.83733000  0.95127000  0.00261000  1.0
  O  O215  1  0.66305000  0.45102000  0.49733000  1.0
  O  O216  1  0.16607000  0.05094000  0.99756000  1.0
  O  O217  1  0.33429000  0.55066000  0.50209000  1.0
  O  O218  1  0.73250000  0.80534000  0.99524000  1.0
  O  O219  1  0.76774000  0.30490000  0.50410000  1.0
  O  O220  1  0.26947000  0.19770000  0.00266000  1.0
  O  O221  1  0.23094000  0.69751000  0.49692000  1.0
  O  O222  1  0.79895000  0.57909000  0.03198000  1.0
  O  O223  1  0.70160000  0.07795000  0.46865000  1.0
  O  O224  1  0.19747000  0.42583000  0.96826000  1.0
  O  O225  1  0.30258000  0.92542000  0.53144000  1.0
  O  O226  1  0.80695000  0.60657000  0.91547000  1.0
  O  O227  1  0.69344000  0.10754000  0.58483000  1.0
  O  O228  1  0.19215000  0.39637000  0.08485000  1.0
  O  O229  1  0.30777000  0.89606000  0.41493000  1.0
  O  O230  1  0.77070000  0.20110000  0.71239000  1.0
  O  O231  1  0.72916000  0.69913000  0.78796000  1.0
  O  O232  1  0.22801000  0.80181000  0.28708000  1.0
  O  O233  1  0.27253000  0.30176000  0.21250000  1.0
  O  O234  1  0.90453000  0.22890000  0.60088000  1.0
  O  O235  1  0.59542000  0.72758000  0.89938000  1.0
  O  O236  1  0.09691000  0.77826000  0.39957000  1.0
  O  O237  1  0.40327000  0.27915000  0.09966000  1.0
  O  O238  1  0.72490000  0.95417000  0.69248000  1.0
  O  O239  1  0.77331000  0.45196000  0.80871000  1.0
  O  O240  1  0.28221000  0.04305000  0.30396000  1.0
  O  O241  1  0.21796000  0.54278000  0.19606000  1.0
  O  O242  1  0.89585000  0.01057000  0.52630000  1.0
  O  O243  1  0.60409000  0.51225000  0.97531000  1.0
  O  O244  1  0.11739000  0.00859000  0.46509000  1.0
  O  O245  1  0.38147000  0.51016000  0.03468000  1.0
  O  O246  1  0.94712000  0.89271000  0.63800000  1.0
  O  O247  1  0.55237000  0.39135000  0.86593000  1.0
  O  O248  1  0.05391000  0.11381000  0.34471000  1.0
  O  O249  1  0.44601000  0.61437000  0.15502000  1.0
