# generated using pymatgen
data_CaH46C68(N4O5)2
_symmetry_space_group_name_H-M   'P 1'
_cell_length_a   12.34240000
_cell_length_b   12.44560000
_cell_length_c   14.02000000
_cell_angle_alpha   115.60200000
_cell_angle_beta   99.08010000
_cell_angle_gamma   107.82500000
_symmetry_Int_Tables_number   1
_chemical_formula_structural   CaH46C68(N4O5)2
_chemical_formula_sum   'Ca1 H46 C68 N8 O10'
_cell_volume   1740.17060334
_cell_formula_units_Z   1
loop_
 _symmetry_equiv_pos_site_id
 _symmetry_equiv_pos_as_xyz
  1  'x, y, z'
loop_
 _atom_site_type_symbol
 _atom_site_label
 _atom_site_symmetry_multiplicity
 _atom_site_fract_x
 _atom_site_fract_y
 _atom_site_fract_z
 _atom_site_occupancy
  Ca  Ca0  1  0.00000000  0.00000000  0.00000000  1.0
  H  H1  1  0.54459000  0.64323000  0.31915000  1.0
  H  H2  1  0.45541000  0.35677000  0.68085000  1.0
  H  H3  1  0.57646000  0.81565000  0.48264000  1.0
  H  H4  1  0.42354000  0.18435000  0.51736000  1.0
  H  H5  1  0.91647000  0.03023000  0.66565000  1.0
  H  H6  1  0.08354000  0.96978000  0.33435000  1.0
  H  H7  1  0.21053000  0.45630000  0.11918000  1.0
  H  H8  1  0.78948000  0.54369000  0.88082000  1.0
  H  H9  1  0.42333000  0.13920000  0.66728000  1.0
  H  H10  1  0.57667000  0.86080000  0.33272000  1.0
  H  H11  1  0.29834000  0.22051000  0.77855000  1.0
  H  H12  1  0.70166000  0.77949000  0.22145000  1.0
  H  H13  1  0.53941000  0.33390000  0.02359000  1.0
  H  H14  1  0.46059000  0.66610000  0.97642000  1.0
  H  H15  1  0.09446000  0.57436000  0.23159000  1.0
  H  H16  1  0.90554000  0.42564000  0.76841000  1.0
  H  H17  1  0.31285000  0.32143000  0.99263000  1.0
  H  H18  1  0.68714000  0.67857000  0.00737000  1.0
  H  H19  1  0.96690000  0.68944000  0.35454000  1.0
  H  H20  1  0.03310000  0.31056000  0.64546000  1.0
  H  H21  1  0.03296000  0.91507000  0.55158000  1.0
  H  H22  1  0.96705000  0.08495000  0.44842000  1.0
  H  H23  1  0.58269000  0.11722000  0.78420000  1.0
  H  H24  1  0.41730000  0.88278000  0.21580000  1.0
  H  H25  1  0.75949000  0.53419000  0.05582000  1.0
  H  H26  1  0.24051000  0.46582000  0.94419000  1.0
  H  H27  1  0.24212000  0.75736000  0.62418000  1.0
  H  H28  1  0.75788000  0.24265000  0.37582000  1.0
  H  H29  1  0.87233000  0.41197000  0.95820000  1.0
  H  H30  1  0.12767000  0.58802000  0.04180000  1.0
  H  H31  1  0.80286000  0.41323000  0.29869000  1.0
  H  H32  1  0.19714000  0.58677000  0.70131000  1.0
  H  H33  1  0.81339000  0.15566000  0.79740000  1.0
  H  H34  1  0.18660000  0.84434000  0.20260000  1.0
  H  H35  1  0.15589000  0.77503000  0.44276000  1.0
  H  H36  1  0.84411000  0.22497000  0.55724000  1.0
  H  H37  1  0.11862000  0.84120000  0.73811000  1.0
  H  H38  1  0.88138000  0.15880000  0.26189000  1.0
  H  H39  1  0.91438000  0.28866000  0.19905000  1.0
  H  H40  1  0.08561000  0.71133000  0.80094000  1.0
  H  H41  1  0.05641000  0.23805000  0.90291000  1.0
  H  H42  1  0.94359000  0.76195000  0.09708000  1.0
  H  H43  1  0.72979000  0.80521000  0.87939000  1.0
  H  H44  1  0.27021000  0.19479000  0.12061000  1.0
  H  H45  1  0.76329000  0.86559000  0.80529000  1.0
  H  H46  1  0.23672000  0.13441000  0.19471000  1.0
  C  C47  1  0.83058000  0.85205000  0.50813000  1.0
  C  C48  1  0.16942000  0.14795000  0.49187000  1.0
  C  C49  1  0.72914000  0.97504000  0.62718000  1.0
  C  C50  1  0.27087000  0.02496000  0.37282000  1.0
  C  C51  1  0.89922000  0.34222000  0.07284000  1.0
  C  C52  1  0.10077000  0.65777000  0.92716000  1.0
  C  C53  1  0.39498000  0.49590000  0.16692000  1.0
  C  C54  1  0.60502000  0.50410000  0.83308000  1.0
  C  C55  1  0.82891000  0.95545000  0.60238000  1.0
  C  C56  1  0.17109000  0.04456000  0.39762000  1.0
  C  C57  1  0.34323000  0.78183000  0.45574000  1.0
  C  C58  1  0.65677000  0.21818000  0.54426000  1.0
  C  C59  1  0.53608000  0.94528000  0.61371000  1.0
  C  C60  1  0.46392000  0.05472000  0.38629000  1.0
  C  C61  1  0.29400000  0.62042000  0.28534000  1.0
  C  C62  1  0.70600000  0.37958000  0.71466000  1.0
  C  C63  1  0.29663000  0.52265000  0.18765000  1.0
  C  C64  1  0.70337000  0.47735000  0.81236000  1.0
  C  C65  1  0.58490000  0.50861000  0.19168000  1.0
  C  C66  1  0.41509000  0.49139000  0.80833000  1.0
  C  C67  1  0.40951000  0.88881000  0.56663000  1.0
  C  C68  1  0.59049000  0.11119000  0.43336000  1.0
  C  C69  1  0.35790000  0.07408000  0.68406000  1.0
  C  C70  1  0.64210000  0.92592000  0.31594000  1.0
  C  C71  1  0.20163000  0.03582000  0.76613000  1.0
  C  C72  1  0.79837000  0.96418000  0.23387000  1.0
  C  C73  1  0.34103000  0.94265000  0.63809000  1.0
  C  C74  1  0.65897000  0.05735000  0.36191000  1.0
  C  C75  1  0.28827000  0.11993000  0.74668000  1.0
  C  C76  1  0.71173000  0.88007000  0.25332000  1.0
  C  C77  1  0.50854000  0.39771000  0.08255000  1.0
  C  C78  1  0.49147000  0.60229000  0.91745000  1.0
  C  C79  1  0.77352000  0.48093000  0.18295000  1.0
  C  C80  1  0.22649000  0.51907000  0.81705000  1.0
  C  C81  1  0.77779000  0.67128000  0.34976000  1.0
  C  C82  1  0.22221000  0.32872000  0.65024000  1.0
  C  C83  1  0.12216000  0.08135000  0.82872000  1.0
  C  C84  1  0.87784000  0.91866000  0.17128000  1.0
  C  C85  1  0.18294000  0.63383000  0.29680000  1.0
  C  C86  1  0.81706000  0.36617000  0.70321000  1.0
  C  C87  1  0.39288000  0.39055000  0.06703000  1.0
  C  C88  1  0.60712000  0.60945000  0.93297000  1.0
  C  C89  1  0.90949000  0.72962000  0.39523000  1.0
  C  C90  1  0.09051000  0.27038000  0.60477000  1.0
  C  C91  1  0.94253000  0.84305000  0.49378000  1.0
  C  C92  1  0.05748000  0.15696000  0.50621000  1.0
  C  C93  1  0.61365000  0.05813000  0.72172000  1.0
  C  C94  1  0.38635000  0.94187000  0.27827000  1.0
  C  C95  1  0.79201000  0.47873000  0.08606000  1.0
  C  C96  1  0.20799000  0.52127000  0.91395000  1.0
  C  C97  1  0.97001000  0.27164000  0.01928000  1.0
  C  C98  1  0.02998000  0.72835000  0.98071000  1.0
  C  C99  1  0.25494000  0.85925000  0.65912000  1.0
  C  C100  1  0.74506000  0.14075000  0.34088000  1.0
  C  C101  1  0.85521000  0.41080000  0.03169000  1.0
  C  C102  1  0.14479000  0.58920000  0.96831000  1.0
  C  C103  1  0.81765000  0.41178000  0.22357000  1.0
  C  C104  1  0.18236000  0.58822000  0.77643000  1.0
  C  C105  1  0.73118000  0.07746000  0.72901000  1.0
  C  C106  1  0.26882000  0.92254000  0.27099000  1.0
  C  C107  1  0.21354000  0.73422000  0.40323000  1.0
  C  C108  1  0.78646000  0.26578000  0.59678000  1.0
  C  C109  1  0.18662000  0.90544000  0.72275000  1.0
  C  C110  1  0.81339000  0.09456000  0.27725000  1.0
  C  C111  1  0.87917000  0.34237000  0.16856000  1.0
  C  C112  1  0.12082000  0.65762000  0.83143000  1.0
  C  C113  1  0.70959000  0.55632000  0.24397000  1.0
  C  C114  1  0.29041000  0.44368000  0.75603000  1.0
  N  N115  1  0.73172000  0.74716000  0.41963000  1.0
  N  N116  1  0.26828000  0.25284000  0.58037000  1.0
  N  N117  1  0.39051000  0.71219000  0.38224000  1.0
  N  N118  1  0.60948000  0.28781000  0.61777000  1.0
  N  N119  1  0.51244000  0.56445000  0.23919000  1.0
  N  N120  1  0.48755000  0.43555000  0.76082000  1.0
  N  N121  1  0.60981000  0.89841000  0.56028000  1.0
  N  N122  1  0.39020000  0.10159000  0.43971000  1.0
  O  O123  1  0.99822000  0.28848000  0.93931000  1.0
  O  O124  1  0.00178000  0.71151000  0.06068000  1.0
  O  O125  1  0.13086000  0.19713000  0.85513000  1.0
  O  O126  1  0.86914000  0.80286000  0.14486000  1.0
  O  O127  1  0.05118000  0.00522000  0.85137000  1.0
  O  O128  1  0.94883000  0.99479000  0.14863000  1.0
  O  O129  1  0.00068000  0.20303000  0.05237000  1.0
  O  O130  1  0.99932000  0.79697000  0.94763000  1.0
  O  O131  1  0.78707000  0.88070000  0.88116000  1.0
  O  O132  1  0.21293000  0.11930000  0.11884000  1.0
