# generated using pymatgen
data_CuH4C6SO5
_symmetry_space_group_name_H-M   'P 1'
_cell_length_a   6.03532000
_cell_length_b   10.43480000
_cell_length_c   17.60010000
_cell_angle_alpha   89.99360000
_cell_angle_beta   89.95490000
_cell_angle_gamma   94.22490000
_symmetry_Int_Tables_number   1
_chemical_formula_structural   CuH4C6SO5
_chemical_formula_sum   'Cu4 H16 C24 S4 O20'
_cell_volume   1105.39538733
_cell_formula_units_Z   4
loop_
 _symmetry_equiv_pos_site_id
 _symmetry_equiv_pos_as_xyz
  1  'x, y, z'
loop_
 _atom_site_type_symbol
 _atom_site_label
 _atom_site_symmetry_multiplicity
 _atom_site_fract_x
 _atom_site_fract_y
 _atom_site_fract_z
 _atom_site_occupancy
  Cu  Cu0  1  0.00001000  0.50001000  0.50000000  1.0
  Cu  Cu1  1  0.50001000  0.00001000  0.00000000  1.0
  Cu  Cu2  1  0.50000000  0.49999000  0.50000000  1.0
  Cu  Cu3  1  0.00001000  0.00001000  0.00000000  1.0
  H  H4  1  0.71365000  0.30783000  0.55291000  1.0
  H  H5  1  0.78539000  0.19202000  0.05305000  1.0
  H  H6  1  0.28636000  0.69215000  0.44709000  1.0
  H  H7  1  0.21459000  0.80801000  0.94695000  1.0
  H  H8  1  0.69463000  0.30643000  0.46047000  1.0
  H  H9  1  0.80468000  0.19336000  0.96050000  1.0
  H  H10  1  0.30536000  0.69356000  0.53953000  1.0
  H  H11  1  0.19534000  0.80665000  0.03950000  1.0
  H  H12  1  0.10993000  0.81138000  0.68679000  1.0
  H  H13  1  0.39103000  0.68899000  0.18716000  1.0
  H  H14  1  0.89003000  0.18862000  0.31320000  1.0
  H  H15  1  0.60898000  0.31100000  0.81284000  1.0
  H  H16  1  0.98617000  0.91042000  0.81811000  1.0
  H  H17  1  0.51438000  0.58974000  0.31842000  1.0
  H  H18  1  0.01380000  0.08959000  0.18189000  1.0
  H  H19  1  0.48564000  0.41025000  0.68158000  1.0
  C  C20  1  0.78999000  0.63140000  0.61315000  1.0
  C  C21  1  0.71103000  0.86864000  0.11334000  1.0
  C  C22  1  0.20999000  0.36861000  0.38684000  1.0
  C  C23  1  0.28897000  0.13135000  0.88665000  1.0
  C  C24  1  0.78534000  0.70519000  0.68375000  1.0
  C  C25  1  0.71577000  0.79498000  0.18397000  1.0
  C  C26  1  0.21463000  0.29481000  0.31625000  1.0
  C  C27  1  0.28422000  0.20503000  0.81603000  1.0
  C  C28  1  0.95012000  0.78973000  0.71431000  1.0
  C  C29  1  0.55080000  0.71057000  0.21465000  1.0
  C  C30  1  0.04985000  0.21027000  0.28569000  1.0
  C  C31  1  0.44922000  0.28942000  0.78535000  1.0
  C  C32  1  0.88516000  0.84206000  0.78383000  1.0
  C  C33  1  0.61561000  0.65811000  0.28413000  1.0
  C  C34  1  0.11483000  0.15793000  0.21617000  1.0
  C  C35  1  0.38442000  0.34188000  0.71587000  1.0
  C  C36  1  0.67229000  0.79653000  0.80518000  1.0
  C  C37  1  0.82846000  0.70358000  0.30539000  1.0
  C  C38  1  0.32769000  0.20348000  0.19482000  1.0
  C  C39  1  0.17157000  0.29641000  0.69461000  1.0
  C  C40  1  0.54403000  0.83072000  0.87280000  1.0
  C  C41  1  0.95645000  0.66934000  0.37298000  1.0
  C  C42  1  0.45596000  0.16929000  0.12720000  1.0
  C  C43  1  0.04358000  0.33065000  0.62702000  1.0
  S  S44  1  0.55192000  0.68950000  0.74049000  1.0
  S  S45  1  0.94919000  0.81049000  0.24059000  1.0
  S  S46  1  0.44808000  0.31050000  0.25952000  1.0
  S  S47  1  0.05082000  0.18952000  0.75941000  1.0
  O  O48  1  0.96130000  0.64581000  0.57036000  1.0
  O  O49  1  0.53989000  0.85417000  0.07061000  1.0
  O  O50  1  0.03869000  0.35419000  0.42964000  1.0
  O  O51  1  0.46010000  0.14584000  0.92939000  1.0
  O  O52  1  0.61922000  0.55365000  0.59980000  1.0
  O  O53  1  0.88201000  0.94635000  0.09985000  1.0
  O  O54  1  0.38081000  0.44633000  0.40019000  1.0
  O  O55  1  0.11799000  0.05366000  0.90016000  1.0
  O  O56  1  0.64187000  0.91639000  0.91672000  1.0
  O  O57  1  0.85842000  0.58345000  0.41679000  1.0
  O  O58  1  0.35813000  0.08361000  0.08328000  1.0
  O  O59  1  0.14160000  0.41655000  0.58321000  1.0
  O  O60  1  0.35078000  0.77737000  0.88153000  1.0
  O  O61  1  0.14948000  0.72285000  0.38171000  1.0
  O  O62  1  0.64920000  0.22264000  0.11847000  1.0
  O  O63  1  0.85057000  0.27712000  0.61828000  1.0
  O  O64  1  0.61297000  0.32780000  0.50623000  1.0
  O  O65  1  0.88611000  0.17199000  0.00627000  1.0
  O  O66  1  0.38702000  0.67218000  0.49377000  1.0
  O  O67  1  0.11388000  0.82803000  0.99374000  1.0
