# generated using pymatgen
data_Cu3H21C26N8ClO8
_symmetry_space_group_name_H-M   'P 1'
_cell_length_a   10.04870000
_cell_length_b   12.04750000
_cell_length_c   14.36180000
_cell_angle_alpha   95.06470000
_cell_angle_beta   101.07900000
_cell_angle_gamma   113.37700000
_symmetry_Int_Tables_number   1
_chemical_formula_structural   Cu3H21C26N8ClO8
_chemical_formula_sum   'Cu6 H42 C52 N16 Cl2 O16'
_cell_volume   1539.85595706
_cell_formula_units_Z   2
loop_
 _symmetry_equiv_pos_site_id
 _symmetry_equiv_pos_as_xyz
  1  'x, y, z'
loop_
 _atom_site_type_symbol
 _atom_site_label
 _atom_site_symmetry_multiplicity
 _atom_site_fract_x
 _atom_site_fract_y
 _atom_site_fract_z
 _atom_site_occupancy
  Cu  Cu0  1  0.42841000  0.54974000  0.44745000  1.0
  Cu  Cu1  1  0.57159000  0.45026000  0.55255000  1.0
  Cu  Cu2  1  0.04743000  0.82155000  0.14055000  1.0
  Cu  Cu3  1  0.95257000  0.17845000  0.85945000  1.0
  Cu  Cu4  1  0.83358000  0.98152000  0.22905000  1.0
  Cu  Cu5  1  0.16642000  0.01848000  0.77095000  1.0
  H  H6  1  0.94059000  0.60146000  0.27342000  1.0
  H  H7  1  0.05941000  0.39854000  0.72658000  1.0
  H  H8  1  0.08772000  0.51432000  0.38250000  1.0
  H  H9  1  0.91227000  0.48567000  0.61750000  1.0
  H  H10  1  0.47799000  0.74544000  0.31450000  1.0
  H  H11  1  0.52201000  0.25456000  0.68551000  1.0
  H  H12  1  0.51698000  0.07977000  0.16773000  1.0
  H  H13  1  0.48302000  0.92024000  0.83227000  1.0
  H  H14  1  0.59122000  0.23954000  0.06383000  1.0
  H  H15  1  0.40878000  0.76046000  0.93617000  1.0
  H  H16  1  0.79169000  0.64222000  0.00385000  1.0
  H  H17  1  0.20831000  0.35779000  0.99615000  1.0
  H  H18  1  0.70898000  0.54591000  0.82744000  1.0
  H  H19  1  0.29103000  0.45410000  0.17256000  1.0
  H  H20  1  0.66562000  0.51501000  0.18748000  1.0
  H  H21  1  0.33439000  0.48499000  0.81252000  1.0
  H  H22  1  0.53159000  0.56973000  0.13937000  1.0
  H  H23  1  0.46841000  0.43027000  0.86063000  1.0
  H  H24  1  0.59374000  0.58885000  0.26636000  1.0
  H  H25  1  0.40626000  0.41115000  0.73364000  1.0
  H  H26  1  0.41441000  0.20678000  0.90422000  1.0
  H  H27  1  0.58559000  0.79322000  0.09578000  1.0
  H  H28  1  0.87186000  0.64489000  0.71965000  1.0
  H  H29  1  0.12815000  0.35512000  0.28036000  1.0
  H  H30  1  0.27870000  0.73050000  0.56001000  1.0
  H  H31  1  0.72129000  0.26949000  0.43998000  1.0
  H  H32  1  0.36014000  0.05699000  0.45566000  1.0
  H  H33  1  0.63985000  0.94301000  0.54433000  1.0
  H  H34  1  0.28428000  0.13782000  0.59448000  1.0
  H  H35  1  0.71573000  0.86219000  0.40552000  1.0
  H  H36  1  0.88640000  0.79168000  0.40580000  1.0
  H  H37  1  0.11356000  0.20830000  0.59420000  1.0
  H  H38  1  0.98338000  0.72526000  0.48505000  1.0
  H  H39  1  0.01665000  0.27476000  0.51494000  1.0
  H  H40  1  0.93152000  0.83908000  0.53307000  1.0
  H  H41  1  0.06848000  0.16093000  0.46692000  1.0
  H  H42  1  0.42725000  0.30177000  0.19605000  1.0
  H  H43  1  0.57274000  0.69824000  0.80395000  1.0
  H  H44  1  0.39516000  0.18111000  0.26397000  1.0
  H  H45  1  0.60485000  0.81888000  0.73602000  1.0
  H  H46  1  0.58304000  0.27984000  0.26357000  1.0
  H  H47  1  0.41696000  0.72016000  0.73642000  1.0
  C  C48  1  0.06123000  0.63483000  0.28393000  1.0
  C  C49  1  0.93876000  0.36517000  0.71607000  1.0
  C  C50  1  0.14292000  0.58694000  0.34439000  1.0
  C  C51  1  0.85708000  0.41306000  0.65561000  1.0
  C  C52  1  0.35798000  0.71315000  0.30684000  1.0
  C  C53  1  0.64203000  0.28685000  0.69316000  1.0
  C  C54  1  0.27649000  0.76099000  0.24628000  1.0
  C  C55  1  0.72351000  0.23901000  0.75372000  1.0
  C  C56  1  0.35155000  0.85669000  0.19097000  1.0
  C  C57  1  0.64845000  0.14330000  0.80903000  1.0
  C  C58  1  0.30258000  0.96937000  0.06956000  1.0
  C  C59  1  0.69742000  0.03063000  0.93044000  1.0
  C  C60  1  0.44273000  0.07186000  0.09936000  1.0
  C  C61  1  0.55727000  0.92814000  0.90065000  1.0
  C  C62  1  0.48368000  0.15918000  0.04142000  1.0
  C  C63  1  0.51632000  0.84082000  0.95859000  1.0
  C  C64  1  0.07201000  0.84196000  0.93377000  1.0
  C  C65  1  0.92799000  0.15804000  0.06623000  1.0
  C  C66  1  0.85744000  0.68130000  0.95330000  1.0
  C  C67  1  0.14256000  0.31870000  0.04669000  1.0
  C  C68  1  0.81373000  0.62744000  0.85634000  1.0
  C  C69  1  0.18628000  0.37256000  0.14366000  1.0
  C  C70  1  0.75016000  0.71249000  0.19739000  1.0
  C  C71  1  0.24984000  0.28751000  0.80262000  1.0
  C  C72  1  0.62915000  0.58852000  0.19898000  1.0
  C  C73  1  0.37085000  0.41148000  0.80102000  1.0
  C  C74  1  0.38574000  0.14217000  0.95314000  1.0
  C  C75  1  0.61427000  0.85783000  0.04686000  1.0
  C  C76  1  0.21064000  0.95535000  0.97624000  1.0
  C  C77  1  0.78937000  0.04466000  0.02376000  1.0
  C  C78  1  0.90351000  0.68165000  0.79648000  1.0
  C  C79  1  0.09650000  0.31835000  0.20352000  1.0
  C  C80  1  0.03504000  0.78957000  0.83430000  1.0
  C  C81  1  0.96496000  0.21043000  0.16570000  1.0
  C  C82  1  0.16137000  0.78445000  0.70921000  1.0
  C  C83  1  0.83863000  0.21554000  0.29079000  1.0
  C  C84  1  0.22598000  0.86219000  0.63925000  1.0
  C  C85  1  0.77401000  0.13780000  0.36074000  1.0
  C  C86  1  0.27599000  0.82043000  0.56505000  1.0
  C  C87  1  0.72400000  0.17956000  0.43494000  1.0
  C  C88  1  0.32286000  0.00024000  0.50889000  1.0
  C  C89  1  0.67713000  0.99976000  0.49110000  1.0
  C  C90  1  0.27800000  0.04511000  0.58468000  1.0
  C  C91  1  0.72201000  0.95489000  0.41532000  1.0
  C  C92  1  0.75034000  0.66254000  0.48246000  1.0
  C  C93  1  0.24966000  0.33746000  0.51755000  1.0
  C  C94  1  0.89739000  0.76012000  0.47488000  1.0
  C  C95  1  0.10261000  0.23988000  0.52512000  1.0
  C  C96  1  0.48204000  0.35906000  0.35023000  1.0
  C  C97  1  0.51796000  0.64093000  0.64977000  1.0
  C  C98  1  0.47148000  0.27579000  0.26208000  1.0
  C  C99  1  0.52852000  0.72422000  0.73793000  1.0
  N  N100  1  0.29123000  0.62582000  0.35536000  1.0
  N  N101  1  0.70877000  0.37418000  0.64464000  1.0
  N  N102  1  0.12831000  0.72124000  0.23482000  1.0
  N  N103  1  0.87169000  0.27876000  0.76519000  1.0
  N  N104  1  0.25422000  0.88275000  0.12729000  1.0
  N  N105  1  0.74577000  0.11726000  0.87272000  1.0
  N  N106  1  0.98283000  0.78487000  0.99106000  1.0
  N  N107  1  0.01718000  0.21512000  0.00894000  1.0
  N  N108  1  0.25487000  0.04268000  0.92097000  1.0
  N  N109  1  0.74514000  0.95732000  0.07904000  1.0
  N  N110  1  0.12206000  0.84660000  0.77397000  1.0
  N  N111  1  0.87795000  0.15340000  0.22603000  1.0
  N  N112  1  0.22817000  0.97498000  0.64858000  1.0
  N  N113  1  0.77184000  0.02502000  0.35142000  1.0
  N  N114  1  0.32288000  0.88854000  0.49896000  1.0
  N  N115  1  0.67710000  0.11146000  0.50104000  1.0
  Cl  Cl116  1  0.08986000  0.99929000  0.25131000  1.0
  Cl  Cl117  1  0.91013000  0.00071000  0.74869000  1.0
  O  O118  1  0.63095000  0.66922000  0.43904000  1.0
  O  O119  1  0.36904000  0.33077000  0.56097000  1.0
  O  O120  1  0.42508000  0.43590000  0.33792000  1.0
  O  O121  1  0.57493000  0.56409000  0.66208000  1.0
  O  O122  1  0.54750000  0.34590000  0.43096000  1.0
  O  O123  1  0.45249000  0.65410000  0.56904000  1.0
  O  O124  1  0.75727000  0.58248000  0.53303000  1.0
  O  O125  1  0.24275000  0.41753000  0.46697000  1.0
  O  O126  1  0.49035000  0.89965000  0.20442000  1.0
  O  O127  1  0.50965000  0.10035000  0.79558000  1.0
  O  O128  1  0.84384000  0.71208000  0.14921000  1.0
  O  O129  1  0.15615000  0.28792000  0.85079000  1.0
  O  O130  1  0.74480000  0.80626000  0.24170000  1.0
  O  O131  1  0.25520000  0.19374000  0.75831000  1.0
  O  O132  1  0.14951000  0.67665000  0.70484000  1.0
  O  O133  1  0.85049000  0.32335000  0.29515000  1.0
