# generated using pymatgen
data_CuH16C15(NO)7
_symmetry_space_group_name_H-M   'P 1'
_cell_length_a   9.19103000
_cell_length_b   9.22993000
_cell_length_c   11.83740000
_cell_angle_alpha   101.95600000
_cell_angle_beta   93.10570000
_cell_angle_gamma   94.10250000
_symmetry_Int_Tables_number   1
_chemical_formula_structural   CuH16C15(NO)7
_chemical_formula_sum   'Cu2 H32 C30 N14 O14'
_cell_volume   977.44289954
_cell_formula_units_Z   2
loop_
 _symmetry_equiv_pos_site_id
 _symmetry_equiv_pos_as_xyz
  1  'x, y, z'
loop_
 _atom_site_type_symbol
 _atom_site_label
 _atom_site_symmetry_multiplicity
 _atom_site_fract_x
 _atom_site_fract_y
 _atom_site_fract_z
 _atom_site_occupancy
  Cu  Cu0  1  0.68266000  0.62238000  0.87517000  1.0
  Cu  Cu1  1  0.31734000  0.37761000  0.12483000  1.0
  H  H2  1  0.86554000  0.37916000  0.78207000  1.0
  H  H3  1  0.13446000  0.62082000  0.21792000  1.0
  H  H4  1  0.92950000  0.25739000  0.58247000  1.0
  H  H5  1  0.07048000  0.74260000  0.41752000  1.0
  H  H6  1  0.84523000  0.35800000  0.41324000  1.0
  H  H7  1  0.15478000  0.64201000  0.58675000  1.0
  H  H8  1  0.64880000  0.69665000  0.65234000  1.0
  H  H9  1  0.35119000  0.30335000  0.34766000  1.0
  H  H10  1  0.71901000  0.54762000  0.34601000  1.0
  H  H11  1  0.28100000  0.45239000  0.65399000  1.0
  H  H12  1  0.53188000  0.66463000  0.27330000  1.0
  H  H13  1  0.46814000  0.33538000  0.72671000  1.0
  H  H14  1  0.43027000  0.92693000  0.41092000  1.0
  H  H15  1  0.56974000  0.07306000  0.58908000  1.0
  H  H16  1  0.41013000  0.86028000  0.25897000  1.0
  H  H17  1  0.58987000  0.13972000  0.74105000  1.0
  H  H18  1  0.53730000  0.10901000  0.30616000  1.0
  H  H19  1  0.46271000  0.89100000  0.69384000  1.0
  H  H20  1  0.66847000  0.05694000  0.40181000  1.0
  H  H21  1  0.33154000  0.94306000  0.59819000  1.0
  H  H22  1  0.67163000  0.85964000  0.18247000  1.0
  H  H23  1  0.32838000  0.14035000  0.81754000  1.0
  H  H24  1  0.89468000  0.83187000  0.14927000  1.0
  H  H25  1  0.10531000  0.16813000  0.85074000  1.0
  H  H26  1  0.10462000  0.75701000  0.06732000  1.0
  H  H27  1  0.89537000  0.24298000  0.93269000  1.0
  H  H28  1  0.36072000  0.82618000  0.02905000  1.0
  H  H29  1  0.63927000  0.17379000  0.97096000  1.0
  H  H30  1  0.45200000  0.09723000  0.06675000  1.0
  H  H31  1  0.54800000  0.90274000  0.93325000  1.0
  H  H32  1  0.04990000  0.22515000  0.17873000  1.0
  H  H33  1  0.95010000  0.77485000  0.82125000  1.0
  C  C34  1  0.83135000  0.41982000  0.70577000  1.0
  C  C35  1  0.16864000  0.58017000  0.29423000  1.0
  C  C36  1  0.86619000  0.35414000  0.59474000  1.0
  C  C37  1  0.13380000  0.64585000  0.40525000  1.0
  C  C38  1  0.82093000  0.41221000  0.50049000  1.0
  C  C39  1  0.17908000  0.58779000  0.49950000  1.0
  C  C40  1  0.74140000  0.53880000  0.51899000  1.0
  C  C41  1  0.25861000  0.46120000  0.48101000  1.0
  C  C42  1  0.70902000  0.59862000  0.63322000  1.0
  C  C43  1  0.29098000  0.40137000  0.36678000  1.0
  C  C44  1  0.63298000  0.73601000  0.43796000  1.0
  C  C45  1  0.36703000  0.26400000  0.56205000  1.0
  C  C46  1  0.49000000  0.88862000  0.33415000  1.0
  C  C47  1  0.51000000  0.11138000  0.66586000  1.0
  C  C48  1  0.59916000  0.01622000  0.32120000  1.0
  C  C49  1  0.40084000  0.98378000  0.67881000  1.0
  C  C50  1  0.82672000  0.03604000  0.22443000  1.0
  C  C51  1  0.17327000  0.96392000  0.77555000  1.0
  C  C52  1  0.05874000  0.98560000  0.13268000  1.0
  C  C53  1  0.94124000  0.01439000  0.86731000  1.0
  C  C54  1  0.14798000  0.87333000  0.08631000  1.0
  C  C55  1  0.85200000  0.12666000  0.91370000  1.0
  C  C56  1  0.29013000  0.91211000  0.06316000  1.0
  C  C57  1  0.70986000  0.08787000  0.93685000  1.0
  C  C58  1  0.34137000  0.06127000  0.08291000  1.0
  C  C59  1  0.65863000  0.93872000  0.91708000  1.0
  C  C60  1  0.11597000  0.13440000  0.14696000  1.0
  C  C61  1  0.88402000  0.86559000  0.85302000  1.0
  C  C62  1  0.49913000  0.42666000  0.95685000  1.0
  C  C63  1  0.50088000  0.57336000  0.04314000  1.0
  N  N64  1  0.75324000  0.53936000  0.72230000  1.0
  N  N65  1  0.24676000  0.46063000  0.27769000  1.0
  N  N66  1  0.69309000  0.59805000  0.42669000  1.0
  N  N67  1  0.30692000  0.40197000  0.57332000  1.0
  N  N68  1  0.55737000  0.75265000  0.34086000  1.0
  N  N69  1  0.44264000  0.24736000  0.65914000  1.0
  N  N70  1  0.69150000  0.96667000  0.22718000  1.0
  N  N71  1  0.30850000  0.03334000  0.77282000  1.0
  N  N72  1  0.91861000  0.94480000  0.15714000  1.0
  N  N73  1  0.08139000  0.05520000  0.84286000  1.0
  N  N74  1  0.25315000  0.16859000  0.12141000  1.0
  N  N75  1  0.74685000  0.83140000  0.87858000  1.0
  N  N76  1  0.82351000  0.55307000  0.09750000  1.0
  N  N77  1  0.17650000  0.44697000  0.90250000  1.0
  O  O78  1  0.64742000  0.83229000  0.52895000  1.0
  O  O79  1  0.35259000  0.16771000  0.47106000  1.0
  O  O80  1  0.86408000  0.16557000  0.27650000  1.0
  O  O81  1  0.13591000  0.83446000  0.72350000  1.0
  O  O82  1  0.57081000  0.42544000  0.86808000  1.0
  O  O83  1  0.42918000  0.57458000  0.13193000  1.0
  O  O84  1  0.86608000  0.57881000  0.00195000  1.0
  O  O85  1  0.13394000  0.42127000  0.99807000  1.0
  O  O86  1  0.74718000  0.43516000  0.10035000  1.0
  O  O87  1  0.25284000  0.56485000  0.89963000  1.0
  O  O88  1  0.85658000  0.65030000  0.19040000  1.0
  O  O89  1  0.14341000  0.34971000  0.80961000  1.0
  O  O90  1  0.42500000  0.31545000  0.97800000  1.0
  O  O91  1  0.57500000  0.68455000  0.02200000  1.0
