# generated using pymatgen
data_CuH3(CO2)3
_symmetry_space_group_name_H-M   'P 1'
_cell_length_a   7.87528000
_cell_length_b   8.24468000
_cell_length_c   11.39380000
_cell_angle_alpha   89.99810000
_cell_angle_beta   90.00110000
_cell_angle_gamma   89.99940000
_symmetry_Int_Tables_number   1
_chemical_formula_structural   CuH3(CO2)3
_chemical_formula_sum   'Cu4 H12 C12 O24'
_cell_volume   739.78990262
_cell_formula_units_Z   4
loop_
 _symmetry_equiv_pos_site_id
 _symmetry_equiv_pos_as_xyz
  1  'x, y, z'
loop_
 _atom_site_type_symbol
 _atom_site_label
 _atom_site_symmetry_multiplicity
 _atom_site_fract_x
 _atom_site_fract_y
 _atom_site_fract_z
 _atom_site_occupancy
  Cu  Cu0  1  0.00001000  0.00000000  0.50000000  1.0
  Cu  Cu1  1  0.50001000  0.50000000  0.50000000  1.0
  Cu  Cu2  1  0.00000000  0.00000000  0.00000000  1.0
  Cu  Cu3  1  0.50000000  0.50000000  0.00000000  1.0
  H  H4  1  0.79336000  0.71082000  0.55232000  1.0
  H  H5  1  0.29335000  0.78916000  0.44769000  1.0
  H  H6  1  0.20666000  0.28917000  0.05233000  1.0
  H  H7  1  0.70663000  0.21080000  0.94769000  1.0
  H  H8  1  0.20666000  0.28920000  0.44768000  1.0
  H  H9  1  0.70664000  0.21082000  0.55231000  1.0
  H  H10  1  0.79333000  0.71082000  0.94767000  1.0
  H  H11  1  0.29337000  0.78922000  0.05231000  1.0
  H  H12  1  0.09270000  0.97383000  0.74999000  1.0
  H  H13  1  0.59267000  0.52619000  0.25000000  1.0
  H  H14  1  0.90731000  0.02617000  0.25000000  1.0
  H  H15  1  0.40733000  0.47380000  0.75000000  1.0
  C  C16  1  0.72625000  0.77222000  0.48002000  1.0
  C  C17  1  0.22624000  0.72778000  0.51999000  1.0
  C  C18  1  0.27376000  0.22780000  0.98002000  1.0
  C  C19  1  0.77374000  0.27220000  0.01999000  1.0
  C  C20  1  0.27376000  0.22779000  0.51998000  1.0
  C  C21  1  0.77377000  0.27220000  0.48001000  1.0
  C  C22  1  0.72624000  0.77221000  0.01998000  1.0
  C  C23  1  0.22626000  0.72780000  0.98002000  1.0
  C  C24  1  0.95735000  0.00744000  0.75000000  1.0
  C  C25  1  0.45736000  0.49259000  0.25001000  1.0
  C  C26  1  0.04266000  0.99256000  0.24999000  1.0
  C  C27  1  0.54265000  0.50741000  0.75001000  1.0
  O  O28  1  0.78760000  0.90020000  0.43458000  1.0
  O  O29  1  0.28760000  0.59980000  0.56544000  1.0
  O  O30  1  0.21240000  0.09979000  0.93458000  1.0
  O  O31  1  0.71241000  0.40021000  0.06543000  1.0
  O  O32  1  0.21241000  0.09979000  0.56542000  1.0
  O  O33  1  0.71239000  0.40022000  0.43457000  1.0
  O  O34  1  0.78759000  0.90019000  0.06542000  1.0
  O  O35  1  0.28759000  0.59980000  0.93457000  1.0
  O  O36  1  0.58681000  0.71492000  0.44200000  1.0
  O  O37  1  0.08681000  0.78508000  0.55800000  1.0
  O  O38  1  0.41316000  0.28507000  0.94201000  1.0
  O  O39  1  0.91316000  0.21493000  0.05799000  1.0
  O  O40  1  0.41318000  0.28507000  0.55799000  1.0
  O  O41  1  0.91318000  0.21492000  0.44200000  1.0
  O  O42  1  0.58681000  0.71492000  0.05800000  1.0
  O  O43  1  0.08682000  0.78508000  0.94201000  1.0
  O  O44  1  0.87907000  0.02730000  0.65351000  1.0
  O  O45  1  0.37907000  0.47272000  0.34648000  1.0
  O  O46  1  0.12094000  0.97268000  0.15351000  1.0
  O  O47  1  0.62093000  0.52728000  0.84647000  1.0
  O  O48  1  0.12093000  0.97270000  0.34648000  1.0
  O  O49  1  0.62095000  0.52729000  0.65352000  1.0
  O  O50  1  0.87906000  0.02731000  0.84648000  1.0
  O  O51  1  0.37906000  0.47272000  0.15352000  1.0
