# generated using pymatgen
data_ZnH18C18N4O5
_symmetry_space_group_name_H-M   'P 1'
_cell_length_a   5.36117000
_cell_length_b   18.03540000
_cell_length_c   21.68910000
_cell_angle_alpha   90.00020000
_cell_angle_beta   89.99940000
_cell_angle_gamma   89.99990000
_symmetry_Int_Tables_number   1
_chemical_formula_structural   ZnH18C18N4O5
_chemical_formula_sum   'Zn4 H72 C72 N16 O20'
_cell_volume   2097.13741522
_cell_formula_units_Z   4
loop_
 _symmetry_equiv_pos_site_id
 _symmetry_equiv_pos_as_xyz
  1  'x, y, z'
loop_
 _atom_site_type_symbol
 _atom_site_label
 _atom_site_symmetry_multiplicity
 _atom_site_fract_x
 _atom_site_fract_y
 _atom_site_fract_z
 _atom_site_occupancy
  Zn  Zn0  1  0.81414000  0.83136000  0.70538000  1.0
  Zn  Zn1  1  0.81412000  0.16864000  0.29462000  1.0
  Zn  Zn2  1  0.18588000  0.66864000  0.20538000  1.0
  Zn  Zn3  1  0.18587000  0.33136000  0.79462000  1.0
  H  H4  1  0.24357000  0.91355000  0.64834000  1.0
  H  H5  1  0.24353000  0.08644000  0.35166000  1.0
  H  H6  1  0.75645000  0.58645000  0.14833000  1.0
  H  H7  1  0.75645000  0.41356000  0.85166000  1.0
  H  H8  1  0.52782000  0.89757000  0.55829000  1.0
  H  H9  1  0.52780000  0.10241000  0.44170000  1.0
  H  H10  1  0.47220000  0.60243000  0.05829000  1.0
  H  H11  1  0.47218000  0.39758000  0.94170000  1.0
  H  H12  1  0.82171000  0.73085000  0.59823000  1.0
  H  H13  1  0.82173000  0.26915000  0.40177000  1.0
  H  H14  1  0.17830000  0.76915000  0.09823000  1.0
  H  H15  1  0.17826000  0.23085000  0.90177000  1.0
  H  H16  1  0.08362000  0.70662000  0.50654000  1.0
  H  H17  1  0.08365000  0.29338000  0.49346000  1.0
  H  H18  1  0.91641000  0.79339000  0.00654000  1.0
  H  H19  1  0.91634000  0.20662000  0.99346000  1.0
  H  H20  1  0.63582000  0.83295000  0.46404000  1.0
  H  H21  1  0.63583000  0.16704000  0.53595000  1.0
  H  H22  1  0.36421000  0.66706000  0.96404000  1.0
  H  H23  1  0.36414000  0.33295000  0.03595000  1.0
  H  H24  1  0.38410000  0.68001000  0.44833000  1.0
  H  H25  1  0.38411000  0.31998000  0.55168000  1.0
  H  H26  1  0.61592000  0.82000000  0.94833000  1.0
  H  H27  1  0.61589000  0.18002000  0.05167000  1.0
  H  H28  1  0.94105000  0.80448000  0.40286000  1.0
  H  H29  1  0.94106000  0.19550000  0.59715000  1.0
  H  H30  1  0.05901000  0.69552000  0.90286000  1.0
  H  H31  1  0.05893000  0.30449000  0.09714000  1.0
  H  H32  1  0.19453000  0.77680000  0.31049000  1.0
  H  H33  1  0.19452000  0.22319000  0.68951000  1.0
  H  H34  1  0.80550000  0.72320000  0.81050000  1.0
  H  H35  1  0.80546000  0.27680000  0.18951000  1.0
  H  H36  1  0.47579000  0.61647000  0.35457000  1.0
  H  H37  1  0.47578000  0.38352000  0.64542000  1.0
  H  H38  1  0.52421000  0.88354000  0.85457000  1.0
  H  H39  1  0.52421000  0.11648000  0.14543000  1.0
  H  H40  1  0.75063000  0.59671000  0.26371000  1.0
  H  H41  1  0.75062000  0.40328000  0.73628000  1.0
  H  H42  1  0.24936000  0.90329000  0.76371000  1.0
  H  H43  1  0.24937000  0.09672000  0.23629000  1.0
  H  H44  1  0.80974000  0.10314000  0.71351000  1.0
  H  H45  1  0.80974000  0.89685000  0.28650000  1.0
  H  H46  1  0.19025000  0.39685000  0.21351000  1.0
  H  H47  1  0.19025000  0.60314000  0.78649000  1.0
  H  H48  1  0.43471000  0.03795000  0.80416000  1.0
  H  H49  1  0.43470000  0.96204000  0.19585000  1.0
  H  H50  1  0.56528000  0.46205000  0.30416000  1.0
  H  H51  1  0.56528000  0.53795000  0.69584000  1.0
  H  H52  1  0.76034000  0.03110000  0.81819000  1.0
  H  H53  1  0.76033000  0.96890000  0.18181000  1.0
  H  H54  1  0.23965000  0.46890000  0.31819000  1.0
  H  H55  1  0.23963000  0.53110000  0.68180000  1.0
  H  H56  1  0.80445000  0.16873000  0.81075000  1.0
  H  H57  1  0.80448000  0.83127000  0.18926000  1.0
  H  H58  1  0.19551000  0.33127000  0.31075000  1.0
  H  H59  1  0.19553000  0.66873000  0.68925000  1.0
  H  H60  1  0.61943000  0.13857000  0.87271000  1.0
  H  H61  1  0.61946000  0.86143000  0.12730000  1.0
  H  H62  1  0.38054000  0.36143000  0.37271000  1.0
  H  H63  1  0.38056000  0.63857000  0.62729000  1.0
  H  H64  1  0.28109000  0.05515000  0.70772000  1.0
  H  H65  1  0.28108000  0.94485000  0.29228000  1.0
  H  H66  1  0.71891000  0.44485000  0.20772000  1.0
  H  H67  1  0.71890000  0.55515000  0.79227000  1.0
  H  H68  1  0.24977000  0.05809000  0.54907000  1.0
  H  H69  1  0.24977000  0.94191000  0.45094000  1.0
  H  H70  1  0.75023000  0.44191000  0.04907000  1.0
  H  H71  1  0.75025000  0.55810000  0.95092000  1.0
  H  H72  1  0.07201000  0.06036000  0.61534000  1.0
  H  H73  1  0.07200000  0.93963000  0.38467000  1.0
  H  H74  1  0.92799000  0.43963000  0.11534000  1.0
  H  H75  1  0.92799000  0.56037000  0.88465000  1.0
  C  C76  1  0.21621000  0.86871000  0.61547000  1.0
  C  C77  1  0.21619000  0.13128000  0.38453000  1.0
  C  C78  1  0.78381000  0.63129000  0.11547000  1.0
  C  C79  1  0.78379000  0.36871000  0.88453000  1.0
  C  C80  1  0.37310000  0.85912000  0.56514000  1.0
  C  C81  1  0.37309000  0.14088000  0.43485000  1.0
  C  C82  1  0.62692000  0.64089000  0.06514000  1.0
  C  C83  1  0.62689000  0.35912000  0.93486000  1.0
  C  C84  1  0.98057000  0.76621000  0.58755000  1.0
  C  C85  1  0.98058000  0.23379000  0.41245000  1.0
  C  C86  1  0.01945000  0.73379000  0.08755000  1.0
  C  C87  1  0.01941000  0.26621000  0.91245000  1.0
  C  C88  1  0.13007000  0.75272000  0.53683000  1.0
  C  C89  1  0.13008000  0.24728000  0.46317000  1.0
  C  C90  1  0.86995000  0.74729000  0.03683000  1.0
  C  C91  1  0.86990000  0.25272000  0.96317000  1.0
  C  C92  1  0.33628000  0.79899000  0.52494000  1.0
  C  C93  1  0.33628000  0.20100000  0.47506000  1.0
  C  C94  1  0.66374000  0.70102000  0.02494000  1.0
  C  C95  1  0.66370000  0.29899000  0.97506000  1.0
  C  C96  1  0.50912000  0.78696000  0.47415000  1.0
  C  C97  1  0.50913000  0.21303000  0.52585000  1.0
  C  C98  1  0.49090000  0.71305000  0.97414000  1.0
  C  C99  1  0.49086000  0.28696000  0.02585000  1.0
  C  C100  1  0.51608000  0.72496000  0.43923000  1.0
  C  C101  1  0.51609000  0.27503000  0.56077000  1.0
  C  C102  1  0.48395000  0.77505000  0.93923000  1.0
  C  C103  1  0.48390000  0.22496000  0.06077000  1.0
  C  C104  1  0.68279000  0.71243000  0.38735000  1.0
  C  C105  1  0.68280000  0.28756000  0.61265000  1.0
  C  C106  1  0.31724000  0.78758000  0.88735000  1.0
  C  C107  1  0.31719000  0.21244000  0.11265000  1.0
  C  C108  1  0.89104000  0.75737000  0.37401000  1.0
  C  C109  1  0.89105000  0.24262000  0.62599000  1.0
  C  C110  1  0.10898000  0.74264000  0.87402000  1.0
  C  C111  1  0.10894000  0.25738000  0.12599000  1.0
  C  C112  1  0.03514000  0.74218000  0.32249000  1.0
  C  C113  1  0.03513000  0.25781000  0.67751000  1.0
  C  C114  1  0.96488000  0.75782000  0.82250000  1.0
  C  C115  1  0.96485000  0.24218000  0.17751000  1.0
  C  C116  1  0.63502000  0.65303000  0.34711000  1.0
  C  C117  1  0.63502000  0.34696000  0.65289000  1.0
  C  C118  1  0.36498000  0.84698000  0.84711000  1.0
  C  C119  1  0.36497000  0.15304000  0.15289000  1.0
  C  C120  1  0.78603000  0.64159000  0.29609000  1.0
  C  C121  1  0.78601000  0.35840000  0.70390000  1.0
  C  C122  1  0.21398000  0.85841000  0.79609000  1.0
  C  C123  1  0.21398000  0.14160000  0.20391000  1.0
  C  C124  1  0.79199000  0.98539000  0.71281000  1.0
  C  C125  1  0.79199000  0.01462000  0.28719000  1.0
  C  C126  1  0.20801000  0.51461000  0.21281000  1.0
  C  C127  1  0.20801000  0.48539000  0.78718000  1.0
  C  C128  1  0.67007000  0.06074000  0.72505000  1.0
  C  C129  1  0.67008000  0.93926000  0.27495000  1.0
  C  C130  1  0.32992000  0.43925000  0.22505000  1.0
  C  C131  1  0.32993000  0.56075000  0.77495000  1.0
  C  C132  1  0.61611000  0.06429000  0.79491000  1.0
  C  C133  1  0.61612000  0.93571000  0.20509000  1.0
  C  C134  1  0.38387000  0.43571000  0.29491000  1.0
  C  C135  1  0.38388000  0.56429000  0.70508000  1.0
  C  C136  1  0.62598000  0.14224000  0.82188000  1.0
  C  C137  1  0.62600000  0.85775000  0.17813000  1.0
  C  C138  1  0.37399000  0.35775000  0.32188000  1.0
  C  C139  1  0.37401000  0.64225000  0.67812000  1.0
  C  C140  1  0.41212000  0.19271000  0.80385000  1.0
  C  C141  1  0.41214000  0.80727000  0.19616000  1.0
  C  C142  1  0.58785000  0.30728000  0.30385000  1.0
  C  C143  1  0.58788000  0.69272000  0.69616000  1.0
  C  C144  1  0.46284000  0.06795000  0.62595000  1.0
  C  C145  1  0.46284000  0.93205000  0.37405000  1.0
  C  C146  1  0.53715000  0.43204000  0.12595000  1.0
  C  C147  1  0.53716000  0.56796000  0.87405000  1.0
  N  N148  1  0.02343000  0.82280000  0.62689000  1.0
  N  N149  1  0.02342000  0.17720000  0.37311000  1.0
  N  N150  1  0.97658000  0.67720000  0.12689000  1.0
  N  N151  1  0.97656000  0.32280000  0.87311000  1.0
  N  N152  1  0.98411000  0.68527000  0.28384000  1.0
  N  N153  1  0.98410000  0.31472000  0.71616000  1.0
  N  N154  1  0.01590000  0.81473000  0.78384000  1.0
  N  N155  1  0.01589000  0.18527000  0.21616000  1.0
  N  N156  1  0.44627000  0.07285000  0.68868000  1.0
  N  N157  1  0.44626000  0.92715000  0.31133000  1.0
  N  N158  1  0.55374000  0.42715000  0.18867000  1.0
  N  N159  1  0.55373000  0.57285000  0.81132000  1.0
  N  N160  1  0.24015000  0.06970000  0.59462000  1.0
  N  N161  1  0.24014000  0.93030000  0.40539000  1.0
  N  N162  1  0.75986000  0.43029000  0.09462000  1.0
  N  N163  1  0.75986000  0.56971000  0.90537000  1.0
  O  O164  1  0.64370000  0.92930000  0.70814000  1.0
  O  O165  1  0.64369000  0.07070000  0.29187000  1.0
  O  O166  1  0.35631000  0.57070000  0.20814000  1.0
  O  O167  1  0.35630000  0.42930000  0.79186000  1.0
  O  O168  1  0.02569000  0.98123000  0.71216000  1.0
  O  O169  1  0.02570000  0.01877000  0.28784000  1.0
  O  O170  1  0.97431000  0.51877000  0.21216000  1.0
  O  O171  1  0.97431000  0.48123000  0.78784000  1.0
  O  O172  1  0.46840000  0.26313000  0.80325000  1.0
  O  O173  1  0.46844000  0.73687000  0.19676000  1.0
  O  O174  1  0.53156000  0.23687000  0.30325000  1.0
  O  O175  1  0.53159000  0.76313000  0.69676000  1.0
  O  O176  1  0.19909000  0.16760000  0.79341000  1.0
  O  O177  1  0.19910000  0.83239000  0.20660000  1.0
  O  O178  1  0.80090000  0.33239000  0.29341000  1.0
  O  O179  1  0.80091000  0.66761000  0.70659000  1.0
  O  O180  1  0.66801000  0.06559000  0.59793000  1.0
  O  O181  1  0.66801000  0.93441000  0.40207000  1.0
  O  O182  1  0.33200000  0.43441000  0.09793000  1.0
  O  O183  1  0.33200000  0.56560000  0.90206000  1.0
