# generated using pymatgen
data_CdH8C14(SN2)2
_symmetry_space_group_name_H-M   'P 1'
_cell_length_a   8.91646000
_cell_length_b   8.91646000
_cell_length_c   10.75610000
_cell_angle_alpha   68.69080000
_cell_angle_beta   68.69110000
_cell_angle_gamma   70.82690000
_symmetry_Int_Tables_number   1
_chemical_formula_structural   CdH8C14(SN2)2
_chemical_formula_sum   'Cd2 H16 C28 S4 N8'
_cell_volume   722.97110876
_cell_formula_units_Z   2
loop_
 _symmetry_equiv_pos_site_id
 _symmetry_equiv_pos_as_xyz
  1  'x, y, z'
loop_
 _atom_site_type_symbol
 _atom_site_label
 _atom_site_symmetry_multiplicity
 _atom_site_fract_x
 _atom_site_fract_y
 _atom_site_fract_z
 _atom_site_occupancy
  Cd  Cd0  1  0.88837000  0.11162000  0.25000000  1.0
  Cd  Cd1  1  0.11162000  0.88838000  0.75000000  1.0
  H  H2  1  0.64190000  0.04616000  0.11519000  1.0
  H  H3  1  0.95384000  0.35809000  0.38481000  1.0
  H  H4  1  0.35809000  0.95384000  0.88482000  1.0
  H  H5  1  0.04616000  0.64190000  0.61519000  1.0
  H  H6  1  0.36944000  0.18299000  0.05719000  1.0
  H  H7  1  0.81701000  0.63055000  0.44281000  1.0
  H  H8  1  0.63055000  0.81701000  0.94282000  1.0
  H  H9  1  0.18299000  0.36945000  0.55719000  1.0
  H  H10  1  0.21466000  0.45457000  0.10588000  1.0
  H  H11  1  0.54542000  0.78534000  0.39412000  1.0
  H  H12  1  0.78534000  0.54543000  0.89412000  1.0
  H  H13  1  0.45458000  0.21466000  0.60589000  1.0
  H  H14  1  0.19623000  0.68215000  0.19921000  1.0
  H  H15  1  0.31785000  0.80377000  0.30079000  1.0
  H  H16  1  0.80378000  0.31785000  0.80079000  1.0
  H  H17  1  0.68216000  0.19623000  0.69921000  1.0
  C  C18  1  0.05536000  0.18394000  0.89987000  1.0
  C  C19  1  0.81606000  0.94465000  0.60013000  1.0
  C  C20  1  0.94465000  0.81606000  0.10013000  1.0
  C  C21  1  0.18394000  0.05536000  0.39987000  1.0
  C  C22  1  0.56956000  0.16445000  0.13533000  1.0
  C  C23  1  0.83554000  0.43044000  0.36467000  1.0
  C  C24  1  0.43043000  0.83554000  0.86467000  1.0
  C  C25  1  0.16446000  0.56956000  0.63533000  1.0
  C  C26  1  0.41829000  0.24093000  0.10287000  1.0
  C  C27  1  0.75907000  0.58171000  0.39713000  1.0
  C  C28  1  0.58171000  0.75907000  0.89713000  1.0
  C  C29  1  0.24093000  0.41829000  0.60287000  1.0
  C  C30  1  0.33206000  0.39044000  0.13078000  1.0
  C  C31  1  0.60956000  0.66793000  0.36922000  1.0
  C  C32  1  0.66793000  0.60956000  0.86922000  1.0
  C  C33  1  0.39044000  0.33207000  0.63078000  1.0
  C  C34  1  0.39690000  0.46276000  0.19120000  1.0
  C  C35  1  0.53724000  0.60310000  0.30880000  1.0
  C  C36  1  0.60310000  0.53724000  0.80880000  1.0
  C  C37  1  0.46276000  0.39690000  0.69120000  1.0
  C  C38  1  0.31448000  0.61775000  0.22193000  1.0
  C  C39  1  0.38224000  0.68552000  0.27806000  1.0
  C  C40  1  0.68552000  0.38225000  0.77806000  1.0
  C  C41  1  0.61776000  0.31448000  0.72194000  1.0
  C  C42  1  0.55157000  0.37711000  0.21974000  1.0
  C  C43  1  0.62289000  0.44842000  0.28025000  1.0
  C  C44  1  0.44842000  0.62289000  0.78026000  1.0
  C  C45  1  0.37711000  0.55158000  0.71974000  1.0
  S  S46  1  0.04918000  0.29897000  0.99007000  1.0
  S  S47  1  0.70103000  0.95083000  0.50993000  1.0
  S  S48  1  0.95082000  0.70103000  0.00993000  1.0
  S  S49  1  0.29897000  0.04918000  0.49007000  1.0
  N  N50  1  0.05712000  0.10575000  0.83068000  1.0
  N  N51  1  0.89425000  0.94289000  0.66931000  1.0
  N  N52  1  0.94289000  0.89425000  0.16931000  1.0
  N  N53  1  0.10575000  0.05712000  0.33068000  1.0
  N  N54  1  0.63403000  0.23069000  0.19112000  1.0
  N  N55  1  0.76931000  0.36597000  0.30888000  1.0
  N  N56  1  0.36596000  0.76931000  0.80889000  1.0
  N  N57  1  0.23069000  0.63403000  0.69112000  1.0
