# generated using pymatgen
data_Al4H34C57S2O27
_symmetry_space_group_name_H-M   'P 1'
_cell_length_a   6.67662000
_cell_length_b   21.18520000
_cell_length_c   22.17170000
_cell_angle_alpha   72.52900000
_cell_angle_beta   89.95250000
_cell_angle_gamma   89.11110000
_symmetry_Int_Tables_number   1
_chemical_formula_structural   Al4H34C57S2O27
_chemical_formula_sum   'Al4 H34 C57 S2 O27'
_cell_volume   2991.03298637
_cell_formula_units_Z   1
loop_
 _symmetry_equiv_pos_site_id
 _symmetry_equiv_pos_as_xyz
  1  'x, y, z'
loop_
 _atom_site_type_symbol
 _atom_site_label
 _atom_site_symmetry_multiplicity
 _atom_site_fract_x
 _atom_site_fract_y
 _atom_site_fract_z
 _atom_site_occupancy
  Al  Al0  1  0.89762000  0.49879000  0.49921000  1.0
  Al  Al1  1  0.39944000  0.49752000  0.50346000  1.0
  Al  Al2  1  0.30598000  0.99816000  0.00202000  1.0
  Al  Al3  1  0.80560000  0.99997000  0.99905000  1.0
  H  H4  1  0.76053000  0.80659000  0.81421000  1.0
  H  H5  1  0.74796000  0.87934000  0.88480000  1.0
  H  H6  1  0.38806000  0.89488000  0.87658000  1.0
  H  H7  1  0.40329000  0.82360000  0.80464000  1.0
  H  H8  1  0.79004000  0.67777000  0.69122000  1.0
  H  H9  1  0.81081000  0.60661000  0.61899000  1.0
  H  H10  1  0.45098000  0.62038000  0.61562000  1.0
  H  H11  1  0.43346000  0.69308000  0.68652000  1.0
  H  H12  1  0.42825000  0.61334000  0.32008000  1.0
  H  H13  1  0.72256000  0.79800000  0.28249000  1.0
  H  H14  1  0.46406000  0.70858000  0.22205000  1.0
  H  H15  1  0.74539000  0.88266000  0.17868000  1.0
  H  H16  1  0.33333333  0.81217000  0.14976000  1.0
  H  H17  1  0.36853000  0.32573000  0.65293000  1.0
  H  H18  1  0.21144000  0.22501000  0.72557000  1.0
  H  H19  1  0.99675000  0.27579000  0.78007000  1.0
  H  H20  1  0.23041000  0.12946000  0.82418000  1.0
  H  H21  1  0.84088000  0.17550000  0.85358000  1.0
  H  H22  1  0.25743000  0.19441000  0.18804000  1.0
  H  H23  1  0.24205000  0.12183000  0.11680000  1.0
  H  H24  1  0.88205000  0.09877000  0.12567000  1.0
  H  H25  1  0.90007000  0.17003000  0.19766000  1.0
  H  H26  1  0.32714000  0.35154000  0.28134000  1.0
  H  H27  1  0.34317000  0.42168000  0.35429000  1.0
  H  H28  1  0.94039000  0.34821000  0.41036000  1.0
  H  H29  1  0.01335000  0.42851000  0.74463000  1.0
  H  H30  1  0.91363000  0.46966000  0.66699000  1.0
  H  H31  1  0.17845000  0.45635000  0.67810000  1.0
  H  H32  1  0.79953000  0.18390000  0.32607000  1.0
  H  H33  1  0.93390000  0.80388000  0.40742000  1.0
  H  H34  1  0.63872000  0.58448000  0.46649000  1.0
  H  H35  1  0.14628000  0.41517000  0.54165000  1.0
  H  H36  1  0.56310000  0.91162000  0.02138000  1.0
  H  H37  1  0.05634000  0.08591000  0.97443000  1.0
  C  C38  1  0.65624000  0.40813000  0.59980000  1.0
  C  C39  1  0.64999000  0.43091000  0.43005000  1.0
  C  C40  1  0.14838000  0.59123000  0.40642000  1.0
  C  C41  1  0.14154000  0.56739000  0.57053000  1.0
  C  C42  1  0.89737000  0.82629000  0.82783000  1.0
  C  C43  1  0.89022000  0.86645000  0.86707000  1.0
  C  C44  1  0.06732000  0.89073000  0.88521000  1.0
  C  C45  1  0.25211000  0.87514000  0.86247000  1.0
  C  C46  1  0.26043000  0.83557000  0.82272000  1.0
  C  C47  1  0.08297000  0.80989000  0.80523000  1.0
  C  C48  1  0.09147000  0.76816000  0.76608000  1.0
  C  C49  1  0.09996000  0.73175000  0.73262000  1.0
  C  C50  1  0.93423000  0.66516000  0.67442000  1.0
  C  C51  1  0.94546000  0.62551000  0.63480000  1.0
  C  C52  1  0.13191000  0.60931000  0.61370000  1.0
  C  C53  1  0.30784000  0.63339000  0.63274000  1.0
  C  C54  1  0.29781000  0.67357000  0.67194000  1.0
  C  C55  1  0.11057000  0.69019000  0.69334000  1.0
  C  C56  1  0.15717000  0.65142000  0.34958000  1.0
  C  C57  1  0.04562000  0.85429000  0.15937000  1.0
  C  C58  1  0.85756000  0.80066000  0.25449000  1.0
  C  C59  1  0.86990000  0.84823000  0.19664000  1.0
  C  C60  1  0.20014000  0.80870000  0.17903000  1.0
  C  C61  1  0.18597000  0.75613000  0.23608000  1.0
  C  C62  1  0.01651000  0.75393000  0.27699000  1.0
  C  C63  1  0.01722000  0.70329000  0.33658000  1.0
  C  C64  1  0.31723000  0.65335000  0.30716000  1.0
  C  C65  1  0.33539000  0.70564000  0.25310000  1.0
  C  C66  1  0.67161000  0.35350000  0.66072000  1.0
  C  C67  1  0.53759000  0.14773000  0.84475000  1.0
  C  C68  1  0.34730000  0.21485000  0.75435000  1.0
  C  C69  1  0.35767000  0.16187000  0.80855000  1.0
  C  C70  1  0.70295000  0.18727000  0.82586000  1.0
  C  C71  1  0.69408000  0.24307000  0.77144000  1.0
  C  C72  1  0.51296000  0.25745000  0.73481000  1.0
  C  C73  1  0.50661000  0.31348000  0.68051000  1.0
  C  C74  1  0.85264000  0.33832000  0.69778000  1.0
  C  C75  1  0.85926000  0.28526000  0.75208000  1.0
  C  C76  1  0.39292000  0.17288000  0.17435000  1.0
  C  C77  1  0.38469000  0.13279000  0.13502000  1.0
  C  C78  1  0.56105000  0.10638000  0.11718000  1.0
  C  C79  1  0.74673000  0.11973000  0.14007000  1.0
  C  C80  1  0.75656000  0.15919000  0.17984000  1.0
  C  C81  1  0.57956000  0.18682000  0.19706000  1.0
  C  C82  1  0.59083000  0.22861000  0.23609000  1.0
  C  C83  1  0.60449000  0.26621000  0.26820000  1.0
  C  C84  1  0.46060000  0.35165000  0.30946000  1.0
  C  C85  1  0.47057000  0.39074000  0.34960000  1.0
  C  C86  1  0.64326000  0.39014000  0.38560000  1.0
  C  C87  1  0.80679000  0.34921000  0.38192000  1.0
  C  C88  1  0.79411000  0.30837000  0.34345000  1.0
  C  C89  1  0.62110000  0.30885000  0.30615000  1.0
  C  C90  1  0.55457000  0.06570000  0.07270000  1.0
  C  C91  1  0.54772000  0.09114000  0.90396000  1.0
  C  C92  1  0.06043000  0.93161000  0.92932000  1.0
  C  C93  1  0.05641000  0.90819000  0.09809000  1.0
  C  C94  1  0.03102000  0.43572000  0.69360000  1.0
  S  S95  1  0.99954000  0.25426000  0.34189000  1.0
  S  S96  1  0.85826000  0.70913000  0.40052000  1.0
  O  O97  1  0.48137000  0.44566000  0.44942000  1.0
  O  O98  1  0.81904000  0.42924000  0.57182000  1.0
  O  O99  1  0.97478000  0.55075000  0.55260000  1.0
  O  O100  1  0.82218000  0.44627000  0.44532000  1.0
  O  O101  1  0.97691000  0.56800000  0.42466000  1.0
  O  O102  1  0.48179000  0.42910000  0.57882000  1.0
  O  O103  1  0.64625000  0.53860000  0.49303000  1.0
  O  O104  1  0.31574000  0.56699000  0.42949000  1.0
  O  O105  1  0.31515000  0.55149000  0.55525000  1.0
  O  O106  1  0.15038000  0.45787000  0.50941000  1.0
  O  O107  1  0.72061000  0.07059000  0.92665000  1.0
  O  O108  1  0.38348000  0.05018000  0.05646000  1.0
  O  O109  1  0.22868000  0.92738000  0.07594000  1.0
  O  O110  1  0.38118000  0.06810000  0.92832000  1.0
  O  O111  1  0.22824000  0.94596000  0.94881000  1.0
  O  O112  1  0.72338000  0.05063000  0.05359000  1.0
  O  O113  1  0.55825000  0.95948000  0.00711000  1.0
  O  O114  1  0.88817000  0.94814000  0.94513000  1.0
  O  O115  1  0.88884000  0.93040000  0.07263000  1.0
  O  O116  1  0.05484000  0.03855000  0.99453000  1.0
  O  O117  1  0.02687000  0.37304000  0.68102000  1.0
  O  O118  1  0.07195000  0.26973000  0.27775000  1.0
  O  O119  1  0.13386000  0.25167000  0.39301000  1.0
  O  O120  1  0.89588000  0.18302000  0.36028000  1.0
  O  O121  1  0.66126000  0.68475000  0.39527000  1.0
  O  O122  1  0.97298000  0.68758000  0.45822000  1.0
  O  O123  1  0.82619000  0.78835000  0.38574000  1.0
