# generated using pymatgen
data_ZnH4C2(N2O)4
_symmetry_space_group_name_H-M   'P 1'
_cell_length_a   5.54861000
_cell_length_b   6.36702000
_cell_length_c   10.55300000
_cell_angle_alpha   90.00000000
_cell_angle_beta   90.00020000
_cell_angle_gamma   92.29700000
_symmetry_Int_Tables_number   1
_chemical_formula_structural   ZnH4C2(N2O)4
_chemical_formula_sum   'Zn2 H8 C4 N16 O8'
_cell_volume   372.51799296
_cell_formula_units_Z   2
loop_
 _symmetry_equiv_pos_site_id
 _symmetry_equiv_pos_as_xyz
  1  'x, y, z'
loop_
 _atom_site_type_symbol
 _atom_site_label
 _atom_site_symmetry_multiplicity
 _atom_site_fract_x
 _atom_site_fract_y
 _atom_site_fract_z
 _atom_site_occupancy
  Zn  Zn0  1  0.50000000  0.00000000  0.50000000  1.0
  Zn  Zn1  1  0.00000000  0.00000000  0.00000000  1.0
  H  H2  1  0.74967000  0.06616000  0.72422000  1.0
  H  H3  1  0.75033000  0.93384000  0.22422000  1.0
  H  H4  1  0.25033000  0.93384000  0.27578000  1.0
  H  H5  1  0.24967000  0.06617000  0.77578000  1.0
  H  H6  1  0.88192000  0.88520000  0.64725000  1.0
  H  H7  1  0.61808000  0.11481000  0.14725000  1.0
  H  H8  1  0.11808000  0.11481000  0.35275000  1.0
  H  H9  1  0.38191000  0.88519000  0.85275000  1.0
  C  C10  1  0.60226000  0.47439000  0.46318000  1.0
  C  C11  1  0.89777000  0.52560000  0.96319000  1.0
  C  C12  1  0.39776000  0.52562000  0.53681000  1.0
  C  C13  1  0.10224000  0.47439000  0.03681000  1.0
  N  N14  1  0.69256000  0.28367000  0.44889000  1.0
  N  N15  1  0.80744000  0.71633000  0.94890000  1.0
  N  N16  1  0.30746000  0.71633000  0.55110000  1.0
  N  N17  1  0.19255000  0.28367000  0.05110000  1.0
  N  N18  1  0.88993000  0.30849000  0.37660000  1.0
  N  N19  1  0.61007000  0.69150000  0.87660000  1.0
  N  N20  1  0.11007000  0.69150000  0.62340000  1.0
  N  N21  1  0.38993000  0.30849000  0.12340000  1.0
  N  N22  1  0.92664000  0.50616000  0.34365000  1.0
  N  N23  1  0.57335000  0.49383000  0.84365000  1.0
  N  N24  1  0.07335000  0.49384000  0.65635000  1.0
  N  N25  1  0.42665000  0.50616000  0.15635000  1.0
  N  N26  1  0.74606000  0.61265000  0.39633000  1.0
  N  N27  1  0.75393000  0.38736000  0.89634000  1.0
  N  N28  1  0.25394000  0.38736000  0.60367000  1.0
  N  N29  1  0.24606000  0.61264000  0.10367000  1.0
  O  O30  1  0.72481000  0.81397000  0.37906000  1.0
  O  O31  1  0.77518000  0.18605000  0.87907000  1.0
  O  O32  1  0.27517000  0.18605000  0.62093000  1.0
  O  O33  1  0.22482000  0.81395000  0.12094000  1.0
  O  O34  1  0.73178000  0.96463000  0.65372000  1.0
  O  O35  1  0.76821000  0.03537000  0.15372000  1.0
  O  O36  1  0.26822000  0.03537000  0.34628000  1.0
  O  O37  1  0.23178000  0.96463000  0.84628000  1.0
