# generated using pymatgen
data_Al2H24C29O10
_symmetry_space_group_name_H-M   'P 1'
_cell_length_a   6.64959000
_cell_length_b   17.37420000
_cell_length_c   19.02320000
_cell_angle_alpha   70.30850000
_cell_angle_beta   89.99320000
_cell_angle_gamma   89.98920000
_symmetry_Int_Tables_number   1
_chemical_formula_structural   Al2H24C29O10
_chemical_formula_sum   'Al4 H48 C58 O20'
_cell_volume   2069.25041471
_cell_formula_units_Z   2
loop_
 _symmetry_equiv_pos_site_id
 _symmetry_equiv_pos_as_xyz
  1  'x, y, z'
loop_
 _atom_site_type_symbol
 _atom_site_label
 _atom_site_symmetry_multiplicity
 _atom_site_fract_x
 _atom_site_fract_y
 _atom_site_fract_z
 _atom_site_occupancy
  Al  Al0  1  0.86618000  0.49917000  0.50072000  1.0
  Al  Al1  1  0.36617000  0.50085000  0.49928000  1.0
  Al  Al2  1  0.36314000  0.99810000  0.00197000  1.0
  Al  Al3  1  0.86316000  0.00189000  0.99806000  1.0
  H  H4  1  0.82596000  0.91514000  0.81840000  1.0
  H  H5  1  0.32593000  0.08496000  0.18158000  1.0
  H  H6  1  0.40141000  0.81627000  0.90657000  1.0
  H  H7  1  0.90149000  0.18368000  0.09344000  1.0
  H  H8  1  0.55948000  0.70660000  0.86729000  1.0
  H  H9  1  0.05950000  0.29337000  0.13265000  1.0
  H  H10  1  0.56021000  0.62192000  0.78573000  1.0
  H  H11  1  0.06027000  0.37806000  0.21421000  1.0
  H  H12  1  0.40442000  0.58477000  0.68169000  1.0
  H  H13  1  0.90457000  0.41520000  0.31828000  1.0
  H  H14  1  0.82642000  0.68204000  0.59497000  1.0
  H  H15  1  0.32655000  0.31802000  0.40504000  1.0
  H  H16  1  0.66814000  0.79155000  0.63428000  1.0
  H  H17  1  0.16824000  0.20854000  0.36574000  1.0
  H  H18  1  0.66804000  0.87664000  0.71554000  1.0
  H  H19  1  0.16806000  0.12347000  0.28446000  1.0
  H  H20  1  0.36539000  0.85580000  0.23036000  1.0
  H  H21  1  0.86684000  0.14462000  0.76997000  1.0
  H  H22  1  0.13362000  0.88741000  0.25711000  1.0
  H  H23  1  0.63612000  0.11253000  0.74290000  1.0
  H  H24  1  0.14116000  0.77672000  0.36812000  1.0
  H  H25  1  0.64325000  0.22323000  0.63191000  1.0
  H  H26  1  0.37111000  0.74368000  0.34128000  1.0
  H  H27  1  0.87235000  0.25667000  0.65896000  1.0
  H  H28  1  0.38110000  0.76152000  0.16439000  1.0
  H  H29  1  0.87973000  0.23883000  0.83599000  1.0
  H  H30  1  0.37315000  0.64496000  0.26904000  1.0
  H  H31  1  0.87197000  0.35531000  0.73127000  1.0
  H  H32  1  0.80833000  0.77000000  0.16855000  1.0
  H  H33  1  0.30705000  0.22928000  0.83095000  1.0
  H  H34  1  0.80826000  0.83740000  0.21931000  1.0
  H  H35  1  0.30927000  0.16203000  0.78005000  1.0
  H  H36  1  0.80970000  0.72623000  0.33044000  1.0
  H  H37  1  0.31043000  0.27342000  0.66909000  1.0
  H  H38  1  0.81388000  0.65858000  0.27960000  1.0
  H  H39  1  0.31317000  0.34093000  0.72008000  1.0
  H  H40  1  0.14301000  0.61363000  0.24070000  1.0
  H  H41  1  0.64101000  0.38639000  0.75926000  1.0
  H  H42  1  0.24247000  0.66649000  0.10334000  1.0
  H  H43  1  0.99406000  0.69530000  0.11730000  1.0
  H  H44  1  0.16046000  0.76809000  0.05680000  1.0
  H  H45  1  0.73855000  0.33371000  0.89673000  1.0
  H  H46  1  0.49082000  0.30452000  0.88237000  1.0
  H  H47  1  0.65721000  0.23200000  0.94320000  1.0
  H  H48  1  0.61927000  0.60574000  0.45752000  1.0
  H  H49  1  0.11934000  0.39431000  0.54262000  1.0
  H  H50  1  0.61985000  0.89418000  0.04215000  1.0
  H  H51  1  0.11973000  0.10580000  0.95779000  1.0
  C  C52  1  0.61436000  0.38453000  0.61575000  1.0
  C  C53  1  0.11437000  0.61546000  0.38423000  1.0
  C  C54  1  0.61637000  0.41999000  0.41696000  1.0
  C  C55  1  0.11629000  0.58002000  0.58303000  1.0
  C  C56  1  0.95161000  0.87474000  0.81846000  1.0
  C  C57  1  0.45160000  0.12532000  0.18152000  1.0
  C  C58  1  0.11379000  0.87003000  0.86664000  1.0
  C  C59  1  0.61384000  0.12998000  0.13336000  1.0
  C  C60  1  0.27627000  0.81801000  0.86900000  1.0
  C  C61  1  0.77633000  0.18197000  0.13099000  1.0
  C  C62  1  0.27707000  0.76776000  0.82472000  1.0
  C  C63  1  0.77713000  0.23224000  0.17525000  1.0
  C  C64  1  0.11403000  0.77366000  0.77404000  1.0
  C  C65  1  0.61408000  0.22637000  0.22595000  1.0
  C  C66  1  0.95102000  0.82877000  0.77036000  1.0
  C  C67  1  0.45105000  0.17129000  0.22963000  1.0
  C  C68  1  0.43614000  0.71079000  0.82832000  1.0
  C  C69  1  0.93617000  0.28920000  0.17164000  1.0
  C  C70  1  0.43643000  0.66401000  0.78331000  1.0
  C  C71  1  0.93649000  0.33598000  0.21666000  1.0
  C  C72  1  0.27751000  0.66994000  0.73073000  1.0
  C  C73  1  0.77761000  0.33005000  0.26925000  1.0
  C  C74  1  0.11410000  0.72479000  0.72731000  1.0
  C  C75  1  0.61419000  0.27523000  0.27268000  1.0
  C  C76  1  0.95093000  0.73065000  0.67669000  1.0
  C  C77  1  0.45101000  0.26939000  0.32331000  1.0
  C  C78  1  0.79165000  0.78751000  0.67316000  1.0
  C  C79  1  0.29173000  0.21256000  0.32685000  1.0
  C  C80  1  0.79174000  0.83451000  0.71797000  1.0
  C  C81  1  0.29178000  0.16558000  0.28202000  1.0
  C  C82  1  0.27784000  0.62457000  0.68209000  1.0
  C  C83  1  0.77795000  0.37542000  0.31790000  1.0
  C  C84  1  0.11537000  0.62915000  0.63407000  1.0
  C  C85  1  0.61554000  0.37086000  0.36593000  1.0
  C  C86  1  0.95199000  0.68056000  0.63229000  1.0
  C  C87  1  0.45211000  0.31948000  0.36771000  1.0
  C  C88  1  0.21233000  0.83520000  0.24927000  1.0
  C  C89  1  0.71370000  0.16491000  0.75083000  1.0
  C  C90  1  0.21602000  0.76140000  0.32295000  1.0
  C  C91  1  0.71729000  0.23869000  0.67715000  1.0
  C  C92  1  0.22504000  0.73964000  0.17595000  1.0
  C  C93  1  0.72358000  0.26049000  0.82416000  1.0
  C  C94  1  0.88890000  0.78513000  0.21257000  1.0
  C  C95  1  0.38880000  0.21441000  0.78702000  1.0
  C  C96  1  0.10504000  0.81159000  0.18731000  1.0
  C  C97  1  0.60491000  0.18833000  0.81264000  1.0
  C  C98  1  0.10849000  0.68758000  0.31165000  1.0
  C  C99  1  0.60850000  0.31235000  0.68830000  1.0
  C  C100  1  0.22021000  0.66555000  0.24983000  1.0
  C  C101  1  0.71898000  0.33455000  0.75026000  1.0
  C  C102  1  0.89098000  0.71166000  0.28619000  1.0
  C  C103  1  0.39096000  0.28798000  0.71348000  1.0
  C  C104  1  0.61257000  0.08036000  0.08278000  1.0
  C  C105  1  0.11242000  0.91962000  0.91725000  1.0
  C  C106  1  0.60978000  0.11559000  0.88459000  1.0
  C  C107  1  0.11004000  0.88437000  0.11540000  1.0
  C  C108  1  0.15103000  0.71651000  0.10957000  1.0
  C  C109  1  0.64798000  0.28354000  0.89039000  1.0
  O  O110  1  0.44561000  0.43754000  0.43788000  1.0
  O  O111  1  0.94547000  0.56246000  0.56213000  1.0
  O  O112  1  0.78639000  0.41088000  0.58848000  1.0
  O  O113  1  0.28632000  0.58912000  0.41151000  1.0
  O  O114  1  0.78752000  0.43892000  0.43642000  1.0
  O  O115  1  0.28739000  0.56110000  0.56358000  1.0
  O  O116  1  0.94687000  0.58662000  0.41349000  1.0
  O  O117  1  0.44694000  0.41339000  0.58651000  1.0
  O  O118  1  0.61660000  0.54954000  0.49080000  1.0
  O  O119  1  0.11662000  0.45047000  0.50922000  1.0
  O  O120  1  0.78254000  0.08914000  0.91066000  1.0
  O  O121  1  0.28276000  0.91110000  0.08958000  1.0
  O  O122  1  0.44151000  0.05849000  0.06611000  1.0
  O  O123  1  0.94130000  0.94181000  0.93363000  1.0
  O  O124  1  0.44310000  0.08635000  0.91452000  1.0
  O  O125  1  0.94336000  0.91341000  0.08525000  1.0
  O  O126  1  0.28228000  0.93426000  0.94110000  1.0
  O  O127  1  0.78262000  0.06539000  0.05925000  1.0
  O  O128  1  0.61463000  0.95046000  0.00911000  1.0
  O  O129  1  0.11461000  0.04955000  0.99089000  1.0
