# generated using pymatgen
data_Al2H15C18S2ClO10
_symmetry_space_group_name_H-M   'P 1'
_cell_length_a   6.63672000
_cell_length_b   10.97370000
_cell_length_c   12.68705161
_cell_angle_alpha   91.02825723
_cell_angle_beta   103.93066943
_cell_angle_gamma   107.58530000
_symmetry_Int_Tables_number   1
_chemical_formula_structural   Al2H15C18S2ClO10
_chemical_formula_sum   'Al2 H15 C18 S2 Cl1 O10'
_cell_volume   850.78775392
_cell_formula_units_Z   1
loop_
 _symmetry_equiv_pos_site_id
 _symmetry_equiv_pos_as_xyz
  1  'x, y, z'
loop_
 _atom_site_type_symbol
 _atom_site_label
 _atom_site_symmetry_multiplicity
 _atom_site_fract_x
 _atom_site_fract_y
 _atom_site_fract_z
 _atom_site_occupancy
  Al  Al0  1  0.00195000  0.49335000  0.50202000  1.0
  Al  Al1  1  0.50515000  0.49979000  0.50257000  1.0
  H  H2  1  0.15658000  0.41633000  0.37113000  1.0
  H  H3  1  0.86862000  0.65245000  0.56593000  1.0
  H  H4  1  0.08603000  0.40934000  0.85517000  1.0
  H  H5  1  0.59616000  0.90117000  0.67427000  1.0
  H  H6  1  0.77167000  0.90376000  0.58869000  1.0
  H  H7  1  0.86987000  0.12819000  0.60540000  1.0
  H  H8  1  0.67219000  0.12315000  0.67867000  1.0
  H  H9  1  0.75844000  0.09865000  0.40129000  1.0
  H  H10  1  0.49560000  0.09702000  0.32742000  1.0
  H  H11  1  0.62689000  0.87344000  0.38461000  1.0
  H  H12  1  0.35787000  0.87439000  0.32464000  1.0
  H  H13  1  0.20430000  0.89671000  0.58771000  1.0
  H  H14  1  0.10003000  0.87331000  0.44498000  1.0
  H  H15  1  0.21003000  0.09550000  0.43343000  1.0
  H  H16  1  0.28817000  0.11810000  0.57645000  1.0
  C  C17  1  0.62783000  0.26874000  0.50487000  1.0
  C  C18  1  0.67166000  0.49694000  0.30483000  1.0
  C  C19  1  0.37341000  0.72837000  0.50135000  1.0
  C  C20  1  0.33169000  0.49293000  0.69581000  1.0
  C  C21  1  0.74012000  0.54328000  0.11461000  1.0
  C  C22  1  0.26315000  0.44874000  0.88412000  1.0
  C  C23  1  0.61023000  0.49775000  0.18569000  1.0
  C  C24  1  0.39626000  0.49216000  0.81497000  1.0
  C  C25  1  0.38925000  0.46452000  0.99345000  1.0
  C  C26  1  0.61492000  0.52267000  0.00480000  1.0
  C  C27  1  0.63504000  0.93589000  0.59843000  1.0
  C  C28  1  0.69675000  0.08424000  0.60393000  1.0
  C  C29  1  0.55333000  0.12337000  0.50350000  1.0
  C  C30  1  0.58425000  0.06325000  0.39980000  1.0
  C  C31  1  0.50060000  0.91488000  0.39469000  1.0
  C  C32  1  0.43487000  0.87349000  0.50063000  1.0
  C  C33  1  0.24628000  0.92291000  0.51067000  1.0
  C  C34  1  0.31237000  0.07009000  0.50601000  1.0
  S  S35  1  0.33459000  0.43293000  0.11792000  1.0
  S  S36  1  0.67374000  0.55322000  0.88120000  1.0
  Cl  Cl37  1  0.01518000  0.62214000  0.15091000  1.0
  O  O38  1  0.81175000  0.32169000  0.48431000  1.0
  O  O39  1  0.51463000  0.47450000  0.35130000  1.0
  O  O40  1  0.51154000  0.67547000  0.48484000  1.0
  O  O41  1  0.12915000  0.46616000  0.64900000  1.0
  O  O42  1  0.19098000  0.66952000  0.52102000  1.0
  O  O43  1  0.48820000  0.52292000  0.64943000  1.0
  O  O44  1  0.50258000  0.32847000  0.52520000  1.0
  O  O45  1  0.87243000  0.51558000  0.35148000  1.0
  O  O46  1  0.20182000  0.43911000  0.44936000  1.0
  O  O47  1  0.80860000  0.55986000  0.54997000  1.0
