# generated using pymatgen
data_Cu2H16C15(SI)2
_symmetry_space_group_name_H-M   'P 1'
_cell_length_a   12.10700000
_cell_length_b   12.22310000
_cell_length_c   14.67288864
_cell_angle_alpha   110.95368122
_cell_angle_beta   96.93696704
_cell_angle_gamma   113.98000000
_symmetry_Int_Tables_number   1
_chemical_formula_structural   Cu2H16C15(SI)2
_chemical_formula_sum   'Cu8 H64 C60 S8 I8'
_cell_volume   1760.33941108
_cell_formula_units_Z   4
loop_
 _symmetry_equiv_pos_site_id
 _symmetry_equiv_pos_as_xyz
  1  'x, y, z'
loop_
 _atom_site_type_symbol
 _atom_site_label
 _atom_site_symmetry_multiplicity
 _atom_site_fract_x
 _atom_site_fract_y
 _atom_site_fract_z
 _atom_site_occupancy
  Cu  Cu0  1  0.02570000  0.40227000  0.27066000  1.0
  Cu  Cu1  1  0.13141000  0.25669000  0.22755000  1.0
  Cu  Cu2  1  0.97431000  0.59774000  0.72934000  1.0
  Cu  Cu3  1  0.86859000  0.74331000  0.77245000  1.0
  Cu  Cu4  1  0.87964000  0.14864000  0.15402000  1.0
  Cu  Cu5  1  0.99348000  0.22598000  0.34509000  1.0
  Cu  Cu6  1  0.12036000  0.85136000  0.84598000  1.0
  Cu  Cu7  1  0.00653000  0.77403000  0.65491000  1.0
  H  H8  1  0.12807000  0.67869000  0.48111000  1.0
  H  H9  1  0.19942000  0.14663000  0.01756000  1.0
  H  H10  1  0.87193000  0.32131000  0.51889000  1.0
  H  H11  1  0.80059000  0.85338000  0.98245000  1.0
  H  H12  1  0.96376000  0.56301000  0.44676000  1.0
  H  H13  1  0.11647000  0.02079000  0.05545000  1.0
  H  H14  1  0.03624000  0.43699000  0.55324000  1.0
  H  H15  1  0.88353000  0.97921000  0.94455000  1.0
  H  H16  1  0.28275000  0.73961000  0.41972000  1.0
  H  H17  1  0.32148000  0.36166000  0.07807000  1.0
  H  H18  1  0.71725000  0.26040000  0.58029000  1.0
  H  H19  1  0.67852000  0.63834000  0.92194000  1.0
  H  H20  1  0.46177000  0.92387000  0.41069000  1.0
  H  H21  1  0.51421000  0.55115000  0.08831000  1.0
  H  H22  1  0.53822000  0.07613000  0.58931000  1.0
  H  H23  1  0.48578000  0.44884000  0.91169000  1.0
  H  H24  1  0.45917000  0.01222000  0.20011000  1.0
  H  H25  1  0.80924000  0.75566000  0.29933000  1.0
  H  H26  1  0.54083000  0.98778000  0.79989000  1.0
  H  H27  1  0.19076000  0.24434000  0.70068000  1.0
  H  H28  1  0.55056000  0.05548000  0.32409000  1.0
  H  H29  1  0.73059000  0.72585000  0.17556000  1.0
  H  H30  1  0.44943000  0.94451000  0.67591000  1.0
  H  H31  1  0.26941000  0.27415000  0.82445000  1.0
  H  H32  1  0.45136000  0.12678000  0.31047000  1.0
  H  H33  1  0.81812000  0.64272000  0.18863000  1.0
  H  H34  1  0.54864000  0.87322000  0.68953000  1.0
  H  H35  1  0.18188000  0.35728000  0.81138000  1.0
  H  H36  1  0.21152000  0.88909000  0.15499000  1.0
  H  H37  1  0.73174000  0.55405000  0.34452000  1.0
  H  H38  1  0.78847000  0.11090000  0.84501000  1.0
  H  H39  1  0.26826000  0.44595000  0.65548000  1.0
  H  H40  1  0.02939000  0.71209000  0.16846000  1.0
  H  H41  1  0.54208000  0.35797000  0.33019000  1.0
  H  H42  1  0.97061000  0.28790000  0.83154000  1.0
  H  H43  1  0.45792000  0.64203000  0.66981000  1.0
  H  H44  1  0.24048000  0.96521000  0.65654000  1.0
  H  H45  1  0.31158000  0.08470000  0.84206000  1.0
  H  H46  1  0.75953000  0.03480000  0.34346000  1.0
  H  H47  1  0.68842000  0.91530000  0.15794000  1.0
  H  H48  1  0.42147000  0.17176000  0.67242000  1.0
  H  H49  1  0.50296000  0.25222000  0.82686000  1.0
  H  H50  1  0.57852000  0.82824000  0.32757000  1.0
  H  H51  1  0.49703000  0.74777000  0.17313000  1.0
  H  H52  1  0.41117000  0.33375000  0.50263000  1.0
  H  H53  1  0.83295000  0.41080000  0.99651000  1.0
  H  H54  1  0.58883000  0.66626000  0.49737000  1.0
  H  H55  1  0.16705000  0.58920000  0.00349000  1.0
  H  H56  1  0.49904000  0.35413000  0.61939000  1.0
  H  H57  1  0.73810000  0.38348000  0.87978000  1.0
  H  H58  1  0.50096000  0.64586000  0.38060000  1.0
  H  H59  1  0.26190000  0.61652000  0.12022000  1.0
  H  H60  1  0.50408000  0.25265000  0.50047000  1.0
  H  H61  1  0.75032000  0.50225000  0.99875000  1.0
  H  H62  1  0.49592000  0.74736000  0.49953000  1.0
  H  H63  1  0.24968000  0.49775000  0.00125000  1.0
  H  H64  1  0.20826000  0.12411000  0.39139000  1.0
  H  H65  1  0.73203000  0.31571000  0.10783000  1.0
  H  H66  1  0.79174000  0.87589000  0.60861000  1.0
  H  H67  1  0.26797000  0.68428000  0.89216000  1.0
  H  H68  1  0.02731000  0.92088000  0.37630000  1.0
  H  H69  1  0.54344000  0.14797000  0.12240000  1.0
  H  H70  1  0.97270000  0.07912000  0.62370000  1.0
  H  H71  1  0.45656000  0.85203000  0.87760000  1.0
  C  C72  1  0.03167000  0.65002000  0.43936000  1.0
  C  C73  1  0.21139000  0.09276000  0.06042000  1.0
  C  C74  1  0.96833000  0.34998000  0.56064000  1.0
  C  C75  1  0.78861000  0.90723000  0.93958000  1.0
  C  C76  1  0.14374000  0.71626000  0.29633000  1.0
  C  C77  1  0.42014000  0.34510000  0.20170000  1.0
  C  C78  1  0.85626000  0.28373000  0.70367000  1.0
  C  C79  1  0.57986000  0.65489000  0.79830000  1.0
  C  C80  1  0.26605000  0.77413000  0.36312000  1.0
  C  C81  1  0.41193000  0.40130000  0.13489000  1.0
  C  C82  1  0.73395000  0.22587000  0.63688000  1.0
  C  C83  1  0.58807000  0.59869000  0.86511000  1.0
  C  C84  1  0.36693000  0.87710000  0.35713000  1.0
  C  C85  1  0.52054000  0.50881000  0.14152000  1.0
  C  C86  1  0.63306000  0.12290000  0.64287000  1.0
  C  C87  1  0.47945000  0.49119000  0.85848000  1.0
  C  C88  1  0.34956000  0.92147000  0.28335000  1.0
  C  C89  1  0.63768000  0.56494000  0.21573000  1.0
  C  C90  1  0.65044000  0.07853000  0.71665000  1.0
  C  C91  1  0.36233000  0.43506000  0.78428000  1.0
  C  C92  1  0.45873000  0.03455000  0.27943000  1.0
  C  C93  1  0.75451000  0.67850000  0.21996000  1.0
  C  C94  1  0.54127000  0.96545000  0.72057000  1.0
  C  C95  1  0.24548000  0.32149000  0.78004000  1.0
  C  C96  1  0.22715000  0.85827000  0.21436000  1.0
  C  C97  1  0.64259000  0.51062000  0.28467000  1.0
  C  C98  1  0.77285000  0.14173000  0.78564000  1.0
  C  C99  1  0.35742000  0.48939000  0.71534000  1.0
  C  C100  1  0.12456000  0.75764000  0.22113000  1.0
  C  C101  1  0.53553000  0.40090000  0.27744000  1.0
  C  C102  1  0.87544000  0.24236000  0.77887000  1.0
  C  C103  1  0.46447000  0.59909000  0.72256000  1.0
  C  C104  1  0.12391000  0.92837000  0.51421000  1.0
  C  C105  1  0.41528000  0.10791000  0.98411000  1.0
  C  C106  1  0.87609000  0.07164000  0.48579000  1.0
  C  C107  1  0.58472000  0.89209000  0.01589000  1.0
  C  C108  1  0.23445000  0.00019000  0.59833000  1.0
  C  C109  1  0.40407000  0.13616000  0.90020000  1.0
  C  C110  1  0.76554000  0.99981000  0.40166000  1.0
  C  C111  1  0.59593000  0.86385000  0.09980000  1.0
  C  C112  1  0.33557000  0.11554000  0.60661000  1.0
  C  C113  1  0.51133000  0.23025000  0.89233000  1.0
  C  C114  1  0.66443000  0.88447000  0.39339000  1.0
  C  C115  1  0.48867000  0.76975000  0.10767000  1.0
  C  C116  1  0.32941000  0.16134000  0.53211000  1.0
  C  C117  1  0.63053000  0.29782000  0.96691000  1.0
  C  C118  1  0.67059000  0.83866000  0.46789000  1.0
  C  C119  1  0.36947000  0.70217000  0.03308000  1.0
  C  C120  1  0.44134000  0.28214000  0.53943000  1.0
  C  C121  1  0.74392000  0.40334000  0.95974000  1.0
  C  C122  1  0.55866000  0.71786000  0.46057000  1.0
  C  C123  1  0.25609000  0.59666000  0.04026000  1.0
  C  C124  1  0.21670000  0.08965000  0.44970000  1.0
  C  C125  1  0.64017000  0.26603000  0.04924000  1.0
  C  C126  1  0.78330000  0.91036000  0.55030000  1.0
  C  C127  1  0.35983000  0.73397000  0.95076000  1.0
  C  C128  1  0.11432000  0.97470000  0.44074000  1.0
  C  C129  1  0.53399000  0.17148000  0.05786000  1.0
  C  C130  1  0.88568000  0.02530000  0.55925000  1.0
  C  C131  1  0.46602000  0.82853000  0.94214000  1.0
  S  S132  1  0.00837000  0.58974000  0.30251000  1.0
  S  S133  1  0.28741000  0.20499000  0.19667000  1.0
  S  S134  1  0.99164000  0.41026000  0.69749000  1.0
  S  S135  1  0.71258000  0.79500000  0.80333000  1.0
  S  S136  1  0.99164000  0.78100000  0.50077000  1.0
  S  S137  1  0.28067000  0.99047000  0.99887000  1.0
  S  S138  1  0.00836000  0.21900000  0.49923000  1.0
  S  S139  1  0.71933000  0.00953000  0.00113000  1.0
  I  I140  1  0.79609000  0.26781000  0.29691000  1.0
  I  I141  1  0.96992000  0.00204000  0.20423000  1.0
  I  I142  1  0.20391000  0.73219000  0.70309000  1.0
  I  I143  1  0.03008000  0.99796000  0.79577000  1.0
  I  I144  1  0.03744000  0.30472000  0.07983000  1.0
  I  I145  1  0.22357000  0.45547000  0.41676000  1.0
  I  I146  1  0.96256000  0.69528000  0.92017000  1.0
  I  I147  1  0.77643000  0.54453000  0.58324000  1.0
