# generated using pymatgen
data_Zr3H28C44S5O31
_symmetry_space_group_name_H-M   'P 1'
_cell_length_a   19.02150000
_cell_length_b   19.02148852
_cell_length_c   19.02820000
_cell_angle_alpha   60.25316888
_cell_angle_beta   60.25470000
_cell_angle_gamma   90.56823437
_symmetry_Int_Tables_number   1
_chemical_formula_structural   Zr3H28C44S5O31
_chemical_formula_sum   'Zr6 H56 C88 S10 O62'
_cell_volume   4881.24784348
_cell_formula_units_Z   2
loop_
 _symmetry_equiv_pos_site_id
 _symmetry_equiv_pos_as_xyz
  1  'x, y, z'
loop_
 _atom_site_type_symbol
 _atom_site_label
 _atom_site_symmetry_multiplicity
 _atom_site_fract_x
 _atom_site_fract_y
 _atom_site_fract_z
 _atom_site_occupancy
  Zr  Zr0  1  0.58913000  0.58994000  0.50594000  1.0
  Zr  Zr1  1  0.40949000  0.41039000  0.49453000  1.0
  Zr  Zr2  1  0.59568000  0.59687000  0.31419000  1.0
  Zr  Zr3  1  0.40261000  0.40379000  0.68634000  1.0
  Zr  Zr4  1  0.40730000  0.59220000  0.50026000  1.0
  Zr  Zr5  1  0.59121000  0.40829000  0.50020000  1.0
  H  H6  1  0.57331000  0.71875000  0.35942000  1.0
  H  H7  1  0.28070000  0.42618000  0.64113000  1.0
  H  H8  1  0.57558000  0.43142000  0.35125000  1.0
  H  H9  1  0.56810000  0.42384000  0.64923000  1.0
  H  H10  1  0.39475000  0.04636000  0.48922000  1.0
  H  H11  1  0.60787000  0.95754000  0.50302000  1.0
  H  H12  1  0.36054000  0.78039000  0.57071000  1.0
  H  H13  1  0.34710000  0.90143000  0.58642000  1.0
  H  H14  1  0.56736000  0.15225000  0.56607000  1.0
  H  H15  1  0.55863000  0.01165000  0.59096000  1.0
  H  H16  1  0.04196000  0.39164000  0.49735000  1.0
  H  H17  1  0.95307000  0.60463000  0.51131000  1.0
  H  H18  1  0.84733000  0.43237000  0.43404000  1.0
  H  H19  1  0.98793000  0.44104000  0.40917000  1.0
  H  H20  1  0.21905000  0.63895000  0.42975000  1.0
  H  H21  1  0.09804000  0.65239000  0.41398000  1.0
  H  H22  1  0.94798000  0.38117000  0.15552000  1.0
  H  H23  1  0.03471000  0.59992000  0.84783000  1.0
  H  H24  1  0.20782000  0.41954000  0.91930000  1.0
  H  H25  1  0.08867000  0.42328000  0.05356000  1.0
  H  H26  1  0.85046000  0.63282000  0.07865000  1.0
  H  H27  1  0.98515000  0.64293000  0.94561000  1.0
  H  H28  1  0.39980000  0.96496000  0.15260000  1.0
  H  H29  1  0.61844000  0.05156000  0.84487000  1.0
  H  H30  1  0.36671000  0.14897000  0.92191000  1.0
  H  H31  1  0.35675000  0.01439000  0.05493000  1.0
  H  H32  1  0.58009000  0.79176000  0.08127000  1.0
  H  H33  1  0.57640000  0.91091000  0.94697000  1.0
  H  H34  1  0.17584000  0.18805000  0.92349000  1.0
  H  H35  1  0.19335000  0.15253000  0.70899000  1.0
  H  H36  1  0.81142000  0.82379000  0.07706000  1.0
  H  H37  1  0.84683000  0.80604000  0.29173000  1.0
  H  H38  1  0.97788000  0.07052000  0.10896000  1.0
  H  H39  1  0.07418000  0.07137000  0.10159000  1.0
  H  H40  1  0.07799000  0.95022000  0.85153000  1.0
  H  H41  1  0.07495000  0.04322000  0.76244000  1.0
  H  H42  1  0.92904000  0.02173000  0.89165000  1.0
  H  H43  1  0.92799000  0.92537000  0.89914000  1.0
  H  H44  1  0.04911000  0.92136000  0.14931000  1.0
  H  H45  1  0.95616000  0.92454000  0.23830000  1.0
  H  H46  1  0.61146000  0.61159000  0.92857000  1.0
  H  H47  1  0.38805000  0.38809000  0.07188000  1.0
  H  H48  1  0.56173000  0.63252000  0.71725000  1.0
  H  H49  1  0.55830000  0.65169000  0.83746000  1.0
  H  H50  1  0.36693000  0.43791000  0.28315000  1.0
  H  H51  1  0.34786000  0.44133000  0.16289000  1.0
  H  H52  1  0.42198000  0.33348000  0.37276000  1.0
  H  H53  1  0.69959000  0.78482000  0.39232000  1.0
  H  H54  1  0.21462000  0.29993000  0.60817000  1.0
  H  H55  1  0.66604000  0.57749000  0.62770000  1.0
  H  H56  1  0.66746000  0.29625000  0.41699000  1.0
  H  H57  1  0.21194000  0.58450000  0.58244000  1.0
  H  H58  1  0.41503000  0.78756000  0.41811000  1.0
  H  H59  1  0.70331000  0.33200000  0.58339000  1.0
  H  H60  1  0.69706000  0.58237000  0.12753000  1.0
  H  H61  1  0.41717000  0.30238000  0.87303000  1.0
  C  C62  1  0.49378000  0.72846000  0.51604000  1.0
  C  C63  1  0.27097000  0.50571000  0.48447000  1.0
  C  C64  1  0.49588000  0.26286000  0.50191000  1.0
  C  C65  1  0.73663000  0.50362000  0.49849000  1.0
  C  C66  1  0.73996000  0.73392000  0.27094000  1.0
  C  C67  1  0.48792000  0.49565000  0.74482000  1.0
  C  C68  1  0.26557000  0.25948000  0.72964000  1.0
  C  C69  1  0.50377000  0.51164000  0.25570000  1.0
  C  C70  1  0.49665000  0.73441000  0.26808000  1.0
  C  C71  1  0.74164000  0.50376000  0.26547000  1.0
  C  C72  1  0.49569000  0.25777000  0.73502000  1.0
  C  C73  1  0.26511000  0.50289000  0.73248000  1.0
  C  C74  1  0.48528000  0.17878000  0.51551000  1.0
  C  C75  1  0.49067000  0.79935000  0.52905000  1.0
  C  C76  1  0.43378000  0.14633000  0.49700000  1.0
  C  C77  1  0.43085000  0.06768000  0.50913000  1.0
  C  C78  1  0.55975000  0.84856000  0.51367000  1.0
  C  C79  1  0.55217000  0.91780000  0.52076000  1.0
  C  C80  1  0.41455000  0.81951000  0.55636000  1.0
  C  C81  1  0.40721000  0.88786000  0.56496000  1.0
  C  C82  1  0.52918000  0.12841000  0.54971000  1.0
  C  C83  1  0.52429000  0.04925000  0.56351000  1.0
  C  C84  1  0.47628000  0.01848000  0.54142000  1.0
  C  C85  1  0.47704000  0.93947000  0.54473000  1.0
  C  C86  1  0.20009000  0.50881000  0.47146000  1.0
  C  C87  1  0.82077000  0.51432000  0.48475000  1.0
  C  C88  1  0.15089000  0.43974000  0.48681000  1.0
  C  C89  1  0.08169000  0.44733000  0.47965000  1.0
  C  C90  1  0.85318000  0.56577000  0.50333000  1.0
  C  C91  1  0.93177000  0.56859000  0.49132000  1.0
  C  C92  1  0.87116000  0.47048000  0.45047000  1.0
  C  C93  1  0.95031000  0.47532000  0.43670000  1.0
  C  C94  1  0.17994000  0.58494000  0.44411000  1.0
  C  C95  1  0.11161000  0.59227000  0.43547000  1.0
  C  C96  1  0.06000000  0.52246000  0.45569000  1.0
  C  C97  1  0.98100000  0.52321000  0.45896000  1.0
  C  C98  1  0.82331000  0.50323000  0.19236000  1.0
  C  C99  1  0.19144000  0.50960000  0.80743000  1.0
  C  C100  1  0.85388000  0.43264000  0.21371000  1.0
  C  C101  1  0.92872000  0.43795000  0.13767000  1.0
  C  C102  1  0.14258000  0.56250000  0.78753000  1.0
  C  C103  1  0.07371000  0.56206000  0.86430000  1.0
  C  C104  1  0.16972000  0.45971000  0.90444000  1.0
  C  C105  1  0.10224000  0.46156000  0.97983000  1.0
  C  C106  1  0.87288000  0.57797000  0.09481000  1.0
  C  C107  1  0.94842000  0.58329000  0.01997000  1.0
  C  C108  1  0.97674000  0.51221000  0.03990000  1.0
  C  C109  1  0.05239000  0.51234000  0.96102000  1.0
  C  C110  1  0.49002000  0.80818000  0.19311000  1.0
  C  C111  1  0.49627000  0.17614000  0.80811000  1.0
  C  C112  1  0.43714000  0.85706000  0.21297000  1.0
  C  C113  1  0.43763000  0.92594000  0.13619000  1.0
  C  C114  1  0.56687000  0.14560000  0.78673000  1.0
  C  C115  1  0.56164000  0.07081000  0.86278000  1.0
  C  C116  1  0.42158000  0.12659000  0.90570000  1.0
  C  C117  1  0.41635000  0.05112000  0.98055000  1.0
  C  C118  1  0.53996000  0.82991000  0.09610000  1.0
  C  C119  1  0.53813000  0.89738000  0.02067000  1.0
  C  C120  1  0.48736000  0.94724000  0.03947000  1.0
  C  C121  1  0.48746000  0.02283000  0.96058000  1.0
  C  C122  1  0.03162000  0.04520000  0.09069000  1.0
  C  C123  1  0.05274000  0.00411000  0.84032000  1.0
  C  C124  1  0.95424000  0.96792000  0.91001000  1.0
  C  C125  1  0.99527000  0.94669000  0.16044000  1.0
  C  C126  1  0.15083000  0.15028000  0.90750000  1.0
  C  C127  1  0.07891000  0.07605000  0.98392000  1.0
  C  C128  1  0.16046000  0.13135000  0.78569000  1.0
  C  C129  1  0.08841000  0.05685000  0.86116000  1.0
  C  C130  1  0.84915000  0.84876000  0.09311000  1.0
  C  C131  1  0.92339000  0.92065000  0.01676000  1.0
  C  C132  1  0.86803000  0.83897000  0.21503000  1.0
  C  C133  1  0.94252000  0.91104000  0.13960000  1.0
  C  C134  1  0.19134000  0.17869000  0.80844000  1.0
  C  C135  1  0.04722000  0.02930000  0.96052000  1.0
  C  C136  1  0.82072000  0.80818000  0.19219000  1.0
  C  C137  1  0.97012000  0.95226000  0.04023000  1.0
  C  C138  1  0.49879000  0.52276000  0.17553000  1.0
  C  C139  1  0.47685000  0.50067000  0.82495000  1.0
  C  C140  1  0.56703000  0.57497000  0.07325000  1.0
  C  C141  1  0.55641000  0.57508000  0.00583000  1.0
  C  C142  1  0.42466000  0.43246000  0.92723000  1.0
  C  C143  1  0.42456000  0.44313000  0.99460000  1.0
  C  C144  1  0.52332000  0.57913000  0.79549000  1.0
  C  C145  1  0.52145000  0.58969000  0.86344000  1.0
  C  C146  1  0.42034000  0.47632000  0.20493000  1.0
  C  C147  1  0.40984000  0.47819000  0.13695000  1.0
  C  C148  1  0.47873000  0.52583000  0.03641000  1.0
  C  C149  1  0.47380000  0.52084000  0.96398000  1.0
  S  S150  1  0.36542000  0.19401000  0.46050000  1.0
  S  S151  1  0.66202000  0.83298000  0.48502000  1.0
  S  S152  1  0.16643000  0.33745000  0.51551000  1.0
  S  S153  1  0.80551000  0.63414000  0.53985000  1.0
  S  S154  1  0.80794000  0.33104000  0.33291000  1.0
  S  S155  1  0.15921000  0.63726000  0.66927000  1.0
  S  S156  1  0.36233000  0.84039000  0.33121000  1.0
  S  S157  1  0.66842000  0.19152000  0.66748000  1.0
  S  S158  1  0.67219000  0.64493000  0.01512000  1.0
  S  S159  1  0.35468000  0.32730000  0.98537000  1.0
  O  O160  1  0.55112000  0.69464000  0.51639000  1.0
  O  O161  1  0.30480000  0.44836000  0.48413000  1.0
  O  O162  1  0.44037000  0.29833000  0.49804000  1.0
  O  O163  1  0.70112000  0.55908000  0.50247000  1.0
  O  O164  1  0.70855000  0.70022000  0.24420000  1.0
  O  O165  1  0.43221000  0.43585000  0.76803000  1.0
  O  O166  1  0.29927000  0.29094000  0.75635000  1.0
  O  O167  1  0.56356000  0.56735000  0.23251000  1.0
  O  O168  1  0.43907000  0.70247000  0.35936000  1.0
  O  O169  1  0.70638000  0.44572000  0.35705000  1.0
  O  O170  1  0.55371000  0.29305000  0.64344000  1.0
  O  O171  1  0.29700000  0.56041000  0.64118000  1.0
  O  O172  1  0.71083000  0.56225000  0.23237000  1.0
  O  O173  1  0.43721000  0.28860000  0.76812000  1.0
  O  O174  1  0.29243000  0.44085000  0.76296000  1.0
  O  O175  1  0.55869000  0.70710000  0.23759000  1.0
  O  O176  1  0.70363000  0.70692000  0.36226000  1.0
  O  O177  1  0.44705000  0.44568000  0.34476000  1.0
  O  O178  1  0.29253000  0.29581000  0.63833000  1.0
  O  O179  1  0.55388000  0.55236000  0.65574000  1.0
  O  O180  1  0.70380000  0.43896000  0.50527000  1.0
  O  O181  1  0.43873000  0.70520000  0.50439000  1.0
  O  O182  1  0.29426000  0.56075000  0.49610000  1.0
  O  O183  1  0.56052000  0.29569000  0.49518000  1.0
  O  O184  1  0.54773000  0.44498000  0.60731000  1.0
  O  O185  1  0.55442000  0.45175000  0.39320000  1.0
  O  O186  1  0.34311000  0.44742000  0.60106000  1.0
  O  O187  1  0.55206000  0.65635000  0.39948000  1.0
  O  O188  1  0.46338000  0.54117000  0.42010000  1.0
  O  O189  1  0.45832000  0.53606000  0.58042000  1.0
  O  O190  1  0.46008000  0.38355000  0.57560000  1.0
  O  O191  1  0.61592000  0.53936000  0.42492000  1.0
  O  O192  1  0.42883000  0.28768000  0.36143000  1.0
  O  O193  1  0.34313000  0.14802000  0.42925000  1.0
  O  O194  1  0.29885000  0.19925000  0.53767000  1.0
  O  O195  1  0.70234000  0.84086000  0.38449000  1.0
  O  O196  1  0.71523000  0.90773000  0.45871000  1.0
  O  O197  1  0.64689000  0.74878000  0.56378000  1.0
  O  O198  1  0.15856000  0.29715000  0.61604000  1.0
  O  O199  1  0.09165000  0.28426000  0.54184000  1.0
  O  O200  1  0.25061000  0.35251000  0.43679000  1.0
  O  O201  1  0.71188000  0.57072000  0.63897000  1.0
  O  O202  1  0.85155000  0.65647000  0.57102000  1.0
  O  O203  1  0.80021000  0.70068000  0.46272000  1.0
  O  O204  1  0.71446000  0.29104000  0.36579000  1.0
  O  O205  1  0.85429000  0.27685000  0.31290000  1.0
  O  O206  1  0.80409000  0.34752000  0.40066000  1.0
  O  O207  1  0.15437000  0.57943000  0.63242000  1.0
  O  O208  1  0.08364000  0.66137000  0.69131000  1.0
  O  O209  1  0.24269000  0.70264000  0.60253000  1.0
  O  O210  1  0.42013000  0.84515000  0.36813000  1.0
  O  O211  1  0.33823000  0.91597000  0.30917000  1.0
  O  O212  1  0.29693000  0.75692000  0.39791000  1.0
  O  O213  1  0.70849000  0.28498000  0.63461000  1.0
  O  O214  1  0.72260000  0.14510000  0.68742000  1.0
  O  O215  1  0.65188000  0.19546000  0.59974000  1.0
  O  O216  1  0.71043000  0.58273000  0.06994000  1.0
  O  O217  1  0.72471000  0.66811000  0.91579000  1.0
  O  O218  1  0.66309000  0.71101000  0.03243000  1.0
  O  O219  1  0.41681000  0.28899000  0.93062000  1.0
  O  O220  1  0.33151000  0.27480000  0.08471000  1.0
  O  O221  1  0.28858000  0.33641000  0.96809000  1.0
