# generated using pymatgen
data_PrH5C10O9
_symmetry_space_group_name_H-M   'P 1'
_cell_length_a   6.34365000
_cell_length_b   9.42914000
_cell_length_c   9.67588000
_cell_angle_alpha   87.93000000
_cell_angle_beta   74.16580000
_cell_angle_gamma   76.84380000
_symmetry_Int_Tables_number   1
_chemical_formula_structural   PrH5C10O9
_chemical_formula_sum   'Pr2 H10 C20 O18'
_cell_volume   541.98040624
_cell_formula_units_Z   2
loop_
 _symmetry_equiv_pos_site_id
 _symmetry_equiv_pos_as_xyz
  1  'x, y, z'
loop_
 _atom_site_type_symbol
 _atom_site_label
 _atom_site_symmetry_multiplicity
 _atom_site_fract_x
 _atom_site_fract_y
 _atom_site_fract_z
 _atom_site_occupancy
  Pr  Pr0  1  0.15257000  0.55947000  0.27957000  1.0
  Pr  Pr1  1  0.84743000  0.44054000  0.72043000  1.0
  H  H2  1  0.01266000  0.92252000  0.26395000  1.0
  H  H3  1  0.98733000  0.07748000  0.73605000  1.0
  H  H4  1  0.69809000  0.44011000  0.34349000  1.0
  H  H5  1  0.30191000  0.55990000  0.65651000  1.0
  H  H6  1  0.85992000  0.39098000  0.19006000  1.0
  H  H7  1  0.14008000  0.60902000  0.80994000  1.0
  H  H8  1  0.20852000  0.06631000  0.36830000  1.0
  H  H9  1  0.79148000  0.93369000  0.63171000  1.0
  H  H10  1  0.67538000  0.15708000  0.11118000  1.0
  H  H11  1  0.32462000  0.84292000  0.88882000  1.0
  C  C12  1  0.82916000  0.87531000  0.15151000  1.0
  C  C13  1  0.17084000  0.12469000  0.84849000  1.0
  C  C14  1  0.34645000  0.29681000  0.42028000  1.0
  C  C15  1  0.65355000  0.70319000  0.57971000  1.0
  C  C16  1  0.42710000  0.14575000  0.46669000  1.0
  C  C17  1  0.57290000  0.85424000  0.53332000  1.0
  C  C18  1  0.39232000  0.31929000  0.98157000  1.0
  C  C19  1  0.60768000  0.68071000  0.01842000  1.0
  C  C20  1  0.33606000  0.03757000  0.42664000  1.0
  C  C21  1  0.66393000  0.96243000  0.57336000  1.0
  C  C22  1  0.40755000  0.89182000  0.45874000  1.0
  C  C23  1  0.59246000  0.10818000  0.54127000  1.0
  C  C24  1  0.30956000  0.77882000  0.41148000  1.0
  C  C25  1  0.69044000  0.22118000  0.58852000  1.0
  C  C26  1  0.59943000  0.08871000  0.06040000  1.0
  C  C27  1  0.40057000  0.91130000  0.93960000  1.0
  C  C28  1  0.44015000  0.15418000  0.98890000  1.0
  C  C29  1  0.55986000  0.84581000  0.01110000  1.0
  C  C30  1  0.66044000  0.93701000  0.07229000  1.0
  C  C31  1  0.33956000  0.06299000  0.92771000  1.0
  O  O32  1  0.89121000  0.74162000  0.16548000  1.0
  O  O33  1  0.10878000  0.25838000  0.83452000  1.0
  O  O34  1  0.15697000  0.37408000  0.49152000  1.0
  O  O35  1  0.84303000  0.62592000  0.50847000  1.0
  O  O36  1  0.45588000  0.33949000  0.30245000  1.0
  O  O37  1  0.54413000  0.66051000  0.69755000  1.0
  O  O38  1  0.53598000  0.37202000  0.89000000  1.0
  O  O39  1  0.46403000  0.62799000  0.10999000  1.0
  O  O40  1  0.38482000  0.64501000  0.42984000  1.0
  O  O41  1  0.61519000  0.35498000  0.57016000  1.0
  O  O42  1  0.22227000  0.39248000  0.07261000  1.0
  O  O43  1  0.77774000  0.60752000  0.92739000  1.0
  O  O44  1  0.90622000  0.97360000  0.20577000  1.0
  O  O45  1  0.09378000  0.02640000  0.79424000  1.0
  O  O46  1  0.85138000  0.43230000  0.28262000  1.0
  O  O47  1  0.14862000  0.56770000  0.71738000  1.0
  O  O48  1  0.14912000  0.81876000  0.35110000  1.0
  O  O49  1  0.85088000  0.18124000  0.64890000  1.0
