# generated using pymatgen
data_ZnH32C28NO12
_symmetry_space_group_name_H-M   'P 1'
_cell_length_a   8.92562000
_cell_length_b   14.15310000
_cell_length_c   14.85250000
_cell_angle_alpha   89.28070000
_cell_angle_beta   85.30880000
_cell_angle_gamma   89.22790000
_symmetry_Int_Tables_number   1
_chemical_formula_structural   ZnH32C28NO12
_chemical_formula_sum   'Zn2 H64 C56 N2 O24'
_cell_volume   1869.66618404
_cell_formula_units_Z   2
loop_
 _symmetry_equiv_pos_site_id
 _symmetry_equiv_pos_as_xyz
  1  'x, y, z'
loop_
 _atom_site_type_symbol
 _atom_site_label
 _atom_site_symmetry_multiplicity
 _atom_site_fract_x
 _atom_site_fract_y
 _atom_site_fract_z
 _atom_site_occupancy
  Zn  Zn0  1  0.47294000  0.59361000  0.48596000  1.0
  Zn  Zn1  1  0.47702000  0.39102000  0.51236000  1.0
  H  H2  1  0.70208000  0.06212000  0.42794000  1.0
  H  H3  1  0.23738000  0.92775000  0.49827000  1.0
  H  H4  1  0.26573000  0.05731000  0.57755000  1.0
  H  H5  1  0.72163000  0.92030000  0.48641000  1.0
  H  H6  1  0.93361000  0.28803000  0.48775000  1.0
  H  H7  1  0.04215000  0.71952000  0.40674000  1.0
  H  H8  1  0.04172000  0.24342000  0.64266000  1.0
  H  H9  1  0.92359000  0.71980000  0.55465000  1.0
  H  H10  1  0.87946000  0.72409000  0.06435000  1.0
  H  H11  1  0.89982000  0.60316000  0.03399000  1.0
  H  H12  1  0.84076000  0.67630000  0.22796000  1.0
  H  H13  1  0.85460000  0.55638000  0.19808000  1.0
  H  H14  1  0.12174000  0.57964000  0.13067000  1.0
  H  H15  1  0.10046000  0.60966000  0.24600000  1.0
  H  H16  1  0.10989000  0.70034000  0.16233000  1.0
  H  H17  1  0.98560000  0.36431000  0.96017000  1.0
  H  H18  1  0.92442000  0.48428000  0.96675000  1.0
  H  H19  1  0.00308000  0.37872000  0.78928000  1.0
  H  H20  1  0.94336000  0.49735000  0.79859000  1.0
  H  H21  1  0.17640000  0.52853000  0.88693000  1.0
  H  H22  1  0.21624000  0.49980000  0.77156000  1.0
  H  H23  1  0.24185000  0.41364000  0.85573000  1.0
  H  H24  1  0.22438000  0.65534000  0.00456000  1.0
  H  H25  1  0.26747000  0.67413000  0.88596000  1.0
  H  H26  1  0.33682000  0.81314000  0.03280000  1.0
  H  H27  1  0.37360000  0.83038000  0.91525000  1.0
  H  H28  1  0.09379000  0.82327000  0.89567000  1.0
  H  H29  1  0.13675000  0.91630000  0.96816000  1.0
  H  H30  1  0.05750000  0.81039000  0.01438000  1.0
  H  H31  1  0.26970000  0.37730000  0.99739000  1.0
  H  H32  1  0.29186000  0.28590000  0.07939000  1.0
  H  H33  1  0.38121000  0.27497000  0.87531000  1.0
  H  H34  1  0.43009000  0.18852000  0.95473000  1.0
  H  H35  1  0.15174000  0.16035000  0.99829000  1.0
  H  H36  1  0.20319000  0.13752000  0.88249000  1.0
  H  H37  1  0.10589000  0.24323000  0.91375000  1.0
  H  H38  1  0.34293000  0.69395000  0.27245000  1.0
  H  H39  1  0.41821000  0.70741000  0.15775000  1.0
  H  H40  1  0.53124000  0.81767000  0.31399000  1.0
  H  H41  1  0.58421000  0.83379000  0.19809000  1.0
  H  H42  1  0.31915000  0.88371000  0.17044000  1.0
  H  H43  1  0.38446000  0.95464000  0.25599000  1.0
  H  H44  1  0.25932000  0.86017000  0.28503000  1.0
  H  H45  1  0.66742000  0.27743000  0.66231000  1.0
  H  H46  1  0.53873000  0.30112000  0.75648000  1.0
  H  H47  1  0.85691000  0.21662000  0.76670000  1.0
  H  H48  1  0.72486000  0.23471000  0.85975000  1.0
  H  H49  1  0.54688000  0.12081000  0.79325000  1.0
  H  H50  1  0.72213000  0.06487000  0.80868000  1.0
  H  H51  1  0.67995000  0.10298000  0.69915000  1.0
  H  H52  1  0.49118000  0.80631000  0.71698000  1.0
  H  H53  1  0.62699000  0.71676000  0.68426000  1.0
  H  H54  1  0.59777000  0.81946000  0.86661000  1.0
  H  H55  1  0.72244000  0.72460000  0.84029000  1.0
  H  H56  1  0.85508000  0.81746000  0.71410000  1.0
  H  H57  1  0.84939000  0.88286000  0.81552000  1.0
  H  H58  1  0.72463000  0.91261000  0.73233000  1.0
  H  H59  1  0.49054000  0.22897000  0.29835000  1.0
  H  H60  1  0.63225000  0.27544000  0.22078000  1.0
  H  H61  1  0.38804000  0.13754000  0.17292000  1.0
  H  H62  1  0.53163000  0.18368000  0.09596000  1.0
  H  H63  1  0.72952000  0.10628000  0.18489000  1.0
  H  H64  1  0.60291000  0.02065000  0.15012000  1.0
  H  H65  1  0.58763000  0.06024000  0.26329000  1.0
  C  C66  1  0.45352000  0.47374000  0.33184000  1.0
  C  C67  1  0.53449000  0.51707000  0.66227000  1.0
  C  C68  1  0.60699000  0.09562000  0.46628000  1.0
  C  C69  1  0.34532000  0.89074000  0.49375000  1.0
  C  C70  1  0.36447000  0.09338000  0.54694000  1.0
  C  C71  1  0.61295000  0.88652000  0.48571000  1.0
  C  C72  1  0.75648000  0.50093000  0.46651000  1.0
  C  C73  1  0.19536000  0.49124000  0.52172000  1.0
  C  C74  1  0.48306000  0.04351000  0.50096000  1.0
  C  C75  1  0.48000000  0.93992000  0.49269000  1.0
  C  C76  1  0.91474000  0.50556000  0.47701000  1.0
  C  C77  1  0.04261000  0.50054000  0.49888000  1.0
  C  C78  1  0.61093000  0.57226000  0.10527000  1.0
  C  C79  1  0.67801000  0.45134000  0.88801000  1.0
  C  C80  1  0.51781000  0.59121000  0.90820000  1.0
  C  C81  1  0.51474000  0.41623000  0.08012000  1.0
  C  C82  1  0.55369000  0.56707000  0.19620000  1.0
  C  C83  1  0.65618000  0.45130000  0.79562000  1.0
  C  C84  1  0.51572000  0.59945000  0.81355000  1.0
  C  C85  1  0.47667000  0.40560000  0.17353000  1.0
  C  C86  1  0.49131000  0.48219000  0.23208000  1.0
  C  C87  1  0.57150000  0.52458000  0.75845000  1.0
  C  C88  1  0.58259000  0.50026000  0.04506000  1.0
  C  C89  1  0.59843000  0.51590000  0.94604000  1.0
  C  C90  1  0.61035000  0.19271000  0.48036000  1.0
  C  C91  1  0.34797000  0.79267000  0.48678000  1.0
  C  C92  1  0.37492000  0.19056000  0.55785000  1.0
  C  C93  1  0.60870000  0.78831000  0.48065000  1.0
  C  C94  1  0.75434000  0.24118000  0.44465000  1.0
  C  C95  1  0.19114000  0.75094000  0.48690000  1.0
  C  C96  1  0.25457000  0.23737000  0.62032000  1.0
  C  C97  1  0.76748000  0.74490000  0.47596000  1.0
  C  C98  1  0.84517000  0.65206000  0.08449000  1.0
  C  C99  1  0.89441000  0.62740000  0.17798000  1.0
  C  C100  1  0.06545000  0.62954000  0.17908000  1.0
  C  C101  1  0.92715000  0.42045000  0.92455000  1.0
  C  C102  1  0.00657000  0.44148000  0.83181000  1.0
  C  C103  1  0.16882000  0.47245000  0.83710000  1.0
  C  C104  1  0.30035000  0.69133000  0.95324000  1.0
  C  C105  1  0.29498000  0.79756000  0.96691000  1.0
  C  C106  1  0.13724000  0.83910000  0.96100000  1.0
  C  C107  1  0.33842000  0.31520000  0.01422000  1.0
  C  C108  1  0.34355000  0.24157000  0.94038000  1.0
  C  C109  1  0.19285000  0.19325000  0.93357000  1.0
  C  C110  1  0.44355000  0.71371000  0.22881000  1.0
  C  C111  1  0.48953000  0.81412000  0.24652000  1.0
  C  C112  1  0.35614000  0.88205000  0.23931000  1.0
  C  C113  1  0.65886000  0.29466000  0.73455000  1.0
  C  C114  1  0.73522000  0.21770000  0.78756000  1.0
  C  C115  1  0.66768000  0.12133000  0.77132000  1.0
  C  C116  1  0.56089000  0.74839000  0.74201000  1.0
  C  C117  1  0.66402000  0.78481000  0.81044000  1.0
  C  C118  1  0.77959000  0.85305000  0.76554000  1.0
  C  C119  1  0.51736000  0.24783000  0.22673000  1.0
  C  C120  1  0.50504000  0.16232000  0.16679000  1.0
  C  C121  1  0.61207000  0.08302000  0.19250000  1.0
  N  N122  1  0.49590000  0.24075000  0.52491000  1.0
  N  N123  1  0.47747000  0.74128000  0.48066000  1.0
  O  O124  1  0.39442000  0.54656000  0.37167000  1.0
  O  O125  1  0.48183000  0.43822000  0.64090000  1.0
  O  O126  1  0.55486000  0.58828000  0.60956000  1.0
  O  O127  1  0.48781000  0.39736000  0.37184000  1.0
  O  O128  1  0.69054000  0.57136000  0.43287000  1.0
  O  O129  1  0.25009000  0.40759000  0.51522000  1.0
  O  O130  1  0.25987000  0.56568000  0.54433000  1.0
  O  O131  1  0.69831000  0.42438000  0.49675000  1.0
  O  O132  1  0.78657000  0.25753000  0.36507000  1.0
  O  O133  1  0.84502000  0.25225000  0.51177000  1.0
  O  O134  1  0.10321000  0.75717000  0.55516000  1.0
  O  O135  1  0.15552000  0.72476000  0.40640000  1.0
  O  O136  1  0.28115000  0.28064000  0.68702000  1.0
  O  O137  1  0.11526000  0.21548000  0.59739000  1.0
  O  O138  1  0.85210000  0.75164000  0.40625000  1.0
  O  O139  1  0.80964000  0.72149000  0.55652000  1.0
  O  O140  1  0.68463000  0.65324000  0.07545000  1.0
  O  O141  1  0.77503000  0.38602000  0.92254000  1.0
  O  O142  1  0.45121000  0.65726000  0.96527000  1.0
  O  O143  1  0.49167000  0.34490000  0.02101000  1.0
  O  O144  1  0.56296000  0.64746000  0.24670000  1.0
  O  O145  1  0.72888000  0.38581000  0.73908000  1.0
  O  O146  1  0.45144000  0.67971000  0.77835000  1.0
  O  O147  1  0.41254000  0.32257000  0.20592000  1.0
