# generated using pymatgen
data_CdH20C24(N2Cl)2
_symmetry_space_group_name_H-M   'P 1'
_cell_length_a   9.11938000
_cell_length_b   15.38180000
_cell_length_c   17.52040000
_cell_angle_alpha   90.00000000
_cell_angle_beta   90.00000000
_cell_angle_gamma   90.00000000
_symmetry_Int_Tables_number   1
_chemical_formula_structural   CdH20C24(N2Cl)2
_chemical_formula_sum   'Cd4 H80 C96 N16 Cl8'
_cell_volume   2457.62994605
_cell_formula_units_Z   4
loop_
 _symmetry_equiv_pos_site_id
 _symmetry_equiv_pos_as_xyz
  1  'x, y, z'
loop_
 _atom_site_type_symbol
 _atom_site_label
 _atom_site_symmetry_multiplicity
 _atom_site_fract_x
 _atom_site_fract_y
 _atom_site_fract_z
 _atom_site_occupancy
  Cd  Cd0  1  0.00000000  0.95977000  0.75000000  1.0
  Cd  Cd1  1  0.00000000  0.54023000  0.25000000  1.0
  Cd  Cd2  1  0.00000000  0.04023000  0.25000000  1.0
  Cd  Cd3  1  0.00000000  0.45977000  0.75000000  1.0
  H  H4  1  0.02428000  0.02566000  0.57832000  1.0
  H  H5  1  0.97572000  0.02567000  0.92168000  1.0
  H  H6  1  0.02428000  0.47434000  0.42168000  1.0
  H  H7  1  0.97572000  0.47434000  0.07832000  1.0
  H  H8  1  0.97572000  0.97434000  0.42168000  1.0
  H  H9  1  0.02428000  0.97434000  0.07832000  1.0
  H  H10  1  0.97572000  0.52566000  0.57832000  1.0
  H  H11  1  0.02428000  0.52566000  0.92168000  1.0
  H  H12  1  0.16559000  0.12658000  0.49412000  1.0
  H  H13  1  0.83441000  0.12658000  0.00588000  1.0
  H  H14  1  0.16559000  0.37342000  0.50588000  1.0
  H  H15  1  0.83441000  0.37342000  0.99412000  1.0
  H  H16  1  0.83441000  0.87342000  0.50588000  1.0
  H  H17  1  0.16559000  0.87342000  0.99412000  1.0
  H  H18  1  0.83441000  0.62658000  0.49412000  1.0
  H  H19  1  0.16559000  0.62658000  0.00588000  1.0
  H  H20  1  0.34811000  0.24019000  0.69976000  1.0
  H  H21  1  0.65189000  0.24019000  0.80024000  1.0
  H  H22  1  0.34811000  0.25981000  0.30024000  1.0
  H  H23  1  0.65189000  0.25980000  0.19976000  1.0
  H  H24  1  0.65189000  0.75981000  0.30024000  1.0
  H  H25  1  0.34811000  0.75981000  0.19976000  1.0
  H  H26  1  0.65189000  0.74020000  0.69976000  1.0
  H  H27  1  0.34811000  0.74019000  0.80024000  1.0
  H  H28  1  0.20758000  0.12851000  0.77413000  1.0
  H  H29  1  0.79242000  0.12851000  0.72587000  1.0
  H  H30  1  0.20758000  0.37149000  0.22588000  1.0
  H  H31  1  0.79242000  0.37149000  0.27413000  1.0
  H  H32  1  0.79242000  0.87149000  0.22587000  1.0
  H  H33  1  0.20758000  0.87149000  0.27413000  1.0
  H  H34  1  0.79242000  0.62851000  0.77413000  1.0
  H  H35  1  0.20758000  0.62851000  0.72587000  1.0
  H  H36  1  0.34464000  0.31969000  0.56323000  1.0
  H  H37  1  0.65536000  0.31970000  0.93677000  1.0
  H  H38  1  0.34464000  0.18030000  0.43677000  1.0
  H  H39  1  0.65536000  0.18030000  0.06323000  1.0
  H  H40  1  0.65536000  0.68030000  0.43677000  1.0
  H  H41  1  0.34464000  0.68030000  0.06323000  1.0
  H  H42  1  0.65536000  0.81970000  0.56323000  1.0
  H  H43  1  0.34464000  0.81970000  0.93677000  1.0
  H  H44  1  0.54938000  0.16249000  0.54180000  1.0
  H  H45  1  0.45062000  0.16249000  0.95820000  1.0
  H  H46  1  0.54938000  0.33750000  0.45820000  1.0
  H  H47  1  0.45062000  0.33750000  0.04180000  1.0
  H  H48  1  0.45062000  0.83751000  0.45820000  1.0
  H  H49  1  0.54938000  0.83751000  0.04180000  1.0
  H  H50  1  0.45062000  0.66250000  0.54180000  1.0
  H  H51  1  0.54938000  0.66249000  0.95820000  1.0
  H  H52  1  0.48152000  0.37436000  0.63965000  1.0
  H  H53  1  0.51848000  0.37436000  0.86035000  1.0
  H  H54  1  0.48152000  0.12564000  0.36035000  1.0
  H  H55  1  0.51848000  0.12564000  0.13965000  1.0
  H  H56  1  0.51848000  0.62564000  0.36035000  1.0
  H  H57  1  0.48152000  0.62564000  0.13965000  1.0
  H  H58  1  0.51848000  0.87436000  0.63965000  1.0
  H  H59  1  0.48151000  0.87436000  0.86035000  1.0
  H  H60  1  0.67154000  0.44593000  0.71964000  1.0
  H  H61  1  0.32846000  0.44593000  0.78036000  1.0
  H  H62  1  0.67154000  0.05407000  0.28036000  1.0
  H  H63  1  0.32846000  0.05407000  0.21964000  1.0
  H  H64  1  0.32846000  0.55407000  0.28036000  1.0
  H  H65  1  0.67154000  0.55407000  0.21964000  1.0
  H  H66  1  0.32846000  0.94593000  0.71963000  1.0
  H  H67  1  0.67154000  0.94593000  0.78037000  1.0
  H  H68  1  0.99673000  0.27889000  0.64517000  1.0
  H  H69  1  0.00327000  0.27889000  0.85483000  1.0
  H  H70  1  0.99672000  0.22111000  0.35483000  1.0
  H  H71  1  0.00328000  0.22111000  0.14517000  1.0
  H  H72  1  0.00328000  0.72111000  0.35483000  1.0
  H  H73  1  0.99672000  0.72111000  0.14517000  1.0
  H  H74  1  0.00328000  0.77889000  0.64517000  1.0
  H  H75  1  0.99672000  0.77889000  0.85483000  1.0
  H  H76  1  0.81726000  0.19173000  0.56815000  1.0
  H  H77  1  0.18274000  0.19173000  0.93185000  1.0
  H  H78  1  0.81726000  0.30827000  0.43185000  1.0
  H  H79  1  0.18274000  0.30827000  0.06815000  1.0
  H  H80  1  0.18274000  0.80827000  0.43185000  1.0
  H  H81  1  0.81726000  0.80827000  0.06815000  1.0
  H  H82  1  0.18274000  0.69173000  0.56815000  1.0
  H  H83  1  0.81726000  0.69173000  0.93185000  1.0
  C  C84  1  0.09981000  0.07368000  0.60214000  1.0
  C  C85  1  0.90019000  0.07369000  0.89786000  1.0
  C  C86  1  0.09981000  0.42632000  0.39786000  1.0
  C  C87  1  0.90019000  0.42632000  0.10214000  1.0
  C  C88  1  0.90019000  0.92632000  0.39786000  1.0
  C  C89  1  0.09981000  0.92632000  0.10214000  1.0
  C  C90  1  0.90019000  0.57368000  0.60214000  1.0
  C  C91  1  0.09981000  0.57368000  0.89786000  1.0
  C  C92  1  0.17694000  0.13140000  0.55605000  1.0
  C  C93  1  0.82307000  0.13140000  0.94395000  1.0
  C  C94  1  0.17693000  0.36860000  0.44395000  1.0
  C  C95  1  0.82307000  0.36860000  0.05605000  1.0
  C  C96  1  0.82307000  0.86860000  0.44395000  1.0
  C  C97  1  0.17693000  0.86860000  0.05605000  1.0
  C  C98  1  0.82307000  0.63140000  0.55605000  1.0
  C  C99  1  0.17694000  0.63140000  0.94395000  1.0
  C  C100  1  0.27046000  0.19213000  0.59018000  1.0
  C  C101  1  0.72954000  0.19213000  0.90982000  1.0
  C  C102  1  0.27046000  0.30787000  0.40982000  1.0
  C  C103  1  0.72954000  0.30787000  0.09018000  1.0
  C  C104  1  0.72954000  0.80787000  0.40982000  1.0
  C  C105  1  0.27046000  0.80787000  0.09018000  1.0
  C  C106  1  0.72954000  0.69213000  0.59018000  1.0
  C  C107  1  0.27046000  0.69213000  0.90982000  1.0
  C  C108  1  0.27960000  0.19283000  0.67023000  1.0
  C  C109  1  0.72040000  0.19283000  0.82977000  1.0
  C  C110  1  0.27960000  0.30717000  0.32977000  1.0
  C  C111  1  0.72040000  0.30717000  0.17023000  1.0
  C  C112  1  0.72040000  0.80717000  0.32977000  1.0
  C  C113  1  0.27960000  0.80717000  0.17023000  1.0
  C  C114  1  0.72040000  0.69283000  0.67023000  1.0
  C  C115  1  0.27960000  0.69283000  0.82977000  1.0
  C  C116  1  0.20055000  0.13199000  0.71198000  1.0
  C  C117  1  0.79945000  0.13199000  0.78802000  1.0
  C  C118  1  0.20055000  0.36801000  0.28802000  1.0
  C  C119  1  0.79945000  0.36801000  0.21198000  1.0
  C  C120  1  0.79945000  0.86801000  0.28802000  1.0
  C  C121  1  0.20055000  0.86801000  0.21198000  1.0
  C  C122  1  0.79945000  0.63199000  0.71198000  1.0
  C  C123  1  0.20055000  0.63199000  0.78802000  1.0
  C  C124  1  0.36312000  0.25236000  0.54406000  1.0
  C  C125  1  0.63689000  0.25236000  0.95594000  1.0
  C  C126  1  0.36311000  0.24764000  0.45594000  1.0
  C  C127  1  0.63689000  0.24764000  0.04406000  1.0
  C  C128  1  0.63689000  0.74764000  0.45594000  1.0
  C  C129  1  0.36311000  0.74764000  0.04406000  1.0
  C  C130  1  0.63689000  0.75236000  0.54406000  1.0
  C  C131  1  0.36311000  0.75236000  0.95594000  1.0
  C  C132  1  0.53048000  0.23316000  0.54245000  1.0
  C  C133  1  0.46952000  0.23317000  0.95755000  1.0
  C  C134  1  0.53048000  0.26683000  0.45755000  1.0
  C  C135  1  0.46952000  0.26683000  0.04245000  1.0
  C  C136  1  0.46952000  0.76683000  0.45755000  1.0
  C  C137  1  0.53048000  0.76683000  0.04245000  1.0
  C  C138  1  0.46952000  0.73317000  0.54245000  1.0
  C  C139  1  0.53048000  0.73317000  0.95755000  1.0
  C  C140  1  0.63431000  0.27674000  0.59577000  1.0
  C  C141  1  0.36569000  0.27674000  0.90423000  1.0
  C  C142  1  0.63431000  0.22326000  0.40423000  1.0
  C  C143  1  0.36569000  0.22326000  0.09577000  1.0
  C  C144  1  0.36569000  0.72326000  0.40423000  1.0
  C  C145  1  0.63431000  0.72326000  0.09577000  1.0
  C  C146  1  0.36569000  0.77674000  0.59577000  1.0
  C  C147  1  0.63431000  0.77674000  0.90423000  1.0
  C  C148  1  0.59357000  0.34919000  0.63938000  1.0
  C  C149  1  0.40643000  0.34919000  0.86063000  1.0
  C  C150  1  0.59357000  0.15081000  0.36063000  1.0
  C  C151  1  0.40643000  0.15081000  0.13938000  1.0
  C  C152  1  0.40643000  0.65081000  0.36063000  1.0
  C  C153  1  0.59357000  0.65081000  0.13937000  1.0
  C  C154  1  0.40643000  0.84919000  0.63937000  1.0
  C  C155  1  0.59357000  0.84919000  0.86062000  1.0
  C  C156  1  0.69925000  0.39085000  0.68314000  1.0
  C  C157  1  0.30074000  0.39085000  0.81686000  1.0
  C  C158  1  0.69925000  0.10915000  0.31686000  1.0
  C  C159  1  0.30075000  0.10915000  0.18315000  1.0
  C  C160  1  0.30075000  0.60915000  0.31686000  1.0
  C  C161  1  0.69926000  0.60915000  0.18314000  1.0
  C  C162  1  0.30075000  0.89085000  0.68314000  1.0
  C  C163  1  0.69925000  0.89085000  0.81686000  1.0
  C  C164  1  0.88079000  0.29633000  0.64290000  1.0
  C  C165  1  0.11921000  0.29633000  0.85710000  1.0
  C  C166  1  0.88079000  0.20368000  0.35710000  1.0
  C  C167  1  0.11921000  0.20368000  0.14290000  1.0
  C  C168  1  0.11921000  0.70368000  0.35710000  1.0
  C  C169  1  0.88079000  0.70367000  0.14290000  1.0
  C  C170  1  0.11921000  0.79633000  0.64290000  1.0
  C  C171  1  0.88079000  0.79632000  0.85710000  1.0
  C  C172  1  0.78090000  0.24907000  0.59950000  1.0
  C  C173  1  0.21910000  0.24907000  0.90051000  1.0
  C  C174  1  0.78090000  0.25093000  0.40050000  1.0
  C  C175  1  0.21910000  0.25093000  0.09950000  1.0
  C  C176  1  0.21910000  0.75093000  0.40050000  1.0
  C  C177  1  0.78090000  0.75093000  0.09950000  1.0
  C  C178  1  0.21910000  0.74907000  0.59950000  1.0
  C  C179  1  0.78090000  0.74907000  0.90050000  1.0
  N  N180  1  0.11235000  0.07320000  0.67851000  1.0
  N  N181  1  0.88765000  0.07320000  0.82149000  1.0
  N  N182  1  0.11235000  0.42680000  0.32149000  1.0
  N  N183  1  0.88765000  0.42680000  0.17851000  1.0
  N  N184  1  0.88765000  0.92680000  0.32149000  1.0
  N  N185  1  0.11235000  0.92680000  0.17851000  1.0
  N  N186  1  0.88765000  0.57320000  0.67851000  1.0
  N  N187  1  0.11235000  0.57320000  0.82149000  1.0
  N  N188  1  0.84061000  0.36606000  0.68401000  1.0
  N  N189  1  0.15939000  0.36607000  0.81599000  1.0
  N  N190  1  0.84061000  0.13394000  0.31599000  1.0
  N  N191  1  0.15939000  0.13394000  0.18401000  1.0
  N  N192  1  0.15939000  0.63394000  0.31599000  1.0
  N  N193  1  0.84061000  0.63394000  0.18401000  1.0
  N  N194  1  0.15939000  0.86606000  0.68401000  1.0
  N  N195  1  0.84061000  0.86606000  0.81599000  1.0
  Cl  Cl196  1  0.79407000  0.95378000  0.64015000  1.0
  Cl  Cl197  1  0.20593000  0.95378000  0.85985000  1.0
  Cl  Cl198  1  0.79407000  0.54622000  0.35985000  1.0
  Cl  Cl199  1  0.20593000  0.54622000  0.14015000  1.0
  Cl  Cl200  1  0.20593000  0.04622000  0.35985000  1.0
  Cl  Cl201  1  0.79407000  0.04622000  0.14015000  1.0
  Cl  Cl202  1  0.20593000  0.45378000  0.64015000  1.0
  Cl  Cl203  1  0.79407000  0.45378000  0.85985000  1.0
