# generated using pymatgen
data_ZnH12C12(NCl)2
_symmetry_space_group_name_H-M   'P 1'
_cell_length_a   5.35861000
_cell_length_b   8.90316000
_cell_length_c   13.66020000
_cell_angle_alpha   85.04440000
_cell_angle_beta   82.71390000
_cell_angle_gamma   83.12860000
_symmetry_Int_Tables_number   1
_chemical_formula_structural   ZnH12C12(NCl)2
_chemical_formula_sum   'Zn2 H24 C24 N4 Cl4'
_cell_volume   640.12272796
_cell_formula_units_Z   2
loop_
 _symmetry_equiv_pos_site_id
 _symmetry_equiv_pos_as_xyz
  1  'x, y, z'
loop_
 _atom_site_type_symbol
 _atom_site_label
 _atom_site_symmetry_multiplicity
 _atom_site_fract_x
 _atom_site_fract_y
 _atom_site_fract_z
 _atom_site_occupancy
  Zn  Zn0  1  0.62907000  0.96245000  0.75967000  1.0
  Zn  Zn1  1  0.37092000  0.03755000  0.24034000  1.0
  H  H2  1  0.04584000  0.97717000  0.88788000  1.0
  H  H3  1  0.95415000  0.02282000  0.11212000  1.0
  H  H4  1  0.23081000  0.17546000  0.96327000  1.0
  H  H5  1  0.76920000  0.82452000  0.03673000  1.0
  H  H6  1  0.69455000  0.50914000  0.83193000  1.0
  H  H7  1  0.30551000  0.49087000  0.16807000  1.0
  H  H8  1  0.52822000  0.29393000  0.76052000  1.0
  H  H9  1  0.47181000  0.70609000  0.23947000  1.0
  H  H10  1  0.07279000  0.58714000  0.90106000  1.0
  H  H11  1  0.92726000  0.41285000  0.09895000  1.0
  H  H12  1  0.27702000  0.44903000  0.96266000  1.0
  H  H13  1  0.72302000  0.55095000  0.03734000  1.0
  H  H14  1  0.10471000  0.75904000  0.78593000  1.0
  H  H15  1  0.89529000  0.24096000  0.21407000  1.0
  H  H16  1  0.43907000  0.60860000  0.68418000  1.0
  H  H17  1  0.56091000  0.39140000  0.31582000  1.0
  H  H18  1  0.04550000  0.76526000  0.43032000  1.0
  H  H19  1  0.95448000  0.23475000  0.56968000  1.0
  H  H20  1  0.72278000  0.90999000  0.54377000  1.0
  H  H21  1  0.27721000  0.09003000  0.45623000  1.0
  H  H22  1  0.64278000  0.64038000  0.47154000  1.0
  H  H23  1  0.35719000  0.35962000  0.52845000  1.0
  H  H24  1  0.40817000  0.58905000  0.40663000  1.0
  H  H25  1  0.59179000  0.41095000  0.59337000  1.0
  C  C26  1  0.97157000  0.09599000  0.87683000  1.0
  C  C27  1  0.02842000  0.90400000  0.12318000  1.0
  C  C28  1  0.07517000  0.20740000  0.91860000  1.0
  C  C29  1  0.92484000  0.79259000  0.08140000  1.0
  C  C30  1  0.97866000  0.35956000  0.90324000  1.0
  C  C31  1  0.02137000  0.64043000  0.09676000  1.0
  C  C32  1  0.77841000  0.39223000  0.84509000  1.0
  C  C33  1  0.22162000  0.60777000  0.15491000  1.0
  C  C34  1  0.68463000  0.27468000  0.80579000  1.0
  C  C35  1  0.31539000  0.72532000  0.19421000  1.0
  C  C36  1  0.07902000  0.48273000  0.95008000  1.0
  C  C37  1  0.92101000  0.51726000  0.04993000  1.0
  C  C38  1  0.09479000  0.75526000  0.70706000  1.0
  C  C39  1  0.90520000  0.24474000  0.29294000  1.0
  C  C40  1  0.28249000  0.67096000  0.64905000  1.0
  C  C41  1  0.71749000  0.32904000  0.35095000  1.0
  C  C42  1  0.27042000  0.67062000  0.54716000  1.0
  C  C43  1  0.72955000  0.32938000  0.45284000  1.0
  C  C44  1  0.06523000  0.75852000  0.50910000  1.0
  C  C45  1  0.93474000  0.24149000  0.49090000  1.0
  C  C46  1  0.88394000  0.84024000  0.57167000  1.0
  C  C47  1  0.11604000  0.15977000  0.42833000  1.0
  C  C48  1  0.46967000  0.58282000  0.48065000  1.0
  C  C49  1  0.53030000  0.41718000  0.51935000  1.0
  N  N50  1  0.77915000  0.12833000  0.82120000  1.0
  N  N51  1  0.22084000  0.87167000  0.17881000  1.0
  N  N52  1  0.89714000  0.83808000  0.66960000  1.0
  N  N53  1  0.10284000  0.16193000  0.33040000  1.0
  Cl  Cl54  1  0.50558000  0.79544000  0.88531000  1.0
  Cl  Cl55  1  0.49442000  0.20456000  0.11469000  1.0
  Cl  Cl56  1  0.36039000  0.08589000  0.65945000  1.0
  Cl  Cl57  1  0.63960000  0.91413000  0.34055000  1.0
