# generated using pymatgen
data_CuH8C10(N2O3)2
_symmetry_space_group_name_H-M   'P 1'
_cell_length_a   7.36800000
_cell_length_b   9.72304000
_cell_length_c   10.02950000
_cell_angle_alpha   116.90100000
_cell_angle_beta   101.15600000
_cell_angle_gamma   102.17800000
_symmetry_Int_Tables_number   1
_chemical_formula_structural   CuH8C10(N2O3)2
_chemical_formula_sum   'Cu2 H16 C20 N8 O12'
_cell_volume   590.93469511
_cell_formula_units_Z   2
loop_
 _symmetry_equiv_pos_site_id
 _symmetry_equiv_pos_as_xyz
  1  'x, y, z'
loop_
 _atom_site_type_symbol
 _atom_site_label
 _atom_site_symmetry_multiplicity
 _atom_site_fract_x
 _atom_site_fract_y
 _atom_site_fract_z
 _atom_site_occupancy
  Cu  Cu0  1  0.75175000  0.51824000  0.11557000  1.0
  Cu  Cu1  1  0.24825000  0.48175000  0.88443000  1.0
  H  H2  1  0.23632000  0.02505000  0.63211000  1.0
  H  H3  1  0.76368000  0.97495000  0.36788000  1.0
  H  H4  1  0.09261000  0.84274000  0.33859000  1.0
  H  H5  1  0.90739000  0.15726000  0.66141000  1.0
  H  H6  1  0.44861000  0.17614000  0.96513000  1.0
  H  H7  1  0.55140000  0.82386000  0.03487000  1.0
  H  H8  1  0.41012000  0.12613000  0.36582000  1.0
  H  H9  1  0.58988000  0.87388000  0.63419000  1.0
  H  H10  1  0.29473000  0.00924000  0.07261000  1.0
  H  H11  1  0.70527000  0.99076000  0.92740000  1.0
  H  H12  1  0.66042000  0.40463000  0.54113000  1.0
  H  H13  1  0.33958000  0.59537000  0.45887000  1.0
  H  H14  1  0.86560000  0.64922000  0.67354000  1.0
  H  H15  1  0.13440000  0.35079000  0.32646000  1.0
  H  H16  1  0.10819000  0.92753000  0.80362000  1.0
  H  H17  1  0.89181000  0.07248000  0.19637000  1.0
  C  C18  1  0.04451000  0.80609000  0.41725000  1.0
  C  C19  1  0.95549000  0.19391000  0.58275000  1.0
  C  C20  1  0.12390000  0.90619000  0.58165000  1.0
  C  C21  1  0.87610000  0.09381000  0.41835000  1.0
  C  C22  1  0.05533000  0.85132000  0.67493000  1.0
  C  C23  1  0.94467000  0.14869000  0.32506000  1.0
  C  C24  1  0.91473000  0.69561000  0.60160000  1.0
  C  C25  1  0.08527000  0.30439000  0.39840000  1.0
  C  C26  1  0.83959000  0.60184000  0.43642000  1.0
  C  C27  1  0.16041000  0.39816000  0.56358000  1.0
  C  C28  1  0.68856000  0.43759000  0.34539000  1.0
  C  C29  1  0.31144000  0.56241000  0.65461000  1.0
  C  C30  1  0.61041000  0.35204000  0.41331000  1.0
  C  C31  1  0.38959000  0.64797000  0.58670000  1.0
  C  C32  1  0.46939000  0.19586000  0.31506000  1.0
  C  C33  1  0.53061000  0.80414000  0.68494000  1.0
  C  C34  1  0.40775000  0.12950000  0.15163000  1.0
  C  C35  1  0.59225000  0.87050000  0.84837000  1.0
  C  C36  1  0.49173000  0.22119000  0.09145000  1.0
  C  C37  1  0.50828000  0.77881000  0.90856000  1.0
  N  N38  1  0.90294000  0.65980000  0.34738000  1.0
  N  N39  1  0.09706000  0.34020000  0.65262000  1.0
  N  N40  1  0.62911000  0.37055000  0.18569000  1.0
  N  N41  1  0.37089000  0.62945000  0.81431000  1.0
  N  N42  1  0.58301000  0.27003000  0.77966000  1.0
  N  N43  1  0.41699000  0.72996000  0.22034000  1.0
  N  N44  1  0.07332000  0.30707000  0.02626000  1.0
  N  N45  1  0.92668000  0.69293000  0.97374000  1.0
  O  O46  1  0.48772000  0.22581000  0.64150000  1.0
  O  O47  1  0.51227000  0.77418000  0.35850000  1.0
  O  O48  1  0.69038000  0.19951000  0.81390000  1.0
  O  O49  1  0.30962000  0.80049000  0.18610000  1.0
  O  O50  1  0.56330000  0.39731000  0.89460000  1.0
  O  O51  1  0.43670000  0.60269000  0.10541000  1.0
  O  O52  1  0.06812000  0.44278000  0.12430000  1.0
  O  O53  1  0.93188000  0.55722000  0.87570000  1.0
  O  O54  1  0.14118000  0.29416000  0.91118000  1.0
  O  O55  1  0.85882000  0.70584000  0.08882000  1.0
  O  O56  1  0.01820000  0.18019000  0.03183000  1.0
  O  O57  1  0.98180000  0.81981000  0.96817000  1.0
