# generated using pymatgen
data_CdH10C12BrNO3
_symmetry_space_group_name_H-M   'P 1'
_cell_length_a   8.41903000
_cell_length_b   9.58688000
_cell_length_c   15.40470000
_cell_angle_alpha   89.99990000
_cell_angle_beta   96.72050000
_cell_angle_gamma   90.00000000
_symmetry_Int_Tables_number   1
_chemical_formula_structural   CdH10C12BrNO3
_chemical_formula_sum   'Cd4 H40 C48 Br4 N4 O12'
_cell_volume   1234.80445612
_cell_formula_units_Z   4
loop_
 _symmetry_equiv_pos_site_id
 _symmetry_equiv_pos_as_xyz
  1  'x, y, z'
loop_
 _atom_site_type_symbol
 _atom_site_label
 _atom_site_symmetry_multiplicity
 _atom_site_fract_x
 _atom_site_fract_y
 _atom_site_fract_z
 _atom_site_occupancy
  Cd  Cd0  1  0.37541000  0.51311000  0.76256000  1.0
  Cd  Cd1  1  0.12460000  0.01311000  0.73744000  1.0
  Cd  Cd2  1  0.62459000  0.48689000  0.23745000  1.0
  Cd  Cd3  1  0.87541000  0.98689000  0.26256000  1.0
  H  H4  1  0.89981000  0.40582000  0.11479000  1.0
  H  H5  1  0.60019000  0.90582000  0.38521000  1.0
  H  H6  1  0.10019000  0.59418000  0.88521000  1.0
  H  H7  1  0.39981000  0.09418000  0.61479000  1.0
  H  H8  1  0.61176000  0.86638000  0.88478000  1.0
  H  H9  1  0.88825000  0.36638000  0.61521000  1.0
  H  H10  1  0.38825000  0.13362000  0.11522000  1.0
  H  H11  1  0.11176000  0.63362000  0.38478000  1.0
  H  H12  1  0.40645000  0.20722000  0.83679000  1.0
  H  H13  1  0.09357000  0.70723000  0.66321000  1.0
  H  H14  1  0.59355000  0.79278000  0.16321000  1.0
  H  H15  1  0.90644000  0.29278000  0.33679000  1.0
  H  H16  1  0.77366000  0.18034000  0.05667000  1.0
  H  H17  1  0.72635000  0.68034000  0.44334000  1.0
  H  H18  1  0.22634000  0.81966000  0.94333000  1.0
  H  H19  1  0.27366000  0.31966000  0.55667000  1.0
  H  H20  1  0.56785000  0.06378000  0.94985000  1.0
  H  H21  1  0.93216000  0.56379000  0.55015000  1.0
  H  H22  1  0.43215000  0.93621000  0.05015000  1.0
  H  H23  1  0.06784000  0.43622000  0.44985000  1.0
  H  H24  1  0.80290000  0.78312000  0.96651000  1.0
  H  H25  1  0.69711000  0.28312000  0.53349000  1.0
  H  H26  1  0.19710000  0.21688000  0.03349000  1.0
  H  H27  1  0.30290000  0.71688000  0.46651000  1.0
  H  H28  1  0.94043000  0.66139000  0.09251000  1.0
  H  H29  1  0.55958000  0.16139000  0.40750000  1.0
  H  H30  1  0.05957000  0.33860000  0.90750000  1.0
  H  H31  1  0.44042000  0.83861000  0.59251000  1.0
  H  H32  1  0.82091000  0.80411000  0.78916000  1.0
  H  H33  1  0.67909000  0.30412000  0.71082000  1.0
  H  H34  1  0.17909000  0.19588000  0.21083000  1.0
  H  H35  1  0.32090000  0.69588000  0.28916000  1.0
  H  H36  1  0.69825000  0.94063000  0.74159000  1.0
  H  H37  1  0.80174000  0.44064000  0.75840000  1.0
  H  H38  1  0.30175000  0.05937000  0.25840000  1.0
  H  H39  1  0.19825000  0.55937000  0.24159000  1.0
  H  H40  1  0.66854000  0.76557000  0.70110000  1.0
  H  H41  1  0.83145000  0.26558000  0.79890000  1.0
  H  H42  1  0.33145000  0.23442000  0.29890000  1.0
  H  H43  1  0.16854000  0.73442000  0.20110000  1.0
  C  C44  1  0.40997000  0.84520000  0.78763000  1.0
  C  C45  1  0.09003000  0.34521000  0.71237000  1.0
  C  C46  1  0.59003000  0.15480000  0.21237000  1.0
  C  C47  1  0.90997000  0.65480000  0.28763000  1.0
  C  C48  1  0.83329000  0.46128000  0.06046000  1.0
  C  C49  1  0.66666667  0.96128000  0.43954000  1.0
  C  C50  1  0.16671000  0.53871000  0.93954000  1.0
  C  C51  1  0.33329000  0.03872000  0.56046000  1.0
  C  C52  1  0.63383000  0.45820000  0.93026000  1.0
  C  C53  1  0.86618000  0.95821000  0.56974000  1.0
  C  C54  1  0.36617000  0.54179000  0.06974000  1.0
  C  C55  1  0.13383000  0.04179000  0.43026000  1.0
  C  C56  1  0.58073000  0.80508000  0.82487000  1.0
  C  C57  1  0.91927000  0.30509000  0.67513000  1.0
  C  C58  1  0.41927000  0.19492000  0.17513000  1.0
  C  C59  1  0.08073000  0.69492000  0.32487000  1.0
  C  C60  1  0.66471000  0.60316000  0.91812000  1.0
  C  C61  1  0.83529000  0.10317000  0.58187000  1.0
  C  C62  1  0.33529000  0.39683000  0.08188000  1.0
  C  C63  1  0.16472000  0.89683000  0.41812000  1.0
  C  C64  1  0.49781000  0.25548000  0.88305000  1.0
  C  C65  1  0.00221000  0.75548000  0.61695000  1.0
  C  C66  1  0.50220000  0.74452000  0.11695000  1.0
  C  C67  1  0.99780000  0.24452000  0.38305000  1.0
  C  C68  1  0.70028000  0.24029000  0.00674000  1.0
  C  C69  1  0.79972000  0.74029000  0.49326000  1.0
  C  C70  1  0.29972000  0.75971000  0.99326000  1.0
  C  C71  1  0.20028000  0.25971000  0.50674000  1.0
  C  C72  1  0.58799000  0.17577000  0.94785000  1.0
  C  C73  1  0.91202000  0.67577000  0.55215000  1.0
  C  C74  1  0.41201000  0.82423000  0.05215000  1.0
  C  C75  1  0.08799000  0.32423000  0.44785000  1.0
  C  C76  1  0.72392000  0.38611000  0.00086000  1.0
  C  C77  1  0.77608000  0.88612000  0.49914000  1.0
  C  C78  1  0.27608000  0.61388000  0.99914000  1.0
  C  C79  1  0.22392000  0.11389000  0.50086000  1.0
  C  C80  1  0.77532000  0.67337000  0.97561000  1.0
  C  C81  1  0.72469000  0.17337000  0.52440000  1.0
  C  C82  1  0.22468000  0.32662000  0.02440000  1.0
  C  C83  1  0.27531000  0.82663000  0.47561000  1.0
  C  C84  1  0.85655000  0.60175000  0.04776000  1.0
  C  C85  1  0.64346000  0.10176000  0.45224000  1.0
  C  C86  1  0.14346000  0.39824000  0.95224000  1.0
  C  C87  1  0.35654000  0.89825000  0.54776000  1.0
  C  C88  1  0.69973000  0.83002000  0.75956000  1.0
  C  C89  1  0.80027000  0.33003000  0.74043000  1.0
  C  C90  1  0.30027000  0.16997000  0.24043000  1.0
  C  C91  1  0.19973000  0.66997000  0.25956000  1.0
  Br  Br92  1  0.48458000  0.52812000  0.61355000  1.0
  Br  Br93  1  0.01540000  0.02810000  0.88644000  1.0
  Br  Br94  1  0.51541000  0.47191000  0.38645000  1.0
  Br  Br95  1  0.98457000  0.97190000  0.11355000  1.0
  N  N96  1  0.52067000  0.39172000  0.87385000  1.0
  N  N97  1  0.97934000  0.89172000  0.62616000  1.0
  N  N98  1  0.47932000  0.60828000  0.12616000  1.0
  N  N99  1  0.02067000  0.10828000  0.37384000  1.0
  O  O100  1  0.38924000  0.97503000  0.77304000  1.0
  O  O101  1  0.11076000  0.47504000  0.72696000  1.0
  O  O102  1  0.61076000  0.02497000  0.22696000  1.0
  O  O103  1  0.88923000  0.52497000  0.27304000  1.0
  O  O104  1  0.57658000  0.65931000  0.84696000  1.0
  O  O105  1  0.92342000  0.15932000  0.65304000  1.0
  O  O106  1  0.42341000  0.34069000  0.15305000  1.0
  O  O107  1  0.07659000  0.84069000  0.34696000  1.0
  O  O108  1  0.30156000  0.75362000  0.77353000  1.0
  O  O109  1  0.19844000  0.25363000  0.72647000  1.0
  O  O110  1  0.69843000  0.24638000  0.22647000  1.0
  O  O111  1  0.80156000  0.74638000  0.27353000  1.0
