# generated using pymatgen
data_AgH19C15(N2O)2
_symmetry_space_group_name_H-M   'P 1'
_cell_length_a   10.67210000
_cell_length_b   12.15450000
_cell_length_c   12.67940000
_cell_angle_alpha   86.85480000
_cell_angle_beta   89.99970000
_cell_angle_gamma   89.99990000
_symmetry_Int_Tables_number   1
_chemical_formula_structural   AgH19C15(N2O)2
_chemical_formula_sum   'Ag4 H76 C60 N16 O8'
_cell_volume   1642.21878170
_cell_formula_units_Z   4
loop_
 _symmetry_equiv_pos_site_id
 _symmetry_equiv_pos_as_xyz
  1  'x, y, z'
loop_
 _atom_site_type_symbol
 _atom_site_label
 _atom_site_symmetry_multiplicity
 _atom_site_fract_x
 _atom_site_fract_y
 _atom_site_fract_z
 _atom_site_occupancy
  Ag  Ag0  1  0.06963000  0.00628000  0.90237000  1.0
  Ag  Ag1  1  0.43038000  0.00628000  0.40237000  1.0
  Ag  Ag2  1  0.93038000  0.99372000  0.09763000  1.0
  Ag  Ag3  1  0.56963000  0.99372000  0.59763000  1.0
  H  H4  1  0.32732000  0.72152000  0.07298000  1.0
  H  H5  1  0.17269000  0.72152000  0.57298000  1.0
  H  H6  1  0.67268000  0.27848000  0.92702000  1.0
  H  H7  1  0.82732000  0.27848000  0.42702000  1.0
  H  H8  1  0.09532000  0.22428000  0.74701000  1.0
  H  H9  1  0.40468000  0.22428000  0.24702000  1.0
  H  H10  1  0.90468000  0.77572000  0.25299000  1.0
  H  H11  1  0.59532000  0.77572000  0.75299000  1.0
  H  H12  1  0.11536000  0.11467000  0.65941000  1.0
  H  H13  1  0.38464000  0.11467000  0.15941000  1.0
  H  H14  1  0.88464000  0.88533000  0.34059000  1.0
  H  H15  1  0.61536000  0.88533000  0.84059000  1.0
  H  H16  1  0.13470000  0.72483000  0.25302000  1.0
  H  H17  1  0.36530000  0.72482000  0.75302000  1.0
  H  H18  1  0.86530000  0.27518000  0.74698000  1.0
  H  H19  1  0.63470000  0.27518000  0.24697000  1.0
  H  H20  1  0.34305000  0.13226000  0.92748000  1.0
  H  H21  1  0.15694000  0.13226000  0.42748000  1.0
  H  H22  1  0.65695000  0.86774000  0.07252000  1.0
  H  H23  1  0.84305000  0.86774000  0.57252000  1.0
  H  H24  1  0.22634000  0.23568000  0.89844000  1.0
  H  H25  1  0.27366000  0.23568000  0.39844000  1.0
  H  H26  1  0.77366000  0.76432000  0.10156000  1.0
  H  H27  1  0.72634000  0.76433000  0.60156000  1.0
  H  H28  1  0.17680000  0.62052000  0.41164000  1.0
  H  H29  1  0.32320000  0.62051000  0.91164000  1.0
  H  H30  1  0.82320000  0.37948000  0.58835000  1.0
  H  H31  1  0.67680000  0.37948000  0.08835000  1.0
  H  H32  1  0.25366000  0.36587000  0.75264000  1.0
  H  H33  1  0.24633000  0.36587000  0.25264000  1.0
  H  H34  1  0.74634000  0.63413000  0.24736000  1.0
  H  H35  1  0.75366000  0.63413000  0.74736000  1.0
  H  H36  1  0.38990000  0.35934000  0.67105000  1.0
  H  H37  1  0.11009000  0.35934000  0.17105000  1.0
  H  H38  1  0.61009000  0.64066000  0.32895000  1.0
  H  H39  1  0.88990000  0.64066000  0.82895000  1.0
  H  H40  1  0.42402000  0.58040000  0.14737000  1.0
  H  H41  1  0.07598000  0.58040000  0.64737000  1.0
  H  H42  1  0.57598000  0.41960000  0.85263000  1.0
  H  H43  1  0.92402000  0.41960000  0.35262000  1.0
  H  H44  1  0.47440000  0.37954000  0.43360000  1.0
  H  H45  1  0.02560000  0.37954000  0.93360000  1.0
  H  H46  1  0.52560000  0.62046000  0.56640000  1.0
  H  H47  1  0.97440000  0.62046000  0.06640000  1.0
  H  H48  1  0.29178000  0.47351000  0.51548000  1.0
  H  H49  1  0.20822000  0.47351000  0.01548000  1.0
  H  H50  1  0.70822000  0.52649000  0.48452000  1.0
  H  H51  1  0.79178000  0.52649000  0.98452000  1.0
  H  H52  1  0.53822000  0.43569000  0.25081000  1.0
  H  H53  1  0.96178000  0.43569000  0.75081000  1.0
  H  H54  1  0.46178000  0.56431000  0.74919000  1.0
  H  H55  1  0.03822000  0.56431000  0.24919000  1.0
  H  H56  1  0.54618000  0.22144000  0.70989000  1.0
  H  H57  1  0.95381000  0.22144000  0.20989000  1.0
  H  H58  1  0.45381000  0.77856000  0.29011000  1.0
  H  H59  1  0.04618000  0.77855000  0.79011000  1.0
  H  H60  1  0.52610000  0.12471000  0.82004000  1.0
  H  H61  1  0.97390000  0.12471000  0.32004000  1.0
  H  H62  1  0.47390000  0.87529000  0.17996000  1.0
  H  H63  1  0.02610000  0.87529000  0.67996000  1.0
  H  H64  1  0.27196000  0.97603000  0.69726000  1.0
  H  H65  1  0.22804000  0.97603000  0.19726000  1.0
  H  H66  1  0.72804000  0.02397000  0.30274000  1.0
  H  H67  1  0.77196000  0.02397000  0.80274000  1.0
  H  H68  1  0.36730000  0.98181000  0.81287000  1.0
  H  H69  1  0.13270000  0.98181000  0.31287000  1.0
  H  H70  1  0.63271000  0.01819000  0.18713000  1.0
  H  H71  1  0.86730000  0.01819000  0.68713000  1.0
  H  H72  1  0.41494000  0.21063000  0.55552000  1.0
  H  H73  1  0.08506000  0.21063000  0.05552000  1.0
  H  H74  1  0.58506000  0.78937000  0.44448000  1.0
  H  H75  1  0.91494000  0.78937000  0.94448000  1.0
  H  H76  1  0.29862000  0.10531000  0.55316000  1.0
  H  H77  1  0.20138000  0.10531000  0.05316000  1.0
  H  H78  1  0.70138000  0.89469000  0.44684000  1.0
  H  H79  1  0.79862000  0.89468000  0.94684000  1.0
  C  C80  1  0.24275000  0.74136000  0.11638000  1.0
  C  C81  1  0.25725000  0.74136000  0.61638000  1.0
  C  C82  1  0.75725000  0.25864000  0.88362000  1.0
  C  C83  1  0.74275000  0.25864000  0.38362000  1.0
  C  C84  1  0.16422000  0.17095000  0.71072000  1.0
  C  C85  1  0.33578000  0.17095000  0.21072000  1.0
  C  C86  1  0.83578000  0.82905000  0.28928000  1.0
  C  C87  1  0.66422000  0.82905000  0.78928000  1.0
  C  C88  1  0.15937000  0.82675000  0.06534000  1.0
  C  C89  1  0.34063000  0.82675000  0.56534000  1.0
  C  C90  1  0.84063000  0.17325000  0.93466000  1.0
  C  C91  1  0.65937000  0.17325000  0.43466000  1.0
  C  C92  1  0.21850000  0.69559000  0.21346000  1.0
  C  C93  1  0.28151000  0.69559000  0.71346000  1.0
  C  C94  1  0.78150000  0.30441000  0.78654000  1.0
  C  C95  1  0.71850000  0.30441000  0.28654000  1.0
  C  C96  1  0.29523000  0.18110000  0.86401000  1.0
  C  C97  1  0.20477000  0.18110000  0.36401000  1.0
  C  C98  1  0.70477000  0.81890000  0.13599000  1.0
  C  C99  1  0.79523000  0.81890000  0.63599000  1.0
  C  C100  1  0.29105000  0.61095000  0.27199000  1.0
  C  C101  1  0.20895000  0.61095000  0.77199000  1.0
  C  C102  1  0.70895000  0.38905000  0.72801000  1.0
  C  C103  1  0.79105000  0.38905000  0.22801000  1.0
  C  C104  1  0.25613000  0.57915000  0.37649000  1.0
  C  C105  1  0.24387000  0.57914000  0.87649000  1.0
  C  C106  1  0.74387000  0.42085000  0.62351000  1.0
  C  C107  1  0.75613000  0.42085000  0.12351000  1.0
  C  C108  1  0.32116000  0.31028000  0.71779000  1.0
  C  C109  1  0.17884000  0.31028000  0.21780000  1.0
  C  C110  1  0.67884000  0.68972000  0.28221000  1.0
  C  C111  1  0.82116000  0.68972000  0.78220000  1.0
  C  C112  1  0.39364000  0.55713000  0.22756000  1.0
  C  C113  1  0.10636000  0.55712000  0.72756000  1.0
  C  C114  1  0.60635000  0.44287000  0.77244000  1.0
  C  C115  1  0.89364000  0.44288000  0.27244000  1.0
  C  C116  1  0.42276000  0.44451000  0.38976000  1.0
  C  C117  1  0.07724000  0.44450000  0.88976000  1.0
  C  C118  1  0.57724000  0.55550000  0.61024000  1.0
  C  C119  1  0.92276000  0.55550000  0.11024000  1.0
  C  C120  1  0.32092000  0.49687000  0.43489000  1.0
  C  C121  1  0.17909000  0.49686000  0.93490000  1.0
  C  C122  1  0.67908000  0.50313000  0.56511000  1.0
  C  C123  1  0.82091000  0.50313000  0.06510000  1.0
  C  C124  1  0.45841000  0.47545000  0.28609000  1.0
  C  C125  1  0.04159000  0.47545000  0.78609000  1.0
  C  C126  1  0.54159000  0.52455000  0.71391000  1.0
  C  C127  1  0.95841000  0.52455000  0.21391000  1.0
  C  C128  1  0.47706000  0.17313000  0.75684000  1.0
  C  C129  1  0.02294000  0.17313000  0.25684000  1.0
  C  C130  1  0.52294000  0.82687000  0.24316000  1.0
  C  C131  1  0.97706000  0.82687000  0.74316000  1.0
  C  C132  1  0.32030000  0.03137000  0.74946000  1.0
  C  C133  1  0.17970000  0.03137000  0.24947000  1.0
  C  C134  1  0.67970000  0.96863000  0.25054000  1.0
  C  C135  1  0.82030000  0.96863000  0.75054000  1.0
  C  C136  1  0.34599000  0.16322000  0.60345000  1.0
  C  C137  1  0.15401000  0.16322000  0.10345000  1.0
  C  C138  1  0.65401000  0.83678000  0.39655000  1.0
  C  C139  1  0.84599000  0.83678000  0.89655000  1.0
  N  N140  1  0.22694000  0.10359000  0.79709000  1.0
  N  N141  1  0.27305000  0.10359000  0.29709000  1.0
  N  N142  1  0.77306000  0.89641000  0.20291000  1.0
  N  N143  1  0.72694000  0.89641000  0.70291000  1.0
  N  N144  1  0.25421000  0.23734000  0.64759000  1.0
  N  N145  1  0.24578000  0.23734000  0.14759000  1.0
  N  N146  1  0.74578000  0.76266000  0.35241000  1.0
  N  N147  1  0.75422000  0.76266000  0.85241000  1.0
  N  N148  1  0.41454000  0.09598000  0.68667000  1.0
  N  N149  1  0.08546000  0.09598000  0.18667000  1.0
  N  N150  1  0.58546000  0.90402000  0.31333000  1.0
  N  N151  1  0.91454000  0.90402000  0.81333000  1.0
  N  N152  1  0.38757000  0.24748000  0.80368000  1.0
  N  N153  1  0.11243000  0.24748000  0.30368000  1.0
  N  N154  1  0.61243000  0.75252000  0.19632000  1.0
  N  N155  1  0.88757000  0.75252000  0.69632000  1.0
  O  O156  1  0.21014000  0.89295000  0.99590000  1.0
  O  O157  1  0.28986000  0.89295000  0.49590000  1.0
  O  O158  1  0.78986000  0.10705000  0.00410000  1.0
  O  O159  1  0.71014000  0.10705000  0.50410000  1.0
  O  O160  1  0.04529000  0.82832000  0.09521000  1.0
  O  O161  1  0.45471000  0.82832000  0.59521000  1.0
  O  O162  1  0.95471000  0.17168000  0.90479000  1.0
  O  O163  1  0.54529000  0.17168000  0.40479000  1.0
