# generated using pymatgen
data_Zn3P2H8(C7O5)2
_symmetry_space_group_name_H-M   'P 1'
_cell_length_a   8.71058000
_cell_length_b   10.31140000
_cell_length_c   18.63400000
_cell_angle_alpha   90.00000000
_cell_angle_beta   90.00000000
_cell_angle_gamma   90.00000000
_symmetry_Int_Tables_number   1
_chemical_formula_structural   Zn3P2H8(C7O5)2
_chemical_formula_sum   'Zn12 P8 H32 C56 O40'
_cell_volume   1673.67372912
_cell_formula_units_Z   4
loop_
 _symmetry_equiv_pos_site_id
 _symmetry_equiv_pos_as_xyz
  1  'x, y, z'
loop_
 _atom_site_type_symbol
 _atom_site_label
 _atom_site_symmetry_multiplicity
 _atom_site_fract_x
 _atom_site_fract_y
 _atom_site_fract_z
 _atom_site_occupancy
  Zn  Zn0  1  0.67877000  0.12224000  0.39952000  1.0
  Zn  Zn1  1  0.32123000  0.87776000  0.89952000  1.0
  Zn  Zn2  1  0.32123000  0.62224000  0.39952000  1.0
  Zn  Zn3  1  0.67877000  0.37776000  0.89952000  1.0
  Zn  Zn4  1  0.85731000  0.86281000  0.42289000  1.0
  Zn  Zn5  1  0.14270000  0.13719000  0.92289000  1.0
  Zn  Zn6  1  0.14270000  0.36281000  0.42289000  1.0
  Zn  Zn7  1  0.85731000  0.63719000  0.92289000  1.0
  Zn  Zn8  1  0.69335000  0.02783000  0.94024000  1.0
  Zn  Zn9  1  0.30666000  0.97217000  0.44024000  1.0
  Zn  Zn10  1  0.30665000  0.52783000  0.94024000  1.0
  Zn  Zn11  1  0.69335000  0.47217000  0.44024000  1.0
  P  P12  1  0.98794000  0.37437000  0.99440000  1.0
  P  P13  1  0.01206000  0.62563000  0.49440000  1.0
  P  P14  1  0.01207000  0.87437000  0.99441000  1.0
  P  P15  1  0.98793000  0.12563000  0.49440000  1.0
  P  P16  1  0.53601000  0.75302000  0.98922000  1.0
  P  P17  1  0.46398000  0.24698000  0.48922000  1.0
  P  P18  1  0.46399000  0.25302000  0.98922000  1.0
  P  P19  1  0.53601000  0.74698000  0.48922000  1.0
  H  H20  1  0.49745000  0.02647000  0.20685000  1.0
  H  H21  1  0.50255000  0.97353000  0.70685000  1.0
  H  H22  1  0.50255000  0.52647000  0.20685000  1.0
  H  H23  1  0.49745000  0.47353000  0.70685000  1.0
  H  H24  1  0.42918000  0.96570000  0.08108000  1.0
  H  H25  1  0.57082000  0.03430000  0.58108000  1.0
  H  H26  1  0.57082000  0.46570000  0.08108000  1.0
  H  H27  1  0.42918000  0.53430000  0.58108000  1.0
  H  H28  1  0.73548000  0.63774000  0.09410000  1.0
  H  H29  1  0.26451000  0.36225000  0.59410000  1.0
  H  H30  1  0.26452000  0.13774000  0.09410000  1.0
  H  H31  1  0.73548000  0.86226000  0.59410000  1.0
  H  H32  1  0.80387000  0.70077000  0.21945000  1.0
  H  H33  1  0.19613000  0.29922000  0.71945000  1.0
  H  H34  1  0.19614000  0.20078000  0.21945000  1.0
  H  H35  1  0.80387000  0.79922000  0.71945000  1.0
  H  H36  1  0.72456000  0.18074000  0.20264000  1.0
  H  H37  1  0.27544000  0.81925000  0.70264000  1.0
  H  H38  1  0.27544000  0.68075000  0.20264000  1.0
  H  H39  1  0.72456000  0.31925000  0.70264000  1.0
  H  H40  1  0.80498000  0.19063000  0.07413000  1.0
  H  H41  1  0.19502000  0.80937000  0.57413000  1.0
  H  H42  1  0.19502000  0.69063000  0.07413000  1.0
  H  H43  1  0.80499000  0.30938000  0.57413000  1.0
  H  H44  1  0.03871000  0.55057000  0.11527000  1.0
  H  H45  1  0.96129000  0.44942000  0.61527000  1.0
  H  H46  1  0.96129000  0.05057000  0.11527000  1.0
  H  H47  1  0.03871000  0.94943000  0.61527000  1.0
  H  H48  1  0.95492000  0.54153000  0.24334000  1.0
  H  H49  1  0.04508000  0.45847000  0.74334000  1.0
  H  H50  1  0.04507000  0.04153000  0.24334000  1.0
  H  H51  1  0.95493000  0.95847000  0.74334000  1.0
  C  C52  1  0.70058000  0.90431000  0.29397000  1.0
  C  C53  1  0.29941000  0.09569000  0.79397000  1.0
  C  C54  1  0.29941000  0.40431000  0.29397000  1.0
  C  C55  1  0.70059000  0.59568000  0.79397000  1.0
  C  C56  1  0.65440000  0.86628000  0.22010000  1.0
  C  C57  1  0.34560000  0.13372000  0.72010000  1.0
  C  C58  1  0.34560000  0.36628000  0.22010000  1.0
  C  C59  1  0.65440000  0.63372000  0.72010000  1.0
  C  C60  1  0.54824000  0.94132000  0.18164000  1.0
  C  C61  1  0.45176000  0.05869000  0.68164000  1.0
  C  C62  1  0.45176000  0.44132000  0.18164000  1.0
  C  C63  1  0.54825000  0.55869000  0.68164000  1.0
  C  C64  1  0.50983000  0.90678000  0.11177000  1.0
  C  C65  1  0.49017000  0.09322000  0.61177000  1.0
  C  C66  1  0.49017000  0.40679000  0.11177000  1.0
  C  C67  1  0.50983000  0.59322000  0.61177000  1.0
  C  C68  1  0.57580000  0.79633000  0.08050000  1.0
  C  C69  1  0.42420000  0.20367000  0.58050000  1.0
  C  C70  1  0.42420000  0.29633000  0.08050000  1.0
  C  C71  1  0.57580000  0.70367000  0.58050000  1.0
  C  C72  1  0.68160000  0.72156000  0.11924000  1.0
  C  C73  1  0.31839000  0.27844000  0.61924000  1.0
  C  C74  1  0.31840000  0.22156000  0.11924000  1.0
  C  C75  1  0.68160000  0.77844000  0.61924000  1.0
  C  C76  1  0.72092000  0.75663000  0.18873000  1.0
  C  C77  1  0.27907000  0.24338000  0.68873000  1.0
  C  C78  1  0.27908000  0.25663000  0.18873000  1.0
  C  C79  1  0.72093000  0.74337000  0.68873000  1.0
  C  C80  1  0.77380000  0.35570000  0.30505000  1.0
  C  C81  1  0.22620000  0.64429000  0.80505000  1.0
  C  C82  1  0.22619000  0.85571000  0.30505000  1.0
  C  C83  1  0.77381000  0.14430000  0.80505000  1.0
  C  C84  1  0.83239000  0.36176000  0.22995000  1.0
  C  C85  1  0.16761000  0.63823000  0.72995000  1.0
  C  C86  1  0.16760000  0.86176000  0.22995000  1.0
  C  C87  1  0.83240000  0.13824000  0.72995000  1.0
  C  C88  1  0.79334000  0.26133000  0.18279000  1.0
  C  C89  1  0.20666000  0.73867000  0.68279000  1.0
  C  C90  1  0.20665000  0.76133000  0.18280000  1.0
  C  C91  1  0.79335000  0.23867000  0.68279000  1.0
  C  C92  1  0.83867000  0.26651000  0.11143000  1.0
  C  C93  1  0.16133000  0.73349000  0.61143000  1.0
  C  C94  1  0.16133000  0.76651000  0.11143000  1.0
  C  C95  1  0.83867000  0.23350000  0.61143000  1.0
  C  C96  1  0.92575000  0.37146000  0.08654000  1.0
  C  C97  1  0.07425000  0.62853000  0.58654000  1.0
  C  C98  1  0.07425000  0.87147000  0.08654000  1.0
  C  C99  1  0.92575000  0.12854000  0.58654000  1.0
  C  C100  1  0.96814000  0.47055000  0.13421000  1.0
  C  C101  1  0.03185000  0.52945000  0.63421000  1.0
  C  C102  1  0.03185000  0.97055000  0.13421000  1.0
  C  C103  1  0.96815000  0.02945000  0.63421000  1.0
  C  C104  1  0.92136000  0.46590000  0.20560000  1.0
  C  C105  1  0.07864000  0.53409000  0.70560000  1.0
  C  C106  1  0.07864000  0.96590000  0.20560000  1.0
  C  C107  1  0.92136000  0.03410000  0.70559000  1.0
  O  O108  1  0.81957000  0.84804000  0.32020000  1.0
  O  O109  1  0.18043000  0.15196000  0.82020000  1.0
  O  O110  1  0.18043000  0.34804000  0.32019000  1.0
  O  O111  1  0.81957000  0.65196000  0.82020000  1.0
  O  O112  1  0.62020000  0.98966000  0.32556000  1.0
  O  O113  1  0.37980000  0.01034000  0.82556000  1.0
  O  O114  1  0.37980000  0.48966000  0.32556000  1.0
  O  O115  1  0.62020000  0.51034000  0.82556000  1.0
  O  O116  1  0.53318000  0.88399000  0.94554000  1.0
  O  O117  1  0.46682000  0.11601000  0.44554000  1.0
  O  O118  1  0.46683000  0.38399000  0.94554000  1.0
  O  O119  1  0.53318000  0.61601000  0.44554000  1.0
  O  O120  1  0.37104000  0.69799000  0.97994000  1.0
  O  O121  1  0.62896000  0.30202000  0.47994000  1.0
  O  O122  1  0.62896000  0.19798000  0.97994000  1.0
  O  O123  1  0.37104000  0.80201000  0.47994000  1.0
  O  O124  1  0.65487000  0.65505000  0.96602000  1.0
  O  O125  1  0.34513000  0.34495000  0.46602000  1.0
  O  O126  1  0.34513000  0.15505000  0.96602000  1.0
  O  O127  1  0.65487000  0.84495000  0.46602000  1.0
  O  O128  1  0.78365000  0.45774000  0.34374000  1.0
  O  O129  1  0.21635000  0.54226000  0.84374000  1.0
  O  O130  1  0.21635000  0.95774000  0.34374000  1.0
  O  O131  1  0.78365000  0.04226000  0.84374000  1.0
  O  O132  1  0.71384000  0.24889000  0.32385000  1.0
  O  O133  1  0.28616000  0.75111000  0.82385000  1.0
  O  O134  1  0.28615000  0.74889000  0.32386000  1.0
  O  O135  1  0.71385000  0.25111000  0.82385000  1.0
  O  O136  1  0.98604000  0.23363000  0.96822000  1.0
  O  O137  1  0.01396000  0.76637000  0.46822000  1.0
  O  O138  1  0.01396000  0.73363000  0.96822000  1.0
  O  O139  1  0.98603000  0.26637000  0.46821000  1.0
  O  O140  1  0.86372000  0.44861000  0.94843000  1.0
  O  O141  1  0.13628000  0.55139000  0.44843000  1.0
  O  O142  1  0.13628000  0.94861000  0.94843000  1.0
  O  O143  1  0.86372000  0.05139000  0.44843000  1.0
  O  O144  1  0.14073000  0.44506000  0.99362000  1.0
  O  O145  1  0.85927000  0.55494000  0.49362000  1.0
  O  O146  1  0.85927000  0.94506000  0.99362000  1.0
  O  O147  1  0.14073000  0.05494000  0.49362000  1.0
