# generated using pymatgen
data_H5PbC6N3O4
_symmetry_space_group_name_H-M   'P 1'
_cell_length_a   4.59302000
_cell_length_b   12.12510000
_cell_length_c   17.72700000
_cell_angle_alpha   89.99990000
_cell_angle_beta   90.00000000
_cell_angle_gamma   89.99970000
_symmetry_Int_Tables_number   1
_chemical_formula_structural   H5PbC6N3O4
_chemical_formula_sum   'H20 Pb4 C24 N12 O16'
_cell_volume   987.23128670
_cell_formula_units_Z   4
loop_
 _symmetry_equiv_pos_site_id
 _symmetry_equiv_pos_as_xyz
  1  'x, y, z'
loop_
 _atom_site_type_symbol
 _atom_site_label
 _atom_site_symmetry_multiplicity
 _atom_site_fract_x
 _atom_site_fract_y
 _atom_site_fract_z
 _atom_site_occupancy
  H  H0  1  0.75017000  0.34965000  0.60358000  1.0
  H  H1  1  0.74983000  0.65035000  0.10358000  1.0
  H  H2  1  0.24982000  0.84965000  0.89642000  1.0
  H  H3  1  0.25019000  0.15035000  0.39643000  1.0
  H  H4  1  0.14458000  0.48937000  0.54027000  1.0
  H  H5  1  0.35542000  0.51063000  0.04027000  1.0
  H  H6  1  0.85542000  0.98937000  0.95973000  1.0
  H  H7  1  0.64458000  0.01063000  0.45973000  1.0
  H  H8  1  0.12854000  0.62874000  0.57134000  1.0
  H  H9  1  0.37146000  0.37126000  0.07134000  1.0
  H  H10  1  0.87146000  0.12874000  0.92866000  1.0
  H  H11  1  0.62855000  0.87126000  0.42866000  1.0
  H  H12  1  0.68061000  0.51780000  0.46516000  1.0
  H  H13  1  0.81939000  0.48220000  0.96517000  1.0
  H  H14  1  0.31940000  0.01780000  0.03483000  1.0
  H  H15  1  0.18060000  0.98220000  0.53483000  1.0
  H  H16  1  0.64791000  0.65142000  0.50285000  1.0
  H  H17  1  0.85209000  0.34858000  0.00285000  1.0
  H  H18  1  0.35209000  0.15142000  0.99715000  1.0
  H  H19  1  0.14791000  0.84858000  0.49715000  1.0
  Pb  Pb20  1  0.17836000  0.31955000  0.78621000  1.0
  Pb  Pb21  1  0.32164000  0.68046000  0.28621000  1.0
  Pb  Pb22  1  0.82167000  0.81954000  0.71379000  1.0
  Pb  Pb23  1  0.67833000  0.18046000  0.21379000  1.0
  C  C24  1  0.34743000  0.59576000  0.77095000  1.0
  C  C25  1  0.15256000  0.40424000  0.27095000  1.0
  C  C26  1  0.65258000  0.09575000  0.72905000  1.0
  C  C27  1  0.84742000  0.90426000  0.22905000  1.0
  C  C28  1  0.52189000  0.54552000  0.70791000  1.0
  C  C29  1  0.97811000  0.45448000  0.20791000  1.0
  C  C30  1  0.47811000  0.04552000  0.79209000  1.0
  C  C31  1  0.02189000  0.95448000  0.29209000  1.0
  C  C32  1  0.69584000  0.42593000  0.63240000  1.0
  C  C33  1  0.80416000  0.57407000  0.13240000  1.0
  C  C34  1  0.30416000  0.92593000  0.86760000  1.0
  C  C35  1  0.19585000  0.07407000  0.36760000  1.0
  C  C36  1  0.99749000  0.55822000  0.55300000  1.0
  C  C37  1  0.50251000  0.44178000  0.05300000  1.0
  C  C38  1  0.00251000  0.05822000  0.94700000  1.0
  C  C39  1  0.49749000  0.94178000  0.44700000  1.0
  C  C40  1  0.80673000  0.58864000  0.48575000  1.0
  C  C41  1  0.69327000  0.41136000  0.98575000  1.0
  C  C42  1  0.19327000  0.08864000  0.01425000  1.0
  C  C43  1  0.30673000  0.91136000  0.51425000  1.0
  C  C44  1  0.97799000  0.63578000  0.42052000  1.0
  C  C45  1  0.52202000  0.36422000  0.92052000  1.0
  C  C46  1  0.02202000  0.13578000  0.07948000  1.0
  C  C47  1  0.47798000  0.86422000  0.57948000  1.0
  N  N48  1  0.50929000  0.43658000  0.68942000  1.0
  N  N49  1  0.99071000  0.56342000  0.18942000  1.0
  N  N50  1  0.49071000  0.93658000  0.81058000  1.0
  N  N51  1  0.00930000  0.06343000  0.31058000  1.0
  N  N52  1  0.70473000  0.60224000  0.66416000  1.0
  N  N53  1  0.79527000  0.39775000  0.16416000  1.0
  N  N54  1  0.29527000  0.10224000  0.83584000  1.0
  N  N55  1  0.20473000  0.89776000  0.33584000  1.0
  N  N56  1  0.81544000  0.52539000  0.61679000  1.0
  N  N57  1  0.68456000  0.47461000  0.11679000  1.0
  N  N58  1  0.18456000  0.02539000  0.88321000  1.0
  N  N59  1  0.31544000  0.97461000  0.38321000  1.0
  O  O60  1  0.17181000  0.53201000  0.80493000  1.0
  O  O61  1  0.32818000  0.46799000  0.30493000  1.0
  O  O62  1  0.82820000  0.03200000  0.69507000  1.0
  O  O63  1  0.67179000  0.96801000  0.19507000  1.0
  O  O64  1  0.23692000  0.66795000  0.43146000  1.0
  O  O65  1  0.26308000  0.33205000  0.93146000  1.0
  O  O66  1  0.76308000  0.16795000  0.06854000  1.0
  O  O67  1  0.73692000  0.83205000  0.56854000  1.0
  O  O68  1  0.85708000  0.64106000  0.35534000  1.0
  O  O69  1  0.64292000  0.35894000  0.85534000  1.0
  O  O70  1  0.14292000  0.14106000  0.14466000  1.0
  O  O71  1  0.35708000  0.85894000  0.64466000  1.0
  O  O72  1  0.38523000  0.69770000  0.78361000  1.0
  O  O73  1  0.11477000  0.30229000  0.28361000  1.0
  O  O74  1  0.61479000  0.19770000  0.71639000  1.0
  O  O75  1  0.88520000  0.80231000  0.21639000  1.0
