# generated using pymatgen
data_Zn3H20C14(NO9)2
_symmetry_space_group_name_H-M   'P 1'
_cell_length_a   7.26750000
_cell_length_b   8.44057000
_cell_length_c   9.35273000
_cell_angle_alpha   110.21500000
_cell_angle_beta   101.48100000
_cell_angle_gamma   94.48350000
_symmetry_Int_Tables_number   1
_chemical_formula_structural   Zn3H20C14(NO9)2
_chemical_formula_sum   'Zn3 H20 C14 N2 O18'
_cell_volume   520.82252691
_cell_formula_units_Z   1
loop_
 _symmetry_equiv_pos_site_id
 _symmetry_equiv_pos_as_xyz
  1  'x, y, z'
loop_
 _atom_site_type_symbol
 _atom_site_label
 _atom_site_symmetry_multiplicity
 _atom_site_fract_x
 _atom_site_fract_y
 _atom_site_fract_z
 _atom_site_occupancy
  Zn  Zn0  1  0.11325000  0.85752000  0.87088000  1.0
  Zn  Zn1  1  0.88674000  0.14248000  0.12911000  1.0
  Zn  Zn2  1  0.50000000  0.00000000  0.50000000  1.0
  H  H3  1  0.45938000  0.85313000  0.02236000  1.0
  H  H4  1  0.54062000  0.14687000  0.97764000  1.0
  H  H5  1  0.32830000  0.90680000  0.14394000  1.0
  H  H6  1  0.67170000  0.09320000  0.85606000  1.0
  H  H7  1  0.89494000  0.77706000  0.58274000  1.0
  H  H8  1  0.10506000  0.22294000  0.41726000  1.0
  H  H9  1  0.87679000  0.97283000  0.67981000  1.0
  H  H10  1  0.12321000  0.02717000  0.32019000  1.0
  H  H11  1  0.58338000  0.25843000  0.39478000  1.0
  H  H12  1  0.41662000  0.74157000  0.60523000  1.0
  H  H13  1  0.42349000  0.31110000  0.49449000  1.0
  H  H14  1  0.57651000  0.68890000  0.50551000  1.0
  H  H15  1  0.81877000  0.01492000  0.37521000  1.0
  H  H16  1  0.18123000  0.98508000  0.62479000  1.0
  H  H17  1  0.67307000  0.85697000  0.25261000  1.0
  H  H18  1  0.32694000  0.14303000  0.74739000  1.0
  H  H19  1  0.01348000  0.21267000  0.60773000  1.0
  H  H20  1  0.98652000  0.78733000  0.39227000  1.0
  H  H21  1  0.62514000  0.40521000  0.90035000  1.0
  H  H22  1  0.37486000  0.59479000  0.09964000  1.0
  C  C23  1  0.03753000  0.48424000  0.71991000  1.0
  C  C24  1  0.96247000  0.51576000  0.28009000  1.0
  C  C25  1  0.95778000  0.31667000  0.68359000  1.0
  C  C26  1  0.04222000  0.68333000  0.31641000  1.0
  C  C27  1  0.80535000  0.28080000  0.74622000  1.0
  C  C28  1  0.19465000  0.71920000  0.25378000  1.0
  C  C29  1  0.74292000  0.42219000  0.84814000  1.0
  C  C30  1  0.25708000  0.57781000  0.15186000  1.0
  C  C31  1  0.83577000  0.58577000  0.88276000  1.0
  C  C32  1  0.16423000  0.41423000  0.11724000  1.0
  C  C33  1  0.19326000  0.53072000  0.64902000  1.0
  C  C34  1  0.80674000  0.46928000  0.35098000  1.0
  C  C35  1  0.78789000  0.74327000  0.99756000  1.0
  C  C36  1  0.21211000  0.25673000  0.00244000  1.0
  N  N37  1  0.97943000  0.61619000  0.81964000  1.0
  N  N38  1  0.02057000  0.38381000  0.18036000  1.0
  O  O39  1  0.35345000  0.91674000  0.04424000  1.0
  O  O40  1  0.64655000  0.08326000  0.95576000  1.0
  O  O41  1  0.96873000  0.88860000  0.66318000  1.0
  O  O42  1  0.03127000  0.11140000  0.33682000  1.0
  O  O43  1  0.49831000  0.22039000  0.45283000  1.0
  O  O44  1  0.50170000  0.77961000  0.54718000  1.0
  O  O45  1  0.70909000  0.93177000  0.36600000  1.0
  O  O46  1  0.29091000  0.06823000  0.63400000  1.0
  O  O47  1  0.23547000  0.41335000  0.53902000  1.0
  O  O48  1  0.76453000  0.58665000  0.46098000  1.0
  O  O49  1  0.26953000  0.68786000  0.70327000  1.0
  O  O50  1  0.73047000  0.31214000  0.29673000  1.0
  O  O51  1  0.90326000  0.88073000  0.03013000  1.0
  O  O52  1  0.09674000  0.11927000  0.96987000  1.0
  O  O53  1  0.64659000  0.73080000  0.05461000  1.0
  O  O54  1  0.35341000  0.26920000  0.94539000  1.0
  O  O55  1  0.72687000  0.12045000  0.71014000  1.0
  O  O56  1  0.27313000  0.87955000  0.28986000  1.0
