# generated using pymatgen
data_TlH5C7O3
_symmetry_space_group_name_H-M   'P 1'
_cell_length_a   8.48036000
_cell_length_b   8.81945000
_cell_length_c   19.19270000
_cell_angle_alpha   89.99980000
_cell_angle_beta   90.00030000
_cell_angle_gamma   89.99860000
_symmetry_Int_Tables_number   1
_chemical_formula_structural   TlH5C7O3
_chemical_formula_sum   'Tl8 H40 C56 O24'
_cell_volume   1435.46254837
_cell_formula_units_Z   8
loop_
 _symmetry_equiv_pos_site_id
 _symmetry_equiv_pos_as_xyz
  1  'x, y, z'
loop_
 _atom_site_type_symbol
 _atom_site_label
 _atom_site_symmetry_multiplicity
 _atom_site_fract_x
 _atom_site_fract_y
 _atom_site_fract_z
 _atom_site_occupancy
  Tl  Tl0  1  0.88661000  0.41541000  0.40102000  1.0
  Tl  Tl1  1  0.11340000  0.08460000  0.90102000  1.0
  Tl  Tl2  1  0.38660000  0.58462000  0.09898000  1.0
  Tl  Tl3  1  0.61340000  0.91537000  0.59899000  1.0
  Tl  Tl4  1  0.11339000  0.58459000  0.59898000  1.0
  Tl  Tl5  1  0.88660000  0.91540000  0.09898000  1.0
  Tl  Tl6  1  0.61340000  0.41539000  0.90101000  1.0
  Tl  Tl7  1  0.38660000  0.08462000  0.40102000  1.0
  H  H8  1  0.80723000  0.03653000  0.44256000  1.0
  H  H9  1  0.19276000  0.46348000  0.94256000  1.0
  H  H10  1  0.30728000  0.96352000  0.05743000  1.0
  H  H11  1  0.69273000  0.53647000  0.55743000  1.0
  H  H12  1  0.19276000  0.96347000  0.55744000  1.0
  H  H13  1  0.80725000  0.53651000  0.05743000  1.0
  H  H14  1  0.69273000  0.03649000  0.94257000  1.0
  H  H15  1  0.30728000  0.46353000  0.44257000  1.0
  H  H16  1  0.96456000  0.13911000  0.27490000  1.0
  H  H17  1  0.03545000  0.36090000  0.77491000  1.0
  H  H18  1  0.46457000  0.86092000  0.22510000  1.0
  H  H19  1  0.53545000  0.63908000  0.72509000  1.0
  H  H20  1  0.03544000  0.86088000  0.72510000  1.0
  H  H21  1  0.96455000  0.63911000  0.22509000  1.0
  H  H22  1  0.53542000  0.13909000  0.77490000  1.0
  H  H23  1  0.46457000  0.36091000  0.27491000  1.0
  H  H24  1  0.16667000  0.97512000  0.21905000  1.0
  H  H25  1  0.83334000  0.52488000  0.71905000  1.0
  H  H26  1  0.66666667  0.02491000  0.28096000  1.0
  H  H27  1  0.33333333  0.47511000  0.78095000  1.0
  H  H28  1  0.83333000  0.02488000  0.78096000  1.0
  H  H29  1  0.16666000  0.47512000  0.28095000  1.0
  H  H30  1  0.33333333  0.97511000  0.71904000  1.0
  H  H31  1  0.66666667  0.52489000  0.21905000  1.0
  H  H32  1  0.25884000  0.73965000  0.27877000  1.0
  H  H33  1  0.74116000  0.76035000  0.77877000  1.0
  H  H34  1  0.75883000  0.26038000  0.22124000  1.0
  H  H35  1  0.24117000  0.23964000  0.72124000  1.0
  H  H36  1  0.74116000  0.26034000  0.72124000  1.0
  H  H37  1  0.25884000  0.23965000  0.22124000  1.0
  H  H38  1  0.24116000  0.73963000  0.77876000  1.0
  H  H39  1  0.75883000  0.76036000  0.27876000  1.0
  H  H40  1  0.13838000  0.66650000  0.39294000  1.0
  H  H41  1  0.86161000  0.83350000  0.89294000  1.0
  H  H42  1  0.63840000  0.33353000  0.10707000  1.0
  H  H43  1  0.36160000  0.16648000  0.60707000  1.0
  H  H44  1  0.86159000  0.33349000  0.60707000  1.0
  H  H45  1  0.13839000  0.16649000  0.10707000  1.0
  H  H46  1  0.36160000  0.66648000  0.89293000  1.0
  H  H47  1  0.63840000  0.83353000  0.39293000  1.0
  C  C48  1  0.98563000  0.85860000  0.39789000  1.0
  C  C49  1  0.01436000  0.64140000  0.89789000  1.0
  C  C50  1  0.48565000  0.14143000  0.10211000  1.0
  C  C51  1  0.51434000  0.35857000  0.60210000  1.0
  C  C52  1  0.01436000  0.14139000  0.60211000  1.0
  C  C53  1  0.98564000  0.35860000  0.10211000  1.0
  C  C54  1  0.51435000  0.85858000  0.89789000  1.0
  C  C55  1  0.48566000  0.64142000  0.39789000  1.0
  C  C56  1  0.93765000  0.99473000  0.36477000  1.0
  C  C57  1  0.06235000  0.50527000  0.86477000  1.0
  C  C58  1  0.43768000  0.00530000  0.13523000  1.0
  C  C59  1  0.56233000  0.49470000  0.63522000  1.0
  C  C60  1  0.06234000  0.00526000  0.63523000  1.0
  C  C61  1  0.93766000  0.49473000  0.13523000  1.0
  C  C62  1  0.56232000  0.99471000  0.86477000  1.0
  C  C63  1  0.43768000  0.50530000  0.36477000  1.0
  C  C64  1  0.00292000  0.03486000  0.30014000  1.0
  C  C65  1  0.99708000  0.46515000  0.80014000  1.0
  C  C66  1  0.50293000  0.96517000  0.19986000  1.0
  C  C67  1  0.49708000  0.53483000  0.69986000  1.0
  C  C68  1  0.99708000  0.96514000  0.69986000  1.0
  C  C69  1  0.00293000  0.53485000  0.19986000  1.0
  C  C70  1  0.49707000  0.03483000  0.80014000  1.0
  C  C71  1  0.50293000  0.46516000  0.30014000  1.0
  C  C72  1  0.11664000  0.94289000  0.26923000  1.0
  C  C73  1  0.88336000  0.55711000  0.76923000  1.0
  C  C74  1  0.61665000  0.05713000  0.23078000  1.0
  C  C75  1  0.38336000  0.44287000  0.73077000  1.0
  C  C76  1  0.88336000  0.05710000  0.73078000  1.0
  C  C77  1  0.11664000  0.44289000  0.23077000  1.0
  C  C78  1  0.38335000  0.94288000  0.76922000  1.0
  C  C79  1  0.61665000  0.55713000  0.26923000  1.0
  C  C80  1  0.16790000  0.81020000  0.30235000  1.0
  C  C81  1  0.83210000  0.68981000  0.80236000  1.0
  C  C82  1  0.66791000  0.18982000  0.19765000  1.0
  C  C83  1  0.33209000  0.31018000  0.69765000  1.0
  C  C84  1  0.83209000  0.18979000  0.69765000  1.0
  C  C85  1  0.16791000  0.31020000  0.19765000  1.0
  C  C86  1  0.33209000  0.81018000  0.80235000  1.0
  C  C87  1  0.66791000  0.68982000  0.30235000  1.0
  C  C88  1  0.10106000  0.76900000  0.36589000  1.0
  C  C89  1  0.89894000  0.73100000  0.86589000  1.0
  C  C90  1  0.60107000  0.23102000  0.13411000  1.0
  C  C91  1  0.39893000  0.26898000  0.63411000  1.0
  C  C92  1  0.89893000  0.23099000  0.63412000  1.0
  C  C93  1  0.10107000  0.26900000  0.13411000  1.0
  C  C94  1  0.39893000  0.76898000  0.86588000  1.0
  C  C95  1  0.60108000  0.73103000  0.36588000  1.0
  C  C96  1  0.91291000  0.81176000  0.46559000  1.0
  C  C97  1  0.08709000  0.68824000  0.96559000  1.0
  C  C98  1  0.41293000  0.18826000  0.03441000  1.0
  C  C99  1  0.58707000  0.31173000  0.53441000  1.0
  C  C100  1  0.08707000  0.18823000  0.53441000  1.0
  C  C101  1  0.91292000  0.31175000  0.03441000  1.0
  C  C102  1  0.58707000  0.81175000  0.96559000  1.0
  C  C103  1  0.41293000  0.68827000  0.46559000  1.0
  O  O104  1  0.93622000  0.67956000  0.48891000  1.0
  O  O105  1  0.06378000  0.82045000  0.98891000  1.0
  O  O106  1  0.43624000  0.32048000  0.01109000  1.0
  O  O107  1  0.56376000  0.17951000  0.51109000  1.0
  O  O108  1  0.06377000  0.32043000  0.51109000  1.0
  O  O109  1  0.93622000  0.17955000  0.01110000  1.0
  O  O110  1  0.56376000  0.67953000  0.98891000  1.0
  O  O111  1  0.43624000  0.82049000  0.48891000  1.0
  O  O112  1  0.82598000  0.91265000  0.49566000  1.0
  O  O113  1  0.17403000  0.58736000  0.99566000  1.0
  O  O114  1  0.32600000  0.08739000  0.00434000  1.0
  O  O115  1  0.67400000  0.41260000  0.50433000  1.0
  O  O116  1  0.17401000  0.08734000  0.50434000  1.0
  O  O117  1  0.82598000  0.41264000  0.00434000  1.0
  O  O118  1  0.67400000  0.91261000  0.99566000  1.0
  O  O119  1  0.32600000  0.58740000  0.49566000  1.0
  O  O120  1  0.82735000  0.08587000  0.39399000  1.0
  O  O121  1  0.17265000  0.41413000  0.89399000  1.0
  O  O122  1  0.32738000  0.91416000  0.10600000  1.0
  O  O123  1  0.67263000  0.58583000  0.60600000  1.0
  O  O124  1  0.17264000  0.91412000  0.60601000  1.0
  O  O125  1  0.82736000  0.58587000  0.10600000  1.0
  O  O126  1  0.67262000  0.08585000  0.89399000  1.0
  O  O127  1  0.32738000  0.41416000  0.39400000  1.0
