# generated using pymatgen
data_ReAgH6C5(NO2)2
_symmetry_space_group_name_H-M   'P 1'
_cell_length_a   7.14497000
_cell_length_b   8.01018000
_cell_length_c   15.62260000
_cell_angle_alpha   90.00070000
_cell_angle_beta   90.00020000
_cell_angle_gamma   86.61860000
_symmetry_Int_Tables_number   1
_chemical_formula_structural   ReAgH6C5(NO2)2
_chemical_formula_sum   'Re4 Ag4 H24 C20 N8 O16'
_cell_volume   892.56375019
_cell_formula_units_Z   4
loop_
 _symmetry_equiv_pos_site_id
 _symmetry_equiv_pos_as_xyz
  1  'x, y, z'
loop_
 _atom_site_type_symbol
 _atom_site_label
 _atom_site_symmetry_multiplicity
 _atom_site_fract_x
 _atom_site_fract_y
 _atom_site_fract_z
 _atom_site_occupancy
  Re  Re0  1  0.55005000  0.87999000  0.62865000  1.0
  Re  Re1  1  0.44994000  0.62002000  0.12866000  1.0
  Re  Re2  1  0.44996000  0.12001000  0.37134000  1.0
  Re  Re3  1  0.55005000  0.37998000  0.87134000  1.0
  Ag  Ag4  1  0.55637000  0.62792000  0.39840000  1.0
  Ag  Ag5  1  0.44363000  0.87208000  0.89840000  1.0
  Ag  Ag6  1  0.44364000  0.37208000  0.60160000  1.0
  Ag  Ag7  1  0.55637000  0.12793000  0.10160000  1.0
  H  H8  1  0.86326000  0.78816000  0.49826000  1.0
  H  H9  1  0.13673000  0.71184000  0.99826000  1.0
  H  H10  1  0.13674000  0.21184000  0.50174000  1.0
  H  H11  1  0.86326000  0.28816000  0.00173000  1.0
  H  H12  1  0.21466000  0.79854000  0.49836000  1.0
  H  H13  1  0.78533000  0.70145000  0.99835000  1.0
  H  H14  1  0.78535000  0.20146000  0.50164000  1.0
  H  H15  1  0.21466000  0.29854000  0.00164000  1.0
  H  H16  1  0.24931000  0.45537000  0.29876000  1.0
  H  H17  1  0.75069000  0.04462000  0.79875000  1.0
  H  H18  1  0.75070000  0.54463000  0.70124000  1.0
  H  H19  1  0.24930000  0.95539000  0.20124000  1.0
  H  H20  1  0.72446000  0.40652000  0.29351000  1.0
  H  H21  1  0.27554000  0.09349000  0.79351000  1.0
  H  H22  1  0.27555000  0.59348000  0.70649000  1.0
  H  H23  1  0.72446000  0.90652000  0.20649000  1.0
  H  H24  1  0.92976000  0.26886000  0.29916000  1.0
  H  H25  1  0.07023000  0.23114000  0.79917000  1.0
  H  H26  1  0.07025000  0.73113000  0.70084000  1.0
  H  H27  1  0.92976000  0.76887000  0.20084000  1.0
  H  H28  1  0.91078000  0.42588000  0.21908000  1.0
  H  H29  1  0.08922000  0.07412000  0.71908000  1.0
  H  H30  1  0.08923000  0.57412000  0.78093000  1.0
  H  H31  1  0.91078000  0.92589000  0.28092000  1.0
  C  C32  1  0.96762000  0.51531000  0.34508000  1.0
  C  C33  1  0.03237000  0.98468000  0.84508000  1.0
  C  C34  1  0.03239000  0.48469000  0.65492000  1.0
  C  C35  1  0.96762000  0.01532000  0.15492000  1.0
  C  C36  1  0.94978000  0.71174000  0.45426000  1.0
  C  C37  1  0.05022000  0.78826000  0.95425000  1.0
  C  C38  1  0.05023000  0.28826000  0.54574000  1.0
  C  C39  1  0.94977000  0.21174000  0.04574000  1.0
  C  C40  1  0.14333000  0.71934000  0.45395000  1.0
  C  C41  1  0.85666000  0.78065000  0.95394000  1.0
  C  C42  1  0.85667000  0.28065000  0.54606000  1.0
  C  C43  1  0.14333000  0.21935000  0.04605000  1.0
  C  C44  1  0.16253000  0.52776000  0.34444000  1.0
  C  C45  1  0.83746000  0.97223000  0.84443000  1.0
  C  C46  1  0.83747000  0.47223000  0.65557000  1.0
  C  C47  1  0.16253000  0.02778000  0.15557000  1.0
  C  C48  1  0.87717000  0.39813000  0.28604000  1.0
  C  C49  1  0.12283000  0.10187000  0.78604000  1.0
  C  C50  1  0.12284000  0.60186000  0.71396000  1.0
  C  C51  1  0.87717000  0.89814000  0.21396000  1.0
  N  N52  1  0.86237000  0.60989000  0.40065000  1.0
  N  N53  1  0.13763000  0.89010000  0.90065000  1.0
  N  N54  1  0.13764000  0.39011000  0.59935000  1.0
  N  N55  1  0.86236000  0.10989000  0.09935000  1.0
  N  N56  1  0.24977000  0.62663000  0.39869000  1.0
  N  N57  1  0.75023000  0.87336000  0.89868000  1.0
  N  N58  1  0.75024000  0.37336000  0.60132000  1.0
  N  N59  1  0.24976000  0.12664000  0.10132000  1.0
  O  O60  1  0.52006000  0.70543000  0.56267000  1.0
  O  O61  1  0.47994000  0.79457000  0.06268000  1.0
  O  O62  1  0.47996000  0.29457000  0.43733000  1.0
  O  O63  1  0.52005000  0.20543000  0.93732000  1.0
  O  O64  1  0.78366000  0.93669000  0.62289000  1.0
  O  O65  1  0.21633000  0.56334000  0.12289000  1.0
  O  O66  1  0.21635000  0.06331000  0.37711000  1.0
  O  O67  1  0.78366000  0.43667000  0.87711000  1.0
  O  O68  1  0.39429000  0.04580000  0.59587000  1.0
  O  O69  1  0.60568000  0.45420000  0.09588000  1.0
  O  O70  1  0.60572000  0.95419000  0.40412000  1.0
  O  O71  1  0.39430000  0.54580000  0.90412000  1.0
  O  O72  1  0.49950000  0.82312000  0.73440000  1.0
  O  O73  1  0.50050000  0.67691000  0.23441000  1.0
  O  O74  1  0.50050000  0.17689000  0.26560000  1.0
  O  O75  1  0.49950000  0.32310000  0.76559000  1.0
