# generated using pymatgen
data_ZnH10C16S2(NO)4
_symmetry_space_group_name_H-M   'P 1'
_cell_length_a   7.59752000
_cell_length_b   8.63285000
_cell_length_c   13.14710000
_cell_angle_alpha   89.99630000
_cell_angle_beta   93.12970000
_cell_angle_gamma   89.99550000
_symmetry_Int_Tables_number   1
_chemical_formula_structural   ZnH10C16S2(NO)4
_chemical_formula_sum   'Zn2 H20 C32 S4 N8 O8'
_cell_volume   861.00917366
_cell_formula_units_Z   2
loop_
 _symmetry_equiv_pos_site_id
 _symmetry_equiv_pos_as_xyz
  1  'x, y, z'
loop_
 _atom_site_type_symbol
 _atom_site_label
 _atom_site_symmetry_multiplicity
 _atom_site_fract_x
 _atom_site_fract_y
 _atom_site_fract_z
 _atom_site_occupancy
  Zn  Zn0  1  0.25000000  0.15580000  0.25000000  1.0
  Zn  Zn1  1  0.74999000  0.84420000  0.75001000  1.0
  H  H2  1  0.26959000  0.06771000  0.94857000  1.0
  H  H3  1  0.23038000  0.06767000  0.55144000  1.0
  H  H4  1  0.73036000  0.93227000  0.05143000  1.0
  H  H5  1  0.76963000  0.93234000  0.44856000  1.0
  H  H6  1  0.45867000  0.66434000  0.82892000  1.0
  H  H7  1  0.04133000  0.66433000  0.67107000  1.0
  H  H8  1  0.54133000  0.33564000  0.17109000  1.0
  H  H9  1  0.95868000  0.33568000  0.32893000  1.0
  H  H10  1  0.31542000  0.44659000  0.98385000  1.0
  H  H11  1  0.18457000  0.44656000  0.51615000  1.0
  H  H12  1  0.68459000  0.55341000  0.01616000  1.0
  H  H13  1  0.81545000  0.55344000  0.48385000  1.0
  H  H14  1  0.98450000  0.69349000  0.18437000  1.0
  H  H15  1  0.51550000  0.69346000  0.31563000  1.0
  H  H16  1  0.01547000  0.30649000  0.81561000  1.0
  H  H17  1  0.48453000  0.30654000  0.68437000  1.0
  H  H18  1  0.04846000  0.94722000  0.09939000  1.0
  H  H19  1  0.45155000  0.94718000  0.40062000  1.0
  H  H20  1  0.95148000  0.05279000  0.90060000  1.0
  H  H21  1  0.54847000  0.05283000  0.59939000  1.0
  C  C22  1  0.40023000  0.89203000  0.87076000  1.0
  C  C23  1  0.09978000  0.89201000  0.62924000  1.0
  C  C24  1  0.59977000  0.10797000  0.12923000  1.0
  C  C25  1  0.90024000  0.10800000  0.37077000  1.0
  C  C26  1  0.21848000  0.83499000  0.99508000  1.0
  C  C27  1  0.28150000  0.83495000  0.50491000  1.0
  C  C28  1  0.78150000  0.16502000  0.00491000  1.0
  C  C29  1  0.71851000  0.16505000  0.49509000  1.0
  C  C30  1  0.29110000  0.69544000  0.96004000  1.0
  C  C31  1  0.20888000  0.69540000  0.53996000  1.0
  C  C32  1  0.70887000  0.30455000  0.03995000  1.0
  C  C33  1  0.79113000  0.30460000  0.46004000  1.0
  C  C34  1  0.25739000  0.55507000  0.00760000  1.0
  C  C35  1  0.24260000  0.55504000  0.49239000  1.0
  C  C36  1  0.74257000  0.44491000  0.99240000  1.0
  C  C37  1  0.75740000  0.44497000  0.50761000  1.0
  C  C38  1  0.14673000  0.55880000  0.08956000  1.0
  C  C39  1  0.35326000  0.55876000  0.41044000  1.0
  C  C40  1  0.85323000  0.44120000  0.91045000  1.0
  C  C41  1  0.64677000  0.44125000  0.58957000  1.0
  C  C42  1  0.06899000  0.69831000  0.12018000  1.0
  C  C43  1  0.43100000  0.69827000  0.37981000  1.0
  C  C44  1  0.93098000  0.30167000  0.87980000  1.0
  C  C45  1  0.56903000  0.30173000  0.62020000  1.0
  C  C46  1  0.10339000  0.83859000  0.07354000  1.0
  C  C47  1  0.39661000  0.83854000  0.42646000  1.0
  C  C48  1  0.89658000  0.16140000  0.92645000  1.0
  C  C49  1  0.60342000  0.16146000  0.57355000  1.0
  C  C50  1  0.11573000  0.41749000  0.15258000  1.0
  C  C51  1  0.38428000  0.41746000  0.34742000  1.0
  C  C52  1  0.88429000  0.58253000  0.84742000  1.0
  C  C53  1  0.61574000  0.58254000  0.65258000  1.0
  S  S54  1  0.51548000  0.00383000  0.79187000  1.0
  S  S55  1  0.98451000  0.00381000  0.70812000  1.0
  S  S56  1  0.48449000  0.99616000  0.20813000  1.0
  S  S57  1  0.01548000  0.99621000  0.29187000  1.0
  N  N58  1  0.28967000  0.95251000  0.93907000  1.0
  N  N59  1  0.21033000  0.95247000  0.56093000  1.0
  N  N60  1  0.71030000  0.04748000  0.06092000  1.0
  N  N61  1  0.78967000  0.04753000  0.43907000  1.0
  N  N62  1  0.39881000  0.73618000  0.88178000  1.0
  N  N63  1  0.10119000  0.73615000  0.61820000  1.0
  N  N64  1  0.60121000  0.26385000  0.11820000  1.0
  N  N65  1  0.89882000  0.26385000  0.38180000  1.0
  O  O66  1  0.01963000  0.43081000  0.22712000  1.0
  O  O67  1  0.48040000  0.43079000  0.27289000  1.0
  O  O68  1  0.98040000  0.56918000  0.77289000  1.0
  O  O69  1  0.51962000  0.56923000  0.72711000  1.0
  O  O70  1  0.19702000  0.29142000  0.12879000  1.0
  O  O71  1  0.30299000  0.29142000  0.37121000  1.0
  O  O72  1  0.80296000  0.70856000  0.87122000  1.0
  O  O73  1  0.69702000  0.70858000  0.62879000  1.0
