# generated using pymatgen
data_CuH12C14(NO)4
_symmetry_space_group_name_H-M   'P 1'
_cell_length_a   4.76845000
_cell_length_b   11.06141798
_cell_length_c   14.59566329
_cell_angle_alpha   107.03128116
_cell_angle_beta   99.38520874
_cell_angle_gamma   102.42922244
_symmetry_Int_Tables_number   1
_chemical_formula_structural   CuH12C14(NO)4
_chemical_formula_sum   'Cu2 H24 C28 N8 O8'
_cell_volume   697.45059607
_cell_formula_units_Z   2
loop_
 _symmetry_equiv_pos_site_id
 _symmetry_equiv_pos_as_xyz
  1  'x, y, z'
loop_
 _atom_site_type_symbol
 _atom_site_label
 _atom_site_symmetry_multiplicity
 _atom_site_fract_x
 _atom_site_fract_y
 _atom_site_fract_z
 _atom_site_occupancy
  Cu  Cu0  1  0.50001000  0.00000000  0.00000000  1.0
  Cu  Cu1  1  0.00000000  0.49999000  0.49999000  1.0
  H  H2  1  0.47955000  0.15982000  0.85080000  1.0
  H  H3  1  0.96948000  0.34034000  0.64944000  1.0
  H  H4  1  0.52049000  0.84019000  0.14920000  1.0
  H  H5  1  0.03048000  0.65964000  0.35055000  1.0
  H  H6  1  0.97372000  0.09627000  0.70088000  1.0
  H  H7  1  0.67609000  0.40384000  0.79922000  1.0
  H  H8  1  0.02632000  0.90374000  0.29913000  1.0
  H  H9  1  0.32390000  0.59617000  0.20078000  1.0
  H  H10  1  0.83369000  0.84536000  0.86916000  1.0
  H  H11  1  0.61897000  0.65467000  0.63084000  1.0
  H  H12  1  0.16631000  0.15463000  0.13083000  1.0
  H  H13  1  0.38104000  0.34533000  0.36915000  1.0
  H  H14  1  0.10119000  0.28365000  0.93561000  1.0
  H  H15  1  0.38063000  0.21660000  0.56469000  1.0
  H  H16  1  0.89877000  0.71635000  0.06438000  1.0
  H  H17  1  0.61937000  0.78339000  0.43532000  1.0
  H  H18  1  0.66493000  0.52747000  0.11343000  1.0
  H  H19  1  0.52451000  0.97223000  0.38633000  1.0
  H  H20  1  0.33503000  0.47253000  0.88657000  1.0
  H  H21  1  0.47549000  0.02777000  0.61368000  1.0
  H  H22  1  0.61665000  0.90049000  0.71757000  1.0
  H  H23  1  0.49787000  0.59959000  0.78241000  1.0
  H  H24  1  0.38337000  0.09952000  0.28243000  1.0
  H  H25  1  0.50213000  0.40041000  0.21758000  1.0
  C  C26  1  0.26942000  0.08648000  0.83270000  1.0
  C  C27  1  0.85045000  0.41363000  0.66745000  1.0
  C  C28  1  0.73061000  0.91353000  0.16730000  1.0
  C  C29  1  0.14953000  0.58636000  0.33254000  1.0
  C  C30  1  0.02023000  0.05576000  0.75885000  1.0
  C  C31  1  0.70559000  0.44439000  0.74129000  1.0
  C  C32  1  0.97979000  0.94424000  0.24116000  1.0
  C  C33  1  0.29438000  0.55561000  0.25871000  1.0
  C  C34  1  0.94532000  0.92203000  0.84459000  1.0
  C  C35  1  0.67861000  0.57804000  0.65546000  1.0
  C  C36  1  0.05470000  0.07797000  0.15541000  1.0
  C  C37  1  0.32139000  0.42195000  0.34453000  1.0
  C  C38  1  0.72285000  0.27852000  0.05457000  1.0
  C  C39  1  0.88923000  0.22136000  0.44534000  1.0
  C  C40  1  0.27714000  0.72147000  0.94543000  1.0
  C  C41  1  0.11079000  0.77864000  0.55466000  1.0
  C  C42  1  0.86839000  0.39372000  0.02748000  1.0
  C  C43  1  0.94672000  0.10624000  0.47254000  1.0
  C  C44  1  0.13157000  0.60628000  0.97251000  1.0
  C  C45  1  0.05329000  0.89376000  0.52747000  1.0
  C  C46  1  0.05756000  0.37876000  0.96325000  1.0
  C  C47  1  0.21493000  0.12139000  0.53690000  1.0
  C  C48  1  0.94241000  0.62124000  0.03674000  1.0
  C  C49  1  0.78508000  0.87861000  0.46311000  1.0
  C  C50  1  0.81232000  0.51595000  0.06387000  1.0
  C  C51  1  0.73268000  0.98388000  0.43602000  1.0
  C  C52  1  0.18766000  0.48406000  0.93613000  1.0
  C  C53  1  0.26731000  0.01613000  0.56399000  1.0
  N  N54  1  0.21938000  0.00247000  0.88598000  1.0
  N  N55  1  0.83123000  0.49762000  0.61414000  1.0
  N  N56  1  0.78065000  0.99753000  0.11402000  1.0
  N  N57  1  0.16876000  0.50237000  0.38585000  1.0
  N  N58  1  0.81996000  0.95221000  0.76743000  1.0
  N  N59  1  0.59985000  0.54785000  0.73258000  1.0
  N  N60  1  0.18005000  0.04779000  0.23257000  1.0
  N  N61  1  0.40015000  0.45216000  0.26741000  1.0
  O  O62  1  0.57419000  0.29230000  0.11868000  1.0
  O  O63  1  0.66253000  0.20755000  0.38132000  1.0
  O  O64  1  0.42581000  0.70769000  0.88133000  1.0
  O  O65  1  0.33746000  0.79245000  0.61869000  1.0
  O  O66  1  0.75936000  0.16792000  0.00462000  1.0
  O  O67  1  0.08623000  0.33193000  0.49514000  1.0
  O  O68  1  0.24065000  0.83208000  0.99538000  1.0
  O  O69  1  0.91376000  0.66807000  0.50486000  1.0
