# generated using pymatgen
data_ZnSiH40C52N4(Cl8F3)2
_symmetry_space_group_name_H-M   'P 1'
_cell_length_a   15.29840000
_cell_length_b   19.92940000
_cell_length_c   19.92940000
_cell_angle_alpha   90.00000000
_cell_angle_beta   90.00000000
_cell_angle_gamma   90.00000000
_symmetry_Int_Tables_number   1
_chemical_formula_structural   ZnSiH40C52N4(Cl8F3)2
_chemical_formula_sum   'Zn4 Si4 H160 C208 N16 Cl64 F24'
_cell_volume   6076.23357113
_cell_formula_units_Z   4
loop_
 _symmetry_equiv_pos_site_id
 _symmetry_equiv_pos_as_xyz
  1  'x, y, z'
loop_
 _atom_site_type_symbol
 _atom_site_label
 _atom_site_symmetry_multiplicity
 _atom_site_fract_x
 _atom_site_fract_y
 _atom_site_fract_z
 _atom_site_occupancy
  Zn  Zn0  1  0.60064000  0.25000000  0.25000000  1.0
  Zn  Zn1  1  0.89936000  0.75000000  0.75000000  1.0
  Zn  Zn2  1  0.39936000  0.75000000  0.75000000  1.0
  Zn  Zn3  1  0.10064000  0.25000000  0.25000000  1.0
  Si  Si4  1  0.35132000  0.25000000  0.25000000  1.0
  Si  Si5  1  0.14868000  0.75000000  0.75000000  1.0
  Si  Si6  1  0.64868000  0.75000000  0.75000000  1.0
  Si  Si7  1  0.85132000  0.25000000  0.25000000  1.0
  H  H8  1  0.71871000  0.35955000  0.19606000  1.0
  H  H9  1  0.71871000  0.14045000  0.30394000  1.0
  H  H10  1  0.71871000  0.30394000  0.35955000  1.0
  H  H11  1  0.71871000  0.19606000  0.14045000  1.0
  H  H12  1  0.78129000  0.64045000  0.69606000  1.0
  H  H13  1  0.78129000  0.85955000  0.80394000  1.0
  H  H14  1  0.78129000  0.69606000  0.85955000  1.0
  H  H15  1  0.78129000  0.80394000  0.64045000  1.0
  H  H16  1  0.28129000  0.64045000  0.80394000  1.0
  H  H17  1  0.28129000  0.85955000  0.69606000  1.0
  H  H18  1  0.28129000  0.69606000  0.64045000  1.0
  H  H19  1  0.28129000  0.80394000  0.85955000  1.0
  H  H20  1  0.21871000  0.35955000  0.30394000  1.0
  H  H21  1  0.21872000  0.14045000  0.19606000  1.0
  H  H22  1  0.21871000  0.30394000  0.14045000  1.0
  H  H23  1  0.21871000  0.19606000  0.35955000  1.0
  H  H24  1  0.72565000  0.48399000  0.19111000  1.0
  H  H25  1  0.72565000  0.01601000  0.30889000  1.0
  H  H26  1  0.72565000  0.30889000  0.48399000  1.0
  H  H27  1  0.72565000  0.19111000  0.01601000  1.0
  H  H28  1  0.77435000  0.51601000  0.69111000  1.0
  H  H29  1  0.77435000  0.98399000  0.80889000  1.0
  H  H30  1  0.77435000  0.69111000  0.98399000  1.0
  H  H31  1  0.77435000  0.80889000  0.51601000  1.0
  H  H32  1  0.27435000  0.51601000  0.80889000  1.0
  H  H33  1  0.27435000  0.98399000  0.69111000  1.0
  H  H34  1  0.27435000  0.69111000  0.51601000  1.0
  H  H35  1  0.27435000  0.80889000  0.98399000  1.0
  H  H36  1  0.22565000  0.48399000  0.30889000  1.0
  H  H37  1  0.22565000  0.01601000  0.19111000  1.0
  H  H38  1  0.22565000  0.30889000  0.01601000  1.0
  H  H39  1  0.22565000  0.19111000  0.48399000  1.0
  H  H40  1  0.48315000  0.48860000  0.30228000  1.0
  H  H41  1  0.48315000  0.01140000  0.19772000  1.0
  H  H42  1  0.48315000  0.19772000  0.48861000  1.0
  H  H43  1  0.48315000  0.30228000  0.01140000  1.0
  H  H44  1  0.01685000  0.51140000  0.80228000  1.0
  H  H45  1  0.01685000  0.98860000  0.69772000  1.0
  H  H46  1  0.01685000  0.80228000  0.98861000  1.0
  H  H47  1  0.01685000  0.69772000  0.51140000  1.0
  H  H48  1  0.51685000  0.51140000  0.69772000  1.0
  H  H49  1  0.51685000  0.98860000  0.80228000  1.0
  H  H50  1  0.51685000  0.80228000  0.51140000  1.0
  H  H51  1  0.51685000  0.69772000  0.98860000  1.0
  H  H52  1  0.98315000  0.48860000  0.19772000  1.0
  H  H53  1  0.98315000  0.01140000  0.30228000  1.0
  H  H54  1  0.98315000  0.19772000  0.01140000  1.0
  H  H55  1  0.98315000  0.30228000  0.48860000  1.0
  H  H56  1  0.48393000  0.36381000  0.30000000  1.0
  H  H57  1  0.48393000  0.13619000  0.20000000  1.0
  H  H58  1  0.48393000  0.20000000  0.36381000  1.0
  H  H59  1  0.48393000  0.30000000  0.13619000  1.0
  H  H60  1  0.01607000  0.63619000  0.80000000  1.0
  H  H61  1  0.01607000  0.86381000  0.70000000  1.0
  H  H62  1  0.01607000  0.80000000  0.86381000  1.0
  H  H63  1  0.01607000  0.70000000  0.63619000  1.0
  H  H64  1  0.51607000  0.63619000  0.70000000  1.0
  H  H65  1  0.51607000  0.86381000  0.80000000  1.0
  H  H66  1  0.51607000  0.80000000  0.63619000  1.0
  H  H67  1  0.51607000  0.70000000  0.86381000  1.0
  H  H68  1  0.98393000  0.36381000  0.20000000  1.0
  H  H69  1  0.98393000  0.13619000  0.30000000  1.0
  H  H70  1  0.98393000  0.20000000  0.13619000  1.0
  H  H71  1  0.98393000  0.30000000  0.36381000  1.0
  H  H72  1  0.65785000  0.58019000  0.14645000  1.0
  H  H73  1  0.65785000  0.91981000  0.35355000  1.0
  H  H74  1  0.65785000  0.35355000  0.58019000  1.0
  H  H75  1  0.65785000  0.14645000  0.91981000  1.0
  H  H76  1  0.84215000  0.41981000  0.64645000  1.0
  H  H77  1  0.84215000  0.08019000  0.85355000  1.0
  H  H78  1  0.84215000  0.64645000  0.08019000  1.0
  H  H79  1  0.84215000  0.85355000  0.41981000  1.0
  H  H80  1  0.34215000  0.41981000  0.85355000  1.0
  H  H81  1  0.34215000  0.08019000  0.64645000  1.0
  H  H82  1  0.34215000  0.64645000  0.41981000  1.0
  H  H83  1  0.34215000  0.85355000  0.08019000  1.0
  H  H84  1  0.15785000  0.58019000  0.35355000  1.0
  H  H85  1  0.15785000  0.91981000  0.14645000  1.0
  H  H86  1  0.15785000  0.35355000  0.91981000  1.0
  H  H87  1  0.15785000  0.14645000  0.58019000  1.0
  H  H88  1  0.66345000  0.70428000  0.14820000  1.0
  H  H89  1  0.66345000  0.79572000  0.35180000  1.0
  H  H90  1  0.66345000  0.35180000  0.70428000  1.0
  H  H91  1  0.66345000  0.14820000  0.79572000  1.0
  H  H92  1  0.83655000  0.29572000  0.64821000  1.0
  H  H93  1  0.83655000  0.20428000  0.85180000  1.0
  H  H94  1  0.83655000  0.64820000  0.20428000  1.0
  H  H95  1  0.83655000  0.85180000  0.29572000  1.0
  H  H96  1  0.33655000  0.29572000  0.85180000  1.0
  H  H97  1  0.33655000  0.20428000  0.64820000  1.0
  H  H98  1  0.33655000  0.64821000  0.29572000  1.0
  H  H99  1  0.33655000  0.85180000  0.20428000  1.0
  H  H100  1  0.16345000  0.70428000  0.35180000  1.0
  H  H101  1  0.16345000  0.79572000  0.14820000  1.0
  H  H102  1  0.16345000  0.35180000  0.79572000  1.0
  H  H103  1  0.16345000  0.14820000  0.70428000  1.0
  H  H104  1  0.56507000  0.70403000  0.35064000  1.0
  H  H105  1  0.56507000  0.79598000  0.14936000  1.0
  H  H106  1  0.56507000  0.14936000  0.70402000  1.0
  H  H107  1  0.56507000  0.35064000  0.79597000  1.0
  H  H108  1  0.93493000  0.29597000  0.85064000  1.0
  H  H109  1  0.93493000  0.20403000  0.64936000  1.0
  H  H110  1  0.93493000  0.85064000  0.20403000  1.0
  H  H111  1  0.93493000  0.64936000  0.29597000  1.0
  H  H112  1  0.43493000  0.29597000  0.64936000  1.0
  H  H113  1  0.43493000  0.20403000  0.85064000  1.0
  H  H114  1  0.43493000  0.85064000  0.29597000  1.0
  H  H115  1  0.43493000  0.64936000  0.20403000  1.0
  H  H116  1  0.06507000  0.70403000  0.14936000  1.0
  H  H117  1  0.06507000  0.79598000  0.35064000  1.0
  H  H118  1  0.06507000  0.14936000  0.79598000  1.0
  H  H119  1  0.06507000  0.35064000  0.70403000  1.0
  H  H120  1  0.55905000  0.58043000  0.34913000  1.0
  H  H121  1  0.55905000  0.91957000  0.15087000  1.0
  H  H122  1  0.55905000  0.15087000  0.58043000  1.0
  H  H123  1  0.55905000  0.34913000  0.91957000  1.0
  H  H124  1  0.94095000  0.41957000  0.84913000  1.0
  H  H125  1  0.94095000  0.08043000  0.65087000  1.0
  H  H126  1  0.94095000  0.84913000  0.08043000  1.0
  H  H127  1  0.94095000  0.65087000  0.41957000  1.0
  H  H128  1  0.44095000  0.41957000  0.65087000  1.0
  H  H129  1  0.44095000  0.08043000  0.84913000  1.0
  H  H130  1  0.44095000  0.84913000  0.41957000  1.0
  H  H131  1  0.44095000  0.65087000  0.08043000  1.0
  H  H132  1  0.05905000  0.58043000  0.15087000  1.0
  H  H133  1  0.05905000  0.91957000  0.34913000  1.0
  H  H134  1  0.05905000  0.15087000  0.91957000  1.0
  H  H135  1  0.05905000  0.34913000  0.58043000  1.0
  H  H136  1  0.34105000  0.34849000  0.40827000  1.0
  H  H137  1  0.34105000  0.15151000  0.09173000  1.0
  H  H138  1  0.34105000  0.09173000  0.34849000  1.0
  H  H139  1  0.34105000  0.40827000  0.15151000  1.0
  H  H140  1  0.15895000  0.65151000  0.90827000  1.0
  H  H141  1  0.15895000  0.84849000  0.59173000  1.0
  H  H142  1  0.15895000  0.90827000  0.84849000  1.0
  H  H143  1  0.15895000  0.59173000  0.65151000  1.0
  H  H144  1  0.65895000  0.65151000  0.59173000  1.0
  H  H145  1  0.65895000  0.84849000  0.90827000  1.0
  H  H146  1  0.65895000  0.90827000  0.65151000  1.0
  H  H147  1  0.65895000  0.59173000  0.84849000  1.0
  H  H148  1  0.84105000  0.34849000  0.09173000  1.0
  H  H149  1  0.84105000  0.15151000  0.40827000  1.0
  H  H150  1  0.84105000  0.09173000  0.15151000  1.0
  H  H151  1  0.84105000  0.40827000  0.34849000  1.0
  H  H152  1  0.37384000  0.45906000  0.51554000  1.0
  H  H153  1  0.37384000  0.04094000  0.98446000  1.0
  H  H154  1  0.37384000  0.98446000  0.45906000  1.0
  H  H155  1  0.37384000  0.51554000  0.04094000  1.0
  H  H156  1  0.12616000  0.54094000  0.01554000  1.0
  H  H157  1  0.12616000  0.95906000  0.48446000  1.0
  H  H158  1  0.12616000  0.01554000  0.95906000  1.0
  H  H159  1  0.12616000  0.48446000  0.54094000  1.0
  H  H160  1  0.62616000  0.54094000  0.48446000  1.0
  H  H161  1  0.62616000  0.95906000  0.01554000  1.0
  H  H162  1  0.62616000  0.01554000  0.54094000  1.0
  H  H163  1  0.62616000  0.48446000  0.95906000  1.0
  H  H164  1  0.87384000  0.45906000  0.98446000  1.0
  H  H165  1  0.87384000  0.04094000  0.51554000  1.0
  H  H166  1  0.87384000  0.98446000  0.04094000  1.0
  H  H167  1  0.87384000  0.51554000  0.45906000  1.0
  C  C168  1  0.66695000  0.39017000  0.21784000  1.0
  C  C169  1  0.66695000  0.10982000  0.28217000  1.0
  C  C170  1  0.66695000  0.28216000  0.39017000  1.0
  C  C171  1  0.66695000  0.21784000  0.10983000  1.0
  C  C172  1  0.83305000  0.60983000  0.71784000  1.0
  C  C173  1  0.83305000  0.89018000  0.78216000  1.0
  C  C174  1  0.83305000  0.71783000  0.89018000  1.0
  C  C175  1  0.83305000  0.78216000  0.60983000  1.0
  C  C176  1  0.33305000  0.60983000  0.78216000  1.0
  C  C177  1  0.33305000  0.89018000  0.71783000  1.0
  C  C178  1  0.33305000  0.71784000  0.60983000  1.0
  C  C179  1  0.33305000  0.78216000  0.89017000  1.0
  C  C180  1  0.16695000  0.39017000  0.28216000  1.0
  C  C181  1  0.16695000  0.10982000  0.21784000  1.0
  C  C182  1  0.16695000  0.28217000  0.10982000  1.0
  C  C183  1  0.16695000  0.21784000  0.39017000  1.0
  C  C184  1  0.67041000  0.45972000  0.21550000  1.0
  C  C185  1  0.67041000  0.04028000  0.28450000  1.0
  C  C186  1  0.67041000  0.28450000  0.45972000  1.0
  C  C187  1  0.67041000  0.21550000  0.04027000  1.0
  C  C188  1  0.82959000  0.54028000  0.71550000  1.0
  C  C189  1  0.82959000  0.95972000  0.78450000  1.0
  C  C190  1  0.82959000  0.71550000  0.95972000  1.0
  C  C191  1  0.82959000  0.78450000  0.54028000  1.0
  C  C192  1  0.32959000  0.54028000  0.78450000  1.0
  C  C193  1  0.32959000  0.95972000  0.71550000  1.0
  C  C194  1  0.32959000  0.71550000  0.54028000  1.0
  C  C195  1  0.32959000  0.78450000  0.95972000  1.0
  C  C196  1  0.17041000  0.45972000  0.28450000  1.0
  C  C197  1  0.17041000  0.04028000  0.21550000  1.0
  C  C198  1  0.17041000  0.28450000  0.04028000  1.0
  C  C199  1  0.17041000  0.21550000  0.45972000  1.0
  C  C200  1  0.60478000  0.49761000  0.24678000  1.0
  C  C201  1  0.60478000  0.00239000  0.25322000  1.0
  C  C202  1  0.60478000  0.25322000  0.49761000  1.0
  C  C203  1  0.60478000  0.24678000  0.00239000  1.0
  C  C204  1  0.89522000  0.50239000  0.74678000  1.0
  C  C205  1  0.89522000  0.99761000  0.75322000  1.0
  C  C206  1  0.89522000  0.74678000  0.99761000  1.0
  C  C207  1  0.89522000  0.75322000  0.50239000  1.0
  C  C208  1  0.39522000  0.50239000  0.75322000  1.0
  C  C209  1  0.39522000  0.99761000  0.74678000  1.0
  C  C210  1  0.39522000  0.74678000  0.50239000  1.0
  C  C211  1  0.39522000  0.75322000  0.99761000  1.0
  C  C212  1  0.10478000  0.49761000  0.25322000  1.0
  C  C213  1  0.10478000  0.00239000  0.24678000  1.0
  C  C214  1  0.10478000  0.25322000  0.00239000  1.0
  C  C215  1  0.10478000  0.24678000  0.49761000  1.0
  C  C216  1  0.53683000  0.46222000  0.27808000  1.0
  C  C217  1  0.53683000  0.03778000  0.22192000  1.0
  C  C218  1  0.53683000  0.22192000  0.46222000  1.0
  C  C219  1  0.53683000  0.27808000  0.03778000  1.0
  C  C220  1  0.96317000  0.53778000  0.77808000  1.0
  C  C221  1  0.96317000  0.96222000  0.72192000  1.0
  C  C222  1  0.96317000  0.77808000  0.96222000  1.0
  C  C223  1  0.96317000  0.72192000  0.53778000  1.0
  C  C224  1  0.46317000  0.53778000  0.72192000  1.0
  C  C225  1  0.46317000  0.96222000  0.77808000  1.0
  C  C226  1  0.46317000  0.77808000  0.53778000  1.0
  C  C227  1  0.46317000  0.72192000  0.96222000  1.0
  C  C228  1  0.03683000  0.46222000  0.22192000  1.0
  C  C229  1  0.03683000  0.03778000  0.27808000  1.0
  C  C230  1  0.03683000  0.22192000  0.03778000  1.0
  C  C231  1  0.03683000  0.27808000  0.46222000  1.0
  C  C232  1  0.53691000  0.39259000  0.27734000  1.0
  C  C233  1  0.53691000  0.10741000  0.22266000  1.0
  C  C234  1  0.53691000  0.22266000  0.39259000  1.0
  C  C235  1  0.53691000  0.27734000  0.10741000  1.0
  C  C236  1  0.96309000  0.60741000  0.77734000  1.0
  C  C237  1  0.96309000  0.89259000  0.72266000  1.0
  C  C238  1  0.96309000  0.77734000  0.89259000  1.0
  C  C239  1  0.96309000  0.72266000  0.60741000  1.0
  C  C240  1  0.46309000  0.60741000  0.72266000  1.0
  C  C241  1  0.46309000  0.89259000  0.77734000  1.0
  C  C242  1  0.46309000  0.77734000  0.60741000  1.0
  C  C243  1  0.46309000  0.72266000  0.89259000  1.0
  C  C244  1  0.03691000  0.39259000  0.22266000  1.0
  C  C245  1  0.03691000  0.10741000  0.27734000  1.0
  C  C246  1  0.03691000  0.22266000  0.10741000  1.0
  C  C247  1  0.03691000  0.27734000  0.39259000  1.0
  C  C248  1  0.60806000  0.57137000  0.24762000  1.0
  C  C249  1  0.60806000  0.92863000  0.25238000  1.0
  C  C250  1  0.60806000  0.25238000  0.57137000  1.0
  C  C251  1  0.60807000  0.24762000  0.92863000  1.0
  C  C252  1  0.89194000  0.42863000  0.74762000  1.0
  C  C253  1  0.89193000  0.07137000  0.75238000  1.0
  C  C254  1  0.89194000  0.74762000  0.07137000  1.0
  C  C255  1  0.89194000  0.75238000  0.42863000  1.0
  C  C256  1  0.39194000  0.42863000  0.75238000  1.0
  C  C257  1  0.39194000  0.07137000  0.74762000  1.0
  C  C258  1  0.39194000  0.74762000  0.42863000  1.0
  C  C259  1  0.39194000  0.75238000  0.07137000  1.0
  C  C260  1  0.10806000  0.57137000  0.25238000  1.0
  C  C261  1  0.10806000  0.92863000  0.24762000  1.0
  C  C262  1  0.10806000  0.25238000  0.92863000  1.0
  C  C263  1  0.10806000  0.24762000  0.57137000  1.0
  C  C264  1  0.63807000  0.60734000  0.19149000  1.0
  C  C265  1  0.63807000  0.89266000  0.30851000  1.0
  C  C266  1  0.63807000  0.30851000  0.60734000  1.0
  C  C267  1  0.63807000  0.19149000  0.89266000  1.0
  C  C268  1  0.86193000  0.39266000  0.69149000  1.0
  C  C269  1  0.86193000  0.10734000  0.80851000  1.0
  C  C270  1  0.86193000  0.69149000  0.10734000  1.0
  C  C271  1  0.86193000  0.80851000  0.39266000  1.0
  C  C272  1  0.36193000  0.39266000  0.80851000  1.0
  C  C273  1  0.36193000  0.10734000  0.69149000  1.0
  C  C274  1  0.36193000  0.69149000  0.39266000  1.0
  C  C275  1  0.36193000  0.80851000  0.10734000  1.0
  C  C276  1  0.13807000  0.60734000  0.30851000  1.0
  C  C277  1  0.13807000  0.89266000  0.19149000  1.0
  C  C278  1  0.13807000  0.30851000  0.89266000  1.0
  C  C279  1  0.13807000  0.19149000  0.60734000  1.0
  C  C280  1  0.64046000  0.67705000  0.19226000  1.0
  C  C281  1  0.64046000  0.82294000  0.30774000  1.0
  C  C282  1  0.64045000  0.30774000  0.67706000  1.0
  C  C283  1  0.64046000  0.19225000  0.82294000  1.0
  C  C284  1  0.85954000  0.32294000  0.69226000  1.0
  C  C285  1  0.85954000  0.17706000  0.80775000  1.0
  C  C286  1  0.85954000  0.69226000  0.17706000  1.0
  C  C287  1  0.85954000  0.80774000  0.32294000  1.0
  C  C288  1  0.35954000  0.32294000  0.80774000  1.0
  C  C289  1  0.35954000  0.17706000  0.69226000  1.0
  C  C290  1  0.35954000  0.69226000  0.32294000  1.0
  C  C291  1  0.35954000  0.80774000  0.17706000  1.0
  C  C292  1  0.14046000  0.67706000  0.30774000  1.0
  C  C293  1  0.14046000  0.82294000  0.19226000  1.0
  C  C294  1  0.14046000  0.30775000  0.82294000  1.0
  C  C295  1  0.14046000  0.19226000  0.67706000  1.0
  C  C296  1  0.61521000  0.71307000  0.24970000  1.0
  C  C297  1  0.61521000  0.78694000  0.25030000  1.0
  C  C298  1  0.61521000  0.25030000  0.71306000  1.0
  C  C299  1  0.61521000  0.24970000  0.78694000  1.0
  C  C300  1  0.88479000  0.28694000  0.74970000  1.0
  C  C301  1  0.88479000  0.21307000  0.75030000  1.0
  C  C302  1  0.88479000  0.74970000  0.21306000  1.0
  C  C303  1  0.88479000  0.75030000  0.28693000  1.0
  C  C304  1  0.38479000  0.28694000  0.75030000  1.0
  C  C305  1  0.38479000  0.21306000  0.74970000  1.0
  C  C306  1  0.38479000  0.74970000  0.28694000  1.0
  C  C307  1  0.38479000  0.75030000  0.21307000  1.0
  C  C308  1  0.11521000  0.71306000  0.25030000  1.0
  C  C309  1  0.11521000  0.78694000  0.24970000  1.0
  C  C310  1  0.11521000  0.25030000  0.78694000  1.0
  C  C311  1  0.11521000  0.24970000  0.71307000  1.0
  C  C312  1  0.58668000  0.67697000  0.30610000  1.0
  C  C313  1  0.58668000  0.82303000  0.19390000  1.0
  C  C314  1  0.58668000  0.19390000  0.67697000  1.0
  C  C315  1  0.58668000  0.30610000  0.82303000  1.0
  C  C316  1  0.91332000  0.32303000  0.80610000  1.0
  C  C317  1  0.91332000  0.17697000  0.69390000  1.0
  C  C318  1  0.91332000  0.80610000  0.17697000  1.0
  C  C319  1  0.91332000  0.69390000  0.32303000  1.0
  C  C320  1  0.41332000  0.32303000  0.69390000  1.0
  C  C321  1  0.41332000  0.17697000  0.80610000  1.0
  C  C322  1  0.41332000  0.80610000  0.32303000  1.0
  C  C323  1  0.41332000  0.69390000  0.17697000  1.0
  C  C324  1  0.08668000  0.67697000  0.19390000  1.0
  C  C325  1  0.08668000  0.82303000  0.30610000  1.0
  C  C326  1  0.08668000  0.19390000  0.82303000  1.0
  C  C327  1  0.08668000  0.30610000  0.67697000  1.0
  C  C328  1  0.58210000  0.60733000  0.30487000  1.0
  C  C329  1  0.58210000  0.89267000  0.19513000  1.0
  C  C330  1  0.58210000  0.19513000  0.60733000  1.0
  C  C331  1  0.58210000  0.30487000  0.89267000  1.0
  C  C332  1  0.91790000  0.39267000  0.80487000  1.0
  C  C333  1  0.91790000  0.10733000  0.69513000  1.0
  C  C334  1  0.91790000  0.80487000  0.10733000  1.0
  C  C335  1  0.91790000  0.69513000  0.39267000  1.0
  C  C336  1  0.41790000  0.39267000  0.69513000  1.0
  C  C337  1  0.41790000  0.10733000  0.80487000  1.0
  C  C338  1  0.41790000  0.80487000  0.39267000  1.0
  C  C339  1  0.41790000  0.69513000  0.10733000  1.0
  C  C340  1  0.08210000  0.60733000  0.19513000  1.0
  C  C341  1  0.08210000  0.89267000  0.30487000  1.0
  C  C342  1  0.08210000  0.19513000  0.89267000  1.0
  C  C343  1  0.08210000  0.30487000  0.60733000  1.0
  C  C344  1  0.32737000  0.37422000  0.45594000  1.0
  C  C345  1  0.32737000  0.12578000  0.04406000  1.0
  C  C346  1  0.32737000  0.04406000  0.37422000  1.0
  C  C347  1  0.32737000  0.45594000  0.12578000  1.0
  C  C348  1  0.17263000  0.62578000  0.95594000  1.0
  C  C349  1  0.17263000  0.87422000  0.54406000  1.0
  C  C350  1  0.17263000  0.95594000  0.87422000  1.0
  C  C351  1  0.17263000  0.54406000  0.62578000  1.0
  C  C352  1  0.67263000  0.62578000  0.54406000  1.0
  C  C353  1  0.67263000  0.87422000  0.95594000  1.0
  C  C354  1  0.67263000  0.95594000  0.62578000  1.0
  C  C355  1  0.67263000  0.54406000  0.87422000  1.0
  C  C356  1  0.82737000  0.37422000  0.04406000  1.0
  C  C357  1  0.82737000  0.12578000  0.45594000  1.0
  C  C358  1  0.82737000  0.04406000  0.12578000  1.0
  C  C359  1  0.82737000  0.45594000  0.37422000  1.0
  C  C360  1  0.38564000  0.43610000  0.46643000  1.0
  C  C361  1  0.38564000  0.06390000  0.03357000  1.0
  C  C362  1  0.38564000  0.03357000  0.43610000  1.0
  C  C363  1  0.38564000  0.46643000  0.06390000  1.0
  C  C364  1  0.11436000  0.56390000  0.96643000  1.0
  C  C365  1  0.11436000  0.93610000  0.53357000  1.0
  C  C366  1  0.11436000  0.96643000  0.93610000  1.0
  C  C367  1  0.11436000  0.53357000  0.56390000  1.0
  C  C368  1  0.61436000  0.56390000  0.53357000  1.0
  C  C369  1  0.61436000  0.93610000  0.96643000  1.0
  C  C370  1  0.61436000  0.96643000  0.56390000  1.0
  C  C371  1  0.61436000  0.53357000  0.93610000  1.0
  C  C372  1  0.88564000  0.43610000  0.03357000  1.0
  C  C373  1  0.88564000  0.06390000  0.46643000  1.0
  C  C374  1  0.88564000  0.03357000  0.06390000  1.0
  C  C375  1  0.88564000  0.46643000  0.43610000  1.0
  N  N376  1  0.60130000  0.35694000  0.24813000  1.0
  N  N377  1  0.60129000  0.14306000  0.25187000  1.0
  N  N378  1  0.60129000  0.25187000  0.35694000  1.0
  N  N379  1  0.60130000  0.24813000  0.14306000  1.0
  N  N380  1  0.89870000  0.64306000  0.74813000  1.0
  N  N381  1  0.89870000  0.85694000  0.75187000  1.0
  N  N382  1  0.89870000  0.74813000  0.85694000  1.0
  N  N383  1  0.89870000  0.75187000  0.64306000  1.0
  N  N384  1  0.39870000  0.64306000  0.75187000  1.0
  N  N385  1  0.39870000  0.85694000  0.74813000  1.0
  N  N386  1  0.39870000  0.74813000  0.64306000  1.0
  N  N387  1  0.39870000  0.75187000  0.85694000  1.0
  N  N388  1  0.10130000  0.35694000  0.25187000  1.0
  N  N389  1  0.10130000  0.14306000  0.24813000  1.0
  N  N390  1  0.10130000  0.25187000  0.14306000  1.0
  N  N391  1  0.10130000  0.24813000  0.35694000  1.0
  Cl  Cl392  1  0.34655000  0.31673000  0.52271000  1.0
  Cl  Cl393  1  0.34655000  0.18327000  0.97729000  1.0
  Cl  Cl394  1  0.34655000  0.97730000  0.31673000  1.0
  Cl  Cl395  1  0.34656000  0.52271000  0.18327000  1.0
  Cl  Cl396  1  0.15345000  0.68327000  0.02271000  1.0
  Cl  Cl397  1  0.15345000  0.81673000  0.47730000  1.0
  Cl  Cl398  1  0.15345000  0.02271000  0.81673000  1.0
  Cl  Cl399  1  0.15344000  0.47730000  0.68327000  1.0
  Cl  Cl400  1  0.65345000  0.68327000  0.47730000  1.0
  Cl  Cl401  1  0.65345000  0.81673000  0.02271000  1.0
  Cl  Cl402  1  0.65345000  0.02271000  0.68327000  1.0
  Cl  Cl403  1  0.65345000  0.47730000  0.81673000  1.0
  Cl  Cl404  1  0.84655000  0.31673000  0.97729000  1.0
  Cl  Cl405  1  0.84655000  0.18327000  0.52271000  1.0
  Cl  Cl406  1  0.84655000  0.97730000  0.18327000  1.0
  Cl  Cl407  1  0.84656000  0.52271000  0.31673000  1.0
  Cl  Cl408  1  0.21505000  0.39797000  0.45551000  1.0
  Cl  Cl409  1  0.21505000  0.10203000  0.04449000  1.0
  Cl  Cl410  1  0.21505000  0.04449000  0.39797000  1.0
  Cl  Cl411  1  0.21505000  0.45551000  0.10203000  1.0
  Cl  Cl412  1  0.28495000  0.60203000  0.95551000  1.0
  Cl  Cl413  1  0.28495000  0.89797000  0.54449000  1.0
  Cl  Cl414  1  0.28495000  0.95551000  0.89797000  1.0
  Cl  Cl415  1  0.28495000  0.54449000  0.60203000  1.0
  Cl  Cl416  1  0.78495000  0.60203000  0.54449000  1.0
  Cl  Cl417  1  0.78495000  0.89797000  0.95551000  1.0
  Cl  Cl418  1  0.78495000  0.95551000  0.60203000  1.0
  Cl  Cl419  1  0.78495000  0.54449000  0.89797000  1.0
  Cl  Cl420  1  0.71505000  0.39797000  0.04449000  1.0
  Cl  Cl421  1  0.71505000  0.10203000  0.45551000  1.0
  Cl  Cl422  1  0.71505000  0.04449000  0.10203000  1.0
  Cl  Cl423  1  0.71505000  0.45551000  0.39797000  1.0
  Cl  Cl424  1  0.49739000  0.41193000  0.46243000  1.0
  Cl  Cl425  1  0.49739000  0.08807000  0.03757000  1.0
  Cl  Cl426  1  0.49739000  0.03757000  0.41193000  1.0
  Cl  Cl427  1  0.49739000  0.46243000  0.08808000  1.0
  Cl  Cl428  1  0.00261000  0.58807000  0.96243000  1.0
  Cl  Cl429  1  0.00261000  0.91192000  0.53757000  1.0
  Cl  Cl430  1  0.00261000  0.96243000  0.91193000  1.0
  Cl  Cl431  1  0.00261000  0.53757000  0.58807000  1.0
  Cl  Cl432  1  0.50261000  0.58807000  0.53757000  1.0
  Cl  Cl433  1  0.50261000  0.91193000  0.96243000  1.0
  Cl  Cl434  1  0.50261000  0.96243000  0.58807000  1.0
  Cl  Cl435  1  0.50261000  0.53757000  0.91193000  1.0
  Cl  Cl436  1  0.99739000  0.41193000  0.03757000  1.0
  Cl  Cl437  1  0.99739000  0.08807000  0.46243000  1.0
  Cl  Cl438  1  0.99739000  0.03757000  0.08807000  1.0
  Cl  Cl439  1  0.99739000  0.46243000  0.41193000  1.0
  Cl  Cl440  1  0.36320000  0.49880000  0.40486000  1.0
  Cl  Cl441  1  0.36320000  0.00120000  0.09514000  1.0
  Cl  Cl442  1  0.36320000  0.09513000  0.49880000  1.0
  Cl  Cl443  1  0.36320000  0.40486000  0.00120000  1.0
  Cl  Cl444  1  0.13680000  0.50120000  0.90487000  1.0
  Cl  Cl445  1  0.13680000  0.99880000  0.59513000  1.0
  Cl  Cl446  1  0.13680000  0.90486000  0.99880000  1.0
  Cl  Cl447  1  0.13680000  0.59513000  0.50120000  1.0
  Cl  Cl448  1  0.63680000  0.50120000  0.59514000  1.0
  Cl  Cl449  1  0.63680000  0.99880000  0.90487000  1.0
  Cl  Cl450  1  0.63680000  0.90486000  0.50120000  1.0
  Cl  Cl451  1  0.63680000  0.59514000  0.99880000  1.0
  Cl  Cl452  1  0.86320000  0.49880000  0.09514000  1.0
  Cl  Cl453  1  0.86319000  0.00120000  0.40486000  1.0
  Cl  Cl454  1  0.86320000  0.09513000  0.00120000  1.0
  Cl  Cl455  1  0.86320000  0.40487000  0.49880000  1.0
  F  F456  1  0.46369000  0.25000000  0.25000000  1.0
  F  F457  1  0.03631000  0.75000000  0.75000000  1.0
  F  F458  1  0.53631000  0.75000000  0.75000000  1.0
  F  F459  1  0.96369000  0.25000000  0.25000000  1.0
  F  F460  1  0.35138000  0.31810000  0.19736000  1.0
  F  F461  1  0.35138000  0.18189000  0.30264000  1.0
  F  F462  1  0.35138000  0.30264000  0.31810000  1.0
  F  F463  1  0.35138000  0.19736000  0.18190000  1.0
  F  F464  1  0.14862000  0.68190000  0.69736000  1.0
  F  F465  1  0.14862000  0.81810000  0.80264000  1.0
  F  F466  1  0.14862000  0.69736000  0.81810000  1.0
  F  F467  1  0.14862000  0.80264000  0.68190000  1.0
  F  F468  1  0.64862000  0.68190000  0.80264000  1.0
  F  F469  1  0.64862000  0.81810000  0.69736000  1.0
  F  F470  1  0.64862000  0.69736000  0.68190000  1.0
  F  F471  1  0.64862000  0.80264000  0.81811000  1.0
  F  F472  1  0.85138000  0.31810000  0.30264000  1.0
  F  F473  1  0.85138000  0.18190000  0.19736000  1.0
  F  F474  1  0.85138000  0.30264000  0.18189000  1.0
  F  F475  1  0.85138000  0.19736000  0.31811000  1.0
  F  F476  1  0.23877000  0.25000000  0.25000000  1.0
  F  F477  1  0.26123000  0.75000000  0.75000000  1.0
  F  F478  1  0.76123000  0.75000000  0.75000000  1.0
  F  F479  1  0.73877000  0.25000000  0.25000000  1.0
