# generated using pymatgen
data_TbCu4H19C21I7N4O7
_symmetry_space_group_name_H-M   'P 1'
_cell_length_a   8.00351000
_cell_length_b   15.09230000
_cell_length_c   29.28190000
_cell_angle_alpha   80.26980000
_cell_angle_beta   89.99990000
_cell_angle_gamma   89.99950000
_symmetry_Int_Tables_number   1
_chemical_formula_structural   TbCu4H19C21I7N4O7
_chemical_formula_sum   'Tb4 Cu16 H76 C84 I28 N16 O28'
_cell_volume   3486.11948852
_cell_formula_units_Z   4
loop_
 _symmetry_equiv_pos_site_id
 _symmetry_equiv_pos_as_xyz
  1  'x, y, z'
loop_
 _atom_site_type_symbol
 _atom_site_label
 _atom_site_symmetry_multiplicity
 _atom_site_fract_x
 _atom_site_fract_y
 _atom_site_fract_z
 _atom_site_occupancy
  Tb  Tb0  1  0.74370000  0.04934000  0.49080000  1.0
  Tb  Tb1  1  0.24370000  0.45066000  0.00920000  1.0
  Tb  Tb2  1  0.25630000  0.95066000  0.50922000  1.0
  Tb  Tb3  1  0.75630000  0.54934000  0.99078000  1.0
  Cu  Cu4  1  0.56999000  0.57358000  0.24746000  1.0
  Cu  Cu5  1  0.06999000  0.92642000  0.25255000  1.0
  Cu  Cu6  1  0.43006000  0.42640000  0.75255000  1.0
  Cu  Cu7  1  0.93006000  0.07360000  0.74745000  1.0
  Cu  Cu8  1  0.31096000  0.64327000  0.28404000  1.0
  Cu  Cu9  1  0.81095000  0.85674000  0.21597000  1.0
  Cu  Cu10  1  0.68908000  0.35674000  0.71596000  1.0
  Cu  Cu11  1  0.18909000  0.14326000  0.78403000  1.0
  Cu  Cu12  1  0.43074000  0.49659000  0.32678000  1.0
  Cu  Cu13  1  0.93074000  0.00342000  0.17322000  1.0
  Cu  Cu14  1  0.56926000  0.50340000  0.67322000  1.0
  Cu  Cu15  1  0.06927000  0.99660000  0.82678000  1.0
  Cu  Cu16  1  0.61375000  0.64970000  0.31726000  1.0
  Cu  Cu17  1  0.11375000  0.85029000  0.18275000  1.0
  Cu  Cu18  1  0.38629000  0.35029000  0.68275000  1.0
  Cu  Cu19  1  0.88631000  0.14971000  0.81725000  1.0
  H  H20  1  0.38357000  0.85758000  0.40594000  1.0
  H  H21  1  0.88356000  0.64243000  0.09406000  1.0
  H  H22  1  0.61638000  0.14243000  0.59407000  1.0
  H  H23  1  0.11638000  0.35756000  0.90593000  1.0
  H  H24  1  0.23800000  0.08863000  0.27280000  1.0
  H  H25  1  0.73800000  0.41137000  0.22721000  1.0
  H  H26  1  0.76202000  0.91140000  0.72722000  1.0
  H  H27  1  0.26201000  0.58859000  0.77278000  1.0
  H  H28  1  0.41716000  0.13208000  0.33446000  1.0
  H  H29  1  0.91716000  0.36792000  0.16554000  1.0
  H  H30  1  0.58284000  0.86793000  0.66557000  1.0
  H  H31  1  0.08283000  0.63207000  0.83443000  1.0
  H  H32  1  0.09397000  0.44735000  0.36323000  1.0
  H  H33  1  0.59397000  0.05265000  0.13677000  1.0
  H  H34  1  0.90602000  0.55264000  0.63677000  1.0
  H  H35  1  0.40603000  0.94736000  0.86323000  1.0
  H  H36  1  0.21302000  0.82360000  0.33975000  1.0
  H  H37  1  0.71301000  0.67640000  0.16025000  1.0
  H  H38  1  0.78695000  0.17642000  0.66026000  1.0
  H  H39  1  0.28694000  0.32357000  0.83974000  1.0
  H  H40  1  0.74518000  0.28599000  0.45076000  1.0
  H  H41  1  0.24518000  0.21401000  0.04925000  1.0
  H  H42  1  0.25483000  0.71400000  0.54928000  1.0
  H  H43  1  0.75484000  0.78600000  0.95072000  1.0
  H  H44  1  0.95158000  0.31446000  0.40839000  1.0
  H  H45  1  0.45158000  0.18555000  0.09161000  1.0
  H  H46  1  0.04840000  0.68555000  0.59162000  1.0
  H  H47  1  0.54840000  0.81445000  0.90839000  1.0
  H  H48  1  0.54353000  0.31053000  0.36469000  1.0
  H  H49  1  0.04352000  0.18947000  0.13532000  1.0
  H  H50  1  0.45646000  0.68946000  0.63533000  1.0
  H  H51  1  0.95648000  0.81054000  0.86466000  1.0
  H  H52  1  0.03888000  0.72377000  0.43455000  1.0
  H  H53  1  0.53886000  0.77623000  0.06545000  1.0
  H  H54  1  0.96113000  0.27622000  0.56547000  1.0
  H  H55  1  0.46113000  0.22378000  0.93452000  1.0
  H  H56  1  0.88722000  0.62705000  0.38683000  1.0
  H  H57  1  0.38721000  0.87294000  0.11318000  1.0
  H  H58  1  0.11282000  0.37293000  0.61318000  1.0
  H  H59  1  0.61282000  0.12707000  0.88681000  1.0
  H  H60  1  0.42144000  0.17437000  0.41265000  1.0
  H  H61  1  0.92142000  0.32563000  0.08736000  1.0
  H  H62  1  0.57856000  0.82563000  0.58737000  1.0
  H  H63  1  0.07857000  0.67437000  0.91262000  1.0
  H  H64  1  0.74480000  0.94768000  0.36750000  1.0
  H  H65  1  0.24481000  0.55232000  0.13250000  1.0
  H  H66  1  0.25518000  0.05231000  0.63252000  1.0
  H  H67  1  0.75519000  0.44769000  0.86748000  1.0
  H  H68  1  0.60665000  0.84256000  0.32171000  1.0
  H  H69  1  0.10666000  0.65744000  0.17829000  1.0
  H  H70  1  0.39338000  0.15743000  0.67830000  1.0
  H  H71  1  0.89338000  0.34257000  0.82169000  1.0
  H  H72  1  0.48421000  0.47135000  0.46937000  1.0
  H  H73  1  0.98420000  0.02865000  0.03063000  1.0
  H  H74  1  0.51580000  0.52863000  0.53067000  1.0
  H  H75  1  0.01580000  0.97136000  0.96933000  1.0
  H  H76  1  0.69805000  0.44510000  0.46089000  1.0
  H  H77  1  0.19805000  0.05489000  0.03911000  1.0
  H  H78  1  0.30194000  0.55487000  0.53913000  1.0
  H  H79  1  0.80194000  0.94513000  0.96087000  1.0
  H  H80  1  0.54351000  0.43068000  0.41860000  1.0
  H  H81  1  0.04351000  0.06932000  0.08140000  1.0
  H  H82  1  0.45644000  0.56931000  0.58143000  1.0
  H  H83  1  0.95645000  0.93069000  0.91857000  1.0
  H  H84  1  0.32612000  0.37574000  0.51317000  1.0
  H  H85  1  0.82613000  0.12426000  0.98683000  1.0
  H  H86  1  0.67385000  0.62425000  0.48685000  1.0
  H  H87  1  0.17386000  0.87575000  0.01315000  1.0
  H  H88  1  0.30736000  0.26734000  0.49684000  1.0
  H  H89  1  0.80735000  0.23266000  0.00316000  1.0
  H  H90  1  0.69261000  0.73264000  0.50318000  1.0
  H  H91  1  0.19261000  0.76735000  0.99682000  1.0
  H  H92  1  0.43276000  0.28076000  0.54541000  1.0
  H  H93  1  0.93276000  0.21924000  0.95459000  1.0
  H  H94  1  0.56720000  0.71921000  0.45461000  1.0
  H  H95  1  0.06720000  0.78078000  0.04539000  1.0
  C  C96  1  0.51657000  0.02089000  0.41509000  1.0
  C  C97  1  0.01657000  0.47911000  0.08491000  1.0
  C  C98  1  0.48343000  0.97911000  0.58493000  1.0
  C  C99  1  0.98343000  0.52090000  0.91507000  1.0
  C  C100  1  0.89948000  0.84328000  0.40579000  1.0
  C  C101  1  0.39948000  0.65672000  0.09422000  1.0
  C  C102  1  0.10051000  0.15671000  0.59423000  1.0
  C  C103  1  0.60050000  0.34329000  0.90576000  1.0
  C  C104  1  0.41381000  0.99812000  0.37600000  1.0
  C  C105  1  0.91381000  0.50188000  0.12400000  1.0
  C  C106  1  0.58618000  0.00189000  0.62402000  1.0
  C  C107  1  0.08617000  0.49811000  0.87598000  1.0
  C  C108  1  0.35494000  0.91051000  0.37696000  1.0
  C  C109  1  0.85494000  0.58950000  0.12304000  1.0
  C  C110  1  0.64503000  0.08951000  0.62305000  1.0
  C  C111  1  0.14503000  0.41049000  0.87695000  1.0
  C  C112  1  0.97541000  0.90191000  0.43683000  1.0
  C  C113  1  0.47541000  0.59809000  0.06317000  1.0
  C  C114  1  0.02457000  0.09807000  0.56319000  1.0
  C  C115  1  0.52458000  0.40193000  0.93681000  1.0
  C  C116  1  0.27314000  0.03911000  0.30279000  1.0
  C  C117  1  0.77314000  0.46090000  0.19721000  1.0
  C  C118  1  0.72686000  0.96091000  0.69723000  1.0
  C  C119  1  0.22685000  0.53909000  0.80277000  1.0
  C  C120  1  0.17492000  0.23188000  0.41465000  1.0
  C  C121  1  0.67491000  0.26812000  0.08535000  1.0
  C  C122  1  0.82507000  0.76812000  0.58536000  1.0
  C  C123  1  0.32508000  0.73189000  0.91464000  1.0
  C  C124  1  0.37357000  0.06302000  0.33751000  1.0
  C  C125  1  0.87358000  0.43698000  0.16249000  1.0
  C  C126  1  0.62642000  0.93700000  0.66251000  1.0
  C  C127  1  0.12641000  0.56300000  0.83749000  1.0
  C  C128  1  0.16235000  0.38509000  0.37460000  1.0
  C  C129  1  0.66235000  0.11491000  0.12540000  1.0
  C  C130  1  0.83764000  0.61491000  0.62540000  1.0
  C  C131  1  0.33765000  0.88510000  0.87460000  1.0
  C  C132  1  0.25851000  0.89150000  0.34034000  1.0
  C  C133  1  0.75851000  0.60850000  0.15966000  1.0
  C  C134  1  0.74146000  0.10852000  0.65967000  1.0
  C  C135  1  0.24145000  0.39148000  0.84033000  1.0
  C  C136  1  0.63566000  0.26677000  0.47307000  1.0
  C  C137  1  0.13566000  0.23323000  0.02693000  1.0
  C  C138  1  0.36433000  0.73323000  0.52696000  1.0
  C  C139  1  0.86434000  0.76677000  0.97304000  1.0
  C  C140  1  0.08339000  0.31049000  0.40007000  1.0
  C  C141  1  0.58339000  0.18951000  0.09993000  1.0
  C  C142  1  0.91660000  0.68951000  0.59994000  1.0
  C  C143  1  0.41661000  0.81049000  0.90007000  1.0
  C  C144  1  0.41267000  0.30891000  0.37547000  1.0
  C  C145  1  0.91266000  0.19109000  0.12453000  1.0
  C  C146  1  0.58733000  0.69108000  0.62454000  1.0
  C  C147  1  0.08734000  0.80892000  0.87545000  1.0
  C  C148  1  0.94280000  0.75250000  0.41016000  1.0
  C  C149  1  0.44279000  0.74750000  0.08984000  1.0
  C  C150  1  0.05721000  0.24749000  0.58985000  1.0
  C  C151  1  0.55720000  0.25251000  0.91014000  1.0
  C  C152  1  0.85861000  0.69844000  0.38378000  1.0
  C  C153  1  0.35860000  0.80156000  0.11622000  1.0
  C  C154  1  0.14142000  0.30155000  0.61623000  1.0
  C  C155  1  0.64142000  0.19846000  0.88376000  1.0
  C  C156  1  0.34312000  0.23252000  0.40159000  1.0
  C  C157  1  0.84311000  0.26749000  0.09841000  1.0
  C  C158  1  0.65689000  0.76748000  0.59842000  1.0
  C  C159  1  0.15690000  0.73252000  0.90157000  1.0
  C  C160  1  0.09971000  0.14885000  0.44375000  1.0
  C  C161  1  0.59971000  0.35116000  0.05625000  1.0
  C  C162  1  0.90027000  0.85116000  0.55628000  1.0
  C  C163  1  0.40028000  0.64884000  0.94372000  1.0
  C  C164  1  0.77767000  0.87675000  0.37327000  1.0
  C  C165  1  0.27768000  0.62325000  0.12673000  1.0
  C  C166  1  0.22233000  0.12324000  0.62674000  1.0
  C  C167  1  0.72232000  0.37676000  0.87325000  1.0
  C  C168  1  0.70090000  0.81863000  0.34771000  1.0
  C  C169  1  0.20090000  0.68137000  0.15229000  1.0
  C  C170  1  0.29913000  0.18136000  0.65230000  1.0
  C  C171  1  0.79913000  0.31864000  0.84770000  1.0
  C  C172  1  0.56852000  0.42509000  0.45582000  1.0
  C  C173  1  0.06852000  0.07491000  0.04418000  1.0
  C  C174  1  0.43145000  0.57489000  0.54421000  1.0
  C  C175  1  0.93146000  0.92511000  0.95579000  1.0
  C  C176  1  0.39236000  0.31333000  0.51078000  1.0
  C  C177  1  0.89236000  0.18667000  0.98922000  1.0
  C  C178  1  0.60763000  0.68666000  0.48924000  1.0
  C  C179  1  0.10763000  0.81334000  0.01076000  1.0
  I  I180  1  0.33634000  0.62904000  0.37539000  1.0
  I  I181  1  0.83633000  0.87096000  0.12462000  1.0
  I  I182  1  0.66369000  0.37096000  0.62461000  1.0
  I  I183  1  0.16370000  0.12904000  0.87539000  1.0
  I  I184  1  0.54381000  0.75559000  0.23599000  1.0
  I  I185  1  0.04381000  0.74441000  0.26402000  1.0
  I  I186  1  0.45626000  0.24439000  0.76402000  1.0
  I  I187  1  0.95626000  0.25561000  0.73598000  1.0
  I  I188  1  0.26606000  0.49960000  0.24674000  1.0
  I  I189  1  0.76606000  0.00040000  0.25327000  1.0
  I  I190  1  0.73394000  0.50041000  0.75327000  1.0
  I  I191  1  0.23395000  0.99959000  0.74673000  1.0
  I  I192  1  0.75886000  0.49083000  0.32319000  1.0
  I  I193  1  0.25886000  0.00916000  0.17681000  1.0
  I  I194  1  0.24114000  0.50916000  0.67680000  1.0
  I  I195  1  0.74114000  0.99084000  0.82319000  1.0
  I  I196  1  0.68186000  0.67771000  0.83429000  1.0
  I  I197  1  0.18187000  0.82230000  0.66570000  1.0
  I  I198  1  0.31814000  0.32231000  0.16569000  1.0
  I  I199  1  0.81816000  0.17768000  0.33431000  1.0
  I  I200  1  0.46550000  0.76814000  0.77069000  1.0
  I  I201  1  0.96551000  0.73185000  0.72931000  1.0
  I  I202  1  0.53448000  0.23183000  0.22928000  1.0
  I  I203  1  0.03449000  0.26816000  0.27072000  1.0
  I  I204  1  0.39808000  0.02862000  0.95970000  1.0
  I  I205  1  0.89807000  0.47138000  0.54031000  1.0
  I  I206  1  0.60196000  0.97139000  0.04031000  1.0
  I  I207  1  0.10196000  0.52861000  0.45969000  1.0
  N  N208  1  0.73775000  0.73032000  0.35327000  1.0
  N  N209  1  0.23775000  0.76968000  0.14673000  1.0
  N  N210  1  0.26228000  0.26968000  0.64673000  1.0
  N  N211  1  0.76228000  0.23033000  0.85326000  1.0
  N  N212  1  0.21527000  0.95469000  0.30393000  1.0
  N  N213  1  0.71527000  0.54531000  0.19607000  1.0
  N  N214  1  0.78473000  0.04533000  0.69608000  1.0
  N  N215  1  0.28472000  0.45466000  0.80392000  1.0
  N  N216  1  0.32509000  0.38535000  0.36260000  1.0
  N  N217  1  0.82508000  0.11465000  0.13740000  1.0
  N  N218  1  0.67492000  0.61463000  0.63741000  1.0
  N  N219  1  0.17493000  0.88537000  0.86259000  1.0
  N  N220  1  0.53758000  0.33391000  0.48057000  1.0
  N  N221  1  0.03758000  0.16609000  0.01944000  1.0
  N  N222  1  0.46241000  0.66608000  0.51946000  1.0
  N  N223  1  0.96241000  0.83392000  0.98054000  1.0
  O  O224  1  0.49481000  0.97676000  0.45626000  1.0
  O  O225  1  0.99480000  0.52323000  0.04374000  1.0
  O  O226  1  0.50519000  0.02323000  0.54375000  1.0
  O  O227  1  0.00520000  0.47677000  0.95625000  1.0
  O  O228  1  0.94492000  0.15086000  0.45316000  1.0
  O  O229  1  0.44492000  0.34914000  0.04684000  1.0
  O  O230  1  0.05506000  0.84915000  0.54686000  1.0
  O  O231  1  0.55507000  0.65085000  0.95314000  1.0
  O  O232  1  0.88335000  0.96370000  0.44762000  1.0
  O  O233  1  0.38335000  0.53630000  0.05238000  1.0
  O  O234  1  0.11665000  0.03628000  0.55240000  1.0
  O  O235  1  0.61666000  0.46371000  0.94760000  1.0
  O  O236  1  0.12318000  0.88565000  0.45129000  1.0
  O  O237  1  0.62318000  0.61435000  0.04871000  1.0
  O  O238  1  0.87683000  0.11433000  0.54873000  1.0
  O  O239  1  0.37683000  0.38567000  0.95127000  1.0
  O  O240  1  0.62608000  0.08277000  0.40820000  1.0
  O  O241  1  0.12608000  0.41723000  0.09180000  1.0
  O  O242  1  0.37393000  0.91722000  0.59182000  1.0
  O  O243  1  0.87393000  0.58279000  0.90818000  1.0
  O  O244  1  0.60690000  0.18598000  0.48999000  1.0
  O  O245  1  0.10690000  0.31401000  0.01001000  1.0
  O  O246  1  0.39310000  0.81400000  0.51003000  1.0
  O  O247  1  0.89310000  0.68600000  0.98997000  1.0
  O  O248  1  0.19828000  0.08328000  0.45697000  1.0
  O  O249  1  0.69827000  0.41672000  0.04303000  1.0
  O  O250  1  0.80171000  0.91673000  0.54306000  1.0
  O  O251  1  0.30172000  0.58327000  0.95694000  1.0
