# generated using pymatgen
data_NiH18C18N4(Cl2O3)2
_symmetry_space_group_name_H-M   'P 1'
_cell_length_a   8.73066000
_cell_length_b   8.76963000
_cell_length_c   9.70180000
_cell_angle_alpha   88.87150000
_cell_angle_beta   73.51160000
_cell_angle_gamma   80.25290000
_symmetry_Int_Tables_number   1
_chemical_formula_structural   NiH18C18N4(Cl2O3)2
_chemical_formula_sum   'Ni1 H18 C18 N4 Cl4 O6'
_cell_volume   701.67044282
_cell_formula_units_Z   1
loop_
 _symmetry_equiv_pos_site_id
 _symmetry_equiv_pos_as_xyz
  1  'x, y, z'
loop_
 _atom_site_type_symbol
 _atom_site_label
 _atom_site_symmetry_multiplicity
 _atom_site_fract_x
 _atom_site_fract_y
 _atom_site_fract_z
 _atom_site_occupancy
  Ni  Ni0  1  0.50001000  0.99999000  0.49999000  1.0
  H  H1  1  0.76436000  0.83234000  0.56624000  1.0
  H  H2  1  0.23564000  0.16766000  0.43377000  1.0
  H  H3  1  0.61490000  0.85473000  0.70124000  1.0
  H  H4  1  0.38508000  0.14528000  0.29877000  1.0
  H  H5  1  0.67395000  0.67754000  0.36890000  1.0
  H  H6  1  0.32604000  0.32245000  0.63109000  1.0
  H  H7  1  0.49780000  0.46710000  0.30016000  1.0
  H  H8  1  0.50219000  0.53289000  0.69984000  1.0
  H  H9  1  0.18144000  0.88658000  0.45951000  1.0
  H  H10  1  0.81855000  0.11343000  0.54050000  1.0
  H  H11  1  0.21363000  0.49026000  0.28607000  1.0
  H  H12  1  0.78637000  0.50974000  0.71394000  1.0
  H  H13  1  0.08710000  0.67689000  0.31650000  1.0
  H  H14  1  0.91290000  0.32312000  0.68351000  1.0
  H  H15  1  0.01897000  0.64094000  0.58094000  1.0
  H  H16  1  0.98101000  0.35908000  0.41907000  1.0
  H  H17  1  0.15141000  0.45952000  0.55235000  1.0
  H  H18  1  0.84857000  0.54049000  0.44766000  1.0
  C  C19  1  0.54625000  0.68912000  0.37770000  1.0
  C  C20  1  0.45374000  0.31088000  0.62230000  1.0
  C  C21  1  0.46140000  0.58545000  0.34188000  1.0
  C  C22  1  0.53859000  0.41455000  0.65813000  1.0
  C  C23  1  0.29257000  0.80290000  0.42646000  1.0
  C  C24  1  0.70746000  0.19709000  0.57354000  1.0
  C  C25  1  0.16479000  0.59032000  0.36105000  1.0
  C  C26  1  0.83520000  0.40969000  0.63895000  1.0
  C  C27  1  0.06861000  0.53981000  0.50688000  1.0
  C  C28  1  0.93138000  0.46020000  0.49313000  1.0
  C  C29  1  0.19973000  0.04093000  0.70800000  1.0
  C  C30  1  0.80027000  0.95907000  0.29200000  1.0
  C  C31  1  0.09888000  0.01923000  0.85984000  1.0
  C  C32  1  0.90113000  0.98076000  0.14016000  1.0
  C  C33  1  0.07018000  0.87185000  0.90678000  1.0
  C  C34  1  0.92982000  0.12814000  0.09320000  1.0
  C  C35  1  0.97078000  0.85276000  0.04564000  1.0
  C  C36  1  0.02925000  0.14723000  0.95436000  1.0
  N  N37  1  0.43944000  0.82405000  0.43117000  1.0
  N  N38  1  0.56055000  0.17594000  0.56883000  1.0
  N  N39  1  0.30238000  0.65916000  0.37273000  1.0
  N  N40  1  0.69761000  0.34086000  0.62729000  1.0
  Cl  Cl41  1  0.15528000  0.71344000  0.79236000  1.0
  Cl  Cl42  1  0.84474000  0.28656000  0.20763000  1.0
  Cl  Cl43  1  0.93170000  0.67169000  0.09835000  1.0
  Cl  Cl44  1  0.06831000  0.32831000  0.90163000  1.0
  O  O45  1  0.35242000  0.98851000  0.68576000  1.0
  O  O46  1  0.64758000  0.01149000  0.31422000  1.0
  O  O47  1  0.13128000  0.10439000  0.61970000  1.0
  O  O48  1  0.86875000  0.89560000  0.38030000  1.0
  O  O49  1  0.71994000  0.78928000  0.66117000  1.0
  O  O50  1  0.28005000  0.21072000  0.33884000  1.0
