# generated using pymatgen
data_Mn2H18(C4O3)3
_symmetry_space_group_name_H-M   'P 1'
_cell_length_a   7.55169000
_cell_length_b   9.02703000
_cell_length_c   11.48450000
_cell_angle_alpha   72.37200000
_cell_angle_beta   70.81600000
_cell_angle_gamma   89.99620000
_symmetry_Int_Tables_number   1
_chemical_formula_structural   Mn2H18(C4O3)3
_chemical_formula_sum   'Mn4 H36 C24 O18'
_cell_volume   700.38045542
_cell_formula_units_Z   2
loop_
 _symmetry_equiv_pos_site_id
 _symmetry_equiv_pos_as_xyz
  1  'x, y, z'
loop_
 _atom_site_type_symbol
 _atom_site_label
 _atom_site_symmetry_multiplicity
 _atom_site_fract_x
 _atom_site_fract_y
 _atom_site_fract_z
 _atom_site_occupancy
  Mn  Mn0  1  0.18288000  0.03876000  0.04495000  1.0
  Mn  Mn1  1  0.22773000  0.46128000  0.95510000  1.0
  Mn  Mn2  1  0.81712000  0.96124000  0.95505000  1.0
  Mn  Mn3  1  0.77227000  0.53873000  0.04490000  1.0
  H  H4  1  0.76761000  0.40904000  0.68827000  1.0
  H  H5  1  0.45592000  0.09095000  0.31186000  1.0
  H  H6  1  0.23239000  0.59096000  0.31173000  1.0
  H  H7  1  0.54407000  0.90905000  0.68814000  1.0
  H  H8  1  0.54066000  0.46291000  0.68770000  1.0
  H  H9  1  0.22864000  0.03714000  0.31209000  1.0
  H  H10  1  0.45934000  0.53709000  0.31230000  1.0
  H  H11  1  0.77136000  0.96286000  0.68791000  1.0
  H  H12  1  0.90803000  0.68663000  0.56552000  1.0
  H  H13  1  0.47346000  0.81315000  0.43444000  1.0
  H  H14  1  0.09197000  0.31337000  0.43448000  1.0
  H  H15  1  0.52654000  0.18685000  0.56556000  1.0
  H  H16  1  0.68374000  0.74424000  0.57065000  1.0
  H  H17  1  0.25430000  0.75582000  0.42915000  1.0
  H  H18  1  0.31626000  0.25576000  0.42935000  1.0
  H  H19  1  0.74570000  0.24418000  0.57085000  1.0
  H  H20  1  0.87358000  0.50946000  0.43694000  1.0
  H  H21  1  0.31059000  0.99042000  0.56292000  1.0
  H  H22  1  0.12642000  0.49054000  0.56306000  1.0
  H  H23  1  0.68940000  0.00957000  0.43707000  1.0
  H  H24  1  0.65428000  0.57614000  0.43950000  1.0
  H  H25  1  0.09382000  0.92395000  0.56033000  1.0
  H  H26  1  0.34571000  0.42386000  0.56050000  1.0
  H  H27  1  0.90618000  0.07605000  0.43967000  1.0
  H  H28  1  0.04082000  0.77558000  0.30679000  1.0
  H  H29  1  0.34744000  0.72440000  0.69327000  1.0
  H  H30  1  0.95917000  0.22442000  0.69321000  1.0
  H  H31  1  0.65256000  0.27560000  0.30673000  1.0
  H  H32  1  0.82922000  0.85823000  0.32735000  1.0
  H  H33  1  0.15653000  0.64170000  0.67258000  1.0
  H  H34  1  0.17077000  0.14177000  0.67265000  1.0
  H  H35  1  0.84347000  0.35830000  0.32742000  1.0
  H  H36  1  0.51432000  0.21163000  0.94144000  1.0
  H  H37  1  0.45585000  0.28839000  0.05862000  1.0
  H  H38  1  0.48568000  0.78837000  0.05856000  1.0
  H  H39  1  0.54415000  0.71161000  0.94138000  1.0
  C  C40  1  0.45689000  0.95396000  0.18990000  1.0
  C  C41  1  0.64648000  0.54609000  0.81013000  1.0
  C  C42  1  0.54311000  0.04604000  0.81010000  1.0
  C  C43  1  0.35353000  0.45391000  0.18987000  1.0
  C  C44  1  0.67764000  0.50445000  0.68748000  1.0
  C  C45  1  0.36532000  0.99558000  0.31249000  1.0
  C  C46  1  0.32236000  0.49555000  0.31252000  1.0
  C  C47  1  0.63467000  0.00442000  0.68751000  1.0
  C  C48  1  0.77005000  0.64647000  0.56586000  1.0
  C  C49  1  0.33587000  0.85346000  0.43405000  1.0
  C  C50  1  0.22995000  0.35353000  0.43414000  1.0
  C  C51  1  0.66413000  0.14654000  0.56595000  1.0
  C  C52  1  0.79356000  0.61101000  0.44009000  1.0
  C  C53  1  0.23362000  0.88891000  0.55981000  1.0
  C  C54  1  0.20644000  0.38899000  0.55991000  1.0
  C  C55  1  0.76638000  0.11109000  0.44019000  1.0
  C  C56  1  0.89196000  0.74996000  0.31937000  1.0
  C  C57  1  0.21120000  0.74995000  0.68061000  1.0
  C  C58  1  0.10803000  0.25004000  0.68063000  1.0
  C  C59  1  0.78880000  0.25005000  0.31939000  1.0
  C  C60  1  0.88561000  0.73724000  0.19265000  1.0
  C  C61  1  0.07817000  0.76274000  0.80724000  1.0
  C  C62  1  0.11439000  0.26276000  0.80735000  1.0
  C  C63  1  0.92183000  0.23726000  0.19276000  1.0
  O  O64  1  0.63443000  0.97880000  0.13665000  1.0
  O  O65  1  0.77069000  0.52120000  0.86347000  1.0
  O  O66  1  0.36556000  0.02120000  0.86335000  1.0
  O  O67  1  0.22931000  0.47880000  0.13653000  1.0
  O  O68  1  0.40649000  0.24998000  0.00007000  1.0
  O  O69  1  0.59351000  0.75002000  0.99993000  1.0
  O  O70  1  0.34906000  0.89010000  0.14683000  1.0
  O  O71  1  0.49559000  0.61001000  0.85306000  1.0
  O  O72  1  0.65094000  0.10990000  0.85316000  1.0
  O  O73  1  0.50441000  0.38999000  0.14694000  1.0
  O  O74  1  0.98027000  0.87654000  0.80563000  1.0
  O  O75  1  0.78608000  0.62358000  0.19413000  1.0
  O  O76  1  0.01972000  0.12346000  0.19437000  1.0
  O  O77  1  0.21392000  0.37642000  0.80587000  1.0
  O  O78  1  0.97659000  0.84868000  0.08723000  1.0
  O  O79  1  0.06362000  0.65134000  0.91275000  1.0
  O  O80  1  0.02341000  0.15132000  0.91277000  1.0
  O  O81  1  0.93639000  0.34866000  0.08725000  1.0
