# generated using pymatgen
data_CdH22C20(N2O3)2
_symmetry_space_group_name_H-M   'P 1'
_cell_length_a   8.98667000
_cell_length_b   9.23614000
_cell_length_c   15.60300000
_cell_angle_alpha   93.35160000
_cell_angle_beta   93.44480000
_cell_angle_gamma   112.21300000
_symmetry_Int_Tables_number   1
_chemical_formula_structural   CdH22C20(N2O3)2
_chemical_formula_sum   'Cd2 H44 C40 N8 O12'
_cell_volume   1192.17462115
_cell_formula_units_Z   2
loop_
 _symmetry_equiv_pos_site_id
 _symmetry_equiv_pos_as_xyz
  1  'x, y, z'
loop_
 _atom_site_type_symbol
 _atom_site_label
 _atom_site_symmetry_multiplicity
 _atom_site_fract_x
 _atom_site_fract_y
 _atom_site_fract_z
 _atom_site_occupancy
  Cd  Cd0  1  0.02053000  0.97613000  0.75158000  1.0
  Cd  Cd1  1  0.97947000  0.02386000  0.24842000  1.0
  H  H2  1  0.62743000  0.67444000  0.88761000  1.0
  H  H3  1  0.31974000  0.36839000  0.61029000  1.0
  H  H4  1  0.37255000  0.32557000  0.11238000  1.0
  H  H5  1  0.68026000  0.63161000  0.38971000  1.0
  H  H6  1  0.56761000  0.78750000  0.02392000  1.0
  H  H7  1  0.20344000  0.42516000  0.47361000  1.0
  H  H8  1  0.43238000  0.21251000  0.97607000  1.0
  H  H9  1  0.79656000  0.57484000  0.52639000  1.0
  H  H10  1  0.58004000  0.21566000  0.76424000  1.0
  H  H11  1  0.79419000  0.43069000  0.73777000  1.0
  H  H12  1  0.41997000  0.78435000  0.23576000  1.0
  H  H13  1  0.20581000  0.56931000  0.26224000  1.0
  H  H14  1  0.56144000  0.16458000  0.87220000  1.0
  H  H15  1  0.84855000  0.45146000  0.63020000  1.0
  H  H16  1  0.43857000  0.83544000  0.12780000  1.0
  H  H17  1  0.15145000  0.54853000  0.36980000  1.0
  H  H18  1  0.77142000  0.85053000  0.56670000  1.0
  H  H19  1  0.14924000  0.23601000  0.92878000  1.0
  H  H20  1  0.22856000  0.14944000  0.43329000  1.0
  H  H21  1  0.85079000  0.76399000  0.07122000  1.0
  H  H22  1  0.91323000  0.31211000  0.49102000  1.0
  H  H23  1  0.68139000  0.08424000  0.01447000  1.0
  H  H24  1  0.08677000  0.68787000  0.50898000  1.0
  H  H25  1  0.31862000  0.91578000  0.98552000  1.0
  H  H26  1  0.08236000  0.31603000  0.64946000  1.0
  H  H27  1  0.67372000  0.91278000  0.85814000  1.0
  H  H28  1  0.91763000  0.68393000  0.35055000  1.0
  H  H29  1  0.32629000  0.08724000  0.14186000  1.0
  H  H30  1  0.73357000  0.07341000  0.37951000  1.0
  H  H31  1  0.92633000  0.27095000  0.11964000  1.0
  H  H32  1  0.26642000  0.92659000  0.62049000  1.0
  H  H33  1  0.07368000  0.72906000  0.88035000  1.0
  H  H34  1  0.65614000  0.88550000  0.42029000  1.0
  H  H35  1  0.11801000  0.34671000  0.07768000  1.0
  H  H36  1  0.34385000  0.11449000  0.57970000  1.0
  H  H37  1  0.88200000  0.65330000  0.92232000  1.0
  H  H38  1  0.44570000  0.99575000  0.40376000  1.0
  H  H39  1  0.00086000  0.54881000  0.09637000  1.0
  H  H40  1  0.55430000  0.00425000  0.59625000  1.0
  H  H41  1  0.99915000  0.45121000  0.90363000  1.0
  H  H42  1  0.56476000  0.16715000  0.46995000  1.0
  H  H43  1  0.82700000  0.43371000  0.02834000  1.0
  H  H44  1  0.43524000  0.83284000  0.53005000  1.0
  H  H45  1  0.17301000  0.56630000  0.97166000  1.0
  C  C46  1  0.57246000  0.59962000  0.93786000  1.0
  C  C47  1  0.39720000  0.42515000  0.56099000  1.0
  C  C48  1  0.42753000  0.40039000  0.06214000  1.0
  C  C49  1  0.60279000  0.57485000  0.43902000  1.0
  C  C50  1  0.53673000  0.66142000  0.01406000  1.0
  C  C51  1  0.33346000  0.45909000  0.48453000  1.0
  C  C52  1  0.46326000  0.33858000  0.98593000  1.0
  C  C53  1  0.66653000  0.54091000  0.51547000  1.0
  C  C54  1  0.53719000  0.43873000  0.92332000  1.0
  C  C55  1  0.56324000  0.46480000  0.57700000  1.0
  C  C56  1  0.46281000  0.56129000  0.07668000  1.0
  C  C57  1  0.43676000  0.53521000  0.42301000  1.0
  C  C58  1  0.52369000  0.22790000  0.82338000  1.0
  C  C59  1  0.78039000  0.48477000  0.67847000  1.0
  C  C60  1  0.47631000  0.77211000  0.17661000  1.0
  C  C61  1  0.21961000  0.51522000  0.32153000  1.0
  C  C62  1  0.34108000  0.15134000  0.80140000  1.0
  C  C63  1  0.85366000  0.66270000  0.70062000  1.0
  C  C64  1  0.65893000  0.84866000  0.19859000  1.0
  C  C65  1  0.14635000  0.33730000  0.29938000  1.0
  C  C66  1  0.83613000  0.97666000  0.56849000  1.0
  C  C67  1  0.02091000  0.16895000  0.92994000  1.0
  C  C68  1  0.16385000  0.02331000  0.43150000  1.0
  C  C69  1  0.97910000  0.83106000  0.07006000  1.0
  C  C70  1  0.91104000  0.21982000  0.53136000  1.0
  C  C71  1  0.77419000  0.08877000  0.97224000  1.0
  C  C72  1  0.08895000  0.78015000  0.46864000  1.0
  C  C73  1  0.22582000  0.91125000  0.02776000  1.0
  C  C74  1  0.99366000  0.21939000  0.60848000  1.0
  C  C75  1  0.77319000  0.00435000  0.89638000  1.0
  C  C76  1  0.00633000  0.78059000  0.39152000  1.0
  C  C77  1  0.22682000  0.99567000  0.10362000  1.0
  C  C78  1  0.68512000  0.01123000  0.43581000  1.0
  C  C79  1  0.98849000  0.31778000  0.06281000  1.0
  C  C80  1  0.31487000  0.98876000  0.56419000  1.0
  C  C81  1  0.01152000  0.68223000  0.93719000  1.0
  C  C82  1  0.53529000  0.03982000  0.46011000  1.0
  C  C83  1  0.95791000  0.46348000  0.03917000  1.0
  C  C84  1  0.46470000  0.96018000  0.53990000  1.0
  C  C85  1  0.04210000  0.53653000  0.96083000  1.0
  N  N86  1  0.94602000  0.06682000  0.63064000  1.0
  N  N87  1  0.92793000  0.05529000  0.87095000  1.0
  N  N88  1  0.05397000  0.93315000  0.36936000  1.0
  N  N89  1  0.07209000  0.94472000  0.12904000  1.0
  N  N90  1  0.81241000  0.06524000  0.50691000  1.0
  N  N91  1  0.93198000  0.19223000  0.99258000  1.0
  N  N92  1  0.18758000  0.93474000  0.49310000  1.0
  N  N93  1  0.06804000  0.80779000  0.00741000  1.0
  O  O94  1  0.26374000  0.23137000  0.77454000  1.0
  O  O95  1  0.76803000  0.73370000  0.72842000  1.0
  O  O96  1  0.73626000  0.76863000  0.22545000  1.0
  O  O97  1  0.23198000  0.26630000  0.27159000  1.0
  O  O98  1  0.27783000  0.00343000  0.80916000  1.0
  O  O99  1  0.00492000  0.72905000  0.69238000  1.0
  O  O100  1  0.72217000  0.99657000  0.19084000  1.0
  O  O101  1  0.99508000  0.27094000  0.30762000  1.0
  O  O102  1  0.58352000  0.39199000  0.84780000  1.0
  O  O103  1  0.61198000  0.42135000  0.65297000  1.0
  O  O104  1  0.41647000  0.60803000  0.15220000  1.0
  O  O105  1  0.38802000  0.57865000  0.34703000  1.0
