# generated using pymatgen
data_AgH9C14SN2
_symmetry_space_group_name_H-M   'P 1'
_cell_length_a   5.87546000
_cell_length_b   7.70079000
_cell_length_c   14.05350000
_cell_angle_alpha   90.00240000
_cell_angle_beta   80.85780000
_cell_angle_gamma   90.00030000
_symmetry_Int_Tables_number   1
_chemical_formula_structural   AgH9C14SN2
_chemical_formula_sum   'Ag2 H18 C28 S2 N4'
_cell_volume   627.78291420
_cell_formula_units_Z   2
loop_
 _symmetry_equiv_pos_site_id
 _symmetry_equiv_pos_as_xyz
  1  'x, y, z'
loop_
 _atom_site_type_symbol
 _atom_site_label
 _atom_site_symmetry_multiplicity
 _atom_site_fract_x
 _atom_site_fract_y
 _atom_site_fract_z
 _atom_site_occupancy
  Ag  Ag0  1  0.75377000  0.55113000  0.92202000  1.0
  Ag  Ag1  1  0.24624000  0.05113000  0.07798000  1.0
  H  H2  1  0.87329000  0.47371000  0.70268000  1.0
  H  H3  1  0.12672000  0.97372000  0.29731000  1.0
  H  H4  1  0.69289000  0.47473000  0.55417000  1.0
  H  H5  1  0.30712000  0.97474000  0.44583000  1.0
  H  H6  1  0.13172000  0.77344000  0.71239000  1.0
  H  H7  1  0.86829000  0.27345000  0.28762000  1.0
  H  H8  1  0.33873000  0.76140000  0.85416000  1.0
  H  H9  1  0.66129000  0.26141000  0.14584000  1.0
  H  H10  1  0.38440000  0.47183000  0.30535000  1.0
  H  H11  1  0.61559000  0.97182000  0.69463000  1.0
  H  H12  1  0.23635000  0.47004000  0.14896000  1.0
  H  H13  1  0.76361000  0.97003000  0.85104000  1.0
  H  H14  1  0.86371000  0.61423000  0.13562000  1.0
  H  H15  1  0.13624000  0.11422000  0.86439000  1.0
  H  H16  1  0.63820000  0.75787000  0.27870000  1.0
  H  H17  1  0.36179000  0.25786000  0.72132000  1.0
  H  H18  1  0.78481000  0.75922000  0.43581000  1.0
  H  H19  1  0.21518000  0.25920000  0.56420000  1.0
  C  C20  1  0.71002000  0.54034000  0.70153000  1.0
  C  C21  1  0.28998000  0.04036000  0.29847000  1.0
  C  C22  1  0.60911000  0.54091000  0.61879000  1.0
  C  C23  1  0.39089000  0.04093000  0.38121000  1.0
  C  C24  1  0.39497000  0.62493000  0.62049000  1.0
  C  C25  1  0.60504000  0.12494000  0.37951000  1.0
  C  C26  1  0.29614000  0.70618000  0.70710000  1.0
  C  C27  1  0.70387000  0.20620000  0.29291000  1.0
  C  C28  1  0.41089000  0.69963000  0.78619000  1.0
  C  C29  1  0.58912000  0.19964000  0.21382000  1.0
  C  C30  1  0.28339000  0.62457000  0.53857000  1.0
  C  C31  1  0.71661000  0.12458000  0.46143000  1.0
  C  C32  1  0.18892000  0.61981000  0.46721000  1.0
  C  C33  1  0.81109000  0.11982000  0.53279000  1.0
  C  C34  1  0.09427000  0.61474000  0.38069000  1.0
  C  C35  1  0.90573000  0.11473000  0.61930000  1.0
  C  C36  1  0.22040000  0.53298000  0.29902000  1.0
  C  C37  1  0.77959000  0.03297000  0.70098000  1.0
  C  C38  1  0.13737000  0.53307000  0.21167000  1.0
  C  C39  1  0.86260000  0.03306000  0.78833000  1.0
  C  C40  1  0.92790000  0.61404000  0.20426000  1.0
  C  C41  1  0.07208000  0.11403000  0.79574000  1.0
  C  C42  1  0.80090000  0.69437000  0.28498000  1.0
  C  C43  1  0.19908000  0.19437000  0.71503000  1.0
  C  C44  1  0.88166000  0.69485000  0.37304000  1.0
  C  C45  1  0.11834000  0.19485000  0.62697000  1.0
  C  C46  1  0.24828000  0.40494000  0.95868000  1.0
  C  C47  1  0.75174000  0.90494000  0.04131000  1.0
  S  S48  1  0.47615000  0.28471000  0.96346000  1.0
  S  S49  1  0.52387000  0.78471000  0.03654000  1.0
  N  N50  1  0.61455000  0.61799000  0.78436000  1.0
  N  N51  1  0.38546000  0.11800000  0.21564000  1.0
  N  N52  1  0.08616000  0.49384000  0.95456000  1.0
  N  N53  1  0.91384000  0.99385000  0.04544000  1.0
