# generated using pymatgen
data_NbAgH8C10N2OF4
_symmetry_space_group_name_H-M   'P 1'
_cell_length_a   3.95229000
_cell_length_b   13.70660686
_cell_length_c   13.71440662
_cell_angle_alpha   69.31285869
_cell_angle_beta   82.34706491
_cell_angle_gamma   82.32764858
_symmetry_Int_Tables_number   1
_chemical_formula_structural   NbAgH8C10N2OF4
_chemical_formula_sum   'Nb2 Ag2 H16 C20 N4 O2 F8'
_cell_volume   685.84851460
_cell_formula_units_Z   2
loop_
 _symmetry_equiv_pos_site_id
 _symmetry_equiv_pos_as_xyz
  1  'x, y, z'
loop_
 _atom_site_type_symbol
 _atom_site_label
 _atom_site_symmetry_multiplicity
 _atom_site_fract_x
 _atom_site_fract_y
 _atom_site_fract_z
 _atom_site_occupancy
  Nb  Nb0  1  0.44943000  0.73759000  0.73794000  1.0
  Nb  Nb1  1  0.55021000  0.26208000  0.26248000  1.0
  Ag  Ag2  1  0.00007000  0.49951000  0.00048000  1.0
  Ag  Ag3  1  0.99976000  0.99941000  0.50056000  1.0
  H  H4  1  0.00348000  0.48075000  0.23065000  1.0
  H  H5  1  0.99722000  0.76898000  0.51927000  1.0
  H  H6  1  0.99549000  0.51923000  0.76993000  1.0
  H  H7  1  0.00317000  0.23023000  0.48067000  1.0
  H  H8  1  0.76287000  0.58233000  0.34620000  1.0
  H  H9  1  0.23809000  0.65354000  0.41757000  1.0
  H  H10  1  0.23535000  0.41815000  0.65376000  1.0
  H  H11  1  0.76278000  0.34643000  0.58169000  1.0
  H  H12  1  0.42268000  0.83169000  0.07113000  1.0
  H  H13  1  0.57632000  0.92906000  0.16848000  1.0
  H  H14  1  0.58096000  0.16870000  0.92794000  1.0
  H  H15  1  0.42145000  0.07182000  0.83138000  1.0
  H  H16  1  0.67104000  0.72033000  0.96681000  1.0
  H  H17  1  0.32768000  0.03324000  0.27994000  1.0
  H  H18  1  0.33306000  0.27956000  0.03289000  1.0
  H  H19  1  0.66946000  0.96688000  0.72055000  1.0
  C  C20  1  0.87124000  0.55862000  0.19838000  1.0
  C  C21  1  0.12903000  0.80137000  0.44143000  1.0
  C  C22  1  0.12858000  0.44145000  0.80185000  1.0
  C  C23  1  0.87080000  0.19826000  0.55848000  1.0
  C  C24  1  0.73589000  0.61611000  0.26248000  1.0
  C  C25  1  0.26457000  0.73734000  0.38388000  1.0
  C  C26  1  0.26367000  0.38426000  0.73740000  1.0
  C  C27  1  0.73546000  0.26269000  0.61564000  1.0
  C  C28  1  0.55317000  0.75501000  0.10997000  1.0
  C  C29  1  0.44622000  0.89007000  0.24512000  1.0
  C  C30  1  0.44936000  0.24530000  0.88945000  1.0
  C  C31  1  0.55212000  0.11041000  0.75473000  1.0
  C  C32  1  0.57266000  0.71697000  0.21857000  1.0
  C  C33  1  0.42733000  0.78140000  0.28307000  1.0
  C  C34  1  0.42787000  0.28352000  0.78095000  1.0
  C  C35  1  0.57234000  0.21903000  0.71645000  1.0
  C  C36  1  0.69056000  0.69275000  0.05088000  1.0
  C  C37  1  0.30866000  0.94909000  0.30743000  1.0
  C  C38  1  0.31216000  0.30725000  0.94888000  1.0
  C  C39  1  0.68942000  0.05098000  0.69280000  1.0
  N  N40  1  0.84787000  0.59596000  0.09415000  1.0
  N  N41  1  0.15178000  0.90569000  0.40416000  1.0
  N  N42  1  0.15337000  0.40388000  0.90601000  1.0
  N  N43  1  0.84718000  0.09397000  0.59612000  1.0
  O  O44  1  0.99614000  0.73751000  0.73769000  1.0
  O  O45  1  0.00347000  0.26229000  0.26259000  1.0
  F  F46  1  0.58824000  0.65142000  0.65055000  1.0
  F  F47  1  0.41134000  0.34974000  0.34839000  1.0
  F  F48  1  0.42114000  0.82438000  0.82548000  1.0
  F  F49  1  0.57849000  0.17441000  0.17583000  1.0
  F  F50  1  0.51174000  0.61380000  0.86170000  1.0
  F  F51  1  0.48790000  0.13839000  0.38632000  1.0
  F  F52  1  0.48946000  0.38498000  0.13781000  1.0
  F  F53  1  0.51020000  0.86221000  0.61501000  1.0
