# generated using pymatgen
data_U2H24C25N8O17
_symmetry_space_group_name_H-M   'P 1'
_cell_length_a   11.56520000
_cell_length_b   14.70590000
_cell_length_c   19.90620000
_cell_angle_alpha   89.99990000
_cell_angle_beta   89.99990000
_cell_angle_gamma   79.69600000
_symmetry_Int_Tables_number   1
_chemical_formula_structural   U2H24C25N8O17
_chemical_formula_sum   'U8 H96 C100 N32 O68'
_cell_volume   3330.97953391
_cell_formula_units_Z   4
loop_
 _symmetry_equiv_pos_site_id
 _symmetry_equiv_pos_as_xyz
  1  'x, y, z'
loop_
 _atom_site_type_symbol
 _atom_site_label
 _atom_site_symmetry_multiplicity
 _atom_site_fract_x
 _atom_site_fract_y
 _atom_site_fract_z
 _atom_site_occupancy
  U  U0  1  0.73347000  0.14289000  0.53241000  1.0
  U  U1  1  0.76653000  0.35711000  0.03241000  1.0
  U  U2  1  0.26653000  0.85711000  0.46759000  1.0
  U  U3  1  0.23347000  0.64289000  0.96759000  1.0
  U  U4  1  0.25284000  0.40432000  0.61260000  1.0
  U  U5  1  0.24717000  0.09569000  0.11259000  1.0
  U  U6  1  0.74716000  0.59568000  0.38741000  1.0
  U  U7  1  0.75284000  0.90431000  0.88741000  1.0
  H  H8  1  0.64573000  0.47518000  0.52315000  1.0
  H  H9  1  0.85428000  0.02482000  0.02315000  1.0
  H  H10  1  0.35427000  0.52482000  0.47685000  1.0
  H  H11  1  0.14572000  0.97517000  0.97685000  1.0
  H  H12  1  0.57264000  0.46572000  0.59999000  1.0
  H  H13  1  0.92737000  0.03427000  0.09999000  1.0
  H  H14  1  0.42736000  0.53427000  0.40001000  1.0
  H  H15  1  0.07263000  0.96573000  0.90001000  1.0
  H  H16  1  0.90400000  0.38791000  0.56071000  1.0
  H  H17  1  0.59601000  0.11209000  0.06070000  1.0
  H  H18  1  0.09600000  0.61209000  0.43929000  1.0
  H  H19  1  0.40399000  0.88791000  0.93929000  1.0
  H  H20  1  0.92635000  0.48817000  0.60483000  1.0
  H  H21  1  0.57366000  0.01184000  0.10483000  1.0
  H  H22  1  0.07365000  0.51184000  0.39517000  1.0
  H  H23  1  0.42634000  0.98816000  0.89516000  1.0
  H  H24  1  0.06511000  0.38411000  0.74256000  1.0
  H  H25  1  0.43490000  0.11589000  0.24256000  1.0
  H  H26  1  0.93489000  0.61590000  0.25744000  1.0
  H  H27  1  0.56510000  0.88410000  0.75744000  1.0
  H  H28  1  0.13186000  0.43005000  0.81203000  1.0
  H  H29  1  0.36814000  0.06995000  0.31202000  1.0
  H  H30  1  0.86814000  0.56995000  0.18798000  1.0
  H  H31  1  0.63186000  0.93005000  0.68798000  1.0
  H  H32  1  0.89414000  0.56686000  0.87975000  1.0
  H  H33  1  0.60586000  0.93313000  0.37975000  1.0
  H  H34  1  0.10586000  0.43313000  0.12025000  1.0
  H  H35  1  0.39414000  0.06687000  0.62025000  1.0
  H  H36  1  0.03415000  0.50023000  0.89577000  1.0
  H  H37  1  0.46585000  0.99976000  0.39577000  1.0
  H  H38  1  0.96585000  0.49976000  0.10423000  1.0
  H  H39  1  0.53415000  0.00025000  0.60423000  1.0
  H  H40  1  0.61855000  0.48985000  0.90001000  1.0
  H  H41  1  0.88145000  0.01015000  0.40001000  1.0
  H  H42  1  0.38145000  0.51015000  0.09999000  1.0
  H  H43  1  0.11854000  0.98985000  0.59999000  1.0
  H  H44  1  0.53435000  0.40060000  0.89440000  1.0
  H  H45  1  0.96565000  0.09940000  0.39440000  1.0
  H  H46  1  0.46564000  0.59940000  0.10560000  1.0
  H  H47  1  0.03435000  0.90060000  0.60560000  1.0
  H  H48  1  0.44595000  0.50041000  0.71729000  1.0
  H  H49  1  0.05406000  0.99959000  0.21729000  1.0
  H  H50  1  0.55405000  0.49959000  0.28271000  1.0
  H  H51  1  0.94594000  0.00041000  0.78271000  1.0
  H  H52  1  0.36135000  0.50873000  0.79187000  1.0
  H  H53  1  0.13865000  0.99127000  0.29187000  1.0
  H  H54  1  0.63865000  0.49127000  0.20813000  1.0
  H  H55  1  0.86135000  0.00872000  0.70813000  1.0
  H  H56  1  0.10963000  0.68299000  0.70749000  1.0
  H  H57  1  0.39037000  0.81701000  0.20749000  1.0
  H  H58  1  0.89037000  0.31701000  0.29251000  1.0
  H  H59  1  0.60963000  0.18298000  0.79251000  1.0
  H  H60  1  0.37916000  0.22447000  0.80228000  1.0
  H  H61  1  0.12084000  0.27553000  0.30228000  1.0
  H  H62  1  0.62084000  0.77553000  0.19772000  1.0
  H  H63  1  0.87916000  0.72447000  0.69772000  1.0
  H  H64  1  0.46994000  0.28358000  0.54946000  1.0
  H  H65  1  0.03006000  0.21642000  0.04946000  1.0
  H  H66  1  0.53006000  0.71642000  0.45054000  1.0
  H  H67  1  0.96994000  0.78357000  0.95054000  1.0
  H  H68  1  0.38431000  0.20977000  0.55693000  1.0
  H  H69  1  0.11569000  0.29024000  0.05692000  1.0
  H  H70  1  0.61569000  0.79024000  0.44308000  1.0
  H  H71  1  0.88430000  0.70976000  0.94308000  1.0
  H  H72  1  0.78304000  0.73760000  0.59273000  1.0
  H  H73  1  0.71696000  0.76240000  0.09273000  1.0
  H  H74  1  0.21696000  0.26240000  0.40726000  1.0
  H  H75  1  0.28304000  0.23760000  0.90726000  1.0
  H  H76  1  0.56627000  0.73506000  0.58884000  1.0
  H  H77  1  0.93373000  0.76495000  0.08884000  1.0
  H  H78  1  0.43372000  0.26495000  0.41116000  1.0
  H  H79  1  0.06627000  0.23505000  0.91116000  1.0
  H  H80  1  0.58392000  0.67327000  0.80194000  1.0
  H  H81  1  0.91609000  0.82672000  0.30194000  1.0
  H  H82  1  0.41608000  0.32672000  0.19806000  1.0
  H  H83  1  0.08392000  0.17328000  0.69806000  1.0
  H  H84  1  0.79947000  0.68149000  0.79656000  1.0
  H  H85  1  0.70053000  0.81851000  0.29656000  1.0
  H  H86  1  0.20052000  0.31851000  0.20344000  1.0
  H  H87  1  0.29947000  0.18150000  0.70344000  1.0
  H  H88  1  0.41530000  0.66371000  0.59214000  1.0
  H  H89  1  0.08470000  0.83630000  0.09214000  1.0
  H  H90  1  0.58470000  0.33630000  0.40786000  1.0
  H  H91  1  0.91530000  0.16370000  0.90786000  1.0
  H  H92  1  0.20164000  0.65539000  0.60246000  1.0
  H  H93  1  0.29836000  0.84461000  0.10247000  1.0
  H  H94  1  0.79835000  0.34461000  0.39754000  1.0
  H  H95  1  0.70165000  0.15538000  0.89753000  1.0
  H  H96  1  0.19290000  0.73630000  0.80217000  1.0
  H  H97  1  0.30710000  0.76370000  0.30217000  1.0
  H  H98  1  0.80709000  0.26370000  0.19783000  1.0
  H  H99  1  0.69290000  0.23629000  0.69783000  1.0
  H  H100  1  0.40464000  0.74954000  0.80152000  1.0
  H  H101  1  0.09536000  0.75046000  0.30152000  1.0
  H  H102  1  0.59536000  0.25046000  0.19848000  1.0
  H  H103  1  0.90464000  0.24954000  0.69848000  1.0
  C  C104  1  0.66833000  0.33793000  0.56343000  1.0
  C  C105  1  0.83169000  0.16207000  0.06343000  1.0
  C  C106  1  0.33168000  0.66207000  0.43657000  1.0
  C  C107  1  0.16831000  0.83793000  0.93657000  1.0
  C  C108  1  0.84372000  0.51564000  0.50883000  1.0
  C  C109  1  0.65628000  0.98436000  0.00883000  1.0
  C  C110  1  0.15628000  0.48437000  0.49117000  1.0
  C  C111  1  0.34372000  0.01564000  0.99117000  1.0
  C  C112  1  0.07615000  0.52629000  0.73314000  1.0
  C  C113  1  0.42384000  0.97371000  0.23314000  1.0
  C  C114  1  0.92385000  0.47372000  0.26686000  1.0
  C  C115  1  0.57615000  0.02628000  0.76686000  1.0
  C  C116  1  0.89041000  0.44464000  0.93495000  1.0
  C  C117  1  0.60959000  0.05535000  0.43495000  1.0
  C  C118  1  0.10959000  0.55535000  0.06505000  1.0
  C  C119  1  0.39040000  0.94465000  0.56506000  1.0
  C  C120  1  0.43468000  0.53519000  0.90924000  1.0
  C  C121  1  0.06532000  0.96481000  0.40925000  1.0
  C  C122  1  0.56532000  0.46480000  0.09075000  1.0
  C  C123  1  0.93468000  0.03519000  0.59075000  1.0
  C  C124  1  0.42151000  0.37023000  0.75841000  1.0
  C  C125  1  0.07849000  0.12977000  0.25842000  1.0
  C  C126  1  0.57850000  0.62977000  0.24158000  1.0
  C  C127  1  0.92150000  0.87023000  0.74158000  1.0
  C  C128  1  0.65490000  0.44162000  0.57268000  1.0
  C  C129  1  0.84511000  0.05838000  0.07268000  1.0
  C  C130  1  0.34511000  0.55838000  0.42732000  1.0
  C  C131  1  0.15488000  0.94162000  0.92732000  1.0
  C  C132  1  0.86412000  0.45965000  0.57296000  1.0
  C  C133  1  0.63588000  0.04035000  0.07296000  1.0
  C  C134  1  0.13588000  0.54035000  0.42704000  1.0
  C  C135  1  0.36411000  0.95965000  0.92704000  1.0
  C  C136  1  0.05845000  0.44385000  0.77623000  1.0
  C  C137  1  0.44156000  0.05615000  0.27623000  1.0
  C  C138  1  0.94155000  0.55615000  0.22377000  1.0
  C  C139  1  0.55844000  0.94385000  0.72377000  1.0
  C  C140  1  0.94419000  0.49583000  0.88025000  1.0
  C  C141  1  0.55581000  0.00416000  0.38024000  1.0
  C  C142  1  0.05581000  0.50417000  0.11976000  1.0
  C  C143  1  0.44419000  0.99584000  0.61976000  1.0
  C  C144  1  0.53791000  0.47157000  0.87890000  1.0
  C  C145  1  0.96209000  0.02842000  0.37890000  1.0
  C  C146  1  0.46209000  0.52842000  0.12111000  1.0
  C  C147  1  0.03791000  0.97158000  0.62110000  1.0
  C  C148  1  0.44019000  0.47001000  0.76710000  1.0
  C  C149  1  0.05982000  0.02999000  0.26710000  1.0
  C  C150  1  0.55981000  0.52999000  0.23290000  1.0
  C  C151  1  0.94018000  0.97001000  0.73290000  1.0
  C  C152  1  0.75370000  0.46082000  0.67779000  1.0
  C  C153  1  0.74630000  0.03918000  0.17779000  1.0
  C  C154  1  0.24630000  0.53919000  0.32221000  1.0
  C  C155  1  0.25370000  0.96082000  0.82221000  1.0
  C  C156  1  0.84677000  0.46160000  0.77755000  1.0
  C  C157  1  0.65323000  0.03840000  0.27755000  1.0
  C  C158  1  0.15323000  0.53840000  0.22245000  1.0
  C  C159  1  0.34676000  0.96160000  0.72245000  1.0
  C  C160  1  0.64957000  0.47025000  0.77485000  1.0
  C  C161  1  0.85044000  0.02975000  0.27485000  1.0
  C  C162  1  0.35043000  0.52975000  0.22515000  1.0
  C  C163  1  0.14956000  0.97025000  0.72515000  1.0
  C  C164  1  0.73359000  0.72365000  0.63684000  1.0
  C  C165  1  0.76641000  0.77635000  0.13684000  1.0
  C  C166  1  0.26641000  0.27635000  0.36316000  1.0
  C  C167  1  0.23359000  0.22365000  0.86315000  1.0
  C  C168  1  0.61480000  0.72041000  0.63548000  1.0
  C  C169  1  0.88520000  0.77960000  0.13548000  1.0
  C  C170  1  0.38520000  0.27960000  0.36452000  1.0
  C  C171  1  0.11480000  0.22040000  0.86452000  1.0
  C  C172  1  0.55715000  0.70455000  0.69533000  1.0
  C  C173  1  0.94286000  0.79545000  0.19533000  1.0
  C  C174  1  0.44285000  0.29545000  0.30467000  1.0
  C  C175  1  0.05715000  0.20455000  0.80467000  1.0
  C  C176  1  0.62376000  0.68804000  0.75459000  1.0
  C  C177  1  0.87624000  0.81195000  0.25459000  1.0
  C  C178  1  0.37624000  0.31196000  0.24541000  1.0
  C  C179  1  0.12376000  0.18805000  0.74541000  1.0
  C  C180  1  0.74242000  0.69122000  0.75292000  1.0
  C  C181  1  0.75758000  0.80877000  0.25292000  1.0
  C  C182  1  0.25757000  0.30877000  0.24708000  1.0
  C  C183  1  0.24242000  0.19123000  0.74708000  1.0
  C  C184  1  0.42927000  0.70563000  0.69663000  1.0
  C  C185  1  0.07073000  0.79437000  0.19663000  1.0
  C  C186  1  0.57073000  0.29438000  0.30337000  1.0
  C  C187  1  0.92927000  0.20562000  0.80337000  1.0
  C  C188  1  0.37028000  0.68157000  0.63953000  1.0
  C  C189  1  0.12972000  0.81844000  0.13954000  1.0
  C  C190  1  0.62972000  0.31844000  0.36047000  1.0
  C  C191  1  0.87028000  0.18156000  0.86046000  1.0
  C  C192  1  0.25208000  0.67686000  0.64372000  1.0
  C  C193  1  0.24792000  0.82315000  0.14372000  1.0
  C  C194  1  0.74791000  0.32314000  0.35628000  1.0
  C  C195  1  0.75208000  0.17685000  0.85627000  1.0
  C  C196  1  0.24688000  0.72287000  0.75740000  1.0
  C  C197  1  0.25313000  0.77713000  0.25740000  1.0
  C  C198  1  0.75312000  0.27713000  0.24260000  1.0
  C  C199  1  0.74688000  0.22287000  0.74260000  1.0
  C  C200  1  0.36480000  0.72863000  0.75600000  1.0
  C  C201  1  0.13520000  0.77137000  0.25600000  1.0
  C  C202  1  0.63519000  0.27137000  0.24400000  1.0
  C  C203  1  0.86480000  0.22863000  0.74400000  1.0
  N  N204  1  0.85682000  0.45654000  0.71014000  1.0
  N  N205  1  0.64318000  0.04346000  0.21014000  1.0
  N  N206  1  0.14318000  0.54346000  0.28986000  1.0
  N  N207  1  0.35682000  0.95654000  0.78986000  1.0
  N  N208  1  0.74612000  0.47148000  0.81289000  1.0
  N  N209  1  0.75388000  0.02851000  0.31288000  1.0
  N  N210  1  0.25388000  0.52852000  0.18711000  1.0
  N  N211  1  0.24612000  0.97149000  0.68711000  1.0
  N  N212  1  0.64868000  0.46269000  0.70745000  1.0
  N  N213  1  0.85133000  0.03732000  0.20745000  1.0
  N  N214  1  0.35132000  0.53732000  0.29255000  1.0
  N  N215  1  0.14867000  0.96268000  0.79255000  1.0
  N  N216  1  0.75392000  0.46526000  0.60919000  1.0
  N  N217  1  0.74609000  0.03474000  0.10919000  1.0
  N  N218  1  0.24608000  0.53475000  0.39081000  1.0
  N  N219  1  0.25391000  0.96525000  0.89081000  1.0
  N  N220  1  0.94930000  0.45605000  0.81339000  1.0
  N  N221  1  0.55070000  0.04394000  0.31338000  1.0
  N  N222  1  0.05070000  0.54395000  0.18662000  1.0
  N  N223  1  0.44930000  0.95606000  0.68662000  1.0
  N  N224  1  0.54308000  0.47941000  0.80632000  1.0
  N  N225  1  0.95692000  0.02059000  0.30632000  1.0
  N  N226  1  0.45692000  0.52059000  0.19369000  1.0
  N  N227  1  0.04308000  0.97941000  0.69368000  1.0
  N  N228  1  0.79334000  0.71006000  0.69507000  1.0
  N  N229  1  0.70666000  0.78994000  0.19507000  1.0
  N  N230  1  0.20665000  0.28994000  0.30493000  1.0
  N  N231  1  0.29334000  0.21006000  0.80493000  1.0
  N  N232  1  0.19498000  0.69624000  0.70216000  1.0
  N  N233  1  0.30502000  0.80376000  0.20216000  1.0
  N  N234  1  0.80502000  0.30376000  0.29784000  1.0
  N  N235  1  0.69498000  0.19623000  0.79784000  1.0
  O  O236  1  0.64198000  0.11461000  0.60081000  1.0
  O  O237  1  0.85802000  0.38539000  0.10082000  1.0
  O  O238  1  0.35802000  0.88539000  0.39919000  1.0
  O  O239  1  0.14199000  0.61461000  0.89919000  1.0
  O  O240  1  0.82134000  0.18157000  0.46678000  1.0
  O  O241  1  0.67866000  0.31842000  0.96679000  1.0
  O  O242  1  0.17866000  0.81843000  0.53321000  1.0
  O  O243  1  0.32134000  0.68158000  0.03322000  1.0
  O  O244  1  0.14672000  0.32907000  0.62629000  1.0
  O  O245  1  0.35329000  0.17094000  0.12629000  1.0
  O  O246  1  0.85328000  0.67094000  0.37371000  1.0
  O  O247  1  0.64671000  0.82906000  0.87370000  1.0
  O  O248  1  0.36573000  0.47296000  0.59486000  1.0
  O  O249  1  0.13427000  0.02703000  0.09486000  1.0
  O  O250  1  0.63428000  0.52704000  0.40514000  1.0
  O  O251  1  0.86573000  0.97297000  0.90514000  1.0
  O  O252  1  0.59791000  0.30307000  0.52493000  1.0
  O  O253  1  0.90210000  0.19693000  0.02493000  1.0
  O  O254  1  0.40210000  0.69693000  0.47507000  1.0
  O  O255  1  0.09790000  0.80307000  0.97507000  1.0
  O  O256  1  0.75228000  0.28530000  0.59251000  1.0
  O  O257  1  0.74774000  0.21470000  0.09252000  1.0
  O  O258  1  0.24773000  0.71470000  0.40749000  1.0
  O  O259  1  0.25226000  0.78530000  0.90748000  1.0
  O  O260  1  0.88213000  0.47926000  0.45289000  1.0
  O  O261  1  0.61787000  0.02074000  0.95289000  1.0
  O  O262  1  0.11788000  0.52075000  0.54711000  1.0
  O  O263  1  0.38213000  0.97925000  0.04711000  1.0
  O  O264  1  0.78274000  0.59725000  0.50956000  1.0
  O  O265  1  0.71726000  0.90274000  0.00956000  1.0
  O  O266  1  0.21726000  0.40275000  0.49044000  1.0
  O  O267  1  0.28274000  0.09725000  0.99044000  1.0
  O  O268  1  0.15954000  0.50759000  0.68875000  1.0
  O  O269  1  0.34046000  0.99242000  0.18874000  1.0
  O  O270  1  0.84046000  0.49242000  0.31126000  1.0
  O  O271  1  0.65954000  0.00758000  0.81125000  1.0
  O  O272  1  0.01822000  0.60519000  0.74214000  1.0
  O  O273  1  0.48178000  0.89481000  0.24213000  1.0
  O  O274  1  0.98178000  0.39481000  0.25786000  1.0
  O  O275  1  0.51822000  0.10519000  0.75787000  1.0
  O  O276  1  0.81785000  0.49266000  0.97503000  1.0
  O  O277  1  0.68216000  0.00734000  0.47503000  1.0
  O  O278  1  0.18215000  0.50734000  0.02497000  1.0
  O  O279  1  0.31784000  0.99266000  0.52497000  1.0
  O  O280  1  0.91980000  0.35731000  0.94384000  1.0
  O  O281  1  0.58020000  0.14269000  0.44383000  1.0
  O  O282  1  0.08021000  0.64269000  0.05617000  1.0
  O  O283  1  0.41979000  0.85732000  0.55617000  1.0
  O  O284  1  0.37926000  0.50465000  0.95741000  1.0
  O  O285  1  0.12073000  0.99535000  0.45742000  1.0
  O  O286  1  0.62073000  0.49535000  0.04259000  1.0
  O  O287  1  0.87927000  0.00465000  0.54259000  1.0
  O  O288  1  0.40114000  0.61788000  0.88817000  1.0
  O  O289  1  0.09886000  0.88212000  0.38817000  1.0
  O  O290  1  0.59886000  0.38212000  0.11183000  1.0
  O  O291  1  0.90113000  0.11788000  0.61183000  1.0
  O  O292  1  0.46799000  0.30893000  0.79851000  1.0
  O  O293  1  0.03202000  0.19107000  0.29852000  1.0
  O  O294  1  0.53202000  0.69107000  0.20149000  1.0
  O  O295  1  0.96798000  0.80893000  0.70148000  1.0
  O  O296  1  0.35214000  0.35467000  0.71033000  1.0
  O  O297  1  0.14786000  0.14533000  0.21033000  1.0
  O  O298  1  0.64785000  0.64533000  0.28967000  1.0
  O  O299  1  0.85215000  0.85467000  0.78967000  1.0
  O  O300  1  0.39121000  0.27348000  0.56597000  1.0
  O  O301  1  0.10880000  0.22652000  0.06597000  1.0
  O  O302  1  0.60879000  0.72652000  0.43403000  1.0
  O  O303  1  0.89120000  0.77347000  0.93403000  1.0
