# generated using pymatgen
data_GaH11C8S
_symmetry_space_group_name_H-M   'P 1'
_cell_length_a   6.90510000
_cell_length_b   7.10512000
_cell_length_c   8.91057000
_cell_angle_alpha   79.46300000
_cell_angle_beta   90.00470000
_cell_angle_gamma   90.00020000
_symmetry_Int_Tables_number   1
_chemical_formula_structural   GaH11C8S
_chemical_formula_sum   'Ga2 H22 C16 S2'
_cell_volume   429.79456988
_cell_formula_units_Z   2
loop_
 _symmetry_equiv_pos_site_id
 _symmetry_equiv_pos_as_xyz
  1  'x, y, z'
loop_
 _atom_site_type_symbol
 _atom_site_label
 _atom_site_symmetry_multiplicity
 _atom_site_fract_x
 _atom_site_fract_y
 _atom_site_fract_z
 _atom_site_occupancy
  Ga  Ga0  1  0.55862000  0.49544000  0.60733000  1.0
  Ga  Ga1  1  0.44139000  0.99544000  0.60732000  1.0
  H  H2  1  0.38117000  0.34411000  0.85241000  1.0
  H  H3  1  0.61887000  0.84412000  0.85242000  1.0
  H  H4  1  0.21255000  0.47641000  0.72223000  1.0
  H  H5  1  0.78747000  0.97643000  0.72225000  1.0
  H  H6  1  0.37098000  0.59690000  0.83070000  1.0
  H  H7  1  0.62905000  0.09690000  0.83070000  1.0
  H  H8  1  0.89977000  0.59497000  0.67338000  1.0
  H  H9  1  0.10025000  0.09498000  0.67338000  1.0
  H  H10  1  0.91197000  0.44666000  0.53255000  1.0
  H  H11  1  0.08802000  0.94667000  0.53255000  1.0
  H  H12  1  0.87330000  0.34164000  0.72795000  1.0
  H  H13  1  0.12674000  0.84165000  0.72794000  1.0
  H  H14  1  0.46016000  0.49411000  0.12650000  1.0
  H  H15  1  0.53983000  0.99409000  0.12649000  1.0
  H  H16  1  0.71652000  0.51479000  0.92793000  1.0
  H  H17  1  0.28345000  0.01478000  0.92790000  1.0
  H  H18  1  0.03161000  0.34752000  0.98813000  1.0
  H  H19  1  0.96835000  0.84754000  0.98808000  1.0
  H  H20  1  0.09032000  0.16031000  0.24905000  1.0
  H  H21  1  0.90967000  0.66034000  0.24898000  1.0
  H  H22  1  0.83614000  0.14086000  0.44747000  1.0
  H  H23  1  0.16385000  0.64086000  0.44742000  1.0
  C  C24  1  0.35928000  0.47685000  0.76910000  1.0
  C  C25  1  0.64075000  0.97688000  0.76911000  1.0
  C  C26  1  0.84086000  0.46580000  0.63876000  1.0
  C  C27  1  0.15916000  0.96578000  0.63876000  1.0
  C  C28  1  0.63223000  0.31577000  0.29943000  1.0
  C  C29  1  0.36778000  0.81576000  0.29940000  1.0
  C  C30  1  0.59854000  0.42153000  0.15272000  1.0
  C  C31  1  0.40144000  0.92153000  0.15269000  1.0
  C  C32  1  0.74275000  0.43218000  0.04164000  1.0
  C  C33  1  0.25723000  0.93217000  0.04161000  1.0
  C  C34  1  0.91939000  0.33815000  0.07528000  1.0
  C  C35  1  0.08059000  0.83815000  0.07523000  1.0
  C  C36  1  0.95268000  0.23368000  0.22161000  1.0
  C  C37  1  0.04729000  0.73370000  0.22156000  1.0
  C  C38  1  0.81008000  0.22286000  0.33367000  1.0
  C  C39  1  0.18992000  0.72284000  0.33363000  1.0
  S  S40  1  0.44122000  0.30272000  0.43478000  1.0
  S  S41  1  0.55876000  0.80273000  0.43477000  1.0
