# generated using pymatgen
data_Ni4H33C40N5O17
_symmetry_space_group_name_H-M   'P 1'
_cell_length_a   12.87870000
_cell_length_b   18.56720000
_cell_length_c   21.86350000
_cell_angle_alpha   90.00000000
_cell_angle_beta   102.66300000
_cell_angle_gamma   89.99960000
_symmetry_Int_Tables_number   1
_chemical_formula_structural   Ni4H33C40N5O17
_chemical_formula_sum   'Ni16 H132 C160 N20 O68'
_cell_volume   5100.86570628
_cell_formula_units_Z   4
loop_
 _symmetry_equiv_pos_site_id
 _symmetry_equiv_pos_as_xyz
  1  'x, y, z'
loop_
 _atom_site_type_symbol
 _atom_site_label
 _atom_site_symmetry_multiplicity
 _atom_site_fract_x
 _atom_site_fract_y
 _atom_site_fract_z
 _atom_site_occupancy
  Ni  Ni0  1  0.21990000  0.71870000  0.87261000  1.0
  Ni  Ni1  1  0.28011000  0.21870000  0.62739000  1.0
  Ni  Ni2  1  0.78011000  0.28130000  0.12739000  1.0
  Ni  Ni3  1  0.71989000  0.78130000  0.37261000  1.0
  Ni  Ni4  1  0.01322000  0.77576000  0.78450000  1.0
  Ni  Ni5  1  0.48679000  0.27576000  0.71551000  1.0
  Ni  Ni6  1  0.98678000  0.22424000  0.21550000  1.0
  Ni  Ni7  1  0.51321000  0.72424000  0.28450000  1.0
  Ni  Ni8  1  0.01054000  0.61705000  0.76491000  1.0
  Ni  Ni9  1  0.48946000  0.11705000  0.73509000  1.0
  Ni  Ni10  1  0.98946000  0.38295000  0.23509000  1.0
  Ni  Ni11  1  0.51055000  0.88295000  0.26491000  1.0
  Ni  Ni12  1  0.89885000  0.63765000  0.87643000  1.0
  Ni  Ni13  1  0.60115000  0.13765000  0.62357000  1.0
  Ni  Ni14  1  0.10115000  0.36234000  0.12358000  1.0
  Ni  Ni15  1  0.39885000  0.86235000  0.37643000  1.0
  H  H16  1  0.09096000  0.90147000  0.90698000  1.0
  H  H17  1  0.40904000  0.40147000  0.59302000  1.0
  H  H18  1  0.90904000  0.09854000  0.09302000  1.0
  H  H19  1  0.59096000  0.59853000  0.40698000  1.0
  H  H20  1  0.83454000  0.78470000  0.95604000  1.0
  H  H21  1  0.66546000  0.28470000  0.54396000  1.0
  H  H22  1  0.16547000  0.21530000  0.04397000  1.0
  H  H23  1  0.33452000  0.71529000  0.45603000  1.0
  H  H24  1  0.15527000  0.96056000  0.71115000  1.0
  H  H25  1  0.34473000  0.46056000  0.78886000  1.0
  H  H26  1  0.84473000  0.03944000  0.28885000  1.0
  H  H27  1  0.65527000  0.53944000  0.21114000  1.0
  H  H28  1  0.26341000  0.06659000  0.68941000  1.0
  H  H29  1  0.23659000  0.56659000  0.81060000  1.0
  H  H30  1  0.73660000  0.93342000  0.31059000  1.0
  H  H31  1  0.76341000  0.43341000  0.18940000  1.0
  H  H32  1  0.51283000  0.01358000  0.83665000  1.0
  H  H33  1  0.98718000  0.51358000  0.66334000  1.0
  H  H34  1  0.48718000  0.98642000  0.16334000  1.0
  H  H35  1  0.01282000  0.48642000  0.33666000  1.0
  H  H36  1  0.41405000  0.90611000  0.86508000  1.0
  H  H37  1  0.08597000  0.40611000  0.63493000  1.0
  H  H38  1  0.58596000  0.09389000  0.13492000  1.0
  H  H39  1  0.91403000  0.59389000  0.36507000  1.0
  H  H40  1  0.61027000  0.63614000  0.92401000  1.0
  H  H41  1  0.88974000  0.13615000  0.57599000  1.0
  H  H42  1  0.38973000  0.36386000  0.07599000  1.0
  H  H43  1  0.11027000  0.86385000  0.42401000  1.0
  H  H44  1  0.41936000  0.63762000  0.93553000  1.0
  H  H45  1  0.08064000  0.13764000  0.56447000  1.0
  H  H46  1  0.58063000  0.36238000  0.06447000  1.0
  H  H47  1  0.91936000  0.86237000  0.43553000  1.0
  H  H48  1  0.32040000  0.73828000  0.76373000  1.0
  H  H49  1  0.17959000  0.23829000  0.73626000  1.0
  H  H50  1  0.67961000  0.26171000  0.23627000  1.0
  H  H51  1  0.82040000  0.76172000  0.26373000  1.0
  H  H52  1  0.50462000  0.73397000  0.74288000  1.0
  H  H53  1  0.99537000  0.23397000  0.75711000  1.0
  H  H54  1  0.49539000  0.26602000  0.25711000  1.0
  H  H55  1  0.00461000  0.76603000  0.24288000  1.0
  H  H56  1  0.78102000  0.80708000  0.61152000  1.0
  H  H57  1  0.71897000  0.30707000  0.88848000  1.0
  H  H58  1  0.21896000  0.19292000  0.38849000  1.0
  H  H59  1  0.28102000  0.69292000  0.11152000  1.0
  H  H60  1  0.68929000  0.82407000  0.49822000  1.0
  H  H61  1  0.81070000  0.32407000  0.00178000  1.0
  H  H62  1  0.31070000  0.17593000  0.50178000  1.0
  H  H63  1  0.18929000  0.67593000  0.99822000  1.0
  H  H64  1  0.88820000  0.67833000  0.43907000  1.0
  H  H65  1  0.61180000  0.17833000  0.06094000  1.0
  H  H66  1  0.11180000  0.32168000  0.56094000  1.0
  H  H67  1  0.38820000  0.82167000  0.93907000  1.0
  H  H68  1  0.97838000  0.64720000  0.55080000  1.0
  H  H69  1  0.52162000  0.14720000  0.94920000  1.0
  H  H70  1  0.02163000  0.35282000  0.44921000  1.0
  H  H71  1  0.47837000  0.85281000  0.05080000  1.0
  H  H72  1  0.83810000  0.40554000  0.70205000  1.0
  H  H73  1  0.66191000  0.90554000  0.79795000  1.0
  H  H74  1  0.16189000  0.59447000  0.29794000  1.0
  H  H75  1  0.33810000  0.09447000  0.20206000  1.0
  H  H76  1  0.70144000  0.30693000  0.67896000  1.0
  H  H77  1  0.79857000  0.80693000  0.82104000  1.0
  H  H78  1  0.29857000  0.69307000  0.32104000  1.0
  H  H79  1  0.20143000  0.19307000  0.17896000  1.0
  H  H80  1  0.49520000  0.41826000  0.76474000  1.0
  H  H81  1  0.00481000  0.91825000  0.73526000  1.0
  H  H82  1  0.50481000  0.58174000  0.23527000  1.0
  H  H83  1  0.99519000  0.08174000  0.26474000  1.0
  H  H84  1  0.62468000  0.52031000  0.79396000  1.0
  H  H85  1  0.87533000  0.02031000  0.70604000  1.0
  H  H86  1  0.37533000  0.47969000  0.20604000  1.0
  H  H87  1  0.12468000  0.97969000  0.29397000  1.0
  H  H88  1  0.26670000  0.56004000  0.01277000  1.0
  H  H89  1  0.23329000  0.06004000  0.48724000  1.0
  H  H90  1  0.73329000  0.43996000  0.98723000  1.0
  H  H91  1  0.76671000  0.93996000  0.51276000  1.0
  H  H92  1  0.24986000  0.47335000  0.09836000  1.0
  H  H93  1  0.25014000  0.97336000  0.40165000  1.0
  H  H94  1  0.75015000  0.52664000  0.90164000  1.0
  H  H95  1  0.74986000  0.02664000  0.59835000  1.0
  H  H96  1  0.99600000  0.36970000  0.98470000  1.0
  H  H97  1  0.50400000  0.86971000  0.51532000  1.0
  H  H98  1  0.00400000  0.63030000  0.01531000  1.0
  H  H99  1  0.49599000  0.13029000  0.48470000  1.0
  H  H100  1  0.99582000  0.45630000  0.89555000  1.0
  H  H101  1  0.50417000  0.95631000  0.60446000  1.0
  H  H102  1  0.00417000  0.54370000  0.10445000  1.0
  H  H103  1  0.49582000  0.04369000  0.39555000  1.0
  H  H104  1  0.15633000  0.70268000  0.75014000  1.0
  H  H105  1  0.34368000  0.20269000  0.74987000  1.0
  H  H106  1  0.84367000  0.29732000  0.24986000  1.0
  H  H107  1  0.65632000  0.79731000  0.25014000  1.0
  H  H108  1  0.84244000  0.69448000  0.77566000  1.0
  H  H109  1  0.65756000  0.19447000  0.72434000  1.0
  H  H110  1  0.15756000  0.30552000  0.22435000  1.0
  H  H111  1  0.34244000  0.80553000  0.27566000  1.0
  H  H112  1  0.16743000  0.00934000  0.93400000  1.0
  H  H113  1  0.33258000  0.50933000  0.56601000  1.0
  H  H114  1  0.83257000  0.99066000  0.06601000  1.0
  H  H115  1  0.66744000  0.49067000  0.43400000  1.0
  H  H116  1  0.12303000  0.09148000  0.89332000  1.0
  H  H117  1  0.37696000  0.59147000  0.60668000  1.0
  H  H118  1  0.87697000  0.90853000  0.10669000  1.0
  H  H119  1  0.62306000  0.40854000  0.39332000  1.0
  H  H120  1  0.09952000  0.00680000  0.85269000  1.0
  H  H121  1  0.40048000  0.50679000  0.64731000  1.0
  H  H122  1  0.90049000  0.99321000  0.14732000  1.0
  H  H123  1  0.59952000  0.49322000  0.35269000  1.0
  H  H124  1  0.70523000  0.80861000  0.01208000  1.0
  H  H125  1  0.79475000  0.30860000  0.48789000  1.0
  H  H126  1  0.29478000  0.19140000  0.98793000  1.0
  H  H127  1  0.20520000  0.69140000  0.51206000  1.0
  H  H128  1  0.65917000  0.80317000  0.92888000  1.0
  H  H129  1  0.84082000  0.30316000  0.57111000  1.0
  H  H130  1  0.34084000  0.19683000  0.07114000  1.0
  H  H131  1  0.15915000  0.69682000  0.42886000  1.0
  H  H132  1  0.58353000  0.85241000  0.97495000  1.0
  H  H133  1  0.91646000  0.35241000  0.52503000  1.0
  H  H134  1  0.41648000  0.14759000  0.02506000  1.0
  H  H135  1  0.08351000  0.64759000  0.47493000  1.0
  H  H136  1  0.83866000  0.13348000  0.92792000  1.0
  H  H137  1  0.66137000  0.63347000  0.57207000  1.0
  H  H138  1  0.16134000  0.86653000  0.07208000  1.0
  H  H139  1  0.33864000  0.36652000  0.42792000  1.0
  H  H140  1  0.71340000  0.09882000  0.88374000  1.0
  H  H141  1  0.78660000  0.59880000  0.61626000  1.0
  H  H142  1  0.28660000  0.90119000  0.11626000  1.0
  H  H143  1  0.21341000  0.40119000  0.38372000  1.0
  H  H144  1  0.83543000  0.07423000  0.86296000  1.0
  H  H145  1  0.66455000  0.57424000  0.63702000  1.0
  H  H146  1  0.16456000  0.92577000  0.13703000  1.0
  H  H147  1  0.33547000  0.42575000  0.36297000  1.0
  C  C148  1  0.96806000  0.83761000  0.93205000  1.0
  C  C149  1  0.53195000  0.33760000  0.56795000  1.0
  C  C150  1  0.03194000  0.16240000  0.06795000  1.0
  C  C151  1  0.46805000  0.66240000  0.43205000  1.0
  C  C152  1  0.01440000  0.90285000  0.92016000  1.0
  C  C153  1  0.48561000  0.40285000  0.57983000  1.0
  C  C154  1  0.98560000  0.09715000  0.07984000  1.0
  C  C155  1  0.51439000  0.59715000  0.42016000  1.0
  C  C156  1  0.96220000  0.96773000  0.92460000  1.0
  C  C157  1  0.53780000  0.46772000  0.57540000  1.0
  C  C158  1  0.03780000  0.03228000  0.07541000  1.0
  C  C159  1  0.46220000  0.53227000  0.42460000  1.0
  C  C160  1  0.85985000  0.96764000  0.93880000  1.0
  C  C161  1  0.64015000  0.46764000  0.56119000  1.0
  C  C162  1  0.14015000  0.03236000  0.06120000  1.0
  C  C163  1  0.35985000  0.53236000  0.43879000  1.0
  C  C164  1  0.81508000  0.90098000  0.95146000  1.0
  C  C165  1  0.68492000  0.40097000  0.54853000  1.0
  C  C166  1  0.18493000  0.09903000  0.04855000  1.0
  C  C167  1  0.31506000  0.59902000  0.45145000  1.0
  C  C168  1  0.86962000  0.83662000  0.94949000  1.0
  C  C169  1  0.63038000  0.33661000  0.55051000  1.0
  C  C170  1  0.13038000  0.16339000  0.05052000  1.0
  C  C171  1  0.36960000  0.66338000  0.44948000  1.0
  C  C172  1  0.21772000  0.85912000  0.80344000  1.0
  C  C173  1  0.28229000  0.35912000  0.69657000  1.0
  C  C174  1  0.78229000  0.14088000  0.19657000  1.0
  C  C175  1  0.71770000  0.64088000  0.30343000  1.0
  C  C176  1  0.27711000  0.92491000  0.78984000  1.0
  C  C177  1  0.22290000  0.42491000  0.71018000  1.0
  C  C178  1  0.72290000  0.07509000  0.21016000  1.0
  C  C179  1  0.77710000  0.57509000  0.28983000  1.0
  C  C180  1  0.23390000  0.97105000  0.74022000  1.0
  C  C181  1  0.26610000  0.47106000  0.75979000  1.0
  C  C182  1  0.76611000  0.02894000  0.25978000  1.0
  C  C183  1  0.73389000  0.52894000  0.24021000  1.0
  C  C184  1  0.29360000  0.02940000  0.72775000  1.0
  C  C185  1  0.20640000  0.52941000  0.77226000  1.0
  C  C186  1  0.70641000  0.97059000  0.27225000  1.0
  C  C187  1  0.79360000  0.47059000  0.22774000  1.0
  C  C188  1  0.43321000  0.99992000  0.81058000  1.0
  C  C189  1  0.06680000  0.49993000  0.68942000  1.0
  C  C190  1  0.56680000  0.00008000  0.18942000  1.0
  C  C191  1  0.93320000  0.50007000  0.31058000  1.0
  C  C192  1  0.37828000  0.94071000  0.82594000  1.0
  C  C193  1  0.12174000  0.44072000  0.67407000  1.0
  C  C194  1  0.62173000  0.05929000  0.17407000  1.0
  C  C195  1  0.87826000  0.55928000  0.32593000  1.0
  C  C196  1  0.68499000  0.68899000  0.82401000  1.0
  C  C197  1  0.81500000  0.18899000  0.67599000  1.0
  C  C198  1  0.31501000  0.31101000  0.17599000  1.0
  C  C199  1  0.18499000  0.81101000  0.32401000  1.0
  C  C200  1  0.57160000  0.68619000  0.83269000  1.0
  C  C201  1  0.92840000  0.18619000  0.66731000  1.0
  C  C202  1  0.42840000  0.31381000  0.16731000  1.0
  C  C203  1  0.07159000  0.81381000  0.33269000  1.0
  C  C204  1  0.54701000  0.65775000  0.88712000  1.0
  C  C205  1  0.95300000  0.15776000  0.61287000  1.0
  C  C206  1  0.45299000  0.34225000  0.11288000  1.0
  C  C207  1  0.04700000  0.84224000  0.38713000  1.0
  C  C208  1  0.44205000  0.65909000  0.89390000  1.0
  C  C209  1  0.05795000  0.15911000  0.60609000  1.0
  C  C210  1  0.55794000  0.34091000  0.10610000  1.0
  C  C211  1  0.94205000  0.84090000  0.39390000  1.0
  C  C212  1  0.38612000  0.71431000  0.79759000  1.0
  C  C213  1  0.11388000  0.21432000  0.70241000  1.0
  C  C214  1  0.61388000  0.28568000  0.20241000  1.0
  C  C215  1  0.88611000  0.78568000  0.29759000  1.0
  C  C216  1  0.48810000  0.71302000  0.78632000  1.0
  C  C217  1  0.01189000  0.21302000  0.71368000  1.0
  C  C218  1  0.51190000  0.28698000  0.21368000  1.0
  C  C219  1  0.98809000  0.78698000  0.28632000  1.0
  C  C220  1  0.94398000  0.71501000  0.65640000  1.0
  C  C221  1  0.55601000  0.21501000  0.84360000  1.0
  C  C222  1  0.05601000  0.28499000  0.34360000  1.0
  C  C223  1  0.44398000  0.78499000  0.15640000  1.0
  C  C224  1  0.88870000  0.72698000  0.58923000  1.0
  C  C225  1  0.61129000  0.22697000  0.91077000  1.0
  C  C226  1  0.11129000  0.27303000  0.41077000  1.0
  C  C227  1  0.38871000  0.77303000  0.08923000  1.0
  C  C228  1  0.80605000  0.77713000  0.57438000  1.0
  C  C229  1  0.69394000  0.27713000  0.92562000  1.0
  C  C230  1  0.19394000  0.22287000  0.42563000  1.0
  C  C231  1  0.30605000  0.72287000  0.07437000  1.0
  C  C232  1  0.75645000  0.78762000  0.51195000  1.0
  C  C233  1  0.74353000  0.28762000  0.98805000  1.0
  C  C234  1  0.24354000  0.21238000  0.48806000  1.0
  C  C235  1  0.25646000  0.71238000  0.01194000  1.0
  C  C236  1  0.86717000  0.70502000  0.47900000  1.0
  C  C237  1  0.63282000  0.20502000  0.02100000  1.0
  C  C238  1  0.13283000  0.29499000  0.52100000  1.0
  C  C239  1  0.36718000  0.79498000  0.97900000  1.0
  C  C240  1  0.91720000  0.68870000  0.54044000  1.0
  C  C241  1  0.58279000  0.18869000  0.95956000  1.0
  C  C242  1  0.08280000  0.31131000  0.45956000  1.0
  C  C243  1  0.41721000  0.81130000  0.04044000  1.0
  C  C244  1  0.82263000  0.52880000  0.77275000  1.0
  C  C245  1  0.67737000  0.02881000  0.72725000  1.0
  C  C246  1  0.17737000  0.47120000  0.22724000  1.0
  C  C247  1  0.32263000  0.97119000  0.27276000  1.0
  C  C248  1  0.74239000  0.47022000  0.75104000  1.0
  C  C249  1  0.75761000  0.97023000  0.74896000  1.0
  C  C250  1  0.25761000  0.52978000  0.24895000  1.0
  C  C251  1  0.24239000  0.02978000  0.25105000  1.0
  C  C252  1  0.76307000  0.41019000  0.71704000  1.0
  C  C253  1  0.73694000  0.91020000  0.78296000  1.0
  C  C254  1  0.23693000  0.58981000  0.28295000  1.0
  C  C255  1  0.26306000  0.08981000  0.21705000  1.0
  C  C256  1  0.68723000  0.35546000  0.70372000  1.0
  C  C257  1  0.81277000  0.85547000  0.79628000  1.0
  C  C258  1  0.31277000  0.64454000  0.29627000  1.0
  C  C259  1  0.18722000  0.14454000  0.20373000  1.0
  C  C260  1  0.57220000  0.41804000  0.75206000  1.0
  C  C261  1  0.92780000  0.91803000  0.74794000  1.0
  C  C262  1  0.42780000  0.58197000  0.24794000  1.0
  C  C263  1  0.07220000  0.08197000  0.25207000  1.0
  C  C264  1  0.64395000  0.47395000  0.76802000  1.0
  C  C265  1  0.85605000  0.97395000  0.73197000  1.0
  C  C266  1  0.35606000  0.52605000  0.23198000  1.0
  C  C267  1  0.14395000  0.02605000  0.26803000  1.0
  C  C268  1  0.12520000  0.57487000  0.90023000  1.0
  C  C269  1  0.37481000  0.07488000  0.59978000  1.0
  C  C270  1  0.87480000  0.42513000  0.09977000  1.0
  C  C271  1  0.62520000  0.92513000  0.40023000  1.0
  C  C272  1  0.12973000  0.51638000  0.94811000  1.0
  C  C273  1  0.37027000  0.01639000  0.55189000  1.0
  C  C274  1  0.87027000  0.48361000  0.05189000  1.0
  C  C275  1  0.62974000  0.98361000  0.44811000  1.0
  C  C276  1  0.20505000  0.51884000  0.00490000  1.0
  C  C277  1  0.29496000  0.01885000  0.49511000  1.0
  C  C278  1  0.79495000  0.48115000  0.99510000  1.0
  C  C279  1  0.70505000  0.98115000  0.50489000  1.0
  C  C280  1  0.19700000  0.47060000  0.05219000  1.0
  C  C281  1  0.30300000  0.97060000  0.44782000  1.0
  C  C282  1  0.80300000  0.52940000  0.94781000  1.0
  C  C283  1  0.69700000  0.02940000  0.55218000  1.0
  C  C284  1  0.05324000  0.41357000  0.98878000  1.0
  C  C285  1  0.44676000  0.91358000  0.51124000  1.0
  C  C286  1  0.94677000  0.58643000  0.01122000  1.0
  C  C287  1  0.55323000  0.08642000  0.48877000  1.0
  C  C288  1  0.05478000  0.46066000  0.93948000  1.0
  C  C289  1  0.44521000  0.96066000  0.56053000  1.0
  C  C290  1  0.94522000  0.53934000  0.06052000  1.0
  C  C291  1  0.55478000  0.03934000  0.43948000  1.0
  C  C292  1  0.01570000  0.76872000  0.91836000  1.0
  C  C293  1  0.48430000  0.26872000  0.58164000  1.0
  C  C294  1  0.98430000  0.23128000  0.08164000  1.0
  C  C295  1  0.51569000  0.73128000  0.41836000  1.0
  C  C296  1  0.10466000  0.03439000  0.89793000  1.0
  C  C297  1  0.39534000  0.53438000  0.60207000  1.0
  C  C298  1  0.89534000  0.96562000  0.10207000  1.0
  C  C299  1  0.60467000  0.46563000  0.39793000  1.0
  C  C300  1  0.66381000  0.83823000  0.97004000  1.0
  C  C301  1  0.83618000  0.33822000  0.52994000  1.0
  C  C302  1  0.33620000  0.16177000  0.02997000  1.0
  C  C303  1  0.16379000  0.66176000  0.47003000  1.0
  C  C304  1  0.79798000  0.08717000  0.90192000  1.0
  C  C305  1  0.70202000  0.58717000  0.59807000  1.0
  C  C306  1  0.20201000  0.91283000  0.09808000  1.0
  C  C307  1  0.29799000  0.41283000  0.40191000  1.0
  N  N308  1  0.39239000  0.04298000  0.76152000  1.0
  N  N309  1  0.10761000  0.54299000  0.73848000  1.0
  N  N310  1  0.60762000  0.95701000  0.23848000  1.0
  N  N311  1  0.89238000  0.45701000  0.26151000  1.0
  N  N312  1  0.36277000  0.68874000  0.85070000  1.0
  N  N313  1  0.13723000  0.18875000  0.64929000  1.0
  N  N314  1  0.63723000  0.31126000  0.14930000  1.0
  N  N315  1  0.86277000  0.81125000  0.35071000  1.0
  N  N316  1  0.78858000  0.75412000  0.46458000  1.0
  N  N317  1  0.71142000  0.25413000  0.03542000  1.0
  N  N318  1  0.21142000  0.24588000  0.53543000  1.0
  N  N319  1  0.28858000  0.74587000  0.96457000  1.0
  N  N320  1  0.59322000  0.35894000  0.72088000  1.0
  N  N321  1  0.90679000  0.85894000  0.77912000  1.0
  N  N322  1  0.40679000  0.64106000  0.27912000  1.0
  N  N323  1  0.09320000  0.14106000  0.22088000  1.0
  N  N324  1  0.12009000  0.42007000  0.04535000  1.0
  N  N325  1  0.37991000  0.92007000  0.45466000  1.0
  N  N326  1  0.87991000  0.57992000  0.95465000  1.0
  N  N327  1  0.62009000  0.07992000  0.54534000  1.0
  O  O328  1  0.12541000  0.69536000  0.78641000  1.0
  O  O329  1  0.37459000  0.19536000  0.71359000  1.0
  O  O330  1  0.87459000  0.30464000  0.21359000  1.0
  O  O331  1  0.62541000  0.80464000  0.28641000  1.0
  O  O332  1  0.91832000  0.69088000  0.79788000  1.0
  O  O333  1  0.58168000  0.19088000  0.70212000  1.0
  O  O334  1  0.08168000  0.30912000  0.20213000  1.0
  O  O335  1  0.41832000  0.80912000  0.29788000  1.0
  O  O336  1  0.26498000  0.82035000  0.84895000  1.0
  O  O337  1  0.23503000  0.32035000  0.65106000  1.0
  O  O338  1  0.73503000  0.17965000  0.15106000  1.0
  O  O339  1  0.76497000  0.67965000  0.34895000  1.0
  O  O340  1  0.12752000  0.84761000  0.76766000  1.0
  O  O341  1  0.37250000  0.34761000  0.73234000  1.0
  O  O342  1  0.87250000  0.15239000  0.23233000  1.0
  O  O343  1  0.62750000  0.65239000  0.26766000  1.0
  O  O344  1  0.69965000  0.69571000  0.76936000  1.0
  O  O345  1  0.80035000  0.19570000  0.73065000  1.0
  O  O346  1  0.30036000  0.30429000  0.23065000  1.0
  O  O347  1  0.19965000  0.80430000  0.26935000  1.0
  O  O348  1  0.75574000  0.68494000  0.87560000  1.0
  O  O349  1  0.74426000  0.18494000  0.62440000  1.0
  O  O350  1  0.24426000  0.31505000  0.12441000  1.0
  O  O351  1  0.25573000  0.81506000  0.37559000  1.0
  O  O352  1  0.95847000  0.77149000  0.68979000  1.0
  O  O353  1  0.54154000  0.27148000  0.81021000  1.0
  O  O354  1  0.04154000  0.22852000  0.31021000  1.0
  O  O355  1  0.45846000  0.72851000  0.18979000  1.0
  O  O356  1  0.96965000  0.65056000  0.67254000  1.0
  O  O357  1  0.53034000  0.15055000  0.82746000  1.0
  O  O358  1  0.03034000  0.34945000  0.32746000  1.0
  O  O359  1  0.46966000  0.84944000  0.17254000  1.0
  O  O360  1  0.89118000  0.54151000  0.74060000  1.0
  O  O361  1  0.60882000  0.04152000  0.75939000  1.0
  O  O362  1  0.10882000  0.45849000  0.25939000  1.0
  O  O363  1  0.39118000  0.95849000  0.24061000  1.0
  O  O364  1  0.81263000  0.55960000  0.82308000  1.0
  O  O365  1  0.68737000  0.05960000  0.67691000  1.0
  O  O366  1  0.18738000  0.44040000  0.17692000  1.0
  O  O367  1  0.31263000  0.94040000  0.32309000  1.0
  O  O368  1  0.20603000  0.61523000  0.90567000  1.0
  O  O369  1  0.29397000  0.11524000  0.59433000  1.0
  O  O370  1  0.79397000  0.38477000  0.09433000  1.0
  O  O371  1  0.70603000  0.88477000  0.40567000  1.0
  O  O372  1  0.03835000  0.57977000  0.85858000  1.0
  O  O373  1  0.46165000  0.07978000  0.64143000  1.0
  O  O374  1  0.96165000  0.42023000  0.14142000  1.0
  O  O375  1  0.53835000  0.92022000  0.35858000  1.0
  O  O376  1  0.08207000  0.77244000  0.88156000  1.0
  O  O377  1  0.41793000  0.27244000  0.61845000  1.0
  O  O378  1  0.91793000  0.22756000  0.11845000  1.0
  O  O379  1  0.58206000  0.72756000  0.38156000  1.0
  O  O380  1  0.98783000  0.70997000  0.93994000  1.0
  O  O381  1  0.51217000  0.20997000  0.56006000  1.0
  O  O382  1  0.01217000  0.29003000  0.06006000  1.0
  O  O383  1  0.48782000  0.79003000  0.43995000  1.0
  O  O384  1  0.00430000  0.03362000  0.91582000  1.0
  O  O385  1  0.49571000  0.53361000  0.58419000  1.0
  O  O386  1  0.99571000  0.96639000  0.08419000  1.0
  O  O387  1  0.50431000  0.46639000  0.41582000  1.0
  O  O388  1  0.80213000  0.02729000  0.94478000  1.0
  O  O389  1  0.69787000  0.52728000  0.55521000  1.0
  O  O390  1  0.19786000  0.97272000  0.05522000  1.0
  O  O391  1  0.30213000  0.47271000  0.44477000  1.0
  O  O392  1  0.71488000  0.90509000  0.96332000  1.0
  O  O393  1  0.78511000  0.40508000  0.53666000  1.0
  O  O394  1  0.28512000  0.09491000  0.03669000  1.0
  O  O395  1  0.21487000  0.59490000  0.46331000  1.0
