# generated using pymatgen
data_ZnH16C24S2(NO)4
_symmetry_space_group_name_H-M   'P 1'
_cell_length_a   7.51002000
_cell_length_b   15.19390000
_cell_length_c   15.78310000
_cell_angle_alpha   64.23960000
_cell_angle_beta   76.29130000
_cell_angle_gamma   75.74290000
_symmetry_Int_Tables_number   1
_chemical_formula_structural   ZnH16C24S2(NO)4
_chemical_formula_sum   'Zn2 H32 C48 S4 N8 O8'
_cell_volume   1554.49871779
_cell_formula_units_Z   2
loop_
 _symmetry_equiv_pos_site_id
 _symmetry_equiv_pos_as_xyz
  1  'x, y, z'
loop_
 _atom_site_type_symbol
 _atom_site_label
 _atom_site_symmetry_multiplicity
 _atom_site_fract_x
 _atom_site_fract_y
 _atom_site_fract_z
 _atom_site_occupancy
  Zn  Zn0  1  0.00886000  0.75026000  0.25032000  1.0
  Zn  Zn1  1  0.99111000  0.24975000  0.74967000  1.0
  H  H2  1  0.61353000  0.82567000  0.02334000  1.0
  H  H3  1  0.46261000  0.67416000  0.47721000  1.0
  H  H4  1  0.38659000  0.17428000  0.97669000  1.0
  H  H5  1  0.53739000  0.32586000  0.52276000  1.0
  H  H6  1  0.08305000  0.03788000  0.14753000  1.0
  H  H7  1  0.26760000  0.46220000  0.35245000  1.0
  H  H8  1  0.91701000  0.96209000  0.85247000  1.0
  H  H9  1  0.73239000  0.53784000  0.64752000  1.0
  H  H10  1  0.01258000  0.04104000  0.04803000  1.0
  H  H11  1  0.10109000  0.45897000  0.45197000  1.0
  H  H12  1  0.98755000  0.95893000  0.95197000  1.0
  H  H13  1  0.89891000  0.54105000  0.54800000  1.0
  H  H14  1  0.08840000  0.14706000  0.04015000  1.0
  H  H15  1  0.27483000  0.35302000  0.45980000  1.0
  H  H16  1  0.91173000  0.85290000  0.95984000  1.0
  H  H17  1  0.72518000  0.64701000  0.54016000  1.0
  H  H18  1  0.10121000  0.70143000  0.07912000  1.0
  H  H19  1  0.88132000  0.79941000  0.42129000  1.0
  H  H20  1  0.89875000  0.29857000  0.92088000  1.0
  H  H21  1  0.11867000  0.20059000  0.57871000  1.0
  H  H22  1  0.95584000  0.62314000  0.00522000  1.0
  H  H23  1  0.58386000  0.87765000  0.49497000  1.0
  H  H24  1  0.04413000  0.37686000  0.99478000  1.0
  H  H25  1  0.41612000  0.12232000  0.50505000  1.0
  H  H26  1  0.50886000  0.58086000  0.24343000  1.0
  H  H27  1  0.33323000  0.91976000  0.25644000  1.0
  H  H28  1  0.49107000  0.41916000  0.75656000  1.0
  H  H29  1  0.66666667  0.08023000  0.74359000  1.0
  H  H30  1  0.67807000  0.65061000  0.30942000  1.0
  H  H31  1  0.63809000  0.85021000  0.19062000  1.0
  H  H32  1  0.32186000  0.34943000  0.69056000  1.0
  H  H33  1  0.36187000  0.14981000  0.80938000  1.0
  C  C34  1  0.27035000  0.84624000  0.10353000  1.0
  C  C35  1  0.21937000  0.65384000  0.39722000  1.0
  C  C36  1  0.72974000  0.15372000  0.89648000  1.0
  C  C37  1  0.78060000  0.34617000  0.60278000  1.0
  C  C38  1  0.38135000  0.92922000  0.04892000  1.0
  C  C39  1  0.35910000  0.57079000  0.45141000  1.0
  C  C40  1  0.61876000  0.07073000  0.95111000  1.0
  C  C41  1  0.64090000  0.42923000  0.54856000  1.0
  C  C42  1  0.31070000  0.02880000  0.03620000  1.0
  C  C43  1  0.37521000  0.47129000  0.46382000  1.0
  C  C44  1  0.68940000  0.97115000  0.96383000  1.0
  C  C45  1  0.62480000  0.52874000  0.53615000  1.0
  C  C46  1  0.56627000  0.90324000  0.01248000  1.0
  C  C47  1  0.48208000  0.59665000  0.48780000  1.0
  C  C48  1  0.43385000  0.09671000  0.98755000  1.0
  C  C49  1  0.51793000  0.40337000  0.51217000  1.0
  C  C50  1  0.11332000  0.06586000  0.06962000  1.0
  C  C51  1  0.24809000  0.43422000  0.43036000  1.0
  C  C52  1  0.88678000  0.93411000  0.93039000  1.0
  C  C53  1  0.75192000  0.56580000  0.56961000  1.0
  C  C54  1  0.97101000  0.67234000  0.11212000  1.0
  C  C55  1  0.75518000  0.82854000  0.38816000  1.0
  C  C56  1  0.02895000  0.32767000  0.88788000  1.0
  C  C57  1  0.24480000  0.17146000  0.61184000  1.0
  C  C58  1  0.89001000  0.62987000  0.07189000  1.0
  C  C59  1  0.59151000  0.87091000  0.42827000  1.0
  C  C60  1  0.10995000  0.37014000  0.92810000  1.0
  C  C61  1  0.40847000  0.12908000  0.57175000  1.0
  C  C62  1  0.71951000  0.59660000  0.11739000  1.0
  C  C63  1  0.43341000  0.90407000  0.38259000  1.0
  C  C64  1  0.28045000  0.40341000  0.88261000  1.0
  C  C65  1  0.56656000  0.09592000  0.61743000  1.0
  C  C66  1  0.64160000  0.60418000  0.20462000  1.0
  C  C67  1  0.45037000  0.89654000  0.29533000  1.0
  C  C68  1  0.35835000  0.39584000  0.79538000  1.0
  C  C69  1  0.54959000  0.10346000  0.70469000  1.0
  C  C70  1  0.73401000  0.64507000  0.24124000  1.0
  C  C71  1  0.62027000  0.85577000  0.25882000  1.0
  C  C72  1  0.26594000  0.35496000  0.75875000  1.0
  C  C73  1  0.37969000  0.14424000  0.74119000  1.0
  C  C74  1  0.62850000  0.55697000  0.07320000  1.0
  C  C75  1  0.25862000  0.94346000  0.42675000  1.0
  C  C76  1  0.37145000  0.44304000  0.92679000  1.0
  C  C77  1  0.74136000  0.05653000  0.57328000  1.0
  C  C78  1  0.58123000  0.51267000  0.96741000  1.0
  C  C79  1  0.06124000  0.98726000  0.53270000  1.0
  C  C80  1  0.41873000  0.48734000  0.03259000  1.0
  C  C81  1  0.93875000  0.01273000  0.46733000  1.0
  S  S82  1  0.41444000  0.51494000  0.12787000  1.0
  S  S83  1  0.05740000  0.98555000  0.37189000  1.0
  S  S84  1  0.58552000  0.48508000  0.87212000  1.0
  S  S85  1  0.94258000  0.01445000  0.62814000  1.0
  N  N86  1  0.89359000  0.68073000  0.19523000  1.0
  N  N87  1  0.76933000  0.82012000  0.30501000  1.0
  N  N88  1  0.10636000  0.31928000  0.80476000  1.0
  N  N89  1  0.23065000  0.17989000  0.69498000  1.0
  N  N90  1  0.69795000  0.55089000  0.99007000  1.0
  N  N91  1  0.23877000  0.94924000  0.51004000  1.0
  N  N92  1  0.30201000  0.44912000  0.00992000  1.0
  N  N93  1  0.76121000  0.05075000  0.48999000  1.0
  O  O94  1  0.13068000  0.86305000  0.16455000  1.0
  O  O95  1  0.15697000  0.63721000  0.33616000  1.0
  O  O96  1  0.86942000  0.13693000  0.83546000  1.0
  O  O97  1  0.84297000  0.36280000  0.66384000  1.0
  O  O98  1  0.31659000  0.76721000  0.09126000  1.0
  O  O99  1  0.17467000  0.73275000  0.40971000  1.0
  O  O100  1  0.68345000  0.23276000  0.90874000  1.0
  O  O101  1  0.82531000  0.26727000  0.59028000  1.0
