# generated using pymatgen
data_CuH14(C7O3)3
_symmetry_space_group_name_H-M   'P 1'
_cell_length_a   6.90378000
_cell_length_b   14.89160000
_cell_length_c   19.96650000
_cell_angle_alpha   80.27870000
_cell_angle_beta   89.95900000
_cell_angle_gamma   89.91260000
_symmetry_Int_Tables_number   1
_chemical_formula_structural   CuH14(C7O3)3
_chemical_formula_sum   'Cu4 H56 C84 O36'
_cell_volume   2023.24442670
_cell_formula_units_Z   4
loop_
 _symmetry_equiv_pos_site_id
 _symmetry_equiv_pos_as_xyz
  1  'x, y, z'
loop_
 _atom_site_type_symbol
 _atom_site_label
 _atom_site_symmetry_multiplicity
 _atom_site_fract_x
 _atom_site_fract_y
 _atom_site_fract_z
 _atom_site_occupancy
  Cu  Cu0  1  0.14790000  0.49785000  0.53961000  1.0
  Cu  Cu1  1  0.64655000  0.50184000  0.96092000  1.0
  Cu  Cu2  1  0.85213000  0.50215000  0.46041000  1.0
  Cu  Cu3  1  0.35346000  0.49816000  0.03908000  1.0
  H  H4  1  0.30001000  0.01390000  0.71450000  1.0
  H  H5  1  0.79985000  0.98615000  0.78543000  1.0
  H  H6  1  0.69997000  0.98611000  0.28550000  1.0
  H  H7  1  0.20014000  0.01386000  0.21457000  1.0
  H  H8  1  0.38515000  0.57361000  0.62132000  1.0
  H  H9  1  0.88422000  0.42693000  0.87876000  1.0
  H  H10  1  0.61485000  0.42638000  0.37868000  1.0
  H  H11  1  0.11579000  0.57308000  0.12124000  1.0
  H  H12  1  0.51605000  0.54454000  0.56542000  1.0
  H  H13  1  0.01494000  0.45544000  0.93484000  1.0
  H  H14  1  0.48396000  0.45547000  0.43458000  1.0
  H  H15  1  0.98507000  0.54457000  0.06517000  1.0
  H  H16  1  0.48422000  0.27572000  0.48315000  1.0
  H  H17  1  0.98468000  0.72432000  0.01686000  1.0
  H  H18  1  0.51581000  0.72428000  0.51685000  1.0
  H  H19  1  0.01533000  0.27568000  0.98315000  1.0
  H  H20  1  0.42216000  0.08639000  0.34216000  1.0
  H  H21  1  0.92180000  0.91362000  0.15791000  1.0
  H  H22  1  0.57783000  0.91361000  0.65784000  1.0
  H  H23  1  0.07821000  0.08638000  0.84209000  1.0
  H  H24  1  0.00906000  0.30460000  0.34065000  1.0
  H  H25  1  0.50937000  0.69571000  0.15946000  1.0
  H  H26  1  0.99094000  0.69541000  0.65936000  1.0
  H  H27  1  0.49064000  0.30429000  0.84054000  1.0
  H  H28  1  0.00459000  0.12136000  0.44486000  1.0
  H  H29  1  0.50446000  0.87871000  0.05509000  1.0
  H  H30  1  0.99542000  0.87865000  0.55515000  1.0
  H  H31  1  0.49556000  0.12129000  0.94491000  1.0
  H  H32  1  0.47195000  0.11629000  0.55809000  1.0
  H  H33  1  0.97205000  0.88371000  0.94197000  1.0
  H  H34  1  0.52805000  0.88371000  0.44190000  1.0
  H  H35  1  0.02795000  0.11628000  0.05803000  1.0
  H  H36  1  0.18810000  0.08248000  0.55306000  1.0
  H  H37  1  0.68799000  0.91754000  0.94686000  1.0
  H  H38  1  0.81189000  0.91753000  0.44695000  1.0
  H  H39  1  0.31202000  0.08246000  0.05314000  1.0
  H  H40  1  0.65513000  0.07783000  0.66555000  1.0
  H  H41  1  0.15530000  0.92208000  0.83448000  1.0
  H  H42  1  0.34484000  0.92217000  0.33445000  1.0
  H  H43  1  0.84469000  0.07791000  0.16553000  1.0
  H  H44  1  0.23654000  0.24424000  0.17193000  1.0
  H  H45  1  0.73627000  0.75589000  0.32824000  1.0
  H  H46  1  0.76346000  0.75576000  0.82807000  1.0
  H  H47  1  0.26373000  0.24412000  0.67176000  1.0
  H  H48  1  0.73427000  0.18769000  0.29984000  1.0
  H  H49  1  0.23411000  0.81250000  0.20032000  1.0
  H  H50  1  0.26573000  0.81230000  0.70016000  1.0
  H  H51  1  0.76589000  0.18749000  0.79968000  1.0
  H  H52  1  0.03615000  0.34142000  0.08426000  1.0
  H  H53  1  0.53623000  0.65856000  0.41577000  1.0
  H  H54  1  0.96385000  0.65857000  0.91575000  1.0
  H  H55  1  0.46379000  0.34145000  0.58423000  1.0
  H  H56  1  0.53377000  0.28868000  0.21258000  1.0
  H  H57  1  0.03412000  0.71131000  0.28745000  1.0
  H  H58  1  0.46623000  0.71131000  0.78741000  1.0
  H  H59  1  0.96589000  0.28868000  0.71255000  1.0
  C  C60  1  0.15589000  0.37404000  0.44471000  1.0
  C  C61  1  0.65722000  0.62592000  0.05581000  1.0
  C  C62  1  0.84407000  0.62597000  0.55527000  1.0
  C  C63  1  0.34279000  0.37408000  0.94419000  1.0
  C  C64  1  0.23790000  0.29639000  0.41477000  1.0
  C  C65  1  0.73843000  0.70379000  0.08534000  1.0
  C  C66  1  0.76210000  0.70361000  0.58523000  1.0
  C  C67  1  0.26157000  0.29621000  0.91465000  1.0
  C  C68  1  0.40603000  0.25155000  0.44235000  1.0
  C  C69  1  0.90638000  0.74855000  0.05768000  1.0
  C  C70  1  0.59398000  0.74845000  0.55764000  1.0
  C  C71  1  0.09363000  0.25145000  0.94232000  1.0
  C  C72  1  0.46980000  0.17602000  0.41530000  1.0
  C  C73  1  0.96984000  0.82403000  0.08472000  1.0
  C  C74  1  0.53020000  0.82398000  0.58469000  1.0
  C  C75  1  0.03017000  0.17597000  0.91528000  1.0
  C  C76  1  0.36958000  0.14468000  0.36320000  1.0
  C  C77  1  0.86938000  0.85540000  0.13686000  1.0
  C  C78  1  0.63042000  0.85532000  0.63680000  1.0
  C  C79  1  0.13064000  0.14459000  0.86314000  1.0
  C  C80  1  0.20441000  0.19138000  0.33625000  1.0
  C  C81  1  0.70421000  0.80887000  0.16382000  1.0
  C  C82  1  0.79559000  0.80862000  0.66375000  1.0
  C  C83  1  0.29579000  0.19113000  0.83618000  1.0
  C  C84  1  0.13834000  0.26813000  0.36095000  1.0
  C  C85  1  0.63849000  0.73218000  0.13912000  1.0
  C  C86  1  0.86166000  0.73187000  0.63905000  1.0
  C  C87  1  0.36151000  0.26782000  0.86087000  1.0
  C  C88  1  0.72942000  0.12125000  0.49497000  1.0
  C  C89  1  0.22938000  0.87876000  0.00504000  1.0
  C  C90  1  0.27059000  0.87875000  0.50502000  1.0
  C  C91  1  0.77064000  0.12123000  0.99496000  1.0
  C  C92  1  0.93112000  0.11311000  0.49367000  1.0
  C  C93  1  0.43103000  0.88694000  0.00629000  1.0
  C  C94  1  0.06888000  0.88690000  0.50633000  1.0
  C  C95  1  0.56898000  0.11306000  0.99371000  1.0
  C  C96  1  0.62876000  0.10999000  0.55675000  1.0
  C  C97  1  0.12882000  0.89000000  0.94328000  1.0
  C  C98  1  0.37122000  0.89001000  0.44325000  1.0
  C  C99  1  0.87119000  0.11000000  0.05672000  1.0
  C  C100  1  0.03208000  0.09158000  0.55404000  1.0
  C  C101  1  0.53201000  0.90843000  0.94591000  1.0
  C  C102  1  0.96791000  0.90843000  0.44596000  1.0
  C  C103  1  0.46799000  0.09156000  0.05409000  1.0
  C  C104  1  0.73214000  0.08846000  0.61722000  1.0
  C  C105  1  0.23221000  0.91147000  0.88279000  1.0
  C  C106  1  0.26784000  0.91154000  0.38278000  1.0
  C  C107  1  0.76779000  0.08852000  0.11721000  1.0
  C  C108  1  0.93422000  0.07826000  0.61664000  1.0
  C  C109  1  0.43420000  0.92169000  0.88333000  1.0
  C  C110  1  0.06577000  0.92175000  0.38336000  1.0
  C  C111  1  0.56579000  0.07830000  0.11667000  1.0
  C  C112  1  0.04266000  0.05029000  0.68047000  1.0
  C  C113  1  0.54263000  0.94965000  0.81947000  1.0
  C  C114  1  0.95731000  0.94971000  0.31953000  1.0
  C  C115  1  0.45736000  0.05034000  0.18053000  1.0
  C  C116  1  0.99511000  0.21204000  0.24031000  1.0
  C  C117  1  0.49496000  0.78816000  0.25982000  1.0
  C  C118  1  0.00489000  0.78796000  0.75969000  1.0
  C  C119  1  0.50505000  0.21184000  0.74018000  1.0
  C  C120  1  0.08264000  0.25404000  0.18021000  1.0
  C  C121  1  0.58247000  0.74610000  0.31990000  1.0
  C  C122  1  0.91737000  0.74596000  0.81979000  1.0
  C  C123  1  0.41753000  0.25390000  0.68010000  1.0
  C  C124  1  0.79818000  0.22260000  0.25269000  1.0
  C  C125  1  0.29815000  0.77759000  0.24745000  1.0
  C  C126  1  0.20181000  0.77740000  0.74730000  1.0
  C  C127  1  0.70186000  0.22240000  0.75255000  1.0
  C  C128  1  0.97054000  0.30768000  0.13135000  1.0
  C  C129  1  0.47054000  0.69236000  0.36872000  1.0
  C  C130  1  0.02946000  0.69232000  0.86865000  1.0
  C  C131  1  0.52946000  0.30765000  0.63128000  1.0
  C  C132  1  0.68717000  0.27781000  0.20378000  1.0
  C  C133  1  0.18732000  0.72226000  0.29631000  1.0
  C  C134  1  0.31282000  0.72219000  0.79622000  1.0
  C  C135  1  0.81268000  0.27774000  0.70369000  1.0
  C  C136  1  0.77263000  0.32017000  0.14292000  1.0
  C  C137  1  0.27285000  0.67976000  0.35712000  1.0
  C  C138  1  0.22737000  0.67983000  0.85708000  1.0
  C  C139  1  0.72715000  0.32024000  0.64288000  1.0
  C  C140  1  0.65949000  0.38108000  0.09007000  1.0
  C  C141  1  0.15983000  0.61819000  0.40982000  1.0
  C  C142  1  0.34052000  0.61892000  0.90993000  1.0
  C  C143  1  0.84012000  0.38181000  0.59017000  1.0
  O  O144  1  0.25922000  0.40364000  0.48977000  1.0
  O  O145  1  0.76054000  0.59553000  0.01090000  1.0
  O  O146  1  0.74079000  0.59634000  0.51023000  1.0
  O  O147  1  0.23946000  0.40447000  0.98910000  1.0
  O  O148  1  0.99049000  0.40352000  0.42357000  1.0
  O  O149  1  0.49194000  0.59618000  0.07694000  1.0
  O  O150  1  0.00952000  0.59650000  0.57642000  1.0
  O  O151  1  0.50806000  0.40382000  0.92306000  1.0
  O  O152  1  0.64399000  0.13224000  0.43188000  1.0
  O  O153  1  0.14387000  0.86774000  0.06814000  1.0
  O  O154  1  0.35602000  0.86776000  0.56812000  1.0
  O  O155  1  0.85615000  0.13226000  0.93186000  1.0
  O  O156  1  0.96949000  0.03727000  0.73812000  1.0
  O  O157  1  0.46953000  0.96255000  0.76184000  1.0
  O  O158  1  0.03049000  0.96273000  0.26188000  1.0
  O  O159  1  0.53045000  0.03744000  0.23816000  1.0
  O  O160  1  0.23172000  0.03991000  0.67083000  1.0
  O  O161  1  0.73154000  0.96016000  0.82910000  1.0
  O  O162  1  0.76826000  0.96009000  0.32917000  1.0
  O  O163  1  0.26844000  0.03984000  0.17089000  1.0
  O  O164  1  0.10918000  0.15446000  0.28680000  1.0
  O  O165  1  0.60894000  0.84579000  0.21337000  1.0
  O  O166  1  0.89080000  0.84554000  0.71321000  1.0
  O  O167  1  0.39106000  0.15421000  0.78663000  1.0
  O  O168  1  0.74850000  0.40807000  0.03409000  1.0
  O  O169  1  0.24988000  0.59073000  0.46542000  1.0
  O  O170  1  0.25150000  0.59193000  0.96591000  1.0
  O  O171  1  0.75014000  0.40926000  0.53457000  1.0
  O  O172  1  0.48699000  0.40296000  0.10424000  1.0
  O  O173  1  0.98794000  0.59682000  0.39514000  1.0
  O  O174  1  0.51301000  0.59705000  0.89576000  1.0
  O  O175  1  0.01204000  0.40318000  0.60487000  1.0
  O  O176  1  0.41650000  0.52182000  0.59935000  1.0
  O  O177  1  0.91485000  0.47840000  0.90112000  1.0
  O  O178  1  0.58349000  0.47818000  0.40065000  1.0
  O  O179  1  0.08515000  0.52160000  0.09888000  1.0
