# generated using pymatgen
data_Gd4H14C2(SO6)5
_symmetry_space_group_name_H-M   'P 1'
_cell_length_a   9.76599000
_cell_length_b   11.51550000
_cell_length_c   11.51550000
_cell_angle_alpha   66.90040000
_cell_angle_beta   87.76340000
_cell_angle_gamma   87.76350000
_symmetry_Int_Tables_number   1
_chemical_formula_structural   Gd4H14C2(SO6)5
_chemical_formula_sum   'Gd8 H28 C4 S10 O60'
_cell_volume   1189.90190377
_cell_formula_units_Z   2
loop_
 _symmetry_equiv_pos_site_id
 _symmetry_equiv_pos_as_xyz
  1  'x, y, z'
loop_
 _atom_site_type_symbol
 _atom_site_label
 _atom_site_symmetry_multiplicity
 _atom_site_fract_x
 _atom_site_fract_y
 _atom_site_fract_z
 _atom_site_occupancy
  Gd  Gd0  1  0.09857000  0.99833000  0.33423000  1.0
  Gd  Gd1  1  0.40143000  0.66577000  0.00167000  1.0
  Gd  Gd2  1  0.90143000  0.00167000  0.66577000  1.0
  Gd  Gd3  1  0.59856000  0.33423000  0.99833000  1.0
  Gd  Gd4  1  0.00148000  0.52429000  0.23260000  1.0
  Gd  Gd5  1  0.49852000  0.76740000  0.47571000  1.0
  Gd  Gd6  1  0.99852000  0.47571000  0.76740000  1.0
  Gd  Gd7  1  0.50148000  0.23260000  0.52429000  1.0
  H  H8  1  0.94109000  0.80707000  0.20779000  1.0
  H  H9  1  0.55891000  0.79221000  0.19293000  1.0
  H  H10  1  0.05891000  0.19293000  0.79221000  1.0
  H  H11  1  0.44110000  0.20779000  0.80707000  1.0
  H  H12  1  0.81538000  0.74169000  0.17777000  1.0
  H  H13  1  0.68462000  0.82223000  0.25831000  1.0
  H  H14  1  0.18463000  0.25831000  0.82222000  1.0
  H  H15  1  0.31538000  0.17776000  0.74170000  1.0
  H  H16  1  0.78325000  0.43648000  0.42945000  1.0
  H  H17  1  0.71675000  0.57055000  0.56352000  1.0
  H  H18  1  0.21675000  0.56352000  0.57055000  1.0
  H  H19  1  0.28325000  0.42945000  0.43648000  1.0
  H  H20  1  0.92079000  0.37710000  0.49718000  1.0
  H  H21  1  0.57921000  0.50282000  0.62290000  1.0
  H  H22  1  0.07921000  0.62289000  0.50282000  1.0
  H  H23  1  0.42079000  0.49718000  0.37711000  1.0
  H  H24  1  0.84589000  0.05500000  0.16705000  1.0
  H  H25  1  0.65411000  0.83295000  0.94500000  1.0
  H  H26  1  0.15411000  0.94500000  0.83294000  1.0
  H  H27  1  0.34589000  0.16705000  0.05500000  1.0
  H  H28  1  0.81250000  0.94056000  0.29682000  1.0
  H  H29  1  0.68750000  0.70318000  0.05944000  1.0
  H  H30  1  0.18750000  0.05944000  0.70318000  1.0
  H  H31  1  0.31249000  0.29682000  0.94056000  1.0
  H  H32  1  0.25723000  0.82292000  0.68528000  1.0
  H  H33  1  0.24277000  0.31471000  0.17707000  1.0
  H  H34  1  0.74277000  0.17708000  0.31472000  1.0
  H  H35  1  0.75723000  0.68529000  0.82293000  1.0
  C  C36  1  0.21606000  0.87637000  0.59085000  1.0
  C  C37  1  0.28395000  0.40915000  0.12362000  1.0
  C  C38  1  0.78394000  0.12362000  0.40915000  1.0
  C  C39  1  0.71605000  0.59085000  0.87638000  1.0
  S  S40  1  0.96491000  0.28341000  0.09959000  1.0
  S  S41  1  0.53508000  0.90041000  0.71659000  1.0
  S  S42  1  0.03509000  0.71659000  0.90041000  1.0
  S  S43  1  0.46492000  0.09959000  0.28341000  1.0
  S  S44  1  0.86334000  0.76670000  0.53295000  1.0
  S  S45  1  0.63666000  0.46705000  0.23330000  1.0
  S  S46  1  0.13666000  0.23330000  0.46705000  1.0
  S  S47  1  0.36335000  0.53295000  0.76670000  1.0
  S  S48  1  0.25000000  0.75411000  0.24589000  1.0
  S  S49  1  0.75000000  0.24589000  0.75411000  1.0
  O  O50  1  0.90361000  0.72567000  0.21816000  1.0
  O  O51  1  0.59640000  0.78184000  0.27434000  1.0
  O  O52  1  0.09639000  0.27434000  0.78184000  1.0
  O  O53  1  0.40360000  0.21816000  0.72566000  1.0
  O  O54  1  0.74538000  0.80573000  0.44650000  1.0
  O  O55  1  0.75462000  0.55350000  0.19427000  1.0
  O  O56  1  0.25462000  0.19427000  0.55350000  1.0
  O  O57  1  0.24538000  0.44650000  0.80573000  1.0
  O  O58  1  0.88180000  0.45318000  0.43149000  1.0
  O  O59  1  0.61820000  0.56851000  0.54681000  1.0
  O  O60  1  0.11820000  0.54681000  0.56852000  1.0
  O  O61  1  0.38180000  0.43149000  0.45319000  1.0
  O  O62  1  0.87835000  0.97050000  0.22485000  1.0
  O  O63  1  0.62165000  0.77515000  0.02950000  1.0
  O  O64  1  0.12165000  0.02950000  0.77514000  1.0
  O  O65  1  0.37835000  0.22485000  0.97050000  1.0
  O  O66  1  0.10523000  0.94097000  0.57842000  1.0
  O  O67  1  0.39476000  0.42158000  0.05904000  1.0
  O  O68  1  0.89477000  0.05904000  0.42158000  1.0
  O  O69  1  0.60524000  0.57842000  0.94096000  1.0
  O  O70  1  0.99300000  0.79854000  0.45570000  1.0
  O  O71  1  0.50700000  0.54430000  0.20146000  1.0
  O  O72  1  0.00700000  0.20146000  0.54430000  1.0
  O  O73  1  0.49300000  0.45570000  0.79854000  1.0
  O  O74  1  0.05825000  0.17041000  0.14975000  1.0
  O  O75  1  0.44175000  0.85025000  0.82958000  1.0
  O  O76  1  0.94175000  0.82959000  0.85025000  1.0
  O  O77  1  0.55825000  0.14975000  0.17042000  1.0
  O  O78  1  0.95170000  0.34608000  0.19051000  1.0
  O  O79  1  0.54830000  0.80949000  0.65392000  1.0
  O  O80  1  0.04830000  0.65392000  0.80949000  1.0
  O  O81  1  0.45170000  0.19051000  0.34608000  1.0
  O  O82  1  0.27888000  0.87229000  0.49344000  1.0
  O  O83  1  0.22112000  0.50656000  0.12771000  1.0
  O  O84  1  0.72112000  0.12771000  0.50656000  1.0
  O  O85  1  0.77888000  0.49344000  0.87229000  1.0
  O  O86  1  0.82953000  0.24070000  0.07792000  1.0
  O  O87  1  0.67047000  0.92208000  0.75929000  1.0
  O  O88  1  0.17047000  0.75929000  0.92208000  1.0
  O  O89  1  0.32953000  0.07792000  0.24071000  1.0
  O  O90  1  0.02762000  0.37141000  0.98003000  1.0
  O  O91  1  0.47238000  0.01997000  0.62859000  1.0
  O  O92  1  0.97238000  0.62859000  0.01997000  1.0
  O  O93  1  0.52762000  0.98003000  0.37141000  1.0
  O  O94  1  0.16227000  0.64378000  0.27417000  1.0
  O  O95  1  0.33773000  0.72583000  0.35621000  1.0
  O  O96  1  0.83773000  0.35622000  0.72583000  1.0
  O  O97  1  0.66227000  0.27417000  0.64379000  1.0
  O  O98  1  0.86158000  0.62705000  0.60510000  1.0
  O  O99  1  0.63842000  0.39490000  0.37295000  1.0
  O  O100  1  0.13843000  0.37295000  0.39490000  1.0
  O  O101  1  0.36158000  0.60510000  0.62705000  1.0
  O  O102  1  0.16375000  0.86932000  0.22538000  1.0
  O  O103  1  0.33625000  0.77462000  0.13069000  1.0
  O  O104  1  0.83625000  0.13068000  0.77462000  1.0
  O  O105  1  0.66375000  0.22538000  0.86932000  1.0
  O  O106  1  0.85117000  0.82832000  0.62282000  1.0
  O  O107  1  0.64883000  0.37718000  0.17168000  1.0
  O  O108  1  0.14883000  0.17168000  0.37718000  1.0
  O  O109  1  0.35117000  0.62282000  0.82832000  1.0
