# generated using pymatgen
data_Zn4H9C28S2ClO13F4
_symmetry_space_group_name_H-M   'P 1'
_cell_length_a   18.56880000
_cell_length_b   19.73680000
_cell_length_c   32.85180000
_cell_angle_alpha   86.05950000
_cell_angle_beta   73.58860000
_cell_angle_gamma   61.94480000
_symmetry_Int_Tables_number   1
_chemical_formula_structural   Zn4H9C28S2ClO13F4
_chemical_formula_sum   'Zn16 H36 C112 S8 Cl4 O52 F16'
_cell_volume   10162.86843872
_cell_formula_units_Z   4
loop_
 _symmetry_equiv_pos_site_id
 _symmetry_equiv_pos_as_xyz
  1  'x, y, z'
loop_
 _atom_site_type_symbol
 _atom_site_label
 _atom_site_symmetry_multiplicity
 _atom_site_fract_x
 _atom_site_fract_y
 _atom_site_fract_z
 _atom_site_occupancy
  Zn  Zn0  1  0.87430000  0.55575000  0.51871000  1.0
  Zn  Zn1  1  0.03824000  0.48533000  0.43838000  1.0
  Zn  Zn2  1  0.04176000  0.39809000  0.52354000  1.0
  Zn  Zn3  1  0.04684000  0.56004000  0.51846000  1.0
  Zn  Zn4  1  0.62508000  0.19048000  0.73199000  1.0
  Zn  Zn5  1  0.46495000  0.34967000  0.72561000  1.0
  Zn  Zn6  1  0.45830000  0.26560000  0.81265000  1.0
  Zn  Zn7  1  0.45221000  0.19299000  0.72947000  1.0
  Zn  Zn8  1  0.46196000  0.76359000  0.31308000  1.0
  Zn  Zn9  1  0.45323000  0.69293000  0.23089000  1.0
  Zn  Zn10  1  0.62531000  0.69265000  0.22923000  1.0
  Zn  Zn11  1  0.45885000  0.85145000  0.22616000  1.0
  Zn  Zn12  1  0.03618000  0.89893000  0.02386000  1.0
  Zn  Zn13  1  0.04979000  0.05728000  0.01904000  1.0
  Zn  Zn14  1  0.87633000  0.05874000  0.01964000  1.0
  Zn  Zn15  1  0.03624000  0.98515000  0.93751000  1.0
  H  H16  1  0.80298000  0.96633000  0.65550000  1.0
  H  H17  1  0.31136000  0.97582000  0.40161000  1.0
  H  H18  1  0.54301000  0.48227000  0.62176000  1.0
  H  H19  1  0.54816000  0.52251000  0.66708000  1.0
  H  H20  1  0.64423000  0.57068000  0.61898000  1.0
  H  H21  1  0.63902000  0.53045000  0.57364000  1.0
  H  H22  1  0.35300000  0.67390000  0.43100000  1.0
  H  H23  1  0.26229000  0.76213000  0.42843000  1.0
  H  H24  1  0.16603000  0.71407000  0.47638000  1.0
  H  H25  1  0.25661000  0.62584000  0.47894000  1.0
  H  H26  1  0.54726000  0.76229000  0.42816000  1.0
  H  H27  1  0.54229000  0.67404000  0.43059000  1.0
  H  H28  1  0.63841000  0.62588000  0.47864000  1.0
  H  H29  1  0.64353000  0.71404000  0.47620000  1.0
  H  H30  1  0.33372000  0.17930000  0.63111000  1.0
  H  H31  1  0.24314000  0.21944000  0.67649000  1.0
  H  H32  1  0.14685000  0.26753000  0.62840000  1.0
  H  H33  1  0.23757000  0.22736000  0.58307000  1.0
  H  H34  1  0.18891000  0.65978000  0.96264000  1.0
  H  H35  1  0.95711000  0.07646000  0.81942000  1.0
  H  H36  1  0.95195000  0.98836000  0.82199000  1.0
  H  H37  1  0.85593000  0.03624000  0.77393000  1.0
  H  H38  1  0.86084000  0.12449000  0.77134000  1.0
  H  H39  1  0.16627000  0.21370000  0.97600000  1.0
  H  H40  1  0.25701000  0.12556000  0.97858000  1.0
  H  H41  1  0.35306000  0.17366000  0.93044000  1.0
  H  H42  1  0.26233000  0.26175000  0.92793000  1.0
  H  H43  1  0.92635000  0.28349000  0.09452000  1.0
  H  H44  1  0.25682000  0.03111000  0.07344000  1.0
  H  H45  1  0.16597000  0.07142000  0.11877000  1.0
  H  H46  1  0.26194000  0.02325000  0.16691000  1.0
  H  H47  1  0.35272000  0.98302000  0.12162000  1.0
  H  H48  1  0.95196000  0.72690000  0.08316000  1.0
  H  H49  1  0.95717000  0.76713000  0.12848000  1.0
  H  H50  1  0.86083000  0.71927000  0.17657000  1.0
  H  H51  1  0.85582000  0.67889000  0.13125000  1.0
  C  C52  1  0.86229000  0.56816000  0.43109000  1.0
  C  C53  1  0.12335000  0.31585000  0.43857000  1.0
  C  C54  1  0.86339000  0.43026000  0.56848000  1.0
  C  C55  1  0.13807000  0.43207000  0.56842000  1.0
  C  C56  1  0.87606000  0.68383000  0.56080000  1.0
  C  C57  1  0.13741000  0.56921000  0.43101000  1.0
  C  C58  1  0.63908000  0.31741000  0.68130000  1.0
  C  C59  1  0.37751000  0.43419000  0.81088000  1.0
  C  C60  1  0.63639000  0.18123000  0.81928000  1.0
  C  C61  1  0.36173000  0.18129000  0.81824000  1.0
  C  C62  1  0.62335000  0.06551000  0.68851000  1.0
  C  C63  1  0.36347000  0.31911000  0.68068000  1.0
  C  C64  1  0.36292000  0.68116000  0.31896000  1.0
  C  C65  1  0.62256000  0.56623000  0.18830000  1.0
  C  C66  1  0.63758000  0.68120000  0.31849000  1.0
  C  C67  1  0.63643000  0.81938000  0.18083000  1.0
  C  C68  1  0.37664000  0.93357000  0.31187000  1.0
  C  C69  1  0.36187000  0.81871000  0.18116000  1.0
  C  C70  1  0.13719000  0.93098000  0.06862000  1.0
  C  C71  1  0.87914000  0.18431000  0.06140000  1.0
  C  C72  1  0.86180000  0.93160000  0.06878000  1.0
  C  C73  1  0.86176000  0.06926000  0.93145000  1.0
  C  C74  1  0.12149000  0.81548000  0.93878000  1.0
  C  C75  1  0.13725000  0.06848000  0.93108000  1.0
  C  C76  1  0.73690000  0.80269000  0.60084000  1.0
  C  C77  1  0.76041000  0.94754000  0.64926000  1.0
  C  C78  1  0.82500000  0.75832000  0.58597000  1.0
  C  C79  1  0.67269000  0.99061000  0.66357000  1.0
  C  C80  1  0.78413000  0.87883000  0.62626000  1.0
  C  C81  1  0.71358000  0.87143000  0.62377000  1.0
  C  C82  1  0.20195000  0.22722000  0.36886000  1.0
  C  C83  1  0.29883000  0.02215000  0.38037000  1.0
  C  C84  1  0.17271000  0.24197000  0.41299000  1.0
  C  C85  1  0.32726000  0.00873000  0.33651000  1.0
  C  C86  1  0.25306000  0.10190000  0.39230000  1.0
  C  C87  1  0.24784000  0.14722000  0.35711000  1.0
  C  C88  1  0.69708000  0.34451000  0.65290000  1.0
  C  C89  1  0.80822000  0.40046000  0.59706000  1.0
  C  C90  1  0.66648000  0.41691000  0.63651000  1.0
  C  C91  1  0.83994000  0.32736000  0.61346000  1.0
  C  C92  1  0.71942000  0.44350000  0.60993000  1.0
  C  C93  1  0.78660000  0.30051000  0.64023000  1.0
  C  C94  1  0.58579000  0.48981000  0.63607000  1.0
  C  C95  1  0.64591000  0.52001000  0.60594000  1.0
  C  C96  1  0.30600000  0.65219000  0.34645000  1.0
  C  C97  1  0.19431000  0.59662000  0.40194000  1.0
  C  C98  1  0.28032000  0.66366000  0.39080000  1.0
  C  C99  1  0.21977000  0.58444000  0.35717000  1.0
  C  C100  1  0.22714000  0.63724000  0.41723000  1.0
  C  C101  1  0.27336000  0.61122000  0.33049000  1.0
  C  C102  1  0.28838000  0.69928000  0.42758000  1.0
  C  C103  1  0.22804000  0.66918000  0.45759000  1.0
  C  C104  1  0.69587000  0.65227000  0.34613000  1.0
  C  C105  1  0.80722000  0.59626000  0.40192000  1.0
  C  C106  1  0.66550000  0.66382000  0.39051000  1.0
  C  C107  1  0.83891000  0.58431000  0.35715000  1.0
  C  C108  1  0.71849000  0.63717000  0.41704000  1.0
  C  C109  1  0.78540000  0.61125000  0.33038000  1.0
  C  C110  1  0.58492000  0.69944000  0.42724000  1.0
  C  C111  1  0.64517000  0.66923000  0.45734000  1.0
  C  C112  1  0.30601000  0.34934000  0.65268000  1.0
  C  C113  1  0.19439000  0.40524000  0.59704000  1.0
  C  C114  1  0.27275000  0.30641000  0.64007000  1.0
  C  C115  1  0.22718000  0.44935000  0.60967000  1.0
  C  C116  1  0.21963000  0.33298000  0.61356000  1.0
  C  C117  1  0.28074000  0.42255000  0.63638000  1.0
  C  C118  1  0.27171000  0.22993000  0.64417000  1.0
  C  C119  1  0.21145000  0.26005000  0.61408000  1.0
  C  C120  1  0.29837000  0.58311000  0.82054000  1.0
  C  C121  1  0.20132000  0.66842000  0.92883000  1.0
  C  C122  1  0.32779000  0.50950000  0.83513000  1.0
  C  C123  1  0.17233000  0.74090000  0.91357000  1.0
  C  C124  1  0.24737000  0.61060000  0.89491000  1.0
  C  C125  1  0.25240000  0.64072000  0.85465000  1.0
  C  C126  1  0.80346000  0.09832000  0.90389000  1.0
  C  C127  1  0.69183000  0.15381000  0.84830000  1.0
  C  C128  1  0.83374000  0.08684000  0.85952000  1.0
  C  C129  1  0.66038000  0.16587000  0.89306000  1.0
  C  C130  1  0.78064000  0.11326000  0.83302000  1.0
  C  C131  1  0.71394000  0.13926000  0.91978000  1.0
  C  C132  1  0.91433000  0.05121000  0.82282000  1.0
  C  C133  1  0.85410000  0.08123000  0.79272000  1.0
  C  C134  1  0.19407000  0.09601000  0.90188000  1.0
  C  C135  1  0.30535000  0.15187000  0.84599000  1.0
  C  C136  1  0.22718000  0.13662000  0.91695000  1.0
  C  C137  1  0.27254000  0.11080000  0.83031000  1.0
  C  C138  1  0.28012000  0.16323000  0.89038000  1.0
  C  C139  1  0.21910000  0.08404000  0.85712000  1.0
  C  C140  1  0.22827000  0.16878000  0.95721000  1.0
  C  C141  1  0.28843000  0.19891000  0.92706000  1.0
  C  C142  1  0.64197000  0.44695000  0.14902000  1.0
  C  C143  1  0.85882000  0.30215000  0.10074000  1.0
  C  C144  1  0.67111000  0.49138000  0.16368000  1.0
  C  C145  1  0.82857000  0.25906000  0.08637000  1.0
  C  C146  1  0.79080000  0.37080000  0.12368000  1.0
  C  C147  1  0.71040000  0.37813000  0.12616000  1.0
  C  C148  1  0.19392000  0.90118000  0.09700000  1.0
  C  C149  1  0.30532000  0.84545000  0.15273000  1.0
  C  C150  1  0.22686000  0.94428000  0.10975000  1.0
  C  C151  1  0.27267000  0.80119000  0.14009000  1.0
  C  C152  1  0.27981000  0.91775000  0.13632000  1.0
  C  C153  1  0.21913000  0.82802000  0.11335000  1.0
  C  C154  1  0.22796000  0.02075000  0.10573000  1.0
  C  C155  1  0.28808000  0.99058000  0.13589000  1.0
  C  C156  1  0.80355000  0.90481000  0.09713000  1.0
  C  C157  1  0.69189000  0.84928000  0.15271000  1.0
  C  C158  1  0.83384000  0.83252000  0.11359000  1.0
  C  C159  1  0.66044000  0.92248000  0.13640000  1.0
  C  C160  1  0.78069000  0.80607000  0.14008000  1.0
  C  C161  1  0.71403000  0.94918000  0.10970000  1.0
  C  C162  1  0.91438000  0.75964000  0.11415000  1.0
  C  C163  1  0.85407000  0.72960000  0.14425000  1.0
  S  S164  1  0.87880000  0.80100000  0.60024000  1.0
  S  S165  1  0.61843000  0.94847000  0.64941000  1.0
  S  S166  1  0.20144000  0.15803000  0.43974000  1.0
  S  S167  1  0.29898000  0.09224000  0.30947000  1.0
  S  S168  1  0.29914000  0.51135000  0.89050000  1.0
  S  S169  1  0.20077000  0.73965000  0.85829000  1.0
  S  S170  1  0.78180000  0.44870000  0.14949000  1.0
  S  S171  1  0.71803000  0.30109000  0.10045000  1.0
  Cl  Cl172  1  0.66241000  0.78082000  0.59359000  1.0
  Cl  Cl173  1  0.18715000  0.29373000  0.33185000  1.0
  Cl  Cl174  1  0.31288000  0.60553000  0.76874000  1.0
  Cl  Cl175  1  0.53852000  0.46886000  0.15632000  1.0
  O  O176  1  0.99935000  0.50021000  0.50079000  1.0
  O  O177  1  0.82344000  0.58340000  0.47089000  1.0
  O  O178  1  0.10216000  0.37658000  0.41849000  1.0
  O  O179  1  0.94346000  0.38728000  0.55881000  1.0
  O  O180  1  0.94226000  0.53177000  0.41429000  1.0
  O  O181  1  0.82406000  0.49744000  0.55620000  1.0
  O  O182  1  0.10604000  0.31236000  0.47911000  1.0
  O  O183  1  0.11550000  0.38414000  0.55956000  1.0
  O  O184  1  0.95697000  0.65710000  0.55110000  1.0
  O  O185  1  0.11757000  0.49902000  0.55536000  1.0
  O  O186  1  0.83606000  0.65284000  0.55091000  1.0
  O  O187  1  0.11210000  0.53141000  0.41421000  1.0
  O  O188  1  0.11899000  0.58646000  0.47076000  1.0
  O  O189  1  0.50020000  0.24927000  0.75013000  1.0
  O  O190  1  0.67234000  0.25055000  0.69449000  1.0
  O  O191  1  0.39988000  0.43387000  0.77045000  1.0
  O  O192  1  0.55634000  0.21850000  0.83587000  1.0
  O  O193  1  0.55968000  0.36505000  0.68985000  1.0
  O  O194  1  0.67554000  0.16424000  0.77957000  1.0
  O  O195  1  0.39390000  0.37526000  0.83291000  1.0
  O  O196  1  0.38439000  0.21861000  0.83768000  1.0
  O  O197  1  0.54231000  0.09550000  0.69728000  1.0
  O  O198  1  0.38228000  0.16724000  0.77823000  1.0
  O  O199  1  0.66565000  0.09350000  0.69902000  1.0
  O  O200  1  0.39051000  0.36230000  0.69054000  1.0
  O  O201  1  0.38061000  0.25129000  0.69231000  1.0
  O  O202  1  0.50037000  0.75092000  0.25058000  1.0
  O  O203  1  0.38669000  0.71759000  0.33836000  1.0
  O  O204  1  0.54174000  0.59631000  0.19873000  1.0
  O  O205  1  0.67099000  0.66793000  0.27849000  1.0
  O  O206  1  0.38297000  0.66742000  0.27899000  1.0
  O  O207  1  0.55808000  0.71717000  0.33810000  1.0
  O  O208  1  0.66643000  0.59470000  0.19705000  1.0
  O  O209  1  0.67534000  0.75141000  0.19227000  1.0
  O  O210  1  0.39467000  0.93552000  0.27137000  1.0
  O  O211  1  0.55639000  0.86298000  0.19094000  1.0
  O  O212  1  0.39665000  0.87381000  0.33299000  1.0
  O  O213  1  0.38309000  0.75144000  0.19379000  1.0
  O  O214  1  0.38419000  0.86663000  0.19037000  1.0
  O  O215  1  0.00120000  0.99990000  0.99994000  1.0
  O  O216  1  0.11036000  0.88757000  0.05881000  1.0
  O  O217  1  0.96009000  0.15510000  0.05161000  1.0
  O  O218  1  0.82855000  0.99909000  0.05638000  1.0
  O  O219  1  0.12061000  0.99851000  0.05663000  1.0
  O  O220  1  0.94118000  0.88344000  0.05942000  1.0
  O  O221  1  0.83655000  0.15549000  0.05181000  1.0
  O  O222  1  0.82852000  0.08435000  0.97140000  1.0
  O  O223  1  0.10158000  0.87538000  0.91762000  1.0
  O  O224  1  0.94114000  0.03122000  0.91202000  1.0
  O  O225  1  0.10180000  0.81364000  0.97919000  1.0
  O  O226  1  0.12068000  0.08440000  0.97083000  1.0
  O  O227  1  0.11034000  0.03207000  0.91433000  1.0
  F  F228  1  0.92421000  0.27857000  0.60428000  1.0
  F  F229  1  0.82647000  0.22938000  0.65333000  1.0
  F  F230  1  0.19377000  0.54625000  0.33726000  1.0
  F  F231  1  0.29175000  0.59538000  0.28842000  1.0
  F  F232  1  0.92303000  0.54604000  0.33733000  1.0
  F  F233  1  0.82517000  0.59536000  0.28828000  1.0
  F  F234  1  0.20903000  0.52045000  0.59653000  1.0
  F  F235  1  0.30708000  0.47138000  0.64549000  1.0
  F  F236  1  0.57616000  0.20385000  0.91294000  1.0
  F  F237  1  0.67433000  0.15501000  0.96186000  1.0
  F  F238  1  0.29062000  0.09490000  0.78820000  1.0
  F  F239  1  0.19277000  0.04593000  0.83728000  1.0
  F  F240  1  0.29088000  0.73016000  0.15318000  1.0
  F  F241  1  0.19288000  0.77915000  0.10422000  1.0
  F  F242  1  0.57624000  0.97139000  0.14548000  1.0
  F  F243  1  0.67449000  0.02018000  0.09653000  1.0
