# generated using pymatgen
data_CdH15C15N2(O2F)2
_symmetry_space_group_name_H-M   'P 1'
_cell_length_a   8.78637000
_cell_length_b   8.86012000
_cell_length_c   10.83640000
_cell_angle_alpha   96.04120000
_cell_angle_beta   97.67330000
_cell_angle_gamma   105.19900000
_symmetry_Int_Tables_number   1
_chemical_formula_structural   CdH15C15N2(O2F)2
_chemical_formula_sum   'Cd2 H30 C30 N4 O8 F4'
_cell_volume   798.07511559
_cell_formula_units_Z   2
loop_
 _symmetry_equiv_pos_site_id
 _symmetry_equiv_pos_as_xyz
  1  'x, y, z'
loop_
 _atom_site_type_symbol
 _atom_site_label
 _atom_site_symmetry_multiplicity
 _atom_site_fract_x
 _atom_site_fract_y
 _atom_site_fract_z
 _atom_site_occupancy
  Cd  Cd0  1  0.53904000  0.99636000  0.87318000  1.0
  Cd  Cd1  1  0.46096000  0.00364000  0.12682000  1.0
  H  H2  1  0.98408000  0.05568000  0.83756000  1.0
  H  H3  1  0.01593000  0.94432000  0.16244000  1.0
  H  H4  1  0.05735000  0.19535000  0.05883000  1.0
  H  H5  1  0.94265000  0.80465000  0.94117000  1.0
  H  H6  1  0.94865000  0.28573000  0.95514000  1.0
  H  H7  1  0.05135000  0.71427000  0.04486000  1.0
  H  H8  1  0.31274000  0.39423000  0.04697000  1.0
  H  H9  1  0.68725000  0.60577000  0.95303000  1.0
  H  H10  1  0.17421000  0.49122000  0.09416000  1.0
  H  H11  1  0.82579000  0.50878000  0.90584000  1.0
  H  H12  1  0.09893000  0.53515000  0.87448000  1.0
  H  H13  1  0.90107000  0.46485000  0.12552000  1.0
  H  H14  1  0.35898000  0.38059000  0.81463000  1.0
  H  H15  1  0.64102000  0.61941000  0.18537000  1.0
  H  H16  1  0.25536000  0.47414000  0.71020000  1.0
  H  H17  1  0.74464000  0.52586000  0.28980000  1.0
  H  H18  1  0.12812000  0.18177000  0.67235000  1.0
  H  H19  1  0.87188000  0.81823000  0.32765000  1.0
  H  H20  1  0.99477000  0.28207000  0.72640000  1.0
  H  H21  1  0.00523000  0.71793000  0.27359000  1.0
  H  H22  1  0.57540000  0.23420000  0.65322000  1.0
  H  H23  1  0.42459000  0.76580000  0.34677000  1.0
  H  H24  1  0.74274000  0.83014000  0.66584000  1.0
  H  H25  1  0.25726000  0.16986000  0.33416000  1.0
  H  H26  1  0.80990000  0.95893000  0.44691000  1.0
  H  H27  1  0.19010000  0.04107000  0.55309000  1.0
  H  H28  1  0.60429000  0.27486000  0.41671000  1.0
  H  H29  1  0.39572000  0.72515000  0.58329000  1.0
  H  H30  1  0.71518000  0.16504000  0.33945000  1.0
  H  H31  1  0.28482000  0.83496000  0.66055000  1.0
  C  C32  1  0.23027000  0.08845000  0.89590000  1.0
  C  C33  1  0.76973000  0.91155000  0.10410000  1.0
  C  C34  1  0.09033000  0.15913000  0.86441000  1.0
  C  C35  1  0.90967000  0.84087000  0.13559000  1.0
  C  C36  1  0.06506000  0.26178000  0.97894000  1.0
  C  C37  1  0.93494000  0.73822000  0.02106000  1.0
  C  C38  1  0.19790000  0.41787000  0.01478000  1.0
  C  C39  1  0.80209000  0.58213000  0.98522000  1.0
  C  C40  1  0.21467000  0.50955000  0.90268000  1.0
  C  C41  1  0.78533000  0.49045000  0.09732000  1.0
  C  C42  1  0.24418000  0.40777000  0.79001000  1.0
  C  C43  1  0.75583000  0.59223000  0.20999000  1.0
  C  C44  1  0.10850000  0.25390000  0.75409000  1.0
  C  C45  1  0.89150000  0.74610000  0.24591000  1.0
  C  C46  1  0.33412000  0.67445000  0.93563000  1.0
  C  C47  1  0.66588000  0.32555000  0.06437000  1.0
  C  C48  1  0.62978000  0.14098000  0.62863000  1.0
  C  C49  1  0.37022000  0.85902000  0.37137000  1.0
  C  C50  1  0.71836000  0.93296000  0.63074000  1.0
  C  C51  1  0.28164000  0.06703000  0.36926000  1.0
  C  C52  1  0.75414000  0.99524000  0.52381000  1.0
  C  C53  1  0.24586000  0.00476000  0.47619000  1.0
  C  C54  1  0.71111000  0.23273000  0.42881000  1.0
  C  C55  1  0.28889000  0.76726000  0.57119000  1.0
  C  C56  1  0.85934000  0.37031000  0.46533000  1.0
  C  C57  1  0.14066000  0.62969000  0.53467000  1.0
  C  C58  1  0.00067000  0.36755000  0.42105000  1.0
  C  C59  1  0.99933000  0.63245000  0.57895000  1.0
  C  C60  1  0.86207000  0.50560000  0.54511000  1.0
  C  C61  1  0.13793000  0.49439000  0.45489000  1.0
  N  N62  1  0.64068000  0.02488000  0.69473000  1.0
  N  N63  1  0.35931000  0.97512000  0.30527000  1.0
  N  N64  1  0.69639000  0.12616000  0.52363000  1.0
  N  N65  1  0.30360000  0.87384000  0.47637000  1.0
  O  O66  1  0.30552000  0.05782000  0.80774000  1.0
  O  O67  1  0.69448000  0.94218000  0.19227000  1.0
  O  O68  1  0.25909000  0.06243000  0.00857000  1.0
  O  O69  1  0.74091000  0.93758000  0.99143000  1.0
  O  O70  1  0.39388000  0.73651000  0.84545000  1.0
  O  O71  1  0.60612000  0.26349000  0.15455000  1.0
  O  O72  1  0.35937000  0.74042000  0.04930000  1.0
  O  O73  1  0.64063000  0.25958000  0.95070000  1.0
  F  F74  1  0.00542000  0.23888000  0.34383000  1.0
  F  F75  1  0.99458000  0.76112000  0.65617000  1.0
  F  F76  1  0.72719000  0.51532000  0.59008000  1.0
  F  F77  1  0.27281000  0.48467000  0.40992000  1.0
