# generated using pymatgen
data_Ag5H2C8N5O9
_symmetry_space_group_name_H-M   'P 1'
_cell_length_a   8.59110000
_cell_length_b   8.76774000
_cell_length_c   10.05760000
_cell_angle_alpha   79.12440000
_cell_angle_beta   78.50820000
_cell_angle_gamma   79.09400000
_symmetry_Int_Tables_number   1
_chemical_formula_structural   Ag5H2C8N5O9
_chemical_formula_sum   'Ag10 H4 C16 N10 O18'
_cell_volume   719.95877403
_cell_formula_units_Z   2
loop_
 _symmetry_equiv_pos_site_id
 _symmetry_equiv_pos_as_xyz
  1  'x, y, z'
loop_
 _atom_site_type_symbol
 _atom_site_label
 _atom_site_symmetry_multiplicity
 _atom_site_fract_x
 _atom_site_fract_y
 _atom_site_fract_z
 _atom_site_occupancy
  Ag  Ag0  1  0.50219000  0.84298000  0.08518000  1.0
  Ag  Ag1  1  0.49781000  0.15704000  0.91481000  1.0
  Ag  Ag2  1  0.39638000  0.52829000  0.13431000  1.0
  Ag  Ag3  1  0.60362000  0.47171000  0.86568000  1.0
  Ag  Ag4  1  0.49149000  0.59939000  0.36451000  1.0
  Ag  Ag5  1  0.50852000  0.40059000  0.63548000  1.0
  Ag  Ag6  1  0.11657000  0.37877000  0.31738000  1.0
  Ag  Ag7  1  0.88343000  0.62124000  0.68262000  1.0
  Ag  Ag8  1  0.11640000  0.77907000  0.06035000  1.0
  Ag  Ag9  1  0.88360000  0.22092000  0.93966000  1.0
  H  H10  1  0.22753000  0.01360000  0.44580000  1.0
  H  H11  1  0.77245000  0.98641000  0.55421000  1.0
  H  H12  1  0.24818000  0.80134000  0.64937000  1.0
  H  H13  1  0.75181000  0.19867000  0.35063000  1.0
  C  C14  1  0.33342000  0.17030000  0.53329000  1.0
  C  C15  1  0.66658000  0.82971000  0.46671000  1.0
  C  C16  1  0.27691000  0.02976000  0.53298000  1.0
  C  C17  1  0.72308000  0.97025000  0.46701000  1.0
  C  C18  1  0.28960000  0.91253000  0.64419000  1.0
  C  C19  1  0.71039000  0.08748000  0.35581000  1.0
  C  C20  1  0.35545000  0.94060000  0.75365000  1.0
  C  C21  1  0.64455000  0.05941000  0.24635000  1.0
  C  C22  1  0.32659000  0.30032000  0.42527000  1.0
  C  C23  1  0.67341000  0.69967000  0.57472000  1.0
  C  C24  1  0.37070000  0.41871000  0.34355000  1.0
  C  C25  1  0.62929000  0.58129000  0.65645000  1.0
  C  C26  1  0.36480000  0.82703000  0.87303000  1.0
  C  C27  1  0.63520000  0.17297000  0.12697000  1.0
  C  C28  1  0.38063000  0.71488000  0.96981000  1.0
  C  C29  1  0.61937000  0.28514000  0.03019000  1.0
  N  N30  1  0.85043000  0.86163000  0.88403000  1.0
  N  N31  1  0.14957000  0.13837000  0.11597000  1.0
  N  N32  1  0.40302000  0.18813000  0.63821000  1.0
  N  N33  1  0.59698000  0.81187000  0.36178000  1.0
  N  N34  1  0.41186000  0.07689000  0.74718000  1.0
  N  N35  1  0.58815000  0.92312000  0.25282000  1.0
  N  N36  1  0.90770000  0.21223000  0.62562000  1.0
  N  N37  1  0.09230000  0.78777000  0.37439000  1.0
  N  N38  1  0.84105000  0.52937000  0.17717000  1.0
  N  N39  1  0.15896000  0.47063000  0.82282000  1.0
  O  O40  1  0.78804000  0.46455000  0.29711000  1.0
  O  O41  1  0.21197000  0.53544000  0.70289000  1.0
  O  O42  1  0.97292000  0.81413000  0.80134000  1.0
  O  O43  1  0.02708000  0.18586000  0.19866000  1.0
  O  O44  1  0.86705000  0.90795000  0.99322000  1.0
  O  O45  1  0.13295000  0.09205000  0.00679000  1.0
  O  O46  1  0.00053000  0.25458000  0.69124000  1.0
  O  O47  1  0.99946000  0.74542000  0.30877000  1.0
  O  O48  1  0.93969000  0.22384000  0.49593000  1.0
  O  O49  1  0.06032000  0.77616000  0.50407000  1.0
  O  O50  1  0.78219000  0.15837000  0.68996000  1.0
  O  O51  1  0.21781000  0.84163000  0.31004000  1.0
  O  O52  1  0.74981000  0.59513000  0.09287000  1.0
  O  O53  1  0.25019000  0.40487000  0.90712000  1.0
  O  O54  1  0.99383000  0.52662000  0.14161000  1.0
  O  O55  1  0.00617000  0.47338000  0.85838000  1.0
  O  O56  1  0.71074000  0.86418000  0.86056000  1.0
  O  O57  1  0.28926000  0.13582000  0.13944000  1.0
