# generated using pymatgen
data_ZnH8C6(NO2)2
_symmetry_space_group_name_H-M   'P 1'
_cell_length_a   9.72896000
_cell_length_b   9.76293000
_cell_length_c   16.16390000
_cell_angle_alpha   77.63680000
_cell_angle_beta   77.59290000
_cell_angle_gamma   64.50810000
_symmetry_Int_Tables_number   1
_chemical_formula_structural   ZnH8C6(NO2)2
_chemical_formula_sum   'Zn6 H48 C36 N12 O24'
_cell_volume   1340.52018949
_cell_formula_units_Z   6
loop_
 _symmetry_equiv_pos_site_id
 _symmetry_equiv_pos_as_xyz
  1  'x, y, z'
loop_
 _atom_site_type_symbol
 _atom_site_label
 _atom_site_symmetry_multiplicity
 _atom_site_fract_x
 _atom_site_fract_y
 _atom_site_fract_z
 _atom_site_occupancy
  Zn  Zn0  1  0.00000000  0.00000000  0.00000000  1.0
  Zn  Zn1  1  0.00000000  0.00000000  0.50000000  1.0
  Zn  Zn2  1  0.44068000  0.93109000  0.17912000  1.0
  Zn  Zn3  1  0.06943000  0.55845000  0.32063000  1.0
  Zn  Zn4  1  0.55932000  0.06891000  0.82088000  1.0
  Zn  Zn5  1  0.93057000  0.44156000  0.67937000  1.0
  H  H6  1  0.78333000  0.33235000  0.00242000  1.0
  H  H7  1  0.66753000  0.21621000  0.49773000  1.0
  H  H8  1  0.21668000  0.66764000  0.99758000  1.0
  H  H9  1  0.33247000  0.78379000  0.50227000  1.0
  H  H10  1  0.53269000  0.66310000  0.33514000  1.0
  H  H11  1  0.33723000  0.46615000  0.16480000  1.0
  H  H12  1  0.46731000  0.33690000  0.66487000  1.0
  H  H13  1  0.66277000  0.53385000  0.83520000  1.0
  H  H14  1  0.66757000  0.62854000  0.40557000  1.0
  H  H15  1  0.37174000  0.33191000  0.09425000  1.0
  H  H16  1  0.33243000  0.37146000  0.59443000  1.0
  H  H17  1  0.62826000  0.66810000  0.90575000  1.0
  H  H18  1  0.71178000  0.49896000  0.33376000  1.0
  H  H19  1  0.50199000  0.28776000  0.16588000  1.0
  H  H20  1  0.28822000  0.50104000  0.66623000  1.0
  H  H21  1  0.49801000  0.71225000  0.83412000  1.0
  H  H22  1  0.70600000  0.66650000  0.06133000  1.0
  H  H23  1  0.33243000  0.29452000  0.43850000  1.0
  H  H24  1  0.29400000  0.33350000  0.93867000  1.0
  H  H25  1  0.66757000  0.70548000  0.56150000  1.0
  H  H26  1  0.64458000  0.55895000  0.15346000  1.0
  H  H27  1  0.44110000  0.35492000  0.34636000  1.0
  H  H28  1  0.35543000  0.44105000  0.84654000  1.0
  H  H29  1  0.55890000  0.64508000  0.65364000  1.0
  H  H30  1  0.62230000  0.54145000  0.05025000  1.0
  H  H31  1  0.45863000  0.37710000  0.44959000  1.0
  H  H32  1  0.37770000  0.45855000  0.94975000  1.0
  H  H33  1  0.54137000  0.62290000  0.55041000  1.0
  H  H34  1  0.92573000  0.40819000  0.19486000  1.0
  H  H35  1  0.59160000  0.07442000  0.30509000  1.0
  H  H36  1  0.07427000  0.59182000  0.80514000  1.0
  H  H37  1  0.40840000  0.92558000  0.69491000  1.0
  H  H38  1  0.97329000  0.53773000  0.11023000  1.0
  H  H39  1  0.46136000  0.02736000  0.38974000  1.0
  H  H40  1  0.02671000  0.46227000  0.88977000  1.0
  H  H41  1  0.53864000  0.97264000  0.61026000  1.0
  H  H42  1  0.07205000  0.33393000  0.10848000  1.0
  H  H43  1  0.66584000  0.92883000  0.39150000  1.0
  H  H44  1  0.92795000  0.66607000  0.89152000  1.0
  H  H45  1  0.33416000  0.07117000  0.60850000  1.0
  H  H46  1  0.40830000  0.88995000  0.03197000  1.0
  H  H47  1  0.11006000  0.59205000  0.46774000  1.0
  H  H48  1  0.59170000  0.11004000  0.96803000  1.0
  H  H49  1  0.88994000  0.40795000  0.53226000  1.0
  H  H50  1  0.27748000  0.85758000  0.10307000  1.0
  H  H51  1  0.14198000  0.72249000  0.39661000  1.0
  H  H52  1  0.72252000  0.14242000  0.89693000  1.0
  H  H53  1  0.85802000  0.27750000  0.60339000  1.0
  C  C54  1  0.05601000  0.79195000  0.17613000  1.0
  C  C55  1  0.20675000  0.94544000  0.32380000  1.0
  C  C56  1  0.94399000  0.20805000  0.82387000  1.0
  C  C57  1  0.79325000  0.05456000  0.67619000  1.0
  C  C58  1  0.75791000  0.87865000  0.16633000  1.0
  C  C59  1  0.12090000  0.24233000  0.33381000  1.0
  C  C60  1  0.24209000  0.12135000  0.83367000  1.0
  C  C61  1  0.87910000  0.75767000  0.66619000  1.0
  C  C62  1  0.70279000  0.00232000  0.09545000  1.0
  C  C63  1  0.99716000  0.29737000  0.40493000  1.0
  C  C64  1  0.29721000  0.99768000  0.90455000  1.0
  C  C65  1  0.00283000  0.70263000  0.59507000  1.0
  C  C66  1  0.89671000  0.79947000  0.20008000  1.0
  C  C67  1  0.19981000  0.10401000  0.29996000  1.0
  C  C68  1  0.10329000  0.20053000  0.79992000  1.0
  C  C69  1  0.80019000  0.89599000  0.70004000  1.0
  C  C70  1  0.88077000  0.31947000  0.03238000  1.0
  C  C71  1  0.68007000  0.11919000  0.46780000  1.0
  C  C72  1  0.11923000  0.68053000  0.96762000  1.0
  C  C73  1  0.31993000  0.88081000  0.53220000  1.0
  C  C74  1  0.72711000  0.71204000  0.27553000  1.0
  C  C75  1  0.28804000  0.27252000  0.22436000  1.0
  C  C76  1  0.27289000  0.28796000  0.72447000  1.0
  C  C77  1  0.71196000  0.72748000  0.77564000  1.0
  C  C78  1  0.65482000  0.62132000  0.34101000  1.0
  C  C79  1  0.37914000  0.34448000  0.15882000  1.0
  C  C80  1  0.34518000  0.37868000  0.65899000  1.0
  C  C81  1  0.62086000  0.65552000  0.84118000  1.0
  C  C82  1  0.69740000  0.55614000  0.08620000  1.0
  C  C83  1  0.44348000  0.30250000  0.41364000  1.0
  C  C84  1  0.30260000  0.44386000  0.91380000  1.0
  C  C85  1  0.55652000  0.69750000  0.58636000  1.0
  C  C86  1  0.96200000  0.42755000  0.12566000  1.0
  C  C87  1  0.57199000  0.03849000  0.37430000  1.0
  C  C88  1  0.03800000  0.57245000  0.87434000  1.0
  C  C89  1  0.42801000  0.96151000  0.62570000  1.0
  N  N90  1  0.87413000  0.69577000  0.26850000  1.0
  N  N91  1  0.30386000  0.12620000  0.23137000  1.0
  N  N92  1  0.12587000  0.30423000  0.73150000  1.0
  N  N93  1  0.69615000  0.87380000  0.76863000  1.0
  N  N94  1  0.65406000  0.82110000  0.21421000  1.0
  N  N95  1  0.17894000  0.34552000  0.28584000  1.0
  N  N96  1  0.34594000  0.17891000  0.78579000  1.0
  N  N97  1  0.82106000  0.65448000  0.71416000  1.0
  N  N98  1  0.84874000  0.43078000  0.07854000  1.0
  N  N99  1  0.56877000  0.15143000  0.42140000  1.0
  N  N100  1  0.15126000  0.56922000  0.92146000  1.0
  N  N101  1  0.43123000  0.84857000  0.57860000  1.0
  O  O102  1  0.15718000  0.68565000  0.21833000  1.0
  O  O103  1  0.31291000  0.84463000  0.28128000  1.0
  O  O104  1  0.84282000  0.31435000  0.78167000  1.0
  O  O105  1  0.68709000  0.15537000  0.71872000  1.0
  O  O106  1  0.78058000  0.07901000  0.05661000  1.0
  O  O107  1  0.92054000  0.21975000  0.44407000  1.0
  O  O108  1  0.21942000  0.92099000  0.94339000  1.0
  O  O109  1  0.07946000  0.78025000  0.55593000  1.0
  O  O110  1  0.08975000  0.88576000  0.11569000  1.0
  O  O111  1  0.11286000  0.91159000  0.38433000  1.0
  O  O112  1  0.91025000  0.11423000  0.88431000  1.0
  O  O113  1  0.88714000  0.08842000  0.61567000  1.0
  O  O114  1  0.57032000  0.03180000  0.07655000  1.0
  O  O115  1  0.96781000  0.42950000  0.42370000  1.0
  O  O116  1  0.42968000  0.96819000  0.92345000  1.0
  O  O117  1  0.03218000  0.57051000  0.57630000  1.0
  O  O118  1  0.00872000  0.20840000  0.02311000  1.0
  O  O119  1  0.79103000  0.99136000  0.47727000  1.0
  O  O120  1  0.99129000  0.79160000  0.97689000  1.0
  O  O121  1  0.20896000  0.00864000  0.52273000  1.0
  O  O122  1  0.38640000  0.84924000  0.09313000  1.0
  O  O123  1  0.15058000  0.61404000  0.40649000  1.0
  O  O124  1  0.61360000  0.15076000  0.90687000  1.0
  O  O125  1  0.84942000  0.38596000  0.59351000  1.0
