# generated using pymatgen
data_CoH22C30N3O4
_symmetry_space_group_name_H-M   'P 1'
_cell_length_a   10.72820000
_cell_length_b   13.10240000
_cell_length_c   22.81910000
_cell_angle_alpha   97.97090000
_cell_angle_beta   100.32900000
_cell_angle_gamma   100.51700000
_symmetry_Int_Tables_number   1
_chemical_formula_structural   CoH22C30N3O4
_chemical_formula_sum   'Co4 H88 C120 N12 O16'
_cell_volume   3053.48134479
_cell_formula_units_Z   4
loop_
 _symmetry_equiv_pos_site_id
 _symmetry_equiv_pos_as_xyz
  1  'x, y, z'
loop_
 _atom_site_type_symbol
 _atom_site_label
 _atom_site_symmetry_multiplicity
 _atom_site_fract_x
 _atom_site_fract_y
 _atom_site_fract_z
 _atom_site_occupancy
  Co  Co0  1  0.12007000  0.58391000  0.23435000  1.0
  Co  Co1  1  0.87994000  0.41609000  0.76565000  1.0
  Co  Co2  1  0.37326000  0.37296000  0.26470000  1.0
  Co  Co3  1  0.62674000  0.62704000  0.73529000  1.0
  H  H4  1  0.08377000  0.13484000  0.21362000  1.0
  H  H5  1  0.91623000  0.86517000  0.78637000  1.0
  H  H6  1  0.41818000  0.82091000  0.27870000  1.0
  H  H7  1  0.58183000  0.17910000  0.72130000  1.0
  H  H8  1  0.66227000  0.60680000  0.32804000  1.0
  H  H9  1  0.33773000  0.39320000  0.67196000  1.0
  H  H10  1  0.83712000  0.35503000  0.18322000  1.0
  H  H11  1  0.16287000  0.64497000  0.81678000  1.0
  H  H12  1  0.45841000  0.04046000  0.27505000  1.0
  H  H13  1  0.54160000  0.95954000  0.72495000  1.0
  H  H14  1  0.04230000  0.91259000  0.21104000  1.0
  H  H15  1  0.95770000  0.08742000  0.78896000  1.0
  H  H16  1  0.18628000  0.97207000  0.45376000  1.0
  H  H17  1  0.81372000  0.02793000  0.54624000  1.0
  H  H18  1  0.93735000  0.18309000  0.35129000  1.0
  H  H19  1  0.06265000  0.81692000  0.64872000  1.0
  H  H20  1  0.61801000  0.49140000  0.23826000  1.0
  H  H21  1  0.38199000  0.50859000  0.76174000  1.0
  H  H22  1  0.86137000  0.75036000  0.34918000  1.0
  H  H23  1  0.13863000  0.24963000  0.65082000  1.0
  H  H24  1  0.63893000  0.21037000  0.15387000  1.0
  H  H25  1  0.36106000  0.78963000  0.84613000  1.0
  H  H26  1  0.56067000  0.77686000  0.14591000  1.0
  H  H27  1  0.43934000  0.22314000  0.85410000  1.0
  H  H28  1  0.78433000  0.30267000  0.33023000  1.0
  H  H29  1  0.21567000  0.69734000  0.66978000  1.0
  H  H30  1  0.71031000  0.65478000  0.16458000  1.0
  H  H31  1  0.28970000  0.34523000  0.83542000  1.0
  H  H32  1  0.78934000  0.00417000  0.43533000  1.0
  H  H33  1  0.21066000  0.99583000  0.56467000  1.0
  H  H34  1  0.03358000  0.04058000  0.35598000  1.0
  H  H35  1  0.96642000  0.95942000  0.64402000  1.0
  H  H36  1  0.01078000  0.90309000  0.35206000  1.0
  H  H37  1  0.98922000  0.09691000  0.64794000  1.0
  H  H38  1  0.73681000  0.49051000  0.15427000  1.0
  H  H39  1  0.26320000  0.50950000  0.84573000  1.0
  H  H40  1  0.48653000  0.05220000  0.15160000  1.0
  H  H41  1  0.51346000  0.94779000  0.84840000  1.0
  H  H42  1  0.46781000  0.91410000  0.13544000  1.0
  H  H43  1  0.53219000  0.08590000  0.86456000  1.0
  H  H44  1  0.28789000  0.29517000  0.12998000  1.0
  H  H45  1  0.71212000  0.70482000  0.87002000  1.0
  H  H46  1  0.28992000  0.18921000  0.32717000  1.0
  H  H47  1  0.71008000  0.81079000  0.67283000  1.0
  H  H48  1  0.98589000  0.55890000  0.89036000  1.0
  H  H49  1  0.01412000  0.44111000  0.10964000  1.0
  H  H50  1  0.63653000  0.91452000  0.93999000  1.0
  H  H51  1  0.36347000  0.08548000  0.06001000  1.0
  H  H52  1  0.29325000  0.50731000  0.36343000  1.0
  H  H53  1  0.70674000  0.49269000  0.63657000  1.0
  H  H54  1  0.20415000  0.15790000  0.42024000  1.0
  H  H55  1  0.79584000  0.84210000  0.57977000  1.0
  H  H56  1  0.78399000  0.25996000  0.65066000  1.0
  H  H57  1  0.21600000  0.74003000  0.34934000  1.0
  H  H58  1  0.92180000  0.58602000  0.99051000  1.0
  H  H59  1  0.07821000  0.41399000  0.00950000  1.0
  H  H60  1  0.08785000  0.51929000  0.70400000  1.0
  H  H61  1  0.91215000  0.48070000  0.29600000  1.0
  H  H62  1  0.39177000  0.28489000  0.03962000  1.0
  H  H63  1  0.60824000  0.71511000  0.96038000  1.0
  H  H64  1  0.13308000  0.22583000  0.50931000  1.0
  H  H65  1  0.86692000  0.77417000  0.49069000  1.0
  H  H66  1  0.22081000  0.35453000  0.54242000  1.0
  H  H67  1  0.77918000  0.64547000  0.45758000  1.0
  H  H68  1  0.65856000  0.90508000  0.04897000  1.0
  H  H69  1  0.34143000  0.09491000  0.95103000  1.0
  H  H70  1  0.14577000  0.49891000  0.60247000  1.0
  H  H71  1  0.85422000  0.50109000  0.39753000  1.0
  H  H72  1  0.82553000  0.22919000  0.54527000  1.0
  H  H73  1  0.17447000  0.77081000  0.45472000  1.0
  H  H74  1  0.20806000  0.49068000  0.45665000  1.0
  H  H75  1  0.79194000  0.50932000  0.54335000  1.0
  H  H76  1  0.77748000  0.52626000  0.05627000  1.0
  H  H77  1  0.22252000  0.47374000  0.94374000  1.0
  H  H78  1  0.62221000  0.52508000  0.01430000  1.0
  H  H79  1  0.37778000  0.47492000  0.98570000  1.0
  H  H80  1  0.93954000  0.29091000  0.47046000  1.0
  H  H81  1  0.06046000  0.70909000  0.52953000  1.0
  H  H82  1  0.02838000  0.42259000  0.48628000  1.0
  H  H83  1  0.97161000  0.57741000  0.51372000  1.0
  H  H84  1  0.66354000  0.31958000  0.81843000  1.0
  H  H85  1  0.33648000  0.68043000  0.18157000  1.0
  H  H86  1  0.72250000  0.33240000  0.04956000  1.0
  H  H87  1  0.27751000  0.66761000  0.95044000  1.0
  H  H88  1  0.57444000  0.32136000  0.99881000  1.0
  H  H89  1  0.42557000  0.67864000  0.00119000  1.0
  H  H90  1  0.58250000  0.33932000  0.91361000  1.0
  H  H91  1  0.41751000  0.66068000  0.08639000  1.0
  C  C92  1  0.87644000  0.06743000  0.18716000  1.0
  C  C93  1  0.12356000  0.93257000  0.81284000  1.0
  C  C94  1  0.62494000  0.88902000  0.30562000  1.0
  C  C95  1  0.37507000  0.11098000  0.69438000  1.0
  C  C96  1  0.98622000  0.14910000  0.20131000  1.0
  C  C97  1  0.01378000  0.85091000  0.79869000  1.0
  C  C98  1  0.51543000  0.80740000  0.29333000  1.0
  C  C99  1  0.48457000  0.19260000  0.70666000  1.0
  C  C100  1  0.96990000  0.25233000  0.19979000  1.0
  C  C101  1  0.03010000  0.74767000  0.80020000  1.0
  C  C102  1  0.75154000  0.09058000  0.17002000  1.0
  C  C103  1  0.24845000  0.90942000  0.82998000  1.0
  C  C104  1  0.78073000  0.04305000  0.32625000  1.0
  C  C105  1  0.21927000  0.95695000  0.67375000  1.0
  C  C106  1  0.64499000  0.00134000  0.30578000  1.0
  C  C107  1  0.35501000  0.99866000  0.69423000  1.0
  C  C108  1  0.53067000  0.70595000  0.30137000  1.0
  C  C109  1  0.46933000  0.29405000  0.69863000  1.0
  C  C110  1  0.74953000  0.86726000  0.32544000  1.0
  C  C111  1  0.25047000  0.13274000  0.67456000  1.0
  C  C112  1  0.85572000  0.95453000  0.18479000  1.0
  C  C113  1  0.14428000  0.04547000  0.81521000  1.0
  C  C114  1  0.52657000  0.25110000  0.28775000  1.0
  C  C115  1  0.47343000  0.74890000  0.71225000  1.0
  C  C116  1  0.71915000  0.91440000  0.16622000  1.0
  C  C117  1  0.28085000  0.08560000  0.83379000  1.0
  C  C118  1  0.65522000  0.68650000  0.32140000  1.0
  C  C119  1  0.34477000  0.31350000  0.67859000  1.0
  C  C120  1  0.84506000  0.27337000  0.18321000  1.0
  C  C121  1  0.15493000  0.72663000  0.81678000  1.0
  C  C122  1  0.08431000  0.34159000  0.21630000  1.0
  C  C123  1  0.91568000  0.65841000  0.78369000  1.0
  C  C124  1  0.56244000  0.06942000  0.29209000  1.0
  C  C125  1  0.43757000  0.93058000  0.70791000  1.0
  C  C126  1  0.93757000  0.88509000  0.19621000  1.0
  C  C127  1  0.06243000  0.11491000  0.80379000  1.0
  C  C128  1  0.61416000  0.17780000  0.30125000  1.0
  C  C129  1  0.38584000  0.82221000  0.69875000  1.0
  C  C130  1  0.10392000  0.98454000  0.47386000  1.0
  C  C131  1  0.89608000  0.01546000  0.52614000  1.0
  C  C132  1  0.83355000  0.15132000  0.33552000  1.0
  C  C133  1  0.16646000  0.84868000  0.66448000  1.0
  C  C134  1  0.57146000  0.44689000  0.19332000  1.0
  C  C135  1  0.42855000  0.55310000  0.80668000  1.0
  C  C136  1  0.76595000  0.76633000  0.33352000  1.0
  C  C137  1  0.23405000  0.23367000  0.66647000  1.0
  C  C138  1  0.88429000  0.77699000  0.18816000  1.0
  C  C139  1  0.11572000  0.22301000  0.81184000  1.0
  C  C140  1  0.41455000  0.61827000  0.28963000  1.0
  C  C141  1  0.58545000  0.38173000  0.71036000  1.0
  C  C142  1  0.73455000  0.19316000  0.16715000  1.0
  C  C143  1  0.26544000  0.80684000  0.83284000  1.0
  C  C144  1  0.66513000  0.80670000  0.15861000  1.0
  C  C145  1  0.33487000  0.19330000  0.84139000  1.0
  C  C146  1  0.51142000  0.99383000  0.06189000  1.0
  C  C147  1  0.48858000  0.00616000  0.93811000  1.0
  C  C148  1  0.97111000  0.70301000  0.20113000  1.0
  C  C149  1  0.02889000  0.29699000  0.79887000  1.0
  C  C150  1  0.74837000  0.21770000  0.32352000  1.0
  C  C151  1  0.25164000  0.78231000  0.67649000  1.0
  C  C152  1  0.98622000  0.98666000  0.43645000  1.0
  C  C153  1  0.01378000  0.01334000  0.56355000  1.0
  C  C154  1  0.74892000  0.73895000  0.16942000  1.0
  C  C155  1  0.25108000  0.26105000  0.83059000  1.0
  C  C156  1  0.88218000  0.00226000  0.46341000  1.0
  C  C157  1  0.11782000  0.99773000  0.53659000  1.0
  C  C158  1  0.97386000  0.97249000  0.36832000  1.0
  C  C159  1  0.02614000  0.02751000  0.63168000  1.0
  C  C160  1  0.63700000  0.44546000  0.14599000  1.0
  C  C161  1  0.36300000  0.55454000  0.85401000  1.0
  C  C162  1  0.52456000  0.98876000  0.12867000  1.0
  C  C163  1  0.47543000  0.01124000  0.87133000  1.0
  C  C164  1  0.38701000  0.33697000  0.13269000  1.0
  C  C165  1  0.61300000  0.66302000  0.86731000  1.0
  C  C166  1  0.26986000  0.25345000  0.35745000  1.0
  C  C167  1  0.73014000  0.74655000  0.64255000  1.0
  C  C168  1  0.89718000  0.51147000  0.89774000  1.0
  C  C169  1  0.10282000  0.48854000  0.10226000  1.0
  C  C170  1  0.57688000  0.95262000  0.96639000  1.0
  C  C171  1  0.42311000  0.04737000  0.03361000  1.0
  C  C172  1  0.27207000  0.43123000  0.37768000  1.0
  C  C173  1  0.72793000  0.56877000  0.62232000  1.0
  C  C174  1  0.22151000  0.23673000  0.40886000  1.0
  C  C175  1  0.77849000  0.76327000  0.59115000  1.0
  C  C176  1  0.19771000  0.32149000  0.44658000  1.0
  C  C177  1  0.80229000  0.67851000  0.55342000  1.0
  C  C178  1  0.86293000  0.31059000  0.63749000  1.0
  C  C179  1  0.13706000  0.68940000  0.36251000  1.0
  C  C180  1  0.57453000  0.38472000  0.08933000  1.0
  C  C181  1  0.42547000  0.61528000  0.91067000  1.0
  C  C182  1  0.86048000  0.52636000  0.95336000  1.0
  C  C183  1  0.13952000  0.47365000  0.04664000  1.0
  C  C184  1  0.03316000  0.45555000  0.66750000  1.0
  C  C185  1  0.96683000  0.54444000  0.33250000  1.0
  C  C186  1  0.44573000  0.33185000  0.08305000  1.0
  C  C187  1  0.55428000  0.66814000  0.91695000  1.0
  C  C188  1  0.14724000  0.30855000  0.50306000  1.0
  C  C189  1  0.85276000  0.69146000  0.49694000  1.0
  C  C190  1  0.58841000  0.94658000  0.02759000  1.0
  C  C191  1  0.41158000  0.05342000  0.97241000  1.0
  C  C192  1  0.98878000  0.36200000  0.56457000  1.0
  C  C193  1  0.01122000  0.63800000  0.43542000  1.0
  C  C194  1  0.06366000  0.44388000  0.61058000  1.0
  C  C195  1  0.93634000  0.55611000  0.38942000  1.0
  C  C196  1  0.74543000  0.46472000  0.96123000  1.0
  C  C197  1  0.25458000  0.53529000  0.03877000  1.0
  C  C198  1  0.88669000  0.29429000  0.57929000  1.0
  C  C199  1  0.11331000  0.70570000  0.42071000  1.0
  C  C200  1  0.22398000  0.42069000  0.42955000  1.0
  C  C201  1  0.77602000  0.57931000  0.57045000  1.0
  C  C202  1  0.69861000  0.47888000  0.01968000  1.0
  C  C203  1  0.30139000  0.52112000  0.98032000  1.0
  C  C204  1  0.01941000  0.34699000  0.50269000  1.0
  C  C205  1  0.98059000  0.65300000  0.49731000  1.0
  C  C206  1  0.71732000  0.37836000  0.85758000  1.0
  C  C207  1  0.28269000  0.62165000  0.14242000  1.0
  C  C208  1  0.64298000  0.37346000  0.03758000  1.0
  C  C209  1  0.35703000  0.62653000  0.96242000  1.0
  C  C210  1  0.67355000  0.38962000  0.91121000  1.0
  C  C211  1  0.32645000  0.61038000  0.08879000  1.0
  N  N212  1  0.65839000  0.99766000  0.15827000  1.0
  N  N213  1  0.34161000  0.00234000  0.84173000  1.0
  N  N214  1  0.84215000  0.96036000  0.33599000  1.0
  N  N215  1  0.15786000  0.03964000  0.66402000  1.0
  N  N216  1  0.44925000  0.39234000  0.18755000  1.0
  N  N217  1  0.55075000  0.60765000  0.81245000  1.0
  N  N218  1  0.29603000  0.34935000  0.34192000  1.0
  N  N219  1  0.70397000  0.65064000  0.65808000  1.0
  N  N220  1  0.82726000  0.43867000  0.85012000  1.0
  N  N221  1  0.17274000  0.56134000  0.14989000  1.0
  N  N222  1  0.93378000  0.39057000  0.68097000  1.0
  N  N223  1  0.06621000  0.60942000  0.31903000  1.0
  O  O224  1  0.19554000  0.32203000  0.21359000  1.0
  O  O225  1  0.80445000  0.67797000  0.78640000  1.0
  O  O226  1  0.30382000  0.64155000  0.27523000  1.0
  O  O227  1  0.69618000  0.35846000  0.72476000  1.0
  O  O228  1  0.43225000  0.52687000  0.29628000  1.0
  O  O229  1  0.56775000  0.47313000  0.70371000  1.0
  O  O230  1  0.56201000  0.34899000  0.31097000  1.0
  O  O231  1  0.43799000  0.65101000  0.68903000  1.0
  O  O232  1  0.41431000  0.21503000  0.25295000  1.0
  O  O233  1  0.58569000  0.78497000  0.74705000  1.0
  O  O234  1  0.92695000  0.60287000  0.18880000  1.0
  O  O235  1  0.07306000  0.39713000  0.81120000  1.0
  O  O236  1  0.06351000  0.43304000  0.23258000  1.0
  O  O237  1  0.93648000  0.56696000  0.76741000  1.0
  O  O238  1  0.09074000  0.73973000  0.22616000  1.0
  O  O239  1  0.90926000  0.26027000  0.77385000  1.0
