# generated using pymatgen
data_Zn3H32C19N2O17
_symmetry_space_group_name_H-M   'P 1'
_cell_length_a   9.05861000
_cell_length_b   12.04190000
_cell_length_c   13.80710000
_cell_angle_alpha   90.56420000
_cell_angle_beta   100.97100000
_cell_angle_gamma   102.91100000
_symmetry_Int_Tables_number   1
_chemical_formula_structural   Zn3H32C19N2O17
_chemical_formula_sum   'Zn6 H64 C38 N4 O34'
_cell_volume   1439.05054388
_cell_formula_units_Z   2
loop_
 _symmetry_equiv_pos_site_id
 _symmetry_equiv_pos_as_xyz
  1  'x, y, z'
loop_
 _atom_site_type_symbol
 _atom_site_label
 _atom_site_symmetry_multiplicity
 _atom_site_fract_x
 _atom_site_fract_y
 _atom_site_fract_z
 _atom_site_occupancy
  Zn  Zn0  1  0.62016000  0.20210000  0.36910000  1.0
  Zn  Zn1  1  0.37985000  0.79789000  0.63091000  1.0
  Zn  Zn2  1  0.74025000  0.23773000  0.63724000  1.0
  Zn  Zn3  1  0.25975000  0.76226000  0.36277000  1.0
  Zn  Zn4  1  0.49999000  0.00001000  0.00000000  1.0
  Zn  Zn5  1  0.00000000  0.49999000  0.00000000  1.0
  H  H6  1  0.90685000  0.63908000  0.38802000  1.0
  H  H7  1  0.09315000  0.36092000  0.61197000  1.0
  H  H8  1  0.66321000  0.63796000  0.62687000  1.0
  H  H9  1  0.33679000  0.36203000  0.37313000  1.0
  H  H10  1  0.75864000  0.81643000  0.55518000  1.0
  H  H11  1  0.24137000  0.18356000  0.44482000  1.0
  H  H12  1  0.83933000  0.81764000  0.44624000  1.0
  H  H13  1  0.16067000  0.18235000  0.55376000  1.0
  H  H14  1  0.95506000  0.81299000  0.56258000  1.0
  H  H15  1  0.04494000  0.18701000  0.43741000  1.0
  H  H16  1  0.94722000  0.47251000  0.32494000  1.0
  H  H17  1  0.05278000  0.52749000  0.67505000  1.0
  H  H18  1  0.94676000  0.35860000  0.40552000  1.0
  H  H19  1  0.05323000  0.64140000  0.59448000  1.0
  H  H20  1  0.69259000  0.41586000  0.16024000  1.0
  H  H21  1  0.30744000  0.58415000  0.83977000  1.0
  H  H22  1  0.64234000  0.46512000  0.26802000  1.0
  H  H23  1  0.35768000  0.53490000  0.73199000  1.0
  H  H24  1  0.91521000  0.23152000  0.28148000  1.0
  H  H25  1  0.08478000  0.76847000  0.71852000  1.0
  H  H26  1  0.88373000  0.31869000  0.17920000  1.0
  H  H27  1  0.11628000  0.68131000  0.82080000  1.0
  H  H28  1  0.49414000  0.46382000  0.65492000  1.0
  H  H29  1  0.50585000  0.53618000  0.34507000  1.0
  H  H30  1  0.46973000  0.34333000  0.57425000  1.0
  H  H31  1  0.53026000  0.65667000  0.42575000  1.0
  H  H32  1  0.40275000  0.30288000  0.75096000  1.0
  H  H33  1  0.59724000  0.69710000  0.24904000  1.0
  H  H34  1  0.54299000  0.23233000  0.81459000  1.0
  H  H35  1  0.45699000  0.76767000  0.18541000  1.0
  H  H36  1  0.70410000  0.39520000  0.85733000  1.0
  H  H37  1  0.29588000  0.60481000  0.14266000  1.0
  H  H38  1  0.72698000  0.50642000  0.77502000  1.0
  H  H39  1  0.27303000  0.49358000  0.22495000  1.0
  H  H40  1  0.90322000  0.92280000  0.78842000  1.0
  H  H41  1  0.09677000  0.07720000  0.21158000  1.0
  H  H42  1  0.07379000  0.02200000  0.76868000  1.0
  H  H43  1  0.92621000  0.97799000  0.23130000  1.0
  H  H44  1  0.95246000  0.93459000  0.66814000  1.0
  H  H45  1  0.04753000  0.06539000  0.33186000  1.0
  H  H46  1  0.75748000  0.02427000  0.38587000  1.0
  H  H47  1  0.24252000  0.97572000  0.61413000  1.0
  H  H48  1  0.81734000  0.09329000  0.49258000  1.0
  H  H49  1  0.18268000  0.90670000  0.50742000  1.0
  H  H50  1  0.45612000  0.09837000  0.48763000  1.0
  H  H51  1  0.54390000  0.90163000  0.51239000  1.0
  H  H52  1  0.45757000  0.00930000  0.40137000  1.0
  H  H53  1  0.54245000  0.99071000  0.59865000  1.0
  H  H54  1  0.37784000  0.19604000  0.03427000  1.0
  H  H55  1  0.62215000  0.80396000  0.96573000  1.0
  H  H56  1  0.25932000  0.10668000  0.95586000  1.0
  H  H57  1  0.74066000  0.89333000  0.04413000  1.0
  H  H58  1  0.48899000  0.00490000  0.17371000  1.0
  H  H59  1  0.51099000  0.99511000  0.82629000  1.0
  H  H60  1  0.31534000  0.93114000  0.13878000  1.0
  H  H61  1  0.68463000  0.06886000  0.86122000  1.0
  H  H62  1  0.27309000  0.38715000  0.05593000  1.0
  H  H63  1  0.72690000  0.61285000  0.94408000  1.0
  H  H64  1  0.19021000  0.39815000  0.94434000  1.0
  H  H65  1  0.80979000  0.60186000  0.05567000  1.0
  H  H66  1  0.21053000  0.74136000  0.97326000  1.0
  H  H67  1  0.78946000  0.25865000  0.02673000  1.0
  H  H68  1  0.27364000  0.63051000  0.98605000  1.0
  H  H69  1  0.72636000  0.36950000  0.01395000  1.0
  C  C70  1  0.80980000  0.47353000  0.43424000  1.0
  C  C71  1  0.19020000  0.52646000  0.56576000  1.0
  C  C72  1  0.84111000  0.59291000  0.43960000  1.0
  C  C73  1  0.15889000  0.40709000  0.56040000  1.0
  C  C74  1  0.79452000  0.65390000  0.51068000  1.0
  C  C75  1  0.20549000  0.34609000  0.48933000  1.0
  C  C76  1  0.70720000  0.59197000  0.57414000  1.0
  C  C77  1  0.29282000  0.40803000  0.42586000  1.0
  C  C78  1  0.66887000  0.47278000  0.56839000  1.0
  C  C79  1  0.33114000  0.52721000  0.43162000  1.0
  C  C80  1  0.72536000  0.41274000  0.50061000  1.0
  C  C81  1  0.27466000  0.58726000  0.49940000  1.0
  C  C82  1  0.83760000  0.78184000  0.51882000  1.0
  C  C83  1  0.16240000  0.21816000  0.48118000  1.0
  C  C84  1  0.87424000  0.41085000  0.36398000  1.0
  C  C85  1  0.12576000  0.58915000  0.63601000  1.0
  C  C86  1  0.64810000  0.38790000  0.22685000  1.0
  C  C87  1  0.35192000  0.61211000  0.77316000  1.0
  C  C88  1  0.48160000  0.31529000  0.20069000  1.0
  C  C89  1  0.51842000  0.68473000  0.79932000  1.0
  C  C90  1  0.82702000  0.26450000  0.23135000  1.0
  C  C91  1  0.17299000  0.73550000  0.76865000  1.0
  C  C92  1  0.70746000  0.16091000  0.17857000  1.0
  C  C93  1  0.29254000  0.83910000  0.82142000  1.0
  C  C94  1  0.55617000  0.40651000  0.62522000  1.0
  C  C95  1  0.44383000  0.59349000  0.37477000  1.0
  C  C96  1  0.49750000  0.26222000  0.74239000  1.0
  C  C97  1  0.50249000  0.73778000  0.25761000  1.0
  C  C98  1  0.42899000  0.15394000  0.67534000  1.0
  C  C99  1  0.57103000  0.84606000  0.32467000  1.0
  C  C100  1  0.73219000  0.41670000  0.78530000  1.0
  C  C101  1  0.26779000  0.58330000  0.21469000  1.0
  C  C102  1  0.89924000  0.41011000  0.78929000  1.0
  C  C103  1  0.10074000  0.58988000  0.21072000  1.0
  C  C104  1  0.86542000  0.07360000  0.71574000  1.0
  C  C105  1  0.13461000  0.92640000  0.28425000  1.0
  C  C106  1  0.95274000  0.98124000  0.73647000  1.0
  C  C107  1  0.04726000  0.01875000  0.26353000  1.0
  N  N108  1  0.75380000  0.33013000  0.29148000  1.0
  N  N109  1  0.24621000  0.66987000  0.70852000  1.0
  N  N110  1  0.62263000  0.34121000  0.70680000  1.0
  N  N111  1  0.37736000  0.65879000  0.29320000  1.0
  O  O112  1  0.69764000  0.29756000  0.50028000  1.0
  O  O113  1  0.30237000  0.70243000  0.49973000  1.0
  O  O114  1  0.43009000  0.25999000  0.26898000  1.0
  O  O115  1  0.56991000  0.74003000  0.73103000  1.0
  O  O116  1  0.40670000  0.31892000  0.11259000  1.0
  O  O117  1  0.59331000  0.68109000  0.88741000  1.0
  O  O118  1  0.61432000  0.10801000  0.22984000  1.0
  O  O119  1  0.38568000  0.89199000  0.77017000  1.0
  O  O120  1  0.70579000  0.13288000  0.08893000  1.0
  O  O121  1  0.29419000  0.86713000  0.91107000  1.0
  O  O122  1  0.51414000  0.12604000  0.61740000  1.0
  O  O123  1  0.48587000  0.87395000  0.38261000  1.0
  O  O124  1  0.29859000  0.09719000  0.68202000  1.0
  O  O125  1  0.70142000  0.90281000  0.31801000  1.0
  O  O126  1  0.93271000  0.35301000  0.72339000  1.0
  O  O127  1  0.06727000  0.64698000  0.27661000  1.0
  O  O128  1  0.00303000  0.46834000  0.85915000  1.0
  O  O129  1  0.99695000  0.53166000  0.14085000  1.0
  O  O130  1  0.78663000  0.10211000  0.42108000  1.0
  O  O131  1  0.21338000  0.89788000  0.57891000  1.0
  O  O132  1  0.44572000  0.08784000  0.41508000  1.0
  O  O133  1  0.55429000  0.91216000  0.58493000  1.0
  O  O134  1  0.85379000  0.11434000  0.62846000  1.0
  O  O135  1  0.14625000  0.88566000  0.37153000  1.0
  O  O136  1  0.80906000  0.11310000  0.78171000  1.0
  O  O137  1  0.19091000  0.88689000  0.21826000  1.0
  O  O138  1  0.36904000  0.13648000  0.98124000  1.0
  O  O139  1  0.63095000  0.86352000  0.01875000  1.0
  O  O140  1  0.42005000  0.94618000  0.12207000  1.0
  O  O141  1  0.57993000  0.05382000  0.87793000  1.0
  O  O142  1  0.20753000  0.43065000  0.01165000  1.0
  O  O143  1  0.79247000  0.56936000  0.98836000  1.0
  O  O144  1  0.19075000  0.66396000  0.99989000  1.0
  O  O145  1  0.80924000  0.33604000  0.00011000  1.0
