# generated using pymatgen
data_KBHC4N3O2
_symmetry_space_group_name_H-M   'P 1'
_cell_length_a   6.24256000
_cell_length_b   7.11048000
_cell_length_c   9.27586483
_cell_angle_alpha   110.74798085
_cell_angle_beta   107.61987947
_cell_angle_gamma   94.98620000
_symmetry_Int_Tables_number   1
_chemical_formula_structural   KBHC4N3O2
_chemical_formula_sum   'K2 B2 H2 C8 N6 O4'
_cell_volume   358.15561119
_cell_formula_units_Z   2
loop_
 _symmetry_equiv_pos_site_id
 _symmetry_equiv_pos_as_xyz
  1  'x, y, z'
loop_
 _atom_site_type_symbol
 _atom_site_label
 _atom_site_symmetry_multiplicity
 _atom_site_fract_x
 _atom_site_fract_y
 _atom_site_fract_z
 _atom_site_occupancy
  K  K0  1  0.34326000  0.38441000  0.82477000  1.0
  K  K1  1  0.01841000  0.55955000  0.17525000  1.0
  B  B2  1  0.61167000  0.10420000  0.27891000  1.0
  B  B3  1  0.83273000  0.82536000  0.72118000  1.0
  H  H4  1  0.16185000  0.37517000  0.42890000  1.0
  H  H5  1  0.23278000  0.94623000  0.57091000  1.0
  C  C6  1  0.64158000  0.90619000  0.14674000  1.0
  C  C7  1  0.99473000  0.75926000  0.85308000  1.0
  C  C8  1  0.47805000  0.23471000  0.19028000  1.0
  C  C9  1  0.78775000  0.04450000  0.81015000  1.0
  C  C10  1  0.46793000  0.03216000  0.37146000  1.0
  C  C11  1  0.59650000  0.66081000  0.62862000  1.0
  C  C12  1  0.86866000  0.23898000  0.41223000  1.0
  C  C13  1  0.95621000  0.82701000  0.58770000  1.0
  N  N14  1  0.66602000  0.75664000  0.05361000  1.0
  N  N15  1  0.11226000  0.70274000  0.94608000  1.0
  N  N16  1  0.37876000  0.33071000  0.12474000  1.0
  N  N17  1  0.75388000  0.20607000  0.87569000  1.0
  N  N18  1  0.36302000  0.97662000  0.43890000  1.0
  N  N19  1  0.42427000  0.53774000  0.56100000  1.0
  O  O20  1  0.00729667  0.29366000  0.34063000  1.0
  O  O21  1  0.16656000  0.95291000  0.65929000  1.0
  O  O22  1  0.93362000  0.28290000  0.56147000  1.0
  O  O23  1  0.87170000  0.72205000  0.43841000  1.0
