# generated using pymatgen
data_NiH34C28(NO2)4
_symmetry_space_group_name_H-M   'P 1'
_cell_length_a   8.03948000
_cell_length_b   8.60749000
_cell_length_c   10.19290000
_cell_angle_alpha   95.99940000
_cell_angle_beta   97.32280000
_cell_angle_gamma   100.19300000
_symmetry_Int_Tables_number   1
_chemical_formula_structural   NiH34C28(NO2)4
_chemical_formula_sum   'Ni1 H34 C28 N4 O8'
_cell_volume   682.69290406
_cell_formula_units_Z   1
loop_
 _symmetry_equiv_pos_site_id
 _symmetry_equiv_pos_as_xyz
  1  'x, y, z'
loop_
 _atom_site_type_symbol
 _atom_site_label
 _atom_site_symmetry_multiplicity
 _atom_site_fract_x
 _atom_site_fract_y
 _atom_site_fract_z
 _atom_site_occupancy
  Ni  Ni0  1  0.99994000  0.00050000  0.00000000  1.0
  H  H1  1  0.45459000  0.96989000  0.02101000  1.0
  H  H2  1  0.68318000  0.02884000  0.91855000  1.0
  H  H3  1  0.27719000  0.89045000  0.94201000  1.0
  H  H4  1  0.71384000  0.09926000  0.07125000  1.0
  H  H5  1  0.37496000  0.70298000  0.06034000  1.0
  H  H6  1  0.61924000  0.30028000  0.94504000  1.0
  H  H7  1  0.26456000  0.27385000  0.11922000  1.0
  H  H8  1  0.73343000  0.72387000  0.88128000  1.0
  H  H9  1  0.88670000  0.16549000  0.78598000  1.0
  H  H10  1  0.11964000  0.83643000  0.20852000  1.0
  H  H11  1  0.96540000  0.43691000  0.71978000  1.0
  H  H12  1  0.03792000  0.56684000  0.28071000  1.0
  H  H13  1  0.20215000  0.63405000  0.86114000  1.0
  H  H14  1  0.79861000  0.36928000  0.14340000  1.0
  H  H15  1  0.58141000  0.82328000  0.20506000  1.0
  H  H16  1  0.41649000  0.17616000  0.79827000  1.0
  H  H17  1  0.69439000  0.71906000  0.31639000  1.0
  H  H18  1  0.30381000  0.28070000  0.68733000  1.0
  H  H19  1  0.33737000  0.78102000  0.35132000  1.0
  H  H20  1  0.65960000  0.21722000  0.64957000  1.0
  H  H21  1  0.48476000  0.72152000  0.46914000  1.0
  H  H22  1  0.51187000  0.27826000  0.53349000  1.0
  H  H23  1  0.68110000  0.99102000  0.47755000  1.0
  H  H24  1  0.31417000  0.01005000  0.52301000  1.0
  H  H25  1  0.52706000  0.04488000  0.36169000  1.0
  H  H26  1  0.46590000  0.95322000  0.63855000  1.0
  H  H27  1  0.99167000  0.09799000  0.45852000  1.0
  H  H28  1  0.00068000  0.90334000  0.54149000  1.0
  H  H29  1  0.18668000  0.18477000  0.40741000  1.0
  H  H30  1  0.80506000  0.81554000  0.59097000  1.0
  H  H31  1  0.74547000  0.28699000  0.41079000  1.0
  H  H32  1  0.24755000  0.71444000  0.58903000  1.0
  H  H33  1  0.70213000  0.55075000  0.50246000  1.0
  H  H34  1  0.29097000  0.45036000  0.49765000  1.0
  C  C35  1  0.24810000  0.47133000  0.00474000  1.0
  C  C36  1  0.75113000  0.52971000  0.99810000  1.0
  C  C37  1  0.20071000  0.31419000  0.03253000  1.0
  C  C38  1  0.79815000  0.68589000  0.96872000  1.0
  C  C39  1  0.98879000  0.25439000  0.84512000  1.0
  C  C40  1  0.01362000  0.74788000  0.15384000  1.0
  C  C41  1  0.03375000  0.40572000  0.80943000  1.0
  C  C42  1  0.96821000  0.59739000  0.19139000  1.0
  C  C43  1  0.16446000  0.51529000  0.88856000  1.0
  C  C44  1  0.83592000  0.48728000  0.11436000  1.0
  C  C45  1  0.46593000  0.57609000  0.20556000  1.0
  C  C46  1  0.53336000  0.42318000  0.79658000  1.0
  C  C47  1  0.56638000  0.73559000  0.27566000  1.0
  C  C48  1  0.43190000  0.26369000  0.72743000  1.0
  C  C49  1  0.47491000  0.79660000  0.38845000  1.0
  C  C50  1  0.52174000  0.20244000  0.61361000  1.0
  C  C51  1  0.54231000  0.97151000  0.44318000  1.0
  C  C52  1  0.45271000  0.02803000  0.55774000  1.0
  C  C53  1  0.96787000  0.12598000  0.25437000  1.0
  C  C54  1  0.02331000  0.87468000  0.74532000  1.0
  C  C55  1  0.04971000  0.18598000  0.39814000  1.0
  C  C56  1  0.94220000  0.81504000  0.60148000  1.0
  C  C57  1  0.02089000  0.34850000  0.44932000  1.0
  C  C58  1  0.97205000  0.65278000  0.55060000  1.0
  C  C59  1  0.85591000  0.37984000  0.45101000  1.0
  C  C60  1  0.13714000  0.62147000  0.54896000  1.0
  C  C61  1  0.83192000  0.52983000  0.50140000  1.0
  C  C62  1  0.16117000  0.47136000  0.49868000  1.0
  N  N63  1  0.07195000  0.20947000  0.95423000  1.0
  N  N64  1  0.92786000  0.79142000  0.04531000  1.0
  N  N65  1  0.37009000  0.58797000  0.08648000  1.0
  N  N66  1  0.62757000  0.41295000  0.91715000  1.0
  O  O67  1  0.46654000  0.44988000  0.25395000  1.0
  O  O68  1  0.53598000  0.54841000  0.74644000  1.0
  O  O69  1  0.07245000  0.07895000  0.17946000  1.0
  O  O70  1  0.91887000  0.92372000  0.82086000  1.0
  O  O71  1  0.81210000  0.12337000  0.21891000  1.0
  O  O72  1  0.17761000  0.87616000  0.78226000  1.0
  O  O73  1  0.34974000  0.89360000  0.02940000  1.0
  O  O74  1  0.63548000  0.09297000  0.98336000  1.0
