# generated using pymatgen
data_ZnH6C7(N2O)2
_symmetry_space_group_name_H-M   'P 1'
_cell_length_a   9.59355000
_cell_length_b   11.75475691
_cell_length_c   11.75714597
_cell_angle_alpha   80.42337739
_cell_angle_beta   65.93361911
_cell_angle_gamma   65.93096101
_symmetry_Int_Tables_number   1
_chemical_formula_structural   ZnH6C7(N2O)2
_chemical_formula_sum   'Zn4 H24 C28 N16 O8'
_cell_volume   1105.34408426
_cell_formula_units_Z   4
loop_
 _symmetry_equiv_pos_site_id
 _symmetry_equiv_pos_as_xyz
  1  'x, y, z'
loop_
 _atom_site_type_symbol
 _atom_site_label
 _atom_site_symmetry_multiplicity
 _atom_site_fract_x
 _atom_site_fract_y
 _atom_site_fract_z
 _atom_site_occupancy
  Zn  Zn0  1  0.78261000  0.52090000  0.83205000  1.0
  Zn  Zn1  1  0.69660000  0.16792000  0.52076000  1.0
  Zn  Zn2  1  0.13577000  0.47899000  0.16789000  1.0
  Zn  Zn3  1  0.38539000  0.83181000  0.47915000  1.0
  H  H4  1  0.43504000  0.57106000  0.05448000  1.0
  H  H5  1  0.99398000  0.94546000  0.57147000  1.0
  H  H6  1  0.06065000  0.42879000  0.94539000  1.0
  H  H7  1  0.51099000  0.05432000  0.42849000  1.0
  H  H8  1  0.40192000  0.17495000  0.75828000  1.0
  H  H9  1  0.42316000  0.24138000  0.17505000  1.0
  H  H10  1  0.33549000  0.82487000  0.24142000  1.0
  H  H11  1  0.83961000  0.75860000  0.82499000  1.0
  H  H12  1  0.74960000  0.34133000  0.63949000  1.0
  H  H13  1  0.90923000  0.36027000  0.34132000  1.0
  H  H14  1  0.73063000  0.65862000  0.36028000  1.0
  H  H15  1  0.61126000  0.63938000  0.65846000  1.0
  H  H16  1  0.21524000  0.31038000  0.47330000  1.0
  H  H17  1  0.47404000  0.52716000  0.31062000  1.0
  H  H18  1  0.99857000  0.68981000  0.52687000  1.0
  H  H19  1  0.31134000  0.47326000  0.68990000  1.0
  H  H20  1  0.20547000  0.19169000  0.58856000  1.0
  H  H21  1  0.60247000  0.41194000  0.19195000  1.0
  H  H22  1  0.98535000  0.80838000  0.41152000  1.0
  H  H23  1  0.20594000  0.58859000  0.80850000  1.0
  H  H24  1  0.29667000  0.29572000  0.58945000  1.0
  H  H25  1  0.40721000  0.41107000  0.29582000  1.0
  H  H26  1  0.18141000  0.70459000  0.41083000  1.0
  H  H27  1  0.11356000  0.58919000  0.70479000  1.0
  C  C28  1  0.45573000  0.50361000  0.99029000  1.0
  C  C29  1  0.04070000  0.00959000  0.50392000  1.0
  C  C30  1  0.94982000  0.49635000  0.00951000  1.0
  C  C31  1  0.55435000  0.99018000  0.49601000  1.0
  C  C32  1  0.41663000  0.37123000  0.91176000  1.0
  C  C33  1  0.21223000  0.08799000  0.37145000  1.0
  C  C34  1  0.69990000  0.62873000  0.08797000  1.0
  C  C35  1  0.67168000  0.91184000  0.62854000  1.0
  C  C36  1  0.44385000  0.23845000  0.78107000  1.0
  C  C37  1  0.31775000  0.21861000  0.23857000  1.0
  C  C38  1  0.46368000  0.76145000  0.21864000  1.0
  C  C39  1  0.77501000  0.78130000  0.76143000  1.0
  C  C40  1  0.64269000  0.32817000  0.71339000  1.0
  C  C41  1  0.02929000  0.28635000  0.32818000  1.0
  C  C42  1  0.68450000  0.67185000  0.28634000  1.0
  C  C43  1  0.64407000  0.71340000  0.67167000  1.0
  C  C44  1  0.56377000  0.38768000  0.82793000  1.0
  C  C45  1  0.04872000  0.17184000  0.38779000  1.0
  C  C46  1  0.77966000  0.61245000  0.17175000  1.0
  C  C47  1  0.60836000  0.82796000  0.61219000  1.0
  C  C48  1  0.03045000  0.37403000  0.65467000  1.0
  C  C49  1  0.59520000  0.34568000  0.37417000  1.0
  C  C50  1  0.05906000  0.62590000  0.34552000  1.0
  C  C51  1  0.31435000  0.65474000  0.62609000  1.0
  C  C52  1  0.19746000  0.28864000  0.57118000  1.0
  C  C53  1  0.51348000  0.42928000  0.28886000  1.0
  C  C54  1  0.05695000  0.71150000  0.42901000  1.0
  C  C55  1  0.23110000  0.57113000  0.71165000  1.0
  N  N56  1  0.58700000  0.47149000  0.88182000  1.0
  N  N57  1  0.94162000  0.11805000  0.47164000  1.0
  N  N58  1  0.94055000  0.52860000  0.11794000  1.0
  N  N59  1  0.53140000  0.88172000  0.52829000  1.0
  N  N60  1  0.34936000  0.44652000  0.01305000  1.0
  N  N61  1  0.20416000  0.98676000  0.44683000  1.0
  N  N62  1  0.80912000  0.55337000  0.98675000  1.0
  N  N63  1  0.63788000  0.01303000  0.55312000  1.0
  N  N64  1  0.35564000  0.29602000  0.89066000  1.0
  N  N65  1  0.34841000  0.10904000  0.29619000  1.0
  N  N66  1  0.54264000  0.70388000  0.10904000  1.0
  N  N67  1  0.75367000  0.89087000  0.70380000  1.0
  N  N68  1  0.58082000  0.25259000  0.69229000  1.0
  N  N69  1  0.16671000  0.30744000  0.25261000  1.0
  N  N70  1  0.52594000  0.74732000  0.30747000  1.0
  N  N71  1  0.72695000  0.69240000  0.74728000  1.0
  O  O72  1  0.01500000  0.39662000  0.76473000  1.0
  O  O73  1  0.58763000  0.23572000  0.39701000  1.0
  O  O74  1  0.17651000  0.60313000  0.23557000  1.0
  O  O75  1  0.21972000  0.76480000  0.60350000  1.0
  O  O76  1  0.91194000  0.42093000  0.61902000  1.0
  O  O77  1  0.66743000  0.38107000  0.42067000  1.0
  O  O78  1  0.95172000  0.57911000  0.38104000  1.0
  O  O79  1  0.46851000  0.61919000  0.57909000  1.0
