# generated using pymatgen
data_CdH7C11S2N3O
_symmetry_space_group_name_H-M   'P 1'
_cell_length_a   8.25539000
_cell_length_b   8.30577000
_cell_length_c   11.15830000
_cell_angle_alpha   106.99400000
_cell_angle_beta   92.28850000
_cell_angle_gamma   117.39400000
_symmetry_Int_Tables_number   1
_chemical_formula_structural   CdH7C11S2N3O
_chemical_formula_sum   'Cd2 H14 C22 S4 N6 O2'
_cell_volume   635.78680173
_cell_formula_units_Z   2
loop_
 _symmetry_equiv_pos_site_id
 _symmetry_equiv_pos_as_xyz
  1  'x, y, z'
loop_
 _atom_site_type_symbol
 _atom_site_label
 _atom_site_symmetry_multiplicity
 _atom_site_fract_x
 _atom_site_fract_y
 _atom_site_fract_z
 _atom_site_occupancy
  Cd  Cd0  1  0.74747000  0.37781000  0.02010000  1.0
  Cd  Cd1  1  0.25253000  0.62219000  0.97990000  1.0
  H  H2  1  0.00252000  0.89827000  0.12864000  1.0
  H  H3  1  0.99748000  0.10173000  0.87136000  1.0
  H  H4  1  0.08522000  0.19420000  0.31807000  1.0
  H  H5  1  0.91478000  0.80580000  0.68193000  1.0
  H  H6  1  0.23759000  0.23072000  0.53364000  1.0
  H  H7  1  0.76241000  0.76928000  0.46636000  1.0
  H  H8  1  0.35240000  0.08947000  0.66200000  1.0
  H  H9  1  0.64760000  0.91053000  0.33800000  1.0
  H  H10  1  0.40261000  0.82193000  0.67245000  1.0
  H  H11  1  0.59739000  0.17807000  0.32755000  1.0
  H  H12  1  0.30669000  0.53282000  0.47758000  1.0
  H  H13  1  0.69332000  0.46719000  0.52242000  1.0
  H  H14  1  0.16045000  0.51081000  0.26843000  1.0
  H  H15  1  0.83955000  0.48919000  0.73157000  1.0
  C  C16  1  0.65697000  0.00168000  0.10441000  1.0
  C  C17  1  0.34304000  0.99833000  0.89559000  1.0
  C  C18  1  0.42434000  0.43823000  0.13282000  1.0
  C  C19  1  0.57565000  0.56176000  0.86717000  1.0
  C  C20  1  0.06596000  0.92095000  0.22375000  1.0
  C  C21  1  0.93404000  0.07904000  0.77625000  1.0
  C  C22  1  0.11561000  0.08546000  0.33131000  1.0
  C  C23  1  0.88438000  0.91454000  0.66869000  1.0
  C  C24  1  0.19671000  0.10375000  0.44845000  1.0
  C  C25  1  0.80329000  0.89625000  0.55155000  1.0
  C  C26  1  0.22741000  0.95412000  0.45951000  1.0
  C  C27  1  0.77259000  0.04588000  0.54049000  1.0
  C  C28  1  0.30933000  0.96220000  0.57675000  1.0
  C  C29  1  0.69067000  0.03780000  0.42325000  1.0
  C  C30  1  0.33673000  0.81272000  0.58234000  1.0
  C  C31  1  0.66327000  0.18728000  0.41766000  1.0
  C  C32  1  0.28234000  0.64879000  0.47139000  1.0
  C  C33  1  0.71766000  0.35121000  0.52861000  1.0
  C  C34  1  0.20205000  0.63474000  0.35514000  1.0
  C  C35  1  0.79796000  0.36527000  0.64486000  1.0
  C  C36  1  0.17511000  0.78762000  0.34874000  1.0
  C  C37  1  0.82489000  0.21238000  0.65126000  1.0
  S  S38  1  0.86357000  0.16162000  0.09877000  1.0
  S  S39  1  0.13643000  0.83838000  0.90123000  1.0
  S  S40  1  0.59680000  0.45554000  0.22294000  1.0
  S  S41  1  0.40320000  0.54446000  0.77706000  1.0
  N  N42  1  0.50780000  0.88866000  0.11293000  1.0
  N  N43  1  0.49219000  0.11134000  0.88707000  1.0
  N  N44  1  0.29836000  0.42272000  0.06675000  1.0
  N  N45  1  0.70164000  0.57727000  0.93324000  1.0
  N  N46  1  0.09689000  0.77937000  0.23269000  1.0
  N  N47  1  0.90311000  0.22063000  0.76731000  1.0
  O  O48  1  0.05242000  0.62559000  0.12922000  1.0
  O  O49  1  0.94758000  0.37441000  0.87078000  1.0
