# generated using pymatgen
data_ZnH31C31NO8
_symmetry_space_group_name_H-M   'P 1'
_cell_length_a   10.66750000
_cell_length_b   18.30730000
_cell_length_c   19.48850000
_cell_angle_alpha   89.97910000
_cell_angle_beta   88.67190000
_cell_angle_gamma   89.37300000
_symmetry_Int_Tables_number   1
_chemical_formula_structural   ZnH31C31NO8
_chemical_formula_sum   'Zn2 H62 C62 N2 O16'
_cell_volume   3804.71974597
_cell_formula_units_Z   2
loop_
 _symmetry_equiv_pos_site_id
 _symmetry_equiv_pos_as_xyz
  1  'x, y, z'
loop_
 _atom_site_type_symbol
 _atom_site_label
 _atom_site_symmetry_multiplicity
 _atom_site_fract_x
 _atom_site_fract_y
 _atom_site_fract_z
 _atom_site_occupancy
  Zn  Zn0  1  0.50148000  0.41855000  0.50025000  1.0
  Zn  Zn1  1  0.50671000  0.57257000  0.50072000  1.0
  H  H2  1  0.95622000  0.57799000  0.39823000  1.0
  H  H3  1  0.48762000  0.38323000  0.72005000  1.0
  H  H4  1  0.29097000  0.47751000  0.92964000  1.0
  H  H5  1  0.65075000  0.54779000  0.07160000  1.0
  H  H6  1  0.26910000  0.47765000  0.05684000  1.0
  H  H7  1  0.67284000  0.54743000  0.94440000  1.0
  H  H8  1  0.49203000  0.30179000  0.60564000  1.0
  H  H9  1  0.31911000  0.69000000  0.52098000  1.0
  H  H10  1  0.50897000  0.30339000  0.39400000  1.0
  H  H11  1  0.69971000  0.68660000  0.47798000  1.0
  H  H12  1  0.49340000  0.16445000  0.60970000  1.0
  H  H13  1  0.05180000  0.42638000  0.59872000  1.0
  H  H14  1  0.31048000  0.82757000  0.51952000  1.0
  H  H15  1  0.51184000  0.16612000  0.38811000  1.0
  H  H16  1  0.70938000  0.82407000  0.47622000  1.0
  H  H17  1  0.49903000  0.70760000  0.77255000  1.0
  H  H18  1  0.66289000  0.69105000  0.78197000  1.0
  H  H19  1  0.65129000  0.74904000  0.89945000  1.0
  H  H20  1  0.59838000  0.81122000  0.83558000  1.0
  H  H21  1  0.48786000  0.76547000  0.88998000  1.0
  H  H22  1  0.36375000  0.30038000  0.20457000  1.0
  H  H23  1  0.53081000  0.30381000  0.19821000  1.0
  H  H24  1  0.13014000  0.45834000  0.40019000  1.0
  H  H25  1  0.52200000  0.26378000  0.07426000  1.0
  H  H26  1  0.45132000  0.19832000  0.13046000  1.0
  H  H27  1  0.35570000  0.25875000  0.08185000  1.0
  H  H28  1  0.55384000  0.69578000  0.23074000  1.0
  H  H29  1  0.38882000  0.71048000  0.22495000  1.0
  H  H30  1  0.42458000  0.76748000  0.10727000  1.0
  H  H31  1  0.50516000  0.81533000  0.17242000  1.0
  H  H32  1  0.58907000  0.75466000  0.11605000  1.0
  H  H33  1  0.51808000  0.29364000  0.80117000  1.0
  H  H34  1  0.35774000  0.31856000  0.78932000  1.0
  H  H35  1  0.87689000  0.54566000  0.59682000  1.0
  H  H36  1  0.30466000  0.27922000  0.91000000  1.0
  H  H37  1  0.37555000  0.20582000  0.86252000  1.0
  H  H38  1  0.46449000  0.25534000  0.92305000  1.0
  H  H39  1  0.22524000  0.11424000  0.49013000  1.0
  H  H40  1  0.17564000  0.02927000  0.45456000  1.0
  H  H41  1  0.13597000  0.09248000  0.34202000  1.0
  H  H42  1  0.04720000  0.13491000  0.40979000  1.0
  H  H43  1  0.18630000  0.17678000  0.37755000  1.0
  H  H44  1  0.55844000  0.87251000  0.64488000  1.0
  H  H45  1  0.62430000  0.95718000  0.67170000  1.0
  H  H46  1  0.94618000  0.37505000  0.47428000  1.0
  H  H47  1  0.83679000  0.89585000  0.67806000  1.0
  H  H48  1  0.72535000  0.85070000  0.73208000  1.0
  H  H49  1  0.77034000  0.81177000  0.65141000  1.0
  H  H50  1  0.78463000  0.11476000  0.50801000  1.0
  H  H51  1  0.83808000  0.03027000  0.54421000  1.0
  H  H52  1  0.86862000  0.09399000  0.65734000  1.0
  H  H53  1  0.95794000  0.13694000  0.59066000  1.0
  H  H54  1  0.81494000  0.17777000  0.62087000  1.0
  H  H55  1  0.46758000  0.87300000  0.35145000  1.0
  H  H56  1  0.39620000  0.95603000  0.32220000  1.0
  H  H57  1  0.06036000  0.62934000  0.52313000  1.0
  H  H58  1  0.18886000  0.89126000  0.31510000  1.0
  H  H59  1  0.30567000  0.84738000  0.26252000  1.0
  H  H60  1  0.26174000  0.80873000  0.34332000  1.0
  H  H61  1  0.57047000  0.61045000  0.70934000  1.0
  H  H62  1  0.43888000  0.38156000  0.27976000  1.0
  H  H63  1  0.45774000  0.61371000  0.29467000  1.0
  C  C64  1  0.45653000  0.49241000  0.36918000  1.0
  C  C65  1  0.40237000  0.72280000  0.51102000  1.0
  C  C66  1  0.50584000  0.26961000  0.44011000  1.0
  C  C67  1  0.61665000  0.72087000  0.48725000  1.0
  C  C68  1  0.49698000  0.19289000  0.56070000  1.0
  C  C69  1  0.39884000  0.79864000  0.51023000  1.0
  C  C70  1  0.50724000  0.19380000  0.43749000  1.0
  C  C71  1  0.62076000  0.79670000  0.48608000  1.0
  C  C72  1  0.50293000  0.15366000  0.49884000  1.0
  C  C73  1  0.50993000  0.83725000  0.49768000  1.0
  C  C74  1  0.42298000  0.03382000  0.45655000  1.0
  C  C75  1  0.54017000  0.49142000  0.63247000  1.0
  C  C76  1  0.59398000  0.95701000  0.53741000  1.0
  C  C77  1  0.58956000  0.03369000  0.53939000  1.0
  C  C78  1  0.42311000  0.95714000  0.45731000  1.0
  C  C79  1  0.50945000  0.91794000  0.49723000  1.0
  C  C80  1  0.50507000  0.07298000  0.49830000  1.0
  C  C81  1  0.26448000  0.50532000  0.52184000  1.0
  C  C82  1  0.74295000  0.49683000  0.47694000  1.0
  C  C83  1  0.07137000  0.47758000  0.44340000  1.0
  C  C84  1  0.93614000  0.52659000  0.55370000  1.0
  C  C85  1  0.97342000  0.43120000  0.48518000  1.0
  C  C86  1  0.36995000  0.49306000  0.96081000  1.0
  C  C87  1  0.03409000  0.57303000  0.51194000  1.0
  C  C88  1  0.97873000  0.54467000  0.44302000  1.0
  C  C89  1  0.02865000  0.45958000  0.55397000  1.0
  C  C90  1  0.88069000  0.49770000  0.48425000  1.0
  C  C91  1  0.12701000  0.50650000  0.51243000  1.0
  C  C92  1  0.54781000  0.56361000  0.74139000  1.0
  C  C93  1  0.44184000  0.43380000  0.25332000  1.0
  C  C94  1  0.45370000  0.56608000  0.26157000  1.0
  C  C95  1  0.49969000  0.43430000  0.74733000  1.0
  C  C96  1  0.53274000  0.56853000  0.81270000  1.0
  C  C97  1  0.57158000  0.53277000  0.04033000  1.0
  C  C98  1  0.44138000  0.43942000  0.18178000  1.0
  C  C99  1  0.45637000  0.57093000  0.18998000  1.0
  C  C100  1  0.48353000  0.43993000  0.81848000  1.0
  C  C101  1  0.49979000  0.50705000  0.85269000  1.0
  C  C102  1  0.45005000  0.50785000  0.14877000  1.0
  C  C103  1  0.53086000  0.49638000  0.70916000  1.0
  C  C104  1  0.44851000  0.49738000  0.29266000  1.0
  C  C105  1  0.57273000  0.69762000  0.81046000  1.0
  C  C106  1  0.57788000  0.75948000  0.86197000  1.0
  C  C107  1  0.44397000  0.30880000  0.16867000  1.0
  C  C108  1  0.35765000  0.49318000  0.03211000  1.0
  C  C109  1  0.44316000  0.25418000  0.11025000  1.0
  C  C110  1  0.47628000  0.70133000  0.19449000  1.0
  C  C111  1  0.50006000  0.76333000  0.14448000  1.0
  C  C112  1  0.43135000  0.31274000  0.82795000  1.0
  C  C113  1  0.39172000  0.26018000  0.88431000  1.0
  C  C114  1  0.21763000  0.08260000  0.44220000  1.0
  C  C115  1  0.14272000  0.12409000  0.38966000  1.0
  C  C116  1  0.64495000  0.90505000  0.64526000  1.0
  C  C117  1  0.75076000  0.86341000  0.67845000  1.0
  C  C118  1  0.79232000  0.08324000  0.55604000  1.0
  C  C119  1  0.58396000  0.53256000  0.96906000  1.0
  C  C120  1  0.86226000  0.12544000  0.60951000  1.0
  C  C121  1  0.37858000  0.90419000  0.34942000  1.0
  C  C122  1  0.27759000  0.86030000  0.31580000  1.0
  C  C123  1  0.45881000  0.51216000  0.07285000  1.0
  C  C124  1  0.48380000  0.51174000  0.92826000  1.0
  C  C125  1  0.49584000  0.26874000  0.55907000  1.0
  N  N126  1  0.50026000  0.30642000  0.49984000  1.0
  N  N127  1  0.50940000  0.68469000  0.49964000  1.0
  O  O128  1  0.47295000  0.42920000  0.39525000  1.0
  O  O129  1  0.43653000  0.38018000  0.13888000  1.0
  O  O130  1  0.46616000  0.63576000  0.15503000  1.0
  O  O131  1  0.45258000  0.38184000  0.85972000  1.0
  O  O132  1  0.34297000  0.07033000  0.41353000  1.0
  O  O133  1  0.68313000  0.92051000  0.57476000  1.0
  O  O134  1  0.66676000  0.07000000  0.58330000  1.0
  O  O135  1  0.33640000  0.92072000  0.41916000  1.0
  O  O136  1  0.56010000  0.55061000  0.59958000  1.0
  O  O137  1  0.52526000  0.42876000  0.60558000  1.0
  O  O138  1  0.44836000  0.55221000  0.40248000  1.0
  O  O139  1  0.31615000  0.44236000  0.51707000  1.0
  O  O140  1  0.68922000  0.55862000  0.46742000  1.0
  O  O141  1  0.68874000  0.43572000  0.48496000  1.0
  O  O142  1  0.32035000  0.56570000  0.53077000  1.0
  O  O143  1  0.54550000  0.63249000  0.84843000  1.0
