# generated using pymatgen
data_CdH4(CO3)2
_symmetry_space_group_name_H-M   'P 1'
_cell_length_a   5.98605000
_cell_length_b   6.34528000
_cell_length_c   8.96880000
_cell_angle_alpha   76.14970000
_cell_angle_beta   72.52300000
_cell_angle_gamma   78.87470000
_symmetry_Int_Tables_number   1
_chemical_formula_structural   CdH4(CO3)2
_chemical_formula_sum   'Cd2 H8 C4 O12'
_cell_volume   312.78263069
_cell_formula_units_Z   2
loop_
 _symmetry_equiv_pos_site_id
 _symmetry_equiv_pos_as_xyz
  1  'x, y, z'
loop_
 _atom_site_type_symbol
 _atom_site_label
 _atom_site_symmetry_multiplicity
 _atom_site_fract_x
 _atom_site_fract_y
 _atom_site_fract_z
 _atom_site_occupancy
  Cd  Cd0  1  0.70765000  0.05483000  0.35326000  1.0
  Cd  Cd1  1  0.61291000  0.43901000  0.93883000  1.0
  H  H2  1  0.97844000  0.70499000  0.19988000  1.0
  H  H3  1  0.75866000  0.59389000  0.32949000  1.0
  H  H4  1  0.26917000  0.91653000  0.45879000  1.0
  H  H5  1  0.42551000  0.76072000  0.57474000  1.0
  H  H6  1  0.90118000  0.72589000  0.71175000  1.0
  H  H7  1  0.05746000  0.56633000  0.82422000  1.0
  H  H8  1  0.63263000  0.73694000  0.11901000  1.0
  H  H9  1  0.58874000  0.88241000  0.96114000  1.0
  C  C10  1  0.63197000  0.36310000  0.59533000  1.0
  C  C11  1  0.69830000  0.13232000  0.69301000  1.0
  C  C12  1  0.22940000  0.16452000  0.20534000  1.0
  C  C13  1  0.09550000  0.31021000  0.08409000  1.0
  O  O14  1  0.67040000  0.37945000  0.44484000  1.0
  O  O15  1  0.54646000  0.51825000  0.66869000  1.0
  O  O16  1  0.77503000  0.97561000  0.61972000  1.0
  O  O17  1  0.66955000  0.11753000  0.84157000  1.0
  O  O18  1  0.43384000  0.20812000  0.19071000  1.0
  O  O19  1  0.12447000  0.01703000  0.30941000  1.0
  O  O20  1  0.19699000  0.46143000  0.98203000  1.0
  O  O21  1  0.89001000  0.26819000  0.09957000  1.0
  O  O22  1  0.80835000  0.72984000  0.24741000  1.0
  O  O23  1  0.37976000  0.91391000  0.52276000  1.0
  O  O24  1  0.94871000  0.57099000  0.75893000  1.0
  O  O25  1  0.53625000  0.75135000  0.04343000  1.0
