# generated using pymatgen
data_ZnCuH15C23N3O5
_symmetry_space_group_name_H-M   'P 1'
_cell_length_a   14.87320000
_cell_length_b   15.34550000
_cell_length_c   15.34550000
_cell_angle_alpha   83.77860000
_cell_angle_beta   61.19040000
_cell_angle_gamma   61.19070000
_symmetry_Int_Tables_number   1
_chemical_formula_structural   ZnCuH15C23N3O5
_chemical_formula_sum   'Zn4 Cu4 H60 C92 N12 O20'
_cell_volume   2653.83715668
_cell_formula_units_Z   4
loop_
 _symmetry_equiv_pos_site_id
 _symmetry_equiv_pos_as_xyz
  1  'x, y, z'
loop_
 _atom_site_type_symbol
 _atom_site_label
 _atom_site_symmetry_multiplicity
 _atom_site_fract_x
 _atom_site_fract_y
 _atom_site_fract_z
 _atom_site_occupancy
  Zn  Zn0  1  0.37694000  0.25074000  0.64300000  1.0
  Zn  Zn1  1  0.12306000  0.35700000  0.74926000  1.0
  Zn  Zn2  1  0.62305000  0.74928000  0.35700000  1.0
  Zn  Zn3  1  0.87694000  0.64300000  0.25072000  1.0
  Cu  Cu4  1  0.00891000  0.89938000  0.50049000  1.0
  Cu  Cu5  1  0.49109000  0.49950000  0.10062000  1.0
  Cu  Cu6  1  0.99106000  0.10068000  0.49952000  1.0
  Cu  Cu7  1  0.50894000  0.50047000  0.89932000  1.0
  H  H8  1  0.44663000  0.93838000  0.63232000  1.0
  H  H9  1  0.05338000  0.36766000  0.06162000  1.0
  H  H10  1  0.55336000  0.06165000  0.36767000  1.0
  H  H11  1  0.94662000  0.63234000  0.93835000  1.0
  H  H12  1  0.44393000  0.77897000  0.63064000  1.0
  H  H13  1  0.05609000  0.36935000  0.22102000  1.0
  H  H14  1  0.55607000  0.22105000  0.36938000  1.0
  H  H15  1  0.94392000  0.63063000  0.77895000  1.0
  H  H16  1  0.06727000  0.94828000  0.74684000  1.0
  H  H17  1  0.43274000  0.25316000  0.05171000  1.0
  H  H18  1  0.93271000  0.05173000  0.25320000  1.0
  H  H19  1  0.56727000  0.74680000  0.94827000  1.0
  H  H20  1  0.07230000  0.10709000  0.75070000  1.0
  H  H21  1  0.42771000  0.24930000  0.89290000  1.0
  H  H22  1  0.92769000  0.89293000  0.24930000  1.0
  H  H23  1  0.57229000  0.75070000  0.10708000  1.0
  H  H24  1  0.42976000  0.67252000  0.56324000  1.0
  H  H25  1  0.07025000  0.43677000  0.32747000  1.0
  H  H26  1  0.57024000  0.32749000  0.43682000  1.0
  H  H27  1  0.92975000  0.56319000  0.67252000  1.0
  H  H28  1  0.42053000  0.51631000  0.55821000  1.0
  H  H29  1  0.07947000  0.44179000  0.48369000  1.0
  H  H30  1  0.57949000  0.48370000  0.44184000  1.0
  H  H31  1  0.92051000  0.55816000  0.51630000  1.0
  H  H32  1  0.06838000  0.65720000  0.80791000  1.0
  H  H33  1  0.43162000  0.19210000  0.34280000  1.0
  H  H34  1  0.93163000  0.34280000  0.19213000  1.0
  H  H35  1  0.56837000  0.80787000  0.65720000  1.0
  H  H36  1  0.07354000  0.81476000  0.81343000  1.0
  H  H37  1  0.42647000  0.18656000  0.18524000  1.0
  H  H38  1  0.92646000  0.18524000  0.18660000  1.0
  H  H39  1  0.57353000  0.81340000  0.81476000  1.0
  H  H40  1  0.54779000  0.31404000  0.60159000  1.0
  H  H41  1  0.95222000  0.39840000  0.68596000  1.0
  H  H42  1  0.45219000  0.68600000  0.39843000  1.0
  H  H43  1  0.04780000  0.60158000  0.31400000  1.0
  H  H44  1  0.57510000  0.03560000  0.57721000  1.0
  H  H45  1  0.92491000  0.42279000  0.96440000  1.0
  H  H46  1  0.42489000  0.96444000  0.42281000  1.0
  H  H47  1  0.07511000  0.57719000  0.03557000  1.0
  H  H48  1  0.75200000  0.88070000  0.52034000  1.0
  H  H49  1  0.74800000  0.47966000  0.11930000  1.0
  H  H50  1  0.24794000  0.11936000  0.47970000  1.0
  H  H51  1  0.25206000  0.52030000  0.88064000  1.0
  H  H52  1  0.03042000  0.73570000  0.37227000  1.0
  H  H53  1  0.46958000  0.62773000  0.26430000  1.0
  H  H54  1  0.96952000  0.26431000  0.62779000  1.0
  H  H55  1  0.53048000  0.37221000  0.73569000  1.0
  H  H56  1  0.92671000  0.71463000  0.48169000  1.0
  H  H57  1  0.57329000  0.51831000  0.28537000  1.0
  H  H58  1  0.07323000  0.28542000  0.51839000  1.0
  H  H59  1  0.42678000  0.48161000  0.71459000  1.0
  H  H60  1  0.03532000  0.68855000  0.56902000  1.0
  H  H61  1  0.46468000  0.43099000  0.31145000  1.0
  H  H62  1  0.96464000  0.31150000  0.43103000  1.0
  H  H63  1  0.53537000  0.56896000  0.68851000  1.0
  H  H64  1  0.14596000  0.62519000  0.44084000  1.0
  H  H65  1  0.35404000  0.55916000  0.37481000  1.0
  H  H66  1  0.85399000  0.37486000  0.55923000  1.0
  H  H67  1  0.64601000  0.44077000  0.62514000  1.0
  C  C68  1  0.26146000  0.12939000  0.69383000  1.0
  C  C69  1  0.23855000  0.30617000  0.87061000  1.0
  C  C70  1  0.73852000  0.87064000  0.30617000  1.0
  C  C71  1  0.76146000  0.69383000  0.12936000  1.0
  C  C72  1  0.25943000  0.03275000  0.69325000  1.0
  C  C73  1  0.24058000  0.30675000  0.96724000  1.0
  C  C74  1  0.74056000  0.96727000  0.30676000  1.0
  C  C75  1  0.75943000  0.69325000  0.03273000  1.0
  C  C76  1  0.36351000  0.93961000  0.65910000  1.0
  C  C77  1  0.13650000  0.34089000  0.06039000  1.0
  C  C78  1  0.63648000  0.06042000  0.34090000  1.0
  C  C79  1  0.86350000  0.65911000  0.93959000  1.0
  C  C80  1  0.36129000  0.85016000  0.65801000  1.0
  C  C81  1  0.13873000  0.34198000  0.14984000  1.0
  C  C82  1  0.63870000  0.14987000  0.34201000  1.0
  C  C83  1  0.86128000  0.65800000  0.85014000  1.0
  C  C84  1  0.25468000  0.85102000  0.69080000  1.0
  C  C85  1  0.24533000  0.30920000  0.14897000  1.0
  C  C86  1  0.74531000  0.14899000  0.30924000  1.0
  C  C87  1  0.75467000  0.69077000  0.85101000  1.0
  C  C88  1  0.15055000  0.94512000  0.72421000  1.0
  C  C89  1  0.34946000  0.27578000  0.05487000  1.0
  C  C90  1  0.84944000  0.05489000  0.27581000  1.0
  C  C91  1  0.65054000  0.72419000  0.94511000  1.0
  C  C92  1  0.15280000  0.03443000  0.72563000  1.0
  C  C93  1  0.34722000  0.27437000  0.96557000  1.0
  C  C94  1  0.84719000  0.96559000  0.27438000  1.0
  C  C95  1  0.65279000  0.72562000  0.03441000  1.0
  C  C96  1  0.25185000  0.75643000  0.68855000  1.0
  C  C97  1  0.24816000  0.31145000  0.24357000  1.0
  C  C98  1  0.74815000  0.24358000  0.31151000  1.0
  C  C99  1  0.75183000  0.68850000  0.75642000  1.0
  C  C100  1  0.34983000  0.67028000  0.61759000  1.0
  C  C101  1  0.15017000  0.38242000  0.32972000  1.0
  C  C102  1  0.65018000  0.32973000  0.38247000  1.0
  C  C103  1  0.84981000  0.61753000  0.67027000  1.0
  C  C104  1  0.34538000  0.58243000  0.61400000  1.0
  C  C105  1  0.15463000  0.38601000  0.41756000  1.0
  C  C106  1  0.65465000  0.41757000  0.38607000  1.0
  C  C107  1  0.84535000  0.61394000  0.58244000  1.0
  C  C108  1  0.24474000  0.57598000  0.68292000  1.0
  C  C109  1  0.25526000  0.31708000  0.42402000  1.0
  C  C110  1  0.75528000  0.42401000  0.31714000  1.0
  C  C111  1  0.74471000  0.68287000  0.57599000  1.0
  C  C112  1  0.14678000  0.66142000  0.75367000  1.0
  C  C113  1  0.35322000  0.24634000  0.33858000  1.0
  C  C114  1  0.85324000  0.33857000  0.24639000  1.0
  C  C115  1  0.64676000  0.75361000  0.66143000  1.0
  C  C116  1  0.15013000  0.75012000  0.75618000  1.0
  C  C117  1  0.34987000  0.24382000  0.24988000  1.0
  C  C118  1  0.84988000  0.24989000  0.24387000  1.0
  C  C119  1  0.65011000  0.75613000  0.75012000  1.0
  C  C120  1  0.24579000  0.47753000  0.68503000  1.0
  C  C121  1  0.25420000  0.31497000  0.52247000  1.0
  C  C122  1  0.75423000  0.52247000  0.31499000  1.0
  C  C123  1  0.74577000  0.68501000  0.47753000  1.0
  C  C124  1  0.60597000  0.23277000  0.58166000  1.0
  C  C125  1  0.89404000  0.41833000  0.76723000  1.0
  C  C126  1  0.39400000  0.76728000  0.41835000  1.0
  C  C127  1  0.10599000  0.58165000  0.23272000  1.0
  C  C128  1  0.72546000  0.19305000  0.54894000  1.0
  C  C129  1  0.77455000  0.45105000  0.80695000  1.0
  C  C130  1  0.27451000  0.80701000  0.45108000  1.0
  C  C131  1  0.22549000  0.54892000  0.19299000  1.0
  C  C132  1  0.79766000  0.08510000  0.51990000  1.0
  C  C133  1  0.70235000  0.48008000  0.91490000  1.0
  C  C134  1  0.20232000  0.91497000  0.48009000  1.0
  C  C135  1  0.29768000  0.51991000  0.08503000  1.0
  C  C136  1  0.74242000  0.02528000  0.53367000  1.0
  C  C137  1  0.75758000  0.46632000  0.97472000  1.0
  C  C138  1  0.25756000  0.97478000  0.46633000  1.0
  C  C139  1  0.24244000  0.53367000  0.02522000  1.0
  C  C140  1  0.62142000  0.07673000  0.56723000  1.0
  C  C141  1  0.87859000  0.43277000  0.92327000  1.0
  C  C142  1  0.37857000  0.92331000  0.43278000  1.0
  C  C143  1  0.12143000  0.56722000  0.07669000  1.0
  C  C144  1  0.76537000  0.26453000  0.54691000  1.0
  C  C145  1  0.73464000  0.45308000  0.73547000  1.0
  C  C146  1  0.23456000  0.73552000  0.45314000  1.0
  C  C147  1  0.26543000  0.54686000  0.26449000  1.0
  C  C148  1  0.80474000  0.91537000  0.51269000  1.0
  C  C149  1  0.69526000  0.48730000  0.08463000  1.0
  C  C150  1  0.19523000  0.08467000  0.48733000  1.0
  C  C151  1  0.30477000  0.51267000  0.91533000  1.0
  C  C152  1  0.98315000  0.74921000  0.45540000  1.0
  C  C153  1  0.51685000  0.54460000  0.25079000  1.0
  C  C154  1  0.01680000  0.25082000  0.54466000  1.0
  C  C155  1  0.48320000  0.45534000  0.74918000  1.0
  C  C156  1  0.07641000  0.69908000  0.48976000  1.0
  C  C157  1  0.42358000  0.51024000  0.30092000  1.0
  C  C158  1  0.92354000  0.30097000  0.51029000  1.0
  C  C159  1  0.57646000  0.48971000  0.69903000  1.0
  N  N160  1  0.55493000  0.17769000  0.58919000  1.0
  N  N161  1  0.94507000  0.41080000  0.82231000  1.0
  N  N162  1  0.44506000  0.82235000  0.41081000  1.0
  N  N163  1  0.05494000  0.58919000  0.17765000  1.0
  N  N164  1  0.91543000  0.85841000  0.48623000  1.0
  N  N165  1  0.58457000  0.51377000  0.14159000  1.0
  N  N166  1  0.08454000  0.14163000  0.51380000  1.0
  N  N167  1  0.41546000  0.48620000  0.85837000  1.0
  N  N168  1  0.87313000  0.23658000  0.51701000  1.0
  N  N169  1  0.62688000  0.48298000  0.76342000  1.0
  N  N170  1  0.12679000  0.76351000  0.48304000  1.0
  N  N171  1  0.37321000  0.51696000  0.23649000  1.0
  O  O172  1  0.35873000  0.12369000  0.67173000  1.0
  O  O173  1  0.14128000  0.32827000  0.87631000  1.0
  O  O174  1  0.64124000  0.87635000  0.32829000  1.0
  O  O175  1  0.85875000  0.67171000  0.12365000  1.0
  O  O176  1  0.16525000  0.21066000  0.71584000  1.0
  O  O177  1  0.33476000  0.28416000  0.78934000  1.0
  O  O178  1  0.83473000  0.78936000  0.28414000  1.0
  O  O179  1  0.66526000  0.71586000  0.21065000  1.0
  O  O180  1  0.34406000  0.40005000  0.62870000  1.0
  O  O181  1  0.15594000  0.37130000  0.59995000  1.0
  O  O182  1  0.65597000  0.59996000  0.37132000  1.0
  O  O183  1  0.84403000  0.62868000  0.40004000  1.0
  O  O184  1  0.14899000  0.47852000  0.74547000  1.0
  O  O185  1  0.35100000  0.25454000  0.52148000  1.0
  O  O186  1  0.85103000  0.52147000  0.25453000  1.0
  O  O187  1  0.64897000  0.74547000  0.47853000  1.0
  O  O188  1  0.91138000  0.04079000  0.48304000  1.0
  O  O189  1  0.58863000  0.51694000  0.95921000  1.0
  O  O190  1  0.08860000  0.95928000  0.51692000  1.0
  O  O191  1  0.41140000  0.48308000  0.04072000  1.0
