# generated using pymatgen
data_CdH10C8(N2Cl)2
_symmetry_space_group_name_H-M   'P 1'
_cell_length_a   5.21704000
_cell_length_b   8.45511000
_cell_length_c   13.54710000
_cell_angle_alpha   82.31580000
_cell_angle_beta   89.99990000
_cell_angle_gamma   89.99990000
_symmetry_Int_Tables_number   1
_chemical_formula_structural   CdH10C8(N2Cl)2
_chemical_formula_sum   'Cd2 H20 C16 N8 Cl4'
_cell_volume   592.20522222
_cell_formula_units_Z   2
loop_
 _symmetry_equiv_pos_site_id
 _symmetry_equiv_pos_as_xyz
  1  'x, y, z'
loop_
 _atom_site_type_symbol
 _atom_site_label
 _atom_site_symmetry_multiplicity
 _atom_site_fract_x
 _atom_site_fract_y
 _atom_site_fract_z
 _atom_site_occupancy
  Cd  Cd0  1  0.50206000  0.00286000  0.41498000  1.0
  Cd  Cd1  1  0.49794000  0.50286000  0.91498000  1.0
  H  H2  1  0.08143000  0.81279000  0.08206000  1.0
  H  H3  1  0.91856000  0.31280000  0.58206000  1.0
  H  H4  1  0.43679000  0.76705000  0.23783000  1.0
  H  H5  1  0.56321000  0.26705000  0.73783000  1.0
  H  H6  1  0.68823000  0.18167000  0.12211000  1.0
  H  H7  1  0.31176000  0.68167000  0.62211000  1.0
  H  H8  1  0.62513000  0.99222000  0.08238000  1.0
  H  H9  1  0.37487000  0.49222000  0.58238000  1.0
  H  H10  1  0.85684000  0.12590000  0.01790000  1.0
  H  H11  1  0.14316000  0.62590000  0.51789000  1.0
  H  H12  1  0.59999000  0.38870000  0.42326000  1.0
  H  H13  1  0.40002000  0.88869000  0.92326000  1.0
  H  H14  1  0.94861000  0.58155000  0.30851000  1.0
  H  H15  1  0.05139000  0.08155000  0.80851000  1.0
  H  H16  1  0.30808000  0.30891000  0.14962000  1.0
  H  H17  1  0.69192000  0.80890000  0.64962000  1.0
  H  H18  1  0.40280000  0.46479000  0.21917000  1.0
  H  H19  1  0.59720000  0.96479000  0.71917000  1.0
  H  H20  1  0.15471000  0.49800000  0.12651000  1.0
  H  H21  1  0.84529000  0.99800000  0.62651000  1.0
  C  C22  1  0.05904000  0.06658000  0.24139000  1.0
  C  C23  1  0.94095000  0.56658000  0.74140000  1.0
  C  C24  1  0.11693000  0.87883000  0.14395000  1.0
  C  C25  1  0.88307000  0.37883000  0.64395000  1.0
  C  C26  1  0.28897000  0.85699000  0.22159000  1.0
  C  C27  1  0.71103000  0.35699000  0.72160000  1.0
  C  C28  1  0.77298000  0.08134000  0.09046000  1.0
  C  C29  1  0.22702000  0.58134000  0.59046000  1.0
  C  C30  1  0.95560000  0.20544000  0.28159000  1.0
  C  C31  1  0.04439000  0.70544000  0.78159000  1.0
  C  C32  1  0.74039000  0.35794000  0.37004000  1.0
  C  C33  1  0.25961000  0.85794000  0.87004000  1.0
  C  C34  1  0.91326000  0.45443000  0.31380000  1.0
  C  C35  1  0.08674000  0.95444000  0.81379000  1.0
  C  C36  1  0.24112000  0.41105000  0.18430000  1.0
  C  C37  1  0.75888000  0.91105000  0.68430000  1.0
  N  N38  1  0.25196000  0.97433000  0.28136000  1.0
  N  N39  1  0.74804000  0.47433000  0.78136000  1.0
  N  N40  1  0.97323000  0.01059000  0.15738000  1.0
  N  N41  1  0.02676000  0.51059000  0.65738000  1.0
  N  N42  1  0.76755000  0.20405000  0.34935000  1.0
  N  N43  1  0.23245000  0.70405000  0.84935000  1.0
  N  N44  1  0.04695000  0.35731000  0.25849000  1.0
  N  N45  1  0.95305000  0.85730000  0.75849000  1.0
  Cl  Cl46  1  0.71246000  0.74384000  0.44236000  1.0
  Cl  Cl47  1  0.28755000  0.24384000  0.94236000  1.0
  Cl  Cl48  1  0.29409000  0.12646000  0.54681000  1.0
  Cl  Cl49  1  0.70591000  0.62646000  0.04681000  1.0
