# generated using pymatgen
data_ZnH12C13S(N2O3)2
_symmetry_space_group_name_H-M   'P 1'
_cell_length_a   6.92824000
_cell_length_b   10.64900000
_cell_length_c   19.70900000
_cell_angle_alpha   99.79660000
_cell_angle_beta   90.00000000
_cell_angle_gamma   90.00000000
_symmetry_Int_Tables_number   1
_chemical_formula_structural   ZnH12C13S(N2O3)2
_chemical_formula_sum   'Zn4 H48 C52 S4 N16 O24'
_cell_volume   1432.90312517
_cell_formula_units_Z   4
loop_
 _symmetry_equiv_pos_site_id
 _symmetry_equiv_pos_as_xyz
  1  'x, y, z'
loop_
 _atom_site_type_symbol
 _atom_site_label
 _atom_site_symmetry_multiplicity
 _atom_site_fract_x
 _atom_site_fract_y
 _atom_site_fract_z
 _atom_site_occupancy
  Zn  Zn0  1  0.16444000  0.15777000  0.82653000  1.0
  Zn  Zn1  1  0.66444000  0.84223000  0.67347000  1.0
  Zn  Zn2  1  0.83556000  0.84223000  0.17347000  1.0
  Zn  Zn3  1  0.33556000  0.15777000  0.32653000  1.0
  H  H4  1  0.84348000  0.23253000  0.77734000  1.0
  H  H5  1  0.34348000  0.76747000  0.72266000  1.0
  H  H6  1  0.15652000  0.76747000  0.22266000  1.0
  H  H7  1  0.65652000  0.23253000  0.27734000  1.0
  H  H8  1  0.82457000  0.28657000  0.86105000  1.0
  H  H9  1  0.32457000  0.71344000  0.63895000  1.0
  H  H10  1  0.17543000  0.71344000  0.13895000  1.0
  H  H11  1  0.67543000  0.28656000  0.36105000  1.0
  H  H12  1  0.12193000  0.92426000  0.82747000  1.0
  H  H13  1  0.62193000  0.07574000  0.67253000  1.0
  H  H14  1  0.87807000  0.07574000  0.17253000  1.0
  H  H15  1  0.37807000  0.92426000  0.32747000  1.0
  H  H16  1  0.90062000  0.96446000  0.81889000  1.0
  H  H17  1  0.40062000  0.03554000  0.68111000  1.0
  H  H18  1  0.09938000  0.03554000  0.18111000  1.0
  H  H19  1  0.59938000  0.96446000  0.31889000  1.0
  H  H20  1  0.45859000  0.81274000  0.93826000  1.0
  H  H21  1  0.95859000  0.18726000  0.56174000  1.0
  H  H22  1  0.54141000  0.18726000  0.06174000  1.0
  H  H23  1  0.04141000  0.81274000  0.43826000  1.0
  H  H24  1  0.40939000  0.28489000  0.72000000  1.0
  H  H25  1  0.90939000  0.71511000  0.78000000  1.0
  H  H26  1  0.59060000  0.71512000  0.28000000  1.0
  H  H27  1  0.09061000  0.28488000  0.22000000  1.0
  H  H28  1  0.55226000  0.50313000  0.71921000  1.0
  H  H29  1  0.05226000  0.49687000  0.78079000  1.0
  H  H30  1  0.44773000  0.49688000  0.28079000  1.0
  H  H31  1  0.94774000  0.50313000  0.21921000  1.0
  H  H32  1  0.52784000  0.66666667  0.82489000  1.0
  H  H33  1  0.02784000  0.33329000  0.67511000  1.0
  H  H34  1  0.47216000  0.33329000  0.17511000  1.0
  H  H35  1  0.97217000  0.66666667  0.32489000  1.0
  H  H36  1  0.37326000  0.87674000  0.06378000  1.0
  H  H37  1  0.87326000  0.12326000  0.43622000  1.0
  H  H38  1  0.62674000  0.12326000  0.93622000  1.0
  H  H39  1  0.12674000  0.87674000  0.56378000  1.0
  H  H40  1  0.13933000  0.46321000  0.11171000  1.0
  H  H41  1  0.63934000  0.53680000  0.38829000  1.0
  H  H42  1  0.86066000  0.53680000  0.88829000  1.0
  H  H43  1  0.36066000  0.46320000  0.61171000  1.0
  H  H44  1  0.04715000  0.23004000  0.09574000  1.0
  H  H45  1  0.54715000  0.76996000  0.40427000  1.0
  H  H46  1  0.95285000  0.76996000  0.90427000  1.0
  H  H47  1  0.45285000  0.23004000  0.59573000  1.0
  H  H48  1  0.07216000  0.09861000  0.97804000  1.0
  H  H49  1  0.57216000  0.90139000  0.52196000  1.0
  H  H50  1  0.92784000  0.90139000  0.02196000  1.0
  H  H51  1  0.42784000  0.09861000  0.47804000  1.0
  C  C52  1  0.40837000  0.35851000  0.76576000  1.0
  C  C53  1  0.90837000  0.64149000  0.73424000  1.0
  C  C54  1  0.59163000  0.64149000  0.23424000  1.0
  C  C55  1  0.09163000  0.35851000  0.26576000  1.0
  C  C56  1  0.48624000  0.47998000  0.76561000  1.0
  C  C57  1  0.98624000  0.52002000  0.73439000  1.0
  C  C58  1  0.51376000  0.52002000  0.23439000  1.0
  C  C59  1  0.01376000  0.47998000  0.26561000  1.0
  C  C60  1  0.47281000  0.57098000  0.82455000  1.0
  C  C61  1  0.97281000  0.42902000  0.67545000  1.0
  C  C62  1  0.52719000  0.42902000  0.17545000  1.0
  C  C63  1  0.02719000  0.57098000  0.32455000  1.0
  C  C64  1  0.38391000  0.53905000  0.88374000  1.0
  C  C65  1  0.88391000  0.46095000  0.61626000  1.0
  C  C66  1  0.61609000  0.46095000  0.11626000  1.0
  C  C67  1  0.11609000  0.53905000  0.38374000  1.0
  C  C68  1  0.35877000  0.62158000  0.94808000  1.0
  C  C69  1  0.85877000  0.37842000  0.55192000  1.0
  C  C70  1  0.64123000  0.37842000  0.05192000  1.0
  C  C71  1  0.14123000  0.62158000  0.44808000  1.0
  C  C72  1  0.35309000  0.78066000  0.03553000  1.0
  C  C73  1  0.85309000  0.21934000  0.46447000  1.0
  C  C74  1  0.64691000  0.21934000  0.96447000  1.0
  C  C75  1  0.14691000  0.78066000  0.53553000  1.0
  C  C76  1  0.28388000  0.58088000  0.00694000  1.0
  C  C77  1  0.78388000  0.41912000  0.49306000  1.0
  C  C78  1  0.71612000  0.41912000  0.99306000  1.0
  C  C79  1  0.21612000  0.58088000  0.50694000  1.0
  C  C80  1  0.22318000  0.45178000  0.00513000  1.0
  C  C81  1  0.72319000  0.54822000  0.49487000  1.0
  C  C82  1  0.77681000  0.54822000  0.99487000  1.0
  C  C83  1  0.27682000  0.45178000  0.50513000  1.0
  C  C84  1  0.15174000  0.40112000  0.06187000  1.0
  C  C85  1  0.65175000  0.59888000  0.43813000  1.0
  C  C86  1  0.84826000  0.59888000  0.93813000  1.0
  C  C87  1  0.34826000  0.40112000  0.56187000  1.0
  C  C88  1  0.10026000  0.27372000  0.05323000  1.0
  C  C89  1  0.60027000  0.72628000  0.44677000  1.0
  C  C90  1  0.89974000  0.72628000  0.94677000  1.0
  C  C91  1  0.39974000  0.27371000  0.55323000  1.0
  C  C92  1  0.11495000  0.19858000  0.98757000  1.0
  C  C93  1  0.61495000  0.80142000  0.51243000  1.0
  C  C94  1  0.88505000  0.80142000  0.01243000  1.0
  C  C95  1  0.38505000  0.19858000  0.48756000  1.0
  C  C96  1  0.23622000  0.36844000  0.94073000  1.0
  C  C97  1  0.73622000  0.63155000  0.55927000  1.0
  C  C98  1  0.76378000  0.63156000  0.05927000  1.0
  C  C99  1  0.26378000  0.36845000  0.44073000  1.0
  C  C100  1  0.31565000  0.41204000  0.88031000  1.0
  C  C101  1  0.81565000  0.58796000  0.61969000  1.0
  C  C102  1  0.68435000  0.58796000  0.11969000  1.0
  C  C103  1  0.18435000  0.41204000  0.38031000  1.0
  S  S104  1  0.49555000  0.93389000  0.82995000  1.0
  S  S105  1  0.99555000  0.06611000  0.67005000  1.0
  S  S106  1  0.50445000  0.06611000  0.17005000  1.0
  S  S107  1  0.00445000  0.93389000  0.32995000  1.0
  N  N108  1  0.32561000  0.32661000  0.82132000  1.0
  N  N109  1  0.82561000  0.67339000  0.67868000  1.0
  N  N110  1  0.67438000  0.67339000  0.17868000  1.0
  N  N111  1  0.17438000  0.32661000  0.32132000  1.0
  N  N112  1  0.17978000  0.24504000  0.93329000  1.0
  N  N113  1  0.67978000  0.75496000  0.56671000  1.0
  N  N114  1  0.82022000  0.75496000  0.06671000  1.0
  N  N115  1  0.32023000  0.24503000  0.43329000  1.0
  N  N116  1  0.40094000  0.74854000  0.96791000  1.0
  N  N117  1  0.90094000  0.25146000  0.53209000  1.0
  N  N118  1  0.59906000  0.25146000  0.03209000  1.0
  N  N119  1  0.09906000  0.74854000  0.46791000  1.0
  N  N120  1  0.28276000  0.68174000  0.06110000  1.0
  N  N121  1  0.78277000  0.31826000  0.43890000  1.0
  N  N122  1  0.71723000  0.31826000  0.93890000  1.0
  N  N123  1  0.21723000  0.68174000  0.56110000  1.0
  O  O124  1  0.91340000  0.27048000  0.81967000  1.0
  O  O125  1  0.41340000  0.72953000  0.68033000  1.0
  O  O126  1  0.08660000  0.72953000  0.18033000  1.0
  O  O127  1  0.58660000  0.27047000  0.31967000  1.0
  O  O128  1  0.44285000  0.06628000  0.82297000  1.0
  O  O129  1  0.94285000  0.93372000  0.67703000  1.0
  O  O130  1  0.55715000  0.93372000  0.17703000  1.0
  O  O131  1  0.05715000  0.06628000  0.32297000  1.0
  O  O132  1  0.02201000  0.99050000  0.84403000  1.0
  O  O133  1  0.52201000  0.00950000  0.65597000  1.0
  O  O134  1  0.97799000  0.00950000  0.15597000  1.0
  O  O135  1  0.47799000  0.99050000  0.34403000  1.0
  O  O136  1  0.66678000  0.89253000  0.78431000  1.0
  O  O137  1  0.16678000  0.10747000  0.71569000  1.0
  O  O138  1  0.33322000  0.10746000  0.21569000  1.0
  O  O139  1  0.83322000  0.89253000  0.28431000  1.0
  O  O140  1  0.55124000  0.92723000  0.90184000  1.0
  O  O141  1  0.05125000  0.07277000  0.59816000  1.0
  O  O142  1  0.44875000  0.07277000  0.09816000  1.0
  O  O143  1  0.94875000  0.92723000  0.40184000  1.0
  O  O144  1  0.32892000  0.84572000  0.80843000  1.0
  O  O145  1  0.82892000  0.15428000  0.69157000  1.0
  O  O146  1  0.67107000  0.15428000  0.19157000  1.0
  O  O147  1  0.17108000  0.84572000  0.30843000  1.0
