# generated using pymatgen
data_Cu3H25WC30S3BrN10O
_symmetry_space_group_name_H-M   'P 1'
_cell_length_a   10.78640000
_cell_length_b   12.47670000
_cell_length_c   14.42550000
_cell_angle_alpha   66.83730000
_cell_angle_beta   75.83350000
_cell_angle_gamma   79.17860000
_symmetry_Int_Tables_number   1
_chemical_formula_structural   Cu3H25WC30S3BrN10O
_chemical_formula_sum   'Cu6 H50 W2 C60 S6 Br2 N20 O2'
_cell_volume   1721.45697913
_cell_formula_units_Z   2
loop_
 _symmetry_equiv_pos_site_id
 _symmetry_equiv_pos_as_xyz
  1  'x, y, z'
loop_
 _atom_site_type_symbol
 _atom_site_label
 _atom_site_symmetry_multiplicity
 _atom_site_fract_x
 _atom_site_fract_y
 _atom_site_fract_z
 _atom_site_occupancy
  Cu  Cu0  1  0.07793000  0.76124000  0.02433000  1.0
  Cu  Cu1  1  0.92207000  0.23876000  0.97567000  1.0
  Cu  Cu2  1  0.09432000  0.45979000  0.22459000  1.0
  Cu  Cu3  1  0.90568000  0.54021000  0.77541000  1.0
  Cu  Cu4  1  0.06841000  0.71129000  0.30605000  1.0
  Cu  Cu5  1  0.93159000  0.28871000  0.69396000  1.0
  H  H6  1  0.84673000  0.75434000  0.49134000  1.0
  H  H7  1  0.15327000  0.24566000  0.50866000  1.0
  H  H8  1  0.57393000  0.76224000  0.31945000  1.0
  H  H9  1  0.42607000  0.23776000  0.68055000  1.0
  H  H10  1  0.43841000  0.85993000  0.39761000  1.0
  H  H11  1  0.56159000  0.14007000  0.60239000  1.0
  H  H12  1  0.02760000  0.19792000  0.37868000  1.0
  H  H13  1  0.97241000  0.80207000  0.62132000  1.0
  H  H14  1  0.32141000  0.31214000  0.11971000  1.0
  H  H15  1  0.67859000  0.68786000  0.88029000  1.0
  H  H16  1  0.84465000  0.62363000  0.03019000  1.0
  H  H17  1  0.15535000  0.37637000  0.96981000  1.0
  H  H18  1  0.85769000  0.41038000  0.14349000  1.0
  H  H19  1  0.14231000  0.58962000  0.85651000  1.0
  H  H20  1  0.67611000  0.08507000  0.02887000  1.0
  H  H21  1  0.32389000  0.91493000  0.97113000  1.0
  H  H22  1  0.31923000  0.73253000  0.85624000  1.0
  H  H23  1  0.68077000  0.26747000  0.14376000  1.0
  H  H24  1  0.59105000  0.70704000  0.08617000  1.0
  H  H25  1  0.40895000  0.29296000  0.91383000  1.0
  H  H26  1  0.46385000  0.54586000  0.32359000  1.0
  H  H27  1  0.53615000  0.45414000  0.67641000  1.0
  H  H28  1  0.82090000  0.71062000  0.22245000  1.0
  H  H29  1  0.17909000  0.28938000  0.77755000  1.0
  H  H30  1  0.84108000  0.95388000  0.04699000  1.0
  H  H31  1  0.15892000  0.04612000  0.95301000  1.0
  H  H32  1  0.50938000  0.78813000  0.74504000  1.0
  H  H33  1  0.49062000  0.21187000  0.25496000  1.0
  H  H34  1  0.50153000  0.20624000  0.09576000  1.0
  H  H35  1  0.49847000  0.79376000  0.90424000  1.0
  H  H36  1  0.71219000  0.40927000  0.54781000  1.0
  H  H37  1  0.28781000  0.59073000  0.45219000  1.0
  H  H38  1  0.60678000  0.42993000  0.24947000  1.0
  H  H39  1  0.39322000  0.57007000  0.75053000  1.0
  H  H40  1  0.00106000  0.98912000  0.81743000  1.0
  H  H41  1  0.99894000  0.01088000  0.18257000  1.0
  H  H42  1  0.86505000  0.47423000  0.40805000  1.0
  H  H43  1  0.13495000  0.52577000  0.59194000  1.0
  H  H44  1  0.15254000  0.01655000  0.62680000  1.0
  H  H45  1  0.84745000  0.98345000  0.37320000  1.0
  H  H46  1  0.45135000  0.78895000  0.17941000  1.0
  H  H47  1  0.54866000  0.21105000  0.82059000  1.0
  H  H48  1  0.27546000  0.91040000  0.24629000  1.0
  H  H49  1  0.72454000  0.08960000  0.75371000  1.0
  H  H50  1  0.17067000  0.00153000  0.34596000  1.0
  H  H51  1  0.82933000  0.99847000  0.65404000  1.0
  H  H52  1  0.25906000  0.89964000  0.52487000  1.0
  H  H53  1  0.74094000  0.10037000  0.47512000  1.0
  H  H54  1  0.68576000  0.73341000  0.62246000  1.0
  H  H55  1  0.31424000  0.26660000  0.37754000  1.0
  W  W56  1  0.23361000  0.64040000  0.16186000  1.0
  W  W57  1  0.76639000  0.35960000  0.83814000  1.0
  C  C58  1  0.80638000  0.74858000  0.43183000  1.0
  C  C59  1  0.19362000  0.25142000  0.56817000  1.0
  C  C60  1  0.66635000  0.75472000  0.33922000  1.0
  C  C61  1  0.33365000  0.24528000  0.66078000  1.0
  C  C62  1  0.57549000  0.79519000  0.50046000  1.0
  C  C63  1  0.42451000  0.20481000  0.49954000  1.0
  C  C64  1  0.45533000  0.84357000  0.47361000  1.0
  C  C65  1  0.54466000  0.15643000  0.52639000  1.0
  C  C66  1  0.11084000  0.19194000  0.31996000  1.0
  C  C67  1  0.88916000  0.80806000  0.68004000  1.0
  C  C68  1  0.26263000  0.25526000  0.18693000  1.0
  C  C69  1  0.73737000  0.74474000  0.81307000  1.0
  C  C70  1  0.37751000  0.06607000  0.17856000  1.0
  C  C71  1  0.62249000  0.93393000  0.82144000  1.0
  C  C72  1  0.80624000  0.70526000  0.04140000  1.0
  C  C73  1  0.19376000  0.29473000  0.95860000  1.0
  C  C74  1  0.82192000  0.42679000  0.21434000  1.0
  C  C75  1  0.17808000  0.57321000  0.78567000  1.0
  C  C76  1  0.59022000  0.04538000  0.07885000  1.0
  C  C77  1  0.40978000  0.95462000  0.92115000  1.0
  C  C78  1  0.57822000  0.92708000  0.10400000  1.0
  C  C79  1  0.42178000  0.07292000  0.89600000  1.0
  C  C80  1  0.60012000  0.47591000  0.42729000  1.0
  C  C81  1  0.39988000  0.52409000  0.57270000  1.0
  C  C82  1  0.37294000  0.84870000  0.64312000  1.0
  C  C83  1  0.62706000  0.15130000  0.35688000  1.0
  C  C84  1  0.25497000  0.80812000  0.82146000  1.0
  C  C85  1  0.74502000  0.19188000  0.17854000  1.0
  C  C86  1  0.68048000  0.74525000  0.06886000  1.0
  C  C87  1  0.31952000  0.25475000  0.93114000  1.0
  C  C88  1  0.47992000  0.52432000  0.40098000  1.0
  C  C89  1  0.52008000  0.47568000  0.59902000  1.0
  C  C90  1  0.78861000  0.72931000  0.29222000  1.0
  C  C91  1  0.21139000  0.27069000  0.70778000  1.0
  C  C92  1  0.80961000  0.87639000  0.04697000  1.0
  C  C93  1  0.19039000  0.12361000  0.95303000  1.0
  C  C94  1  0.49363000  0.80240000  0.66925000  1.0
  C  C95  1  0.50637000  0.19760000  0.33075000  1.0
  C  C96  1  0.49031000  0.11429000  0.11647000  1.0
  C  C97  1  0.50970000  0.88571000  0.88353000  1.0
  C  C98  1  0.62009000  0.45136000  0.52618000  1.0
  C  C99  1  0.37991000  0.54865000  0.47382000  1.0
  C  C100  1  0.69763000  0.43555000  0.26573000  1.0
  C  C101  1  0.30236000  0.56445000  0.73427000  1.0
  C  C102  1  0.09073000  0.93987000  0.79762000  1.0
  C  C103  1  0.90927000  0.06013000  0.20239000  1.0
  C  C104  1  0.83094000  0.45853000  0.35035000  1.0
  C  C105  1  0.16907000  0.54147000  0.64965000  1.0
  C  C106  1  0.16487000  0.95454000  0.70229000  1.0
  C  C107  1  0.83512000  0.04546000  0.29771000  1.0
  C  C108  1  0.46395000  0.87972000  0.16286000  1.0
  C  C109  1  0.53605000  0.12028000  0.83714000  1.0
  C  C110  1  0.36355000  0.94907000  0.19991000  1.0
  C  C111  1  0.63646000  0.05094000  0.80009000  1.0
  C  C112  1  0.18137000  0.09445000  0.30523000  1.0
  C  C113  1  0.81864000  0.90555000  0.69476000  1.0
  C  C114  1  0.35376000  0.86867000  0.54512000  1.0
  C  C115  1  0.64624000  0.13133000  0.45488000  1.0
  C  C116  1  0.59415000  0.77369000  0.59915000  1.0
  C  C117  1  0.40585000  0.22631000  0.40085000  1.0
  S  S118  1  0.16792000  0.57161000  0.05847000  1.0
  S  S119  1  0.83208000  0.42839000  0.94154000  1.0
  S  S120  1  0.16310000  0.52602000  0.32778000  1.0
  S  S121  1  0.83690000  0.47398000  0.67222000  1.0
  S  S122  1  0.13369000  0.82472000  0.13593000  1.0
  S  S123  1  0.86631000  0.17528000  0.86407000  1.0
  Br  Br124  1  0.11874000  0.79046000  0.42745000  1.0
  Br  Br125  1  0.88126000  0.20954000  0.57255000  1.0
  N  N126  1  0.87491000  0.72660000  0.35017000  1.0
  N  N127  1  0.12509000  0.27340000  0.64983000  1.0
  N  N128  1  0.67797000  0.76695000  0.42825000  1.0
  N  N129  1  0.32203000  0.23306000  0.57175000  1.0
  N  N130  1  0.16271000  0.29123000  0.24581000  1.0
  N  N131  1  0.83729000  0.70877000  0.75420000  1.0
  N  N132  1  0.27802000  0.13545000  0.22021000  1.0
  N  N133  1  0.72198000  0.86455000  0.77979000  1.0
  N  N134  1  0.14785000  0.84806000  0.87121000  1.0
  N  N135  1  0.85215000  0.15194000  0.12879000  1.0
  N  N136  1  0.68359000  0.85488000  0.07158000  1.0
  N  N137  1  0.31641000  0.14512000  0.92842000  1.0
  N  N138  1  0.90376000  0.44285000  0.26724000  1.0
  N  N139  1  0.09623000  0.55715000  0.73276000  1.0
  N  N140  1  0.70435000  0.45513000  0.35264000  1.0
  N  N141  1  0.29565000  0.54487000  0.64736000  1.0
  N  N142  1  0.26993000  0.87053000  0.71818000  1.0
  N  N143  1  0.73006000  0.12947000  0.28182000  1.0
  N  N144  1  0.88581000  0.78708000  0.02889000  1.0
  N  N145  1  0.11420000  0.21292000  0.97111000  1.0
  O  O146  1  0.40173000  0.63914000  0.13623000  1.0
  O  O147  1  0.59827000  0.36086000  0.86377000  1.0
