# generated using pymatgen
data_TbH18C30N5O11
_symmetry_space_group_name_H-M   'P 1'
_cell_length_a   9.19087000
_cell_length_b   12.83920000
_cell_length_c   13.14990000
_cell_angle_alpha   61.35770000
_cell_angle_beta   82.24670000
_cell_angle_gamma   74.00550000
_symmetry_Int_Tables_number   1
_chemical_formula_structural   TbH18C30N5O11
_chemical_formula_sum   'Tb2 H36 C60 N10 O22'
_cell_volume   1309.11956974
_cell_formula_units_Z   2
loop_
 _symmetry_equiv_pos_site_id
 _symmetry_equiv_pos_as_xyz
  1  'x, y, z'
loop_
 _atom_site_type_symbol
 _atom_site_label
 _atom_site_symmetry_multiplicity
 _atom_site_fract_x
 _atom_site_fract_y
 _atom_site_fract_z
 _atom_site_occupancy
  Tb  Tb0  1  0.75016000  0.56963000  0.86162000  1.0
  Tb  Tb1  1  0.24984000  0.43037000  0.13838000  1.0
  H  H2  1  0.67936000  0.82826000  0.25894000  1.0
  H  H3  1  0.82012000  0.91348000  0.25782000  1.0
  H  H4  1  0.32064000  0.17174000  0.74106000  1.0
  H  H5  1  0.17988000  0.08652000  0.74218000  1.0
  H  H6  1  0.64466000  0.90477000  0.04679000  1.0
  H  H7  1  0.85444000  0.04872000  0.04631000  1.0
  H  H8  1  0.35534000  0.09523000  0.95321000  1.0
  H  H9  1  0.14556000  0.95128000  0.95369000  1.0
  H  H10  1  0.44195000  0.86326000  0.97703000  1.0
  H  H11  1  0.05725000  0.15906000  0.97772000  1.0
  H  H12  1  0.55805000  0.13674000  0.02297000  1.0
  H  H13  1  0.94275000  0.84094000  0.02228000  1.0
  H  H14  1  0.26049000  0.74589000  0.11699000  1.0
  H  H15  1  0.23927000  0.13596000  0.11835000  1.0
  H  H16  1  0.73951000  0.25412000  0.88301000  1.0
  H  H17  1  0.76073000  0.86404000  0.88165000  1.0
  H  H18  1  0.11538000  0.53799000  0.52193000  1.0
  H  H19  1  0.38469000  0.93957000  0.52315000  1.0
  H  H20  1  0.88462000  0.46201000  0.47807000  1.0
  H  H21  1  0.61531000  0.06043000  0.47686000  1.0
  H  H22  1  0.15829000  0.40123000  0.88802000  1.0
  H  H23  1  0.34280000  0.71066000  0.88832000  1.0
  H  H24  1  0.84171000  0.59877000  0.11198000  1.0
  H  H25  1  0.65720000  0.28935000  0.11168000  1.0
  H  H26  1  0.49411000  0.57235000  0.65810000  1.0
  H  H27  1  0.00604000  0.77002000  0.65794000  1.0
  H  H28  1  0.50589000  0.42765000  0.34190000  1.0
  H  H29  1  0.99396000  0.22998000  0.34206000  1.0
  H  H30  1  0.18972000  0.63489000  0.35462000  1.0
  H  H31  1  0.30985000  0.01064000  0.35513000  1.0
  H  H32  1  0.81028000  0.36511000  0.64538000  1.0
  H  H33  1  0.69015000  0.98936000  0.64487000  1.0
  H  H34  1  0.54298000  0.69172000  0.48075000  1.0
  H  H35  1  0.95698000  0.82809000  0.47969000  1.0
  H  H36  1  0.45702000  0.30829000  0.51925000  1.0
  H  H37  1  0.04302000  0.17191000  0.52031000  1.0
  C  C38  1  0.48653000  0.74916000  0.30363000  1.0
  C  C39  1  0.01332000  0.94721000  0.30337000  1.0
  C  C40  1  0.51347000  0.25084000  0.69637000  1.0
  C  C41  1  0.98668000  0.05280000  0.69663000  1.0
  C  C42  1  0.58796000  0.81376000  0.22694000  1.0
  C  C43  1  0.91164000  0.95955000  0.22634000  1.0
  C  C44  1  0.41204000  0.18624000  0.77305000  1.0
  C  C45  1  0.08836000  0.04045000  0.77366000  1.0
  C  C46  1  0.56753000  0.85440000  0.10973000  1.0
  C  C47  1  0.93180000  0.03596000  0.10949000  1.0
  C  C48  1  0.43247000  0.14560000  0.89027000  1.0
  C  C49  1  0.06820000  0.96404000  0.89051000  1.0
  C  C50  1  0.45047000  0.83185000  0.06962000  1.0
  C  C51  1  0.04892000  0.09812000  0.07005000  1.0
  C  C52  1  0.54952000  0.16816000  0.93038000  1.0
  C  C53  1  0.95108000  0.90188000  0.92995000  1.0
  C  C54  1  0.34846000  0.76792000  0.14560000  1.0
  C  C55  1  0.15121000  0.08575000  0.14638000  1.0
  C  C56  1  0.65154000  0.23208000  0.85440000  1.0
  C  C57  1  0.84878000  0.91425000  0.85362000  1.0
  C  C58  1  0.36901000  0.72711000  0.26326000  1.0
  C  C59  1  0.13085000  0.00915000  0.26368000  1.0
  C  C60  1  0.63099000  0.27289000  0.73674000  1.0
  C  C61  1  0.86915000  0.99085000  0.73632000  1.0
  C  C62  1  0.35761000  0.63773000  0.45590000  1.0
  C  C63  1  0.14234000  0.90635000  0.45622000  1.0
  C  C64  1  0.64239000  0.36228000  0.54410000  1.0
  C  C65  1  0.85766000  0.09365000  0.54378000  1.0
  C  C66  1  0.30946000  0.56770000  0.57403000  1.0
  C  C67  1  0.19058000  0.85832000  0.57453000  1.0
  C  C68  1  0.69054000  0.43231000  0.42597000  1.0
  C  C69  1  0.80942000  0.14168000  0.42547000  1.0
  C  C70  1  0.17923000  0.52384000  0.59337000  1.0
  C  C71  1  0.32101000  0.88244000  0.59428000  1.0
  C  C72  1  0.82078000  0.47616000  0.40663000  1.0
  C  C73  1  0.67899000  0.11756000  0.40572000  1.0
  C  C74  1  0.12576000  0.46376000  0.70576000  1.0
  C  C75  1  0.37495000  0.83001000  0.70662000  1.0
  C  C76  1  0.87425000  0.53624000  0.29424000  1.0
  C  C77  1  0.62505000  0.16999000  0.29338000  1.0
  C  C78  1  0.98113000  0.42575000  0.71794000  1.0
  C  C79  1  0.52011000  0.85523000  0.71894000  1.0
  C  C80  1  0.01888000  0.57425000  0.28205000  1.0
  C  C81  1  0.47988000  0.14478000  0.28106000  1.0
  C  C82  1  0.20281000  0.44463000  0.80039000  1.0
  C  C83  1  0.29795000  0.75488000  0.80083000  1.0
  C  C84  1  0.79719000  0.55537000  0.19961000  1.0
  C  C85  1  0.70205000  0.24512000  0.19917000  1.0
  C  C86  1  0.33814000  0.48183000  0.78193000  1.0
  C  C87  1  0.16249000  0.73629000  0.78218000  1.0
  C  C88  1  0.66186000  0.51817000  0.21807000  1.0
  C  C89  1  0.83751000  0.26371000  0.21782000  1.0
  C  C90  1  0.39041000  0.54325000  0.66924000  1.0
  C  C91  1  0.10982000  0.78774000  0.66948000  1.0
  C  C92  1  0.60958000  0.45675000  0.33076000  1.0
  C  C93  1  0.89019000  0.21226000  0.33052000  1.0
  C  C94  1  0.42534000  0.46253000  0.88134000  1.0
  C  C95  1  0.07614000  0.65575000  0.88130000  1.0
  C  C96  1  0.57465000  0.53746000  0.11867000  1.0
  C  C97  1  0.92388000  0.34424000  0.11871000  1.0
  N  N98  1  0.29240000  0.65863000  0.35982000  1.0
  N  N99  1  0.20753000  0.98108000  0.36054000  1.0
  N  N100  1  0.70759000  0.34137000  0.64018000  1.0
  N  N101  1  0.79247000  0.01892000  0.63945000  1.0
  N  N102  1  0.47468000  0.69263000  0.42368000  1.0
  N  N103  1  0.02523000  0.88394000  0.42333000  1.0
  N  N104  1  0.52532000  0.30737000  0.57632000  1.0
  N  N105  1  0.97477000  0.11606000  0.57667000  1.0
  N  N106  1  0.75023000  0.72250000  0.55460000  1.0
  N  N107  1  0.24977000  0.27750000  0.44540000  1.0
  O  O108  1  0.96481000  0.38284000  0.65250000  1.0
  O  O109  1  0.53698000  0.96242000  0.65398000  1.0
  O  O110  1  0.03519000  0.61716000  0.34750000  1.0
  O  O111  1  0.46302000  0.03758000  0.34603000  1.0
  O  O112  1  0.88266000  0.44081000  0.79084000  1.0
  O  O113  1  0.61815000  0.76812000  0.79119000  1.0
  O  O114  1  0.11734000  0.55919000  0.20916000  1.0
  O  O115  1  0.38185000  0.23187000  0.20881000  1.0
  O  O116  1  0.37049000  0.41245000  0.98220000  1.0
  O  O117  1  0.13253000  0.60362000  0.98171000  1.0
  O  O118  1  0.62952000  0.58755000  0.01780000  1.0
  O  O119  1  0.86747000  0.39638000  0.01828000  1.0
  O  O120  1  0.54778000  0.49759000  0.85877000  1.0
  O  O121  1  0.95288000  0.64405000  0.85882000  1.0
  O  O122  1  0.45223000  0.50241000  0.14123000  1.0
  O  O123  1  0.04711000  0.35595000  0.14118000  1.0
  O  O124  1  0.64801000  0.66649000  0.61112000  1.0
  O  O125  1  0.85299000  0.72086000  0.61170000  1.0
  O  O126  1  0.35199000  0.33351000  0.38889000  1.0
  O  O127  1  0.14701000  0.27915000  0.38829000  1.0
  O  O128  1  0.74954000  0.77743000  0.44636000  1.0
  O  O129  1  0.25046000  0.22257000  0.55364000  1.0
