# generated using pymatgen
data_SnH18(C5O)2
_symmetry_space_group_name_H-M   'P 1'
_cell_length_a   9.79968000
_cell_length_b   10.93920000
_cell_length_c   11.88740000
_cell_angle_alpha   113.33900000
_cell_angle_beta   90.00000000
_cell_angle_gamma   89.99970000
_symmetry_Int_Tables_number   1
_chemical_formula_structural   SnH18(C5O)2
_chemical_formula_sum   'Sn4 H72 C40 O8'
_cell_volume   1170.06694301
_cell_formula_units_Z   4
loop_
 _symmetry_equiv_pos_site_id
 _symmetry_equiv_pos_as_xyz
  1  'x, y, z'
loop_
 _atom_site_type_symbol
 _atom_site_label
 _atom_site_symmetry_multiplicity
 _atom_site_fract_x
 _atom_site_fract_y
 _atom_site_fract_z
 _atom_site_occupancy
  Sn  Sn0  1  0.89163000  0.82916000  0.76128000  1.0
  Sn  Sn1  1  0.39163000  0.67085000  0.73872000  1.0
  Sn  Sn2  1  0.10837000  0.17084000  0.23872000  1.0
  Sn  Sn3  1  0.60837000  0.32916000  0.26128000  1.0
  H  H4  1  0.88647000  0.55873000  0.80897000  1.0
  H  H5  1  0.38647000  0.94126000  0.69103000  1.0
  H  H6  1  0.11353000  0.44126000  0.19102000  1.0
  H  H7  1  0.61353000  0.05874000  0.30897000  1.0
  H  H8  1  0.77858000  0.57288000  0.99501000  1.0
  H  H9  1  0.27859000  0.92711000  0.50498000  1.0
  H  H10  1  0.22141000  0.42712000  0.00498000  1.0
  H  H11  1  0.72141000  0.07289000  0.49502000  1.0
  H  H12  1  0.65251000  0.45499000  0.91606000  1.0
  H  H13  1  0.15252000  0.04500000  0.58393000  1.0
  H  H14  1  0.34749000  0.54501000  0.08393000  1.0
  H  H15  1  0.84749000  0.95500000  0.41607000  1.0
  H  H16  1  0.85013000  0.36194000  0.00995000  1.0
  H  H17  1  0.35014000  0.13804000  0.49004000  1.0
  H  H18  1  0.14987000  0.63806000  0.99005000  1.0
  H  H19  1  0.64986000  0.86197000  0.50996000  1.0
  H  H20  1  0.98429000  0.21046000  0.84154000  1.0
  H  H21  1  0.48429000  0.28953000  0.65845000  1.0
  H  H22  1  0.01571000  0.78954000  0.15846000  1.0
  H  H23  1  0.51571000  0.71048000  0.34156000  1.0
  H  H24  1  0.92025000  0.18742000  0.63372000  1.0
  H  H25  1  0.42024000  0.31258000  0.86627000  1.0
  H  H26  1  0.07974000  0.81257000  0.36628000  1.0
  H  H27  1  0.57975000  0.68742000  0.13373000  1.0
  H  H28  1  0.02193000  0.33111000  0.68824000  1.0
  H  H29  1  0.52193000  0.16889000  0.81176000  1.0
  H  H30  1  0.97806000  0.66888000  0.31175000  1.0
  H  H31  1  0.47807000  0.83112000  0.18825000  1.0
  H  H32  1  0.81813000  0.38827000  0.60137000  1.0
  H  H33  1  0.31812000  0.11173000  0.89863000  1.0
  H  H34  1  0.18187000  0.61172000  0.39863000  1.0
  H  H35  1  0.68188000  0.88827000  0.10137000  1.0
  H  H36  1  0.70901000  0.31397000  0.67508000  1.0
  H  H37  1  0.20900000  0.18602000  0.82491000  1.0
  H  H38  1  0.29099000  0.68602000  0.32492000  1.0
  H  H39  1  0.79099000  0.81397000  0.17509000  1.0
  H  H40  1  0.02283000  0.72353000  0.90195000  1.0
  H  H41  1  0.52283000  0.77646000  0.59804000  1.0
  H  H42  1  0.97717000  0.27645000  0.09804000  1.0
  H  H43  1  0.47717000  0.22354000  0.40196000  1.0
  H  H44  1  0.89774000  0.83870000  0.99391000  1.0
  H  H45  1  0.39774000  0.66129000  0.50609000  1.0
  H  H46  1  0.10225000  0.16129000  0.00609000  1.0
  H  H47  1  0.60226000  0.33871000  0.49391000  1.0
  H  H48  1  0.05674000  0.89745000  0.95969000  1.0
  H  H49  1  0.55674000  0.60254000  0.54031000  1.0
  H  H50  1  0.94326000  0.10253000  0.04031000  1.0
  H  H51  1  0.44326000  0.39747000  0.45969000  1.0
  H  H52  1  0.74940000  0.00038000  0.69179000  1.0
  H  H53  1  0.24941000  0.49962000  0.80821000  1.0
  H  H54  1  0.25060000  0.99962000  0.30821000  1.0
  H  H55  1  0.75060000  0.50038000  0.19179000  1.0
  H  H56  1  0.77261000  0.07416000  0.85276000  1.0
  H  H57  1  0.27262000  0.42584000  0.64725000  1.0
  H  H58  1  0.22739000  0.92584000  0.14725000  1.0
  H  H59  1  0.72738000  0.57416000  0.35276000  1.0
  H  H60  1  0.64457000  0.94841000  0.78871000  1.0
  H  H61  1  0.14457000  0.55159000  0.71130000  1.0
  H  H62  1  0.35543000  0.05158000  0.21130000  1.0
  H  H63  1  0.85543000  0.44842000  0.28871000  1.0
  H  H64  1  0.95652000  0.58312000  0.59207000  1.0
  H  H65  1  0.45652000  0.91689000  0.90793000  1.0
  H  H66  1  0.04348000  0.41688000  0.40792000  1.0
  H  H67  1  0.54348000  0.08312000  0.09207000  1.0
  H  H68  1  0.99361000  0.70532000  0.53202000  1.0
  H  H69  1  0.49361000  0.79469000  0.96798000  1.0
  H  H70  1  0.00639000  0.29469000  0.46798000  1.0
  H  H71  1  0.50639000  0.20531000  0.03202000  1.0
  H  H72  1  0.82111000  0.65255000  0.53539000  1.0
  H  H73  1  0.32111000  0.84746000  0.96461000  1.0
  H  H74  1  0.17889000  0.34746000  0.46460000  1.0
  H  H75  1  0.67889000  0.15255000  0.03539000  1.0
  C  C76  1  0.67749000  0.58955000  0.77802000  1.0
  C  C77  1  0.17749000  0.91045000  0.72198000  1.0
  C  C78  1  0.32251000  0.41045000  0.22198000  1.0
  C  C79  1  0.82251000  0.08955000  0.27802000  1.0
  C  C80  1  0.78978000  0.50405000  0.79683000  1.0
  C  C81  1  0.28978000  0.99594000  0.70317000  1.0
  C  C82  1  0.21022000  0.49595000  0.20317000  1.0
  C  C83  1  0.71023000  0.00406000  0.29683000  1.0
  C  C84  1  0.76141000  0.47991000  0.91382000  1.0
  C  C85  1  0.26142000  0.02008000  0.58618000  1.0
  C  C86  1  0.23859000  0.52009000  0.08618000  1.0
  C  C87  1  0.73858000  0.97993000  0.41382000  1.0
  C  C88  1  0.84896000  0.37134000  0.92189000  1.0
  C  C89  1  0.34896000  0.12866000  0.57810000  1.0
  C  C90  1  0.15104000  0.62866000  0.07811000  1.0
  C  C91  1  0.65104000  0.87135000  0.42190000  1.0
  C  C92  1  0.92321000  0.28745000  0.82882000  1.0
  C  C93  1  0.42321000  0.21255000  0.67117000  1.0
  C  C94  1  0.07678000  0.71256000  0.17118000  1.0
  C  C95  1  0.57679000  0.78745000  0.32883000  1.0
  C  C96  1  0.92388000  0.29023000  0.70359000  1.0
  C  C97  1  0.42388000  0.20978000  0.79640000  1.0
  C  C98  1  0.07612000  0.70977000  0.29641000  1.0
  C  C99  1  0.57612000  0.79023000  0.20360000  1.0
  C  C100  1  0.80431000  0.37066000  0.68562000  1.0
  C  C101  1  0.30431000  0.12935000  0.81438000  1.0
  C  C102  1  0.19569000  0.62934000  0.31438000  1.0
  C  C103  1  0.69569000  0.87066000  0.18562000  1.0
  C  C104  1  0.97708000  0.82165000  0.92452000  1.0
  C  C105  1  0.47708000  0.67834000  0.57548000  1.0
  C  C106  1  0.02292000  0.17834000  0.07548000  1.0
  C  C107  1  0.52292000  0.32166000  0.42452000  1.0
  C  C108  1  0.74655000  0.98148000  0.77566000  1.0
  C  C109  1  0.24655000  0.51852000  0.72435000  1.0
  C  C110  1  0.25346000  0.01852000  0.22434000  1.0
  C  C111  1  0.75345000  0.48148000  0.27566000  1.0
  C  C112  1  0.91916000  0.67333000  0.58342000  1.0
  C  C113  1  0.41916000  0.82667000  0.91657000  1.0
  C  C114  1  0.08084000  0.32667000  0.41657000  1.0
  C  C115  1  0.58084000  0.17333000  0.08343000  1.0
  O  O116  1  0.70088000  0.70459000  0.78035000  1.0
  O  O117  1  0.20087000  0.79541000  0.71964000  1.0
  O  O118  1  0.29913000  0.29541000  0.21964000  1.0
  O  O119  1  0.79913000  0.20458000  0.28034000  1.0
  O  O120  1  0.55655000  0.53982000  0.76149000  1.0
  O  O121  1  0.05655000  0.96018000  0.73851000  1.0
  O  O122  1  0.44344000  0.46018000  0.23852000  1.0
  O  O123  1  0.94345000  0.03982000  0.26149000  1.0
