# generated using pymatgen
data_AgH7C8O5
_symmetry_space_group_name_H-M   'P 1'
_cell_length_a   6.59580000
_cell_length_b   10.47970000
_cell_length_c   11.72780000
_cell_angle_alpha   96.47600000
_cell_angle_beta   90.00000000
_cell_angle_gamma   89.99990000
_symmetry_Int_Tables_number   1
_chemical_formula_structural   AgH7C8O5
_chemical_formula_sum   'Ag4 H28 C32 O20'
_cell_volume   805.47645324
_cell_formula_units_Z   4
loop_
 _symmetry_equiv_pos_site_id
 _symmetry_equiv_pos_as_xyz
  1  'x, y, z'
loop_
 _atom_site_type_symbol
 _atom_site_label
 _atom_site_symmetry_multiplicity
 _atom_site_fract_x
 _atom_site_fract_y
 _atom_site_fract_z
 _atom_site_occupancy
  Ag  Ag0  1  0.00143000  0.93411000  0.35022000  1.0
  Ag  Ag1  1  0.50142000  0.56589000  0.14978000  1.0
  Ag  Ag2  1  0.99859000  0.06590000  0.64977000  1.0
  Ag  Ag3  1  0.49858000  0.43410000  0.85023000  1.0
  H  H4  1  0.52472000  0.85474000  0.75366000  1.0
  H  H5  1  0.02472000  0.64526000  0.74634000  1.0
  H  H6  1  0.47527000  0.14526000  0.24634000  1.0
  H  H7  1  0.97528000  0.35475000  0.25366000  1.0
  H  H8  1  0.22907000  0.88365000  0.15294000  1.0
  H  H9  1  0.72907000  0.61634000  0.34706000  1.0
  H  H10  1  0.77093000  0.11634000  0.84705000  1.0
  H  H11  1  0.27093000  0.38366000  0.65294000  1.0
  H  H12  1  0.05586000  0.77131000  0.94622000  1.0
  H  H13  1  0.55586000  0.72870000  0.55378000  1.0
  H  H14  1  0.94414000  0.22869000  0.05378000  1.0
  H  H15  1  0.44414000  0.27131000  0.44622000  1.0
  H  H16  1  0.57972000  0.93081000  0.15758000  1.0
  H  H17  1  0.07972000  0.56919000  0.34242000  1.0
  H  H18  1  0.42028000  0.06919000  0.84242000  1.0
  H  H19  1  0.92028000  0.43081000  0.65759000  1.0
  H  H20  1  0.83770000  0.94747000  0.96827000  1.0
  H  H21  1  0.33770000  0.55253000  0.53174000  1.0
  H  H22  1  0.16229000  0.05252000  0.03173000  1.0
  H  H23  1  0.66229000  0.44748000  0.46827000  1.0
  H  H24  1  0.93420000  0.06655000  0.17196000  1.0
  H  H25  1  0.43420000  0.43345000  0.32804000  1.0
  H  H26  1  0.06581000  0.93344000  0.82803000  1.0
  H  H27  1  0.56580000  0.56655000  0.67197000  1.0
  H  H28  1  0.02187000  0.65518000  0.14476000  1.0
  H  H29  1  0.52188000  0.84481000  0.35524000  1.0
  H  H30  1  0.97813000  0.34481000  0.85524000  1.0
  H  H31  1  0.47812000  0.15519000  0.64476000  1.0
  C  C32  1  0.57674000  0.84558000  0.92171000  1.0
  C  C33  1  0.07676000  0.65443000  0.57829000  1.0
  C  C34  1  0.42324000  0.15442000  0.07829000  1.0
  C  C35  1  0.92325000  0.34558000  0.42171000  1.0
  C  C36  1  0.83036000  0.62429000  0.93216000  1.0
  C  C37  1  0.33038000  0.87571000  0.56784000  1.0
  C  C38  1  0.16964000  0.37571000  0.06784000  1.0
  C  C39  1  0.66963000  0.12430000  0.43216000  1.0
  C  C40  1  0.06703000  0.87021000  0.16279000  1.0
  C  C41  1  0.56703000  0.62979000  0.33721000  1.0
  C  C42  1  0.93297000  0.12978000  0.83721000  1.0
  C  C43  1  0.43297000  0.37021000  0.66279000  1.0
  C  C44  1  0.91651000  0.74992000  0.99120000  1.0
  C  C45  1  0.41652000  0.75008000  0.50880000  1.0
  C  C46  1  0.08349000  0.25007000  0.00879000  1.0
  C  C47  1  0.58348000  0.24993000  0.49120000  1.0
  C  C48  1  0.72639000  0.89143000  0.12958000  1.0
  C  C49  1  0.22639000  0.60857000  0.37042000  1.0
  C  C50  1  0.27362000  0.10856000  0.87042000  1.0
  C  C51  1  0.77361000  0.39143000  0.62959000  1.0
  C  C52  1  0.76220000  0.86413000  0.99814000  1.0
  C  C53  1  0.26221000  0.63588000  0.50186000  1.0
  C  C54  1  0.23778000  0.13587000  0.00185000  1.0
  C  C55  1  0.73778000  0.36413000  0.49815000  1.0
  C  C56  1  0.91700000  0.96322000  0.17126000  1.0
  C  C57  1  0.41700000  0.53678000  0.32874000  1.0
  C  C58  1  0.08301000  0.03678000  0.82874000  1.0
  C  C59  1  0.58300000  0.46322000  0.67127000  1.0
  C  C60  1  0.95860000  0.74530000  0.12173000  1.0
  C  C61  1  0.45861000  0.75470000  0.37827000  1.0
  C  C62  1  0.04139000  0.25470000  0.87827000  1.0
  C  C63  1  0.54139000  0.24530000  0.62173000  1.0
  O  O64  1  0.63494000  0.83667000  0.81190000  1.0
  O  O65  1  0.13495000  0.66333000  0.68810000  1.0
  O  O66  1  0.36504000  0.16333000  0.18810000  1.0
  O  O67  1  0.86505000  0.33668000  0.31191000  1.0
  O  O68  1  0.75825000  0.76786000  0.17006000  1.0
  O  O69  1  0.25827000  0.73214000  0.32994000  1.0
  O  O70  1  0.24174000  0.23214000  0.82993000  1.0
  O  O71  1  0.74173000  0.26786000  0.67007000  1.0
  O  O72  1  0.40035000  0.84693000  0.95560000  1.0
  O  O73  1  0.90037000  0.65308000  0.54440000  1.0
  O  O74  1  0.59963000  0.15307000  0.04441000  1.0
  O  O75  1  0.09963000  0.34692000  0.45560000  1.0
  O  O76  1  0.90862000  0.57729000  0.83869000  1.0
  O  O77  1  0.40862000  0.92271000  0.66131000  1.0
  O  O78  1  0.09139000  0.42271000  0.16130000  1.0
  O  O79  1  0.59138000  0.07729000  0.33869000  1.0
  O  O80  1  0.67902000  0.57107000  0.97788000  1.0
  O  O81  1  0.17903000  0.92893000  0.52212000  1.0
  O  O82  1  0.32099000  0.42892000  0.02211000  1.0
  O  O83  1  0.82099000  0.07108000  0.47788000  1.0
