# generated using pymatgen
data_InH8C15NO10
_symmetry_space_group_name_H-M   'P 1'
_cell_length_a   7.20635000
_cell_length_b   15.10670000
_cell_length_c   22.17800000
_cell_angle_alpha   89.99990000
_cell_angle_beta   89.99970000
_cell_angle_gamma   98.23750000
_symmetry_Int_Tables_number   1
_chemical_formula_structural   InH8C15NO10
_chemical_formula_sum   'In4 H32 C60 N4 O40'
_cell_volume   2389.47945085
_cell_formula_units_Z   4
loop_
 _symmetry_equiv_pos_site_id
 _symmetry_equiv_pos_as_xyz
  1  'x, y, z'
loop_
 _atom_site_type_symbol
 _atom_site_label
 _atom_site_symmetry_multiplicity
 _atom_site_fract_x
 _atom_site_fract_y
 _atom_site_fract_z
 _atom_site_occupancy
  In  In0  1  0.99951000  0.00005000  0.50004000  1.0
  In  In1  1  0.50036000  0.49995000  0.00006000  1.0
  In  In2  1  0.49952000  0.00002000  0.50000000  1.0
  In  In3  1  0.00036000  0.49999000  0.99999000  1.0
  H  H4  1  0.38998000  0.71795000  0.49356000  1.0
  H  H5  1  0.91077000  0.72737000  0.59082000  1.0
  H  H6  1  0.50082000  0.48941000  0.59652000  1.0
  H  H7  1  0.54288000  0.59607000  0.69808000  1.0
  H  H8  1  0.51538000  0.56868000  0.80865000  1.0
  H  H9  1  0.05463000  0.47826000  0.81024000  1.0
  H  H10  1  0.78534000  0.12223000  0.52906000  1.0
  H  H11  1  0.05658000  0.44740000  0.53082000  1.0
  H  H12  1  0.11004000  0.78204000  0.99356000  1.0
  H  H13  1  0.58926000  0.77264000  0.09082000  1.0
  H  H14  1  0.99924000  0.01059000  0.09651000  1.0
  H  H15  1  0.95713000  0.90395000  0.19807000  1.0
  H  H16  1  0.98460000  0.93131000  0.30865000  1.0
  H  H17  1  0.44534000  0.02172000  0.31024000  1.0
  H  H18  1  0.71458000  0.37778000  0.02906000  1.0
  H  H19  1  0.44348000  0.05259000  0.03082000  1.0
  H  H20  1  0.60975000  0.28199000  0.50645000  1.0
  H  H21  1  0.08904000  0.27269000  0.40916000  1.0
  H  H22  1  0.49922000  0.51057000  0.40347000  1.0
  H  H23  1  0.45714000  0.40393000  0.30195000  1.0
  H  H24  1  0.48476000  0.43130000  0.19138000  1.0
  H  H25  1  0.94551000  0.52173000  0.18971000  1.0
  H  H26  1  0.21367000  0.87789000  0.47093000  1.0
  H  H27  1  0.94338000  0.55252000  0.46916000  1.0
  H  H28  1  0.89028000  0.21801000  0.00645000  1.0
  H  H29  1  0.41099000  0.22732000  0.90916000  1.0
  H  H30  1  0.00084000  0.98944000  0.90347000  1.0
  H  H31  1  0.04289000  0.09609000  0.80195000  1.0
  H  H32  1  0.01524000  0.06870000  0.69138000  1.0
  H  H33  1  0.55447000  0.97825000  0.68970000  1.0
  H  H34  1  0.28625000  0.62213000  0.97094000  1.0
  H  H35  1  0.55669000  0.94747000  0.96916000  1.0
  C  C36  1  0.70770000  0.82840000  0.52092000  1.0
  C  C37  1  0.65611000  0.73307000  0.53977000  1.0
  C  C38  1  0.48314000  0.68630000  0.52243000  1.0
  C  C39  1  0.77521000  0.69190000  0.57696000  1.0
  C  C40  1  0.42754000  0.59892000  0.54234000  1.0
  C  C41  1  0.54487000  0.55714000  0.58012000  1.0
  C  C42  1  0.71695000  0.60494000  0.59676000  1.0
  C  C43  1  0.65590000  0.57140000  0.72264000  1.0
  C  C44  1  0.81700000  0.55481000  0.69187000  1.0
  C  C45  1  0.63967000  0.55501000  0.78432000  1.0
  C  C46  1  0.96051000  0.52251000  0.72486000  1.0
  C  C47  1  0.23929000  0.55389000  0.52381000  1.0
  C  C48  1  0.78117000  0.52065000  0.81640000  1.0
  C  C49  1  0.76679000  0.50514000  0.88269000  1.0
  C  C50  1  0.94219000  0.50367000  0.78589000  1.0
  C  C51  1  0.79226000  0.67161000  0.02092000  1.0
  C  C52  1  0.84390000  0.76693000  0.03977000  1.0
  C  C53  1  0.01689000  0.81369000  0.02243000  1.0
  C  C54  1  0.72481000  0.80811000  0.07696000  1.0
  C  C55  1  0.07250000  0.90107000  0.04234000  1.0
  C  C56  1  0.95518000  0.94286000  0.08012000  1.0
  C  C57  1  0.78309000  0.89506000  0.09676000  1.0
  C  C58  1  0.84411000  0.92861000  0.22264000  1.0
  C  C59  1  0.68303000  0.94520000  0.19187000  1.0
  C  C60  1  0.86031000  0.94498000  0.28432000  1.0
  C  C61  1  0.53949000  0.97748000  0.22485000  1.0
  C  C62  1  0.26077000  0.94610000  0.02382000  1.0
  C  C63  1  0.71878000  0.97934000  0.31639000  1.0
  C  C64  1  0.73312000  0.99485000  0.38268000  1.0
  C  C65  1  0.55778000  0.99632000  0.28588000  1.0
  C  C66  1  0.29178000  0.17165000  0.47915000  1.0
  C  C67  1  0.34360000  0.26695000  0.46024000  1.0
  C  C68  1  0.51665000  0.31366000  0.47756000  1.0
  C  C69  1  0.22460000  0.30813000  0.42302000  1.0
  C  C70  1  0.57237000  0.40103000  0.45764000  1.0
  C  C71  1  0.45510000  0.44283000  0.41986000  1.0
  C  C72  1  0.28298000  0.39507000  0.40322000  1.0
  C  C73  1  0.34416000  0.42859000  0.27737000  1.0
  C  C74  1  0.18303000  0.44521000  0.30811000  1.0
  C  C75  1  0.36045000  0.44498000  0.21570000  1.0
  C  C76  1  0.03953000  0.47748000  0.27512000  1.0
  C  C77  1  0.76066000  0.44602000  0.47617000  1.0
  C  C78  1  0.21899000  0.47936000  0.18361000  1.0
  C  C79  1  0.23353000  0.49491000  0.11734000  1.0
  C  C80  1  0.05792000  0.49633000  0.21409000  1.0
  C  C81  1  0.20821000  0.32836000  0.97914000  1.0
  C  C82  1  0.15642000  0.23306000  0.96023000  1.0
  C  C83  1  0.98338000  0.18634000  0.97756000  1.0
  C  C84  1  0.27542000  0.19188000  0.92302000  1.0
  C  C85  1  0.92767000  0.09897000  0.95764000  1.0
  C  C86  1  0.04495000  0.05717000  0.91986000  1.0
  C  C87  1  0.21706000  0.10494000  0.90322000  1.0
  C  C88  1  0.15587000  0.07142000  0.77737000  1.0
  C  C89  1  0.31700000  0.05480000  0.80811000  1.0
  C  C90  1  0.13955000  0.05502000  0.71569000  1.0
  C  C91  1  0.46048000  0.02252000  0.77510000  1.0
  C  C92  1  0.73939000  0.05397000  0.97617000  1.0
  C  C93  1  0.28099000  0.02063000  0.68361000  1.0
  C  C94  1  0.26640000  0.00508000  0.61733000  1.0
  C  C95  1  0.44207000  0.00366000  0.71407000  1.0
  N  N96  1  0.14056000  0.51409000  0.69623000  1.0
  N  N97  1  0.35945000  0.98591000  0.19621000  1.0
  N  N98  1  0.85947000  0.48590000  0.30375000  1.0
  N  N99  1  0.64054000  0.01409000  0.80373000  1.0
  O  O100  1  0.76695000  0.05755000  0.53424000  1.0
  O  O101  1  0.87547000  0.86548000  0.53058000  1.0
  O  O102  1  0.57765000  0.86552000  0.49698000  1.0
  O  O103  1  0.84440000  0.56518000  0.63138000  1.0
  O  O104  1  0.19048000  0.47280000  0.54552000  1.0
  O  O105  1  0.13839000  0.59288000  0.48993000  1.0
  O  O106  1  0.62041000  0.52418000  0.90901000  1.0
  O  O107  1  0.90455000  0.47461000  0.90771000  1.0
  O  O108  1  0.20666000  0.44355000  0.70350000  1.0
  O  O109  1  0.21906000  0.58069000  0.66859000  1.0
  O  O110  1  0.73296000  0.44247000  0.03424000  1.0
  O  O111  1  0.62449000  0.63453000  0.03058000  1.0
  O  O112  1  0.92230000  0.63450000  0.99697000  1.0
  O  O113  1  0.65565000  0.93484000  0.13137000  1.0
  O  O114  1  0.30959000  0.02718000  0.04553000  1.0
  O  O115  1  0.36167000  0.90711000  0.98994000  1.0
  O  O116  1  0.87949000  0.97580000  0.40900000  1.0
  O  O117  1  0.59537000  0.02539000  0.40770000  1.0
  O  O118  1  0.29336000  0.05645000  0.20347000  1.0
  O  O119  1  0.28096000  0.91929000  0.16858000  1.0
  O  O120  1  0.23205000  0.94258000  0.46580000  1.0
  O  O121  1  0.12399000  0.13459000  0.46950000  1.0
  O  O122  1  0.42178000  0.13456000  0.50313000  1.0
  O  O123  1  0.15559000  0.43487000  0.36861000  1.0
  O  O124  1  0.80947000  0.52711000  0.45446000  1.0
  O  O125  1  0.86153000  0.40702000  0.51004000  1.0
  O  O126  1  0.37991000  0.47581000  0.09104000  1.0
  O  O127  1  0.09591000  0.52553000  0.09230000  1.0
  O  O128  1  0.79338000  0.55645000  0.29648000  1.0
  O  O129  1  0.78098000  0.41929000  0.33138000  1.0
  O  O130  1  0.26786000  0.55744000  0.96580000  1.0
  O  O131  1  0.37601000  0.36541000  0.96950000  1.0
  O  O132  1  0.07821000  0.36546000  0.00312000  1.0
  O  O133  1  0.34446000  0.06515000  0.86860000  1.0
  O  O134  1  0.69058000  0.97288000  0.95446000  1.0
  O  O135  1  0.63852000  0.09297000  0.01004000  1.0
  O  O136  1  0.12003000  0.02418000  0.59103000  1.0
  O  O137  1  0.40403000  0.97447000  0.59229000  1.0
  O  O138  1  0.70662000  0.94355000  0.79646000  1.0
  O  O139  1  0.71904000  0.08070000  0.83136000  1.0
