# generated using pymatgen
data_CoH18(C2O)11
_symmetry_space_group_name_H-M   'P 1'
_cell_length_a   7.78612000
_cell_length_b   11.22770000
_cell_length_c   13.43338001
_cell_angle_alpha   114.32881485
_cell_angle_beta   105.35167525
_cell_angle_gamma   90.17010000
_symmetry_Int_Tables_number   1
_chemical_formula_structural   CoH18(C2O)11
_chemical_formula_sum   'Co2 H36 C44 O22'
_cell_volume   1023.45937644
_cell_formula_units_Z   2
loop_
 _symmetry_equiv_pos_site_id
 _symmetry_equiv_pos_as_xyz
  1  'x, y, z'
loop_
 _atom_site_type_symbol
 _atom_site_label
 _atom_site_symmetry_multiplicity
 _atom_site_fract_x
 _atom_site_fract_y
 _atom_site_fract_z
 _atom_site_occupancy
  Co  Co0  1  0.00000000  0.50000000  0.00000000  1.0
  Co  Co1  1  0.50000000  0.50000000  0.00000000  1.0
  H  H2  1  0.18408000  0.13358000  0.70236000  1.0
  H  H3  1  0.31537000  0.43203000  0.29805000  1.0
  H  H4  1  0.81593000  0.86642000  0.29764000  1.0
  H  H5  1  0.68463000  0.56796000  0.70195000  1.0
  H  H6  1  0.04770000  0.51623000  0.20498000  1.0
  H  H7  1  0.45201000  0.31143000  0.79494000  1.0
  H  H8  1  0.95230000  0.48377000  0.79502000  1.0
  H  H9  1  0.54799000  0.68857000  0.20506000  1.0
  H  H10  1  0.85104000  0.44184000  0.12950000  1.0
  H  H11  1  0.64877000  0.31304000  0.87049000  1.0
  H  H12  1  0.14896000  0.55816000  0.87050000  1.0
  H  H13  1  0.35123000  0.68696000  0.12951000  1.0
  H  H14  1  0.79391000  0.66285000  0.07270000  1.0
  H  H15  1  0.70711000  0.59068000  0.92749000  1.0
  H  H16  1  0.20609000  0.33715000  0.92730000  1.0
  H  H17  1  0.29290000  0.40932000  0.07251000  1.0
  H  H18  1  0.12080000  0.90940000  0.42639000  1.0
  H  H19  1  0.37898000  0.48464000  0.57423000  1.0
  H  H20  1  0.87920000  0.09060000  0.57361000  1.0
  H  H21  1  0.62101000  0.51535000  0.42576000  1.0
  H  H22  1  0.47843000  0.24418000  0.49506000  1.0
  H  H23  1  0.01998000  0.74828000  0.50304000  1.0
  H  H24  1  0.52157000  0.75582000  0.50494000  1.0
  H  H25  1  0.98002000  0.25172000  0.49696000  1.0
  H  H26  1  0.46582000  0.15206000  0.28981000  1.0
  H  H27  1  0.03369000  0.86106000  0.70837000  1.0
  H  H28  1  0.53418000  0.84793000  0.71019000  1.0
  H  H29  1  0.96631000  0.13895000  0.29164000  1.0
  H  H30  1  0.55136000  0.94515000  0.14280000  1.0
  H  H31  1  0.94894000  0.80272000  0.85651000  1.0
  H  H32  1  0.44864000  0.05486000  0.85721000  1.0
  H  H33  1  0.05106000  0.19728000  0.14349000  1.0
  H  H34  1  0.97466000  0.90479000  0.06204000  1.0
  H  H35  1  0.52574000  0.84174000  0.93730000  1.0
  H  H36  1  0.02534000  0.09521000  0.93796000  1.0
  H  H37  1  0.47427000  0.15826000  0.06270000  1.0
  C  C38  1  0.06577000  0.78412000  0.19730000  1.0
  C  C39  1  0.43461000  0.58750000  0.80296000  1.0
  C  C40  1  0.93424000  0.21588000  0.80270000  1.0
  C  C41  1  0.56539000  0.41250000  0.19704000  1.0
  C  C42  1  0.18438000  0.91118000  0.28021000  1.0
  C  C43  1  0.31574000  0.63168000  0.71981000  1.0
  C  C44  1  0.81562000  0.08882000  0.71979000  1.0
  C  C45  1  0.68426000  0.36831000  0.28019000  1.0
  C  C46  1  0.19484000  0.96281000  0.39606000  1.0
  C  C47  1  0.30485000  0.56777000  0.60399000  1.0
  C  C48  1  0.80516000  0.03719000  0.60394000  1.0
  C  C49  1  0.69514000  0.43222000  0.39601000  1.0
  C  C50  1  0.29860000  0.08383000  0.47331000  1.0
  C  C51  1  0.20055000  0.61105000  0.52610000  1.0
  C  C52  1  0.70140000  0.91617000  0.52669000  1.0
  C  C53  1  0.79945000  0.38895000  0.47390000  1.0
  C  C54  1  0.39792000  0.15048000  0.43424000  1.0
  C  C55  1  0.10097000  0.71583000  0.56442000  1.0
  C  C56  1  0.60208000  0.84952000  0.56576000  1.0
  C  C57  1  0.89903000  0.28417000  0.43558000  1.0
  C  C58  1  0.39048000  0.09838000  0.31961000  1.0
  C  C59  1  0.10897000  0.77811000  0.67907000  1.0
  C  C60  1  0.60952000  0.90162000  0.68039000  1.0
  C  C61  1  0.89103000  0.22189000  0.32093000  1.0
  C  C62  1  0.28122000  0.97984000  0.24019000  1.0
  C  C63  1  0.21880000  0.73952000  0.75918000  1.0
  C  C64  1  0.71879000  0.02017000  0.75982000  1.0
  C  C65  1  0.78120000  0.26048000  0.24082000  1.0
  C  C66  1  0.29690000  0.14975000  0.59417000  1.0
  C  C67  1  0.20247000  0.55628000  0.40529000  1.0
  C  C68  1  0.70310000  0.85025000  0.40583000  1.0
  C  C69  1  0.79753000  0.44372000  0.59471000  1.0
  C  C70  1  0.26504000  0.92983000  0.11724000  1.0
  C  C71  1  0.23527000  0.81219000  0.88205000  1.0
  C  C72  1  0.73496000  0.07017000  0.88276000  1.0
  C  C73  1  0.76473000  0.18781000  0.11795000  1.0
  C  C74  1  0.41911000  0.91503000  0.08014000  1.0
  C  C75  1  0.08123000  0.83499000  0.91912000  1.0
  C  C76  1  0.58089000  0.08497000  0.91986000  1.0
  C  C77  1  0.91878000  0.16501000  0.08088000  1.0
  C  C78  1  0.09616000  0.89129000  0.03500000  1.0
  C  C79  1  0.40416000  0.85546000  0.96426000  1.0
  C  C80  1  0.90384000  0.10871000  0.96500000  1.0
  C  C81  1  0.59584000  0.14454000  0.03574000  1.0
  O  O82  1  0.13454000  0.69081000  0.13363000  1.0
  O  O83  1  0.36585000  0.55764000  0.86715000  1.0
  O  O84  1  0.86546000  0.30919000  0.86637000  1.0
  O  O85  1  0.63415000  0.44236000  0.13285000  1.0
  O  O86  1  0.89910000  0.77806000  0.19204000  1.0
  O  O87  1  0.60107000  0.58651000  0.80786000  1.0
  O  O88  1  0.10090000  0.22194000  0.80796000  1.0
  O  O89  1  0.39893000  0.41349000  0.19214000  1.0
  O  O90  1  0.21201000  0.07688000  0.62815000  1.0
  O  O91  1  0.28723000  0.45002000  0.37248000  1.0
  O  O92  1  0.78799000  0.92312000  0.37185000  1.0
  O  O93  1  0.71276000  0.54997000  0.62752000  1.0
  O  O94  1  0.36479000  0.26587000  0.65640000  1.0
  O  O95  1  0.13483000  0.60971000  0.34214000  1.0
  O  O96  1  0.63521000  0.73412000  0.34359000  1.0
  O  O97  1  0.86517000  0.39029000  0.65786000  1.0
  O  O98  1  0.97612000  0.45318000  0.12591000  1.0
  O  O99  1  0.52399000  0.32835000  0.87429000  1.0
  O  O100  1  0.02388000  0.54682000  0.87409000  1.0
  O  O101  1  0.47601000  0.67165000  0.12571000  1.0
  O  O102  1  0.75048000  0.57680000  0.00022000  1.0
  O  O103  1  0.24952000  0.42320000  0.99978000  1.0
