# generated using pymatgen
data_CdH20C16(NO3)2
_symmetry_space_group_name_H-M   'P 1'
_cell_length_a   8.85105000
_cell_length_b   9.71894000
_cell_length_c   10.06090000
_cell_angle_alpha   105.03300000
_cell_angle_beta   90.00000000
_cell_angle_gamma   90.00000000
_symmetry_Int_Tables_number   1
_chemical_formula_structural   CdH20C16(NO3)2
_chemical_formula_sum   'Cd2 H40 C32 N4 O12'
_cell_volume   835.84780195
_cell_formula_units_Z   2
loop_
 _symmetry_equiv_pos_site_id
 _symmetry_equiv_pos_as_xyz
  1  'x, y, z'
loop_
 _atom_site_type_symbol
 _atom_site_label
 _atom_site_symmetry_multiplicity
 _atom_site_fract_x
 _atom_site_fract_y
 _atom_site_fract_z
 _atom_site_occupancy
  Cd  Cd0  1  0.50000000  0.50000000  0.50000000  1.0
  Cd  Cd1  1  0.00000000  0.00000000  0.00000000  1.0
  H  H2  1  0.37819000  0.32113000  0.28628000  1.0
  H  H3  1  0.87819000  0.17887000  0.21372000  1.0
  H  H4  1  0.62181000  0.67887000  0.71372000  1.0
  H  H5  1  0.12181000  0.82113000  0.78628000  1.0
  H  H6  1  0.54992000  0.31571000  0.22267000  1.0
  H  H7  1  0.04992000  0.18428000  0.27733000  1.0
  H  H8  1  0.45008000  0.68428000  0.77733000  1.0
  H  H9  1  0.95008000  0.81572000  0.72267000  1.0
  H  H10  1  0.78572000  0.73200000  0.88165000  1.0
  H  H11  1  0.28572000  0.76800000  0.61835000  1.0
  H  H12  1  0.21428000  0.26800000  0.11835000  1.0
  H  H13  1  0.71428000  0.23200000  0.38165000  1.0
  H  H14  1  0.69046000  0.50999000  0.93191000  1.0
  H  H15  1  0.19046000  0.99001000  0.56809000  1.0
  H  H16  1  0.30954000  0.49001000  0.06809000  1.0
  H  H17  1  0.80954000  0.00999000  0.43191000  1.0
  H  H18  1  0.79421000  0.43927000  0.13883000  1.0
  H  H19  1  0.29421000  0.06073000  0.36117000  1.0
  H  H20  1  0.20579000  0.56073000  0.86117000  1.0
  H  H21  1  0.70579000  0.93927000  0.63883000  1.0
  H  H22  1  0.06581000  0.82123000  0.22227000  1.0
  H  H23  1  0.56581000  0.67877000  0.27773000  1.0
  H  H24  1  0.93419000  0.17877000  0.77773000  1.0
  H  H25  1  0.43419000  0.32123000  0.72227000  1.0
  H  H26  1  0.13906000  0.58655000  0.30159000  1.0
  H  H27  1  0.63907000  0.91345000  0.19841000  1.0
  H  H28  1  0.86093000  0.41345000  0.69841000  1.0
  H  H29  1  0.36093000  0.08655000  0.80159000  1.0
  H  H30  1  0.98766000  0.47100000  0.30912000  1.0
  H  H31  1  0.48766000  0.02900000  0.19088000  1.0
  H  H32  1  0.01234000  0.52900000  0.69088000  1.0
  H  H33  1  0.51234000  0.97100000  0.80912000  1.0
  H  H34  1  0.06394000  0.66228000  0.53081000  1.0
  H  H35  1  0.56394000  0.83772000  0.96919000  1.0
  H  H36  1  0.93606000  0.33772000  0.46919000  1.0
  H  H37  1  0.43606000  0.16228000  0.03081000  1.0
  H  H38  1  0.97947000  0.78944000  0.46030000  1.0
  H  H39  1  0.47947000  0.71056000  0.03970000  1.0
  H  H40  1  0.02053000  0.21056000  0.53970000  1.0
  H  H41  1  0.52053000  0.28944000  0.96030000  1.0
  C  C42  1  0.82515000  0.69968000  0.97144000  1.0
  C  C43  1  0.32515000  0.80033000  0.52856000  1.0
  C  C44  1  0.17485000  0.30033000  0.02856000  1.0
  C  C45  1  0.67486000  0.19967000  0.47144000  1.0
  C  C46  1  0.77372000  0.57515000  0.00011000  1.0
  C  C47  1  0.27372000  0.92485000  0.49990000  1.0
  C  C48  1  0.22628000  0.42485000  0.99989000  1.0
  C  C49  1  0.72628000  0.07515000  0.50011000  1.0
  C  C50  1  0.83138000  0.53698000  0.11445000  1.0
  C  C51  1  0.33138000  0.96302000  0.38555000  1.0
  C  C52  1  0.16862000  0.46302000  0.88555000  1.0
  C  C53  1  0.66862000  0.03698000  0.61445000  1.0
  C  C54  1  0.94044000  0.62359000  0.19676000  1.0
  C  C55  1  0.44044000  0.87640000  0.30324000  1.0
  C  C56  1  0.05956000  0.37640000  0.80324000  1.0
  C  C57  1  0.55956000  0.12360000  0.69676000  1.0
  C  C58  1  0.98222000  0.74855000  0.16170000  1.0
  C  C59  1  0.48222000  0.75145000  0.33830000  1.0
  C  C60  1  0.01778000  0.25145000  0.83830000  1.0
  C  C61  1  0.51778000  0.24855000  0.66170000  1.0
  C  C62  1  0.01584000  0.58225000  0.31475000  1.0
  C  C63  1  0.51584000  0.91775000  0.18525000  1.0
  C  C64  1  0.98416000  0.41775000  0.68525000  1.0
  C  C65  1  0.48416000  0.08225000  0.81475000  1.0
  C  C66  1  0.97635000  0.67561000  0.45780000  1.0
  C  C67  1  0.47635000  0.82440000  0.04220000  1.0
  C  C68  1  0.02365000  0.32440000  0.54220000  1.0
  C  C69  1  0.52365000  0.17560000  0.95780000  1.0
  C  C70  1  0.82554000  0.64535000  0.51742000  1.0
  C  C71  1  0.32554000  0.85465000  0.98259000  1.0
  C  C72  1  0.17446000  0.35465000  0.48259000  1.0
  C  C73  1  0.67446000  0.14535000  0.01741000  1.0
  N  N74  1  0.92602000  0.78601000  0.05200000  1.0
  N  N75  1  0.42601000  0.71398000  0.44800000  1.0
  N  N76  1  0.07399000  0.21398000  0.94800000  1.0
  N  N77  1  0.57399000  0.28602000  0.55200000  1.0
  O  O78  1  0.46458000  0.37863000  0.26674000  1.0
  O  O79  1  0.96458000  0.12137000  0.23326000  1.0
  O  O80  1  0.53542000  0.62137000  0.73326000  1.0
  O  O81  1  0.03542000  0.87863000  0.76675000  1.0
  O  O82  1  0.74430000  0.54620000  0.44529000  1.0
  O  O83  1  0.24430000  0.95380000  0.05472000  1.0
  O  O84  1  0.25571000  0.45380000  0.55472000  1.0
  O  O85  1  0.75571000  0.04620000  0.94528000  1.0
  O  O86  1  0.79297000  0.72161000  0.63828000  1.0
  O  O87  1  0.29296000  0.77839000  0.86172000  1.0
  O  O88  1  0.20703000  0.27839000  0.36172000  1.0
  O  O89  1  0.70703000  0.22161000  0.13827000  1.0
