# generated using pymatgen
data_Ag2H15C17(N2O3)3
_symmetry_space_group_name_H-M   'P 1'
_cell_length_a   6.98906000
_cell_length_b   11.68770000
_cell_length_c   13.27650000
_cell_angle_alpha   104.89100000
_cell_angle_beta   95.80950000
_cell_angle_gamma   95.85170000
_symmetry_Int_Tables_number   1
_chemical_formula_structural   Ag2H15C17(N2O3)3
_chemical_formula_sum   'Ag4 H30 C34 N12 O18'
_cell_volume   1033.42333639
_cell_formula_units_Z   2
loop_
 _symmetry_equiv_pos_site_id
 _symmetry_equiv_pos_as_xyz
  1  'x, y, z'
loop_
 _atom_site_type_symbol
 _atom_site_label
 _atom_site_symmetry_multiplicity
 _atom_site_fract_x
 _atom_site_fract_y
 _atom_site_fract_z
 _atom_site_occupancy
  Ag  Ag0  1  0.44730000  0.11413000  0.19619000  1.0
  Ag  Ag1  1  0.55269000  0.88588000  0.80381000  1.0
  Ag  Ag2  1  0.16621000  0.18373000  0.56553000  1.0
  Ag  Ag3  1  0.83378000  0.81627000  0.43447000  1.0
  H  H4  1  0.23692000  0.57797000  0.68230000  1.0
  H  H5  1  0.76310000  0.42204000  0.31771000  1.0
  H  H6  1  0.19699000  0.69708000  0.52997000  1.0
  H  H7  1  0.80303000  0.30293000  0.47004000  1.0
  H  H8  1  0.24217000  0.52952000  0.34691000  1.0
  H  H9  1  0.75784000  0.47049000  0.65309000  1.0
  H  H10  1  0.33145000  0.30024000  0.30933000  1.0
  H  H11  1  0.66855000  0.69976000  0.69068000  1.0
  H  H12  1  0.29347000  0.01017000  0.45666000  1.0
  H  H13  1  0.70654000  0.98983000  0.54334000  1.0
  H  H14  1  0.35802000  0.78233000  0.42932000  1.0
  H  H15  1  0.64200000  0.21767000  0.57068000  1.0
  H  H16  1  0.47390000  0.61658000  0.26678000  1.0
  H  H17  1  0.52611000  0.38342000  0.73322000  1.0
  H  H18  1  0.53069000  0.73685000  0.11683000  1.0
  H  H19  1  0.46931000  0.26316000  0.88316000  1.0
  H  H20  1  0.92176000  0.25201000  0.17112000  1.0
  H  H21  1  0.07823000  0.74799000  0.82887000  1.0
  H  H22  1  0.74707000  0.24962000  0.97628000  1.0
  H  H23  1  0.25292000  0.75038000  0.02371000  1.0
  H  H24  1  0.97473000  0.12507000  0.83777000  1.0
  H  H25  1  0.02527000  0.87493000  0.16222000  1.0
  H  H26  1  0.29438000  0.01249000  0.87023000  1.0
  H  H27  1  0.70562000  0.98752000  0.12977000  1.0
  H  H28  1  0.14457000  0.43317000  0.94408000  1.0
  H  H29  1  0.85542000  0.56682000  0.05591000  1.0
  H  H30  1  0.94515000  0.49743000  0.88936000  1.0
  H  H31  1  0.05484000  0.50255000  0.11065000  1.0
  H  H32  1  0.19076000  0.54506000  0.87699000  1.0
  H  H33  1  0.80923000  0.45494000  0.12301000  1.0
  C  C34  1  0.23413000  0.54747000  0.59773000  1.0
  C  C35  1  0.76588000  0.45254000  0.40228000  1.0
  C  C36  1  0.22051000  0.60443000  0.51932000  1.0
  C  C37  1  0.77952000  0.39558000  0.48069000  1.0
  C  C38  1  0.24364000  0.51875000  0.42560000  1.0
  C  C39  1  0.75636000  0.48126000  0.57440000  1.0
  C  C40  1  0.26851000  0.41341000  0.45209000  1.0
  C  C41  1  0.73150000  0.58659000  0.54792000  1.0
  C  C42  1  0.29991000  0.30102000  0.38904000  1.0
  C  C43  1  0.70009000  0.69898000  0.61097000  1.0
  C  C44  1  0.34153000  0.00936000  0.38007000  1.0
  C  C45  1  0.65847000  0.99064000  0.61993000  1.0
  C  C46  1  0.39084000  0.89826000  0.32439000  1.0
  C  C47  1  0.60916000  0.10174000  0.67561000  1.0
  C  C48  1  0.39677000  0.79390000  0.35528000  1.0
  C  C49  1  0.60324000  0.20610000  0.64471000  1.0
  C  C50  1  0.45684000  0.70888000  0.27136000  1.0
  C  C51  1  0.54316000  0.29112000  0.72864000  1.0
  C  C52  1  0.48535000  0.76549000  0.19438000  1.0
  C  C53  1  0.51465000  0.23452000  0.80562000  1.0
  C  C54  1  0.96027000  0.21630000  0.09331000  1.0
  C  C55  1  0.03972000  0.78370000  0.90668000  1.0
  C  C56  1  0.87754000  0.21195000  0.99394000  1.0
  C  C57  1  0.12246000  0.78805000  0.00605000  1.0
  C  C58  1  0.99267000  0.14737000  0.92309000  1.0
  C  C59  1  0.00733000  0.85263000  0.07691000  1.0
  C  C60  1  0.14098000  0.11615000  0.98396000  1.0
  C  C61  1  0.85901000  0.88385000  0.01603000  1.0
  C  C62  1  0.29634000  0.05157000  0.95498000  1.0
  C  C63  1  0.70366000  0.94844000  0.04502000  1.0
  C  C64  1  0.07239000  0.37640000  0.78129000  1.0
  C  C65  1  0.92761000  0.62360000  0.21871000  1.0
  C  C66  1  0.08817000  0.46790000  0.87898000  1.0
  C  C67  1  0.91182000  0.53209000  0.12103000  1.0
  N  N68  1  0.29569000  0.20334000  0.42016000  1.0
  N  N69  1  0.70431000  0.79667000  0.57984000  1.0
  N  N70  1  0.34873000  0.10668000  0.34859000  1.0
  N  N71  1  0.65127000  0.89332000  0.65141000  1.0
  N  N72  1  0.43380000  0.03514000  0.02239000  1.0
  N  N73  1  0.56620000  0.96486000  0.97761000  1.0
  N  N74  1  0.06018000  0.30304000  0.70202000  1.0
  N  N75  1  0.93982000  0.69696000  0.29798000  1.0
  N  N76  1  0.43537000  0.37097000  0.12574000  1.0
  N  N77  1  0.56462000  0.62903000  0.87426000  1.0
  N  N78  1  0.83965000  0.06241000  0.35324000  1.0
  N  N79  1  0.16035000  0.93758000  0.64675000  1.0
  O  O80  1  0.26271000  0.43159000  0.55876000  1.0
  O  O81  1  0.73730000  0.56842000  0.44125000  1.0
  O  O82  1  0.44548000  0.88044000  0.22490000  1.0
  O  O83  1  0.55452000  0.11957000  0.77510000  1.0
  O  O84  1  0.12071000  0.15909000  0.08908000  1.0
  O  O85  1  0.87928000  0.84091000  0.91092000  1.0
  O  O86  1  0.57148000  0.31961000  0.16077000  1.0
  O  O87  1  0.42852000  0.68040000  0.83923000  1.0
  O  O88  1  0.32193000  0.41941000  0.18735000  1.0
  O  O89  1  0.67807000  0.58059000  0.81266000  1.0
  O  O90  1  0.41664000  0.37290000  0.03074000  1.0
  O  O91  1  0.58333000  0.62708000  0.96926000  1.0
  O  O92  1  0.83130000  0.10708000  0.45072000  1.0
  O  O93  1  0.16870000  0.89292000  0.54927000  1.0
  O  O94  1  0.81821000  0.12503000  0.28920000  1.0
  O  O95  1  0.18177000  0.87496000  0.71080000  1.0
  O  O96  1  0.87000000  0.95414000  0.32052000  1.0
  O  O97  1  0.12998000  0.04585000  0.67947000  1.0
