# generated using pymatgen
data_CuH16C13(NO2)2
_symmetry_space_group_name_H-M   'P 1'
_cell_length_a   8.11296000
_cell_length_b   11.45300000
_cell_length_c   14.83810000
_cell_angle_alpha   108.30600000
_cell_angle_beta   90.00000000
_cell_angle_gamma   90.00000000
_symmetry_Int_Tables_number   1
_chemical_formula_structural   CuH16C13(NO2)2
_chemical_formula_sum   'Cu4 H64 C52 N8 O16'
_cell_volume   1308.94900524
_cell_formula_units_Z   4
loop_
 _symmetry_equiv_pos_site_id
 _symmetry_equiv_pos_as_xyz
  1  'x, y, z'
loop_
 _atom_site_type_symbol
 _atom_site_label
 _atom_site_symmetry_multiplicity
 _atom_site_fract_x
 _atom_site_fract_y
 _atom_site_fract_z
 _atom_site_occupancy
  Cu  Cu0  1  0.93189000  0.05818000  0.94711000  1.0
  Cu  Cu1  1  0.43189000  0.44181000  0.55289000  1.0
  Cu  Cu2  1  0.06811000  0.94181000  0.05288000  1.0
  Cu  Cu3  1  0.56810000  0.55819000  0.44711000  1.0
  H  H4  1  0.84607000  0.31665000  0.94069000  1.0
  H  H5  1  0.34606000  0.18335000  0.55931000  1.0
  H  H6  1  0.15393000  0.68335000  0.05931000  1.0
  H  H7  1  0.65393000  0.81666000  0.44068000  1.0
  H  H8  1  0.74497000  0.41934000  0.82596000  1.0
  H  H9  1  0.24497000  0.08066000  0.67404000  1.0
  H  H10  1  0.25503000  0.58066000  0.17405000  1.0
  H  H11  1  0.75503000  0.91935000  0.32595000  1.0
  H  H12  1  0.66857000  0.29020000  0.66160000  1.0
  H  H13  1  0.16857000  0.20980000  0.83840000  1.0
  H  H14  1  0.33142000  0.70980000  0.33841000  1.0
  H  H15  1  0.83142000  0.79021000  0.16159000  1.0
  H  H16  1  0.78894000  0.97160000  0.74609000  1.0
  H  H17  1  0.28894000  0.52840000  0.75391000  1.0
  H  H18  1  0.21106000  0.02840000  0.25392000  1.0
  H  H19  1  0.71106000  0.47161000  0.24609000  1.0
  H  H20  1  0.63129000  0.94899000  0.59167000  1.0
  H  H21  1  0.13130000  0.55101000  0.90833000  1.0
  H  H22  1  0.36870000  0.05101000  0.40834000  1.0
  H  H23  1  0.86870000  0.44899000  0.09167000  1.0
  H  H24  1  0.59770000  0.08205000  0.55627000  1.0
  H  H25  1  0.09770000  0.41795000  0.94373000  1.0
  H  H26  1  0.40230000  0.91795000  0.44373000  1.0
  H  H27  1  0.90230000  0.58205000  0.05627000  1.0
  H  H28  1  0.96871000  0.17327000  0.58522000  1.0
  H  H29  1  0.46871000  0.32673000  0.91478000  1.0
  H  H30  1  0.03129000  0.82673000  0.41479000  1.0
  H  H31  1  0.53129000  0.67326000  0.08521000  1.0
  H  H32  1  0.82275000  0.16930000  0.49470000  1.0
  H  H33  1  0.32274000  0.33070000  0.00530000  1.0
  H  H34  1  0.17725000  0.83070000  0.50530000  1.0
  H  H35  1  0.67725000  0.66929000  0.99470000  1.0
  H  H36  1  0.88225000  0.84299000  0.55963000  1.0
  H  H37  1  0.38226000  0.65700000  0.94037000  1.0
  H  H38  1  0.11774000  0.15700000  0.44037000  1.0
  H  H39  1  0.61774000  0.34299000  0.05963000  1.0
  H  H40  1  0.00458000  0.97022000  0.62683000  1.0
  H  H41  1  0.50458000  0.52976000  0.87317000  1.0
  H  H42  1  0.99542000  0.02977000  0.37317000  1.0
  H  H43  1  0.49541000  0.47023000  0.12683000  1.0
  H  H44  1  0.56394000  0.95220000  0.17889000  1.0
  H  H45  1  0.06394000  0.54780000  0.32111000  1.0
  H  H46  1  0.43607000  0.04781000  0.82111000  1.0
  H  H47  1  0.93606000  0.45218000  0.67889000  1.0
  H  H48  1  0.46708000  0.00959000  0.09369000  1.0
  H  H49  1  0.96707000  0.49042000  0.40631000  1.0
  H  H50  1  0.53293000  0.99042000  0.90630000  1.0
  H  H51  1  0.03292000  0.50958000  0.59369000  1.0
  H  H52  1  0.56770000  0.22575000  0.19234000  1.0
  H  H53  1  0.06768000  0.27425000  0.30766000  1.0
  H  H54  1  0.43231000  0.77425000  0.80765000  1.0
  H  H55  1  0.93231000  0.72574000  0.69235000  1.0
  H  H56  1  0.40814000  0.15936000  0.24046000  1.0
  H  H57  1  0.90813000  0.34065000  0.25954000  1.0
  H  H58  1  0.59187000  0.84064000  0.75954000  1.0
  H  H59  1  0.09187000  0.65935000  0.74046000  1.0
  H  H60  1  0.61748000  0.09365000  0.34184000  1.0
  H  H61  1  0.11747000  0.40635000  0.15816000  1.0
  H  H62  1  0.38253000  0.90636000  0.65816000  1.0
  H  H63  1  0.88253000  0.59364000  0.84184000  1.0
  H  H64  1  0.77434000  0.16950000  0.29734000  1.0
  H  H65  1  0.27433000  0.33051000  0.20267000  1.0
  H  H66  1  0.22567000  0.83051000  0.70266000  1.0
  H  H67  1  0.72566000  0.66949000  0.79734000  1.0
  C  C68  1  0.81052000  0.26304000  0.86891000  1.0
  C  C69  1  0.31052000  0.23695000  0.63109000  1.0
  C  C70  1  0.18948000  0.73695000  0.13109000  1.0
  C  C71  1  0.68949000  0.76306000  0.36891000  1.0
  C  C72  1  0.75500000  0.31969000  0.80420000  1.0
  C  C73  1  0.25499000  0.18031000  0.69580000  1.0
  C  C74  1  0.24500000  0.68031000  0.19580000  1.0
  C  C75  1  0.74501000  0.81970000  0.30419000  1.0
  C  C76  1  0.71103000  0.24702000  0.71330000  1.0
  C  C77  1  0.21103000  0.25298000  0.78671000  1.0
  C  C78  1  0.28897000  0.75298000  0.28671000  1.0
  C  C79  1  0.78897000  0.74703000  0.21329000  1.0
  C  C80  1  0.72159000  0.11885000  0.68971000  1.0
  C  C81  1  0.22159000  0.38115000  0.81029000  1.0
  C  C82  1  0.27841000  0.88115000  0.31029000  1.0
  C  C83  1  0.77841000  0.61886000  0.18971000  1.0
  C  C84  1  0.77837000  0.07060000  0.75959000  1.0
  C  C85  1  0.27837000  0.42939000  0.74041000  1.0
  C  C86  1  0.22163000  0.92939000  0.24041000  1.0
  C  C87  1  0.72163000  0.57061000  0.25959000  1.0
  C  C88  1  0.68635000  0.03628000  0.59012000  1.0
  C  C89  1  0.18635000  0.46372000  0.90988000  1.0
  C  C90  1  0.31365000  0.96372000  0.40988000  1.0
  C  C91  1  0.81365000  0.53628000  0.09012000  1.0
  C  C92  1  0.91476000  0.11396000  0.51770000  1.0
  C  C93  1  0.41475000  0.38603000  0.98230000  1.0
  C  C94  1  0.08524000  0.88603000  0.48230000  1.0
  C  C95  1  0.58524000  0.61396000  0.01769000  1.0
  C  C96  1  0.94887000  0.92526000  0.55604000  1.0
  C  C97  1  0.44887000  0.57473000  0.94396000  1.0
  C  C98  1  0.05113000  0.07473000  0.44396000  1.0
  C  C99  1  0.55113000  0.42526000  0.05604000  1.0
  C  C100  1  0.72880000  0.01985000  0.09408000  1.0
  C  C101  1  0.22879000  0.48015000  0.40592000  1.0
  C  C102  1  0.27121000  0.98015000  0.90592000  1.0
  C  C103  1  0.77121000  0.51984000  0.59409000  1.0
  C  C104  1  0.56664000  0.02605000  0.14634000  1.0
  C  C105  1  0.06664000  0.47395000  0.35366000  1.0
  C  C106  1  0.43336000  0.97395000  0.85366000  1.0
  C  C107  1  0.93336000  0.52604000  0.64634000  1.0
  C  C108  1  0.53988000  0.15130000  0.22216000  1.0
  C  C109  1  0.03987000  0.34870000  0.27784000  1.0
  C  C110  1  0.46012000  0.84870000  0.77783000  1.0
  C  C111  1  0.96012000  0.65130000  0.72217000  1.0
  C  C112  1  0.64176000  0.16900000  0.31273000  1.0
  C  C113  1  0.14175000  0.33101000  0.18727000  1.0
  C  C114  1  0.35825000  0.83101000  0.68727000  1.0
  C  C115  1  0.85824000  0.66899000  0.81273000  1.0
  C  C116  1  0.59581000  0.28994000  0.38681000  1.0
  C  C117  1  0.09580000  0.21006000  0.11319000  1.0
  C  C118  1  0.40420000  0.71007000  0.61318000  1.0
  C  C119  1  0.90419000  0.78993000  0.88681000  1.0
  N  N120  1  0.82276000  0.14051000  0.84721000  1.0
  N  N121  1  0.32275000  0.35949000  0.65279000  1.0
  N  N122  1  0.17725000  0.85949000  0.15280000  1.0
  N  N123  1  0.67724000  0.64052000  0.34721000  1.0
  N  N124  1  0.83246000  0.00571000  0.52886000  1.0
  N  N125  1  0.33246000  0.49429000  0.97115000  1.0
  N  N126  1  0.16754000  0.99429000  0.47114000  1.0
  N  N127  1  0.66754000  0.50571000  0.02886000  1.0
  O  O128  1  0.73211000  0.07097000  0.02917000  1.0
  O  O129  1  0.23209000  0.42903000  0.47083000  1.0
  O  O130  1  0.26792000  0.92902000  0.97083000  1.0
  O  O131  1  0.76791000  0.57098000  0.52918000  1.0
  O  O132  1  0.84879000  0.96493000  0.11909000  1.0
  O  O133  1  0.34879000  0.53506000  0.38091000  1.0
  O  O134  1  0.15121000  0.03507000  0.88092000  1.0
  O  O135  1  0.65121000  0.46493000  0.61908000  1.0
  O  O136  1  0.51632000  0.28433000  0.45951000  1.0
  O  O137  1  0.01632000  0.21567000  0.04049000  1.0
  O  O138  1  0.48368000  0.71568000  0.54049000  1.0
  O  O139  1  0.98368000  0.78432000  0.95951000  1.0
  O  O140  1  0.63611000  0.38741000  0.36829000  1.0
  O  O141  1  0.13611000  0.11260000  0.13171000  1.0
  O  O142  1  0.36390000  0.61260000  0.63171000  1.0
  O  O143  1  0.86390000  0.88740000  0.86829000  1.0
