# generated using pymatgen
data_DyH14C14N3O9F4
_symmetry_space_group_name_H-M   'P 1'
_cell_length_a   11.33020000
_cell_length_b   12.32925659
_cell_length_c   20.13017543
_cell_angle_alpha   73.72237411
_cell_angle_beta   73.66128456
_cell_angle_gamma   62.65665959
_symmetry_Int_Tables_number   1
_chemical_formula_structural   DyH14C14N3O9F4
_chemical_formula_sum   'Dy4 H56 C56 N12 O36 F16'
_cell_volume   2359.03000288
_cell_formula_units_Z   4
loop_
 _symmetry_equiv_pos_site_id
 _symmetry_equiv_pos_as_xyz
  1  'x, y, z'
loop_
 _atom_site_type_symbol
 _atom_site_label
 _atom_site_symmetry_multiplicity
 _atom_site_fract_x
 _atom_site_fract_y
 _atom_site_fract_z
 _atom_site_occupancy
  Dy  Dy0  1  0.86311000  0.89149000  0.30378000  1.0
  Dy  Dy1  1  0.05837000  0.60854000  0.19623000  1.0
  Dy  Dy2  1  0.13688000  0.10852000  0.69622000  1.0
  Dy  Dy3  1  0.94163000  0.39146000  0.80377000  1.0
  H  H4  1  0.03967000  0.97323000  0.38710000  1.0
  H  H5  1  0.39998000  0.52682000  0.11297000  1.0
  H  H6  1  0.96033000  0.02677000  0.61290000  1.0
  H  H7  1  0.60002000  0.47318000  0.88703000  1.0
  H  H8  1  0.85516000  0.34354000  0.34047000  1.0
  H  H9  1  0.53936000  0.15646000  0.15952000  1.0
  H  H10  1  0.14484000  0.65646000  0.65953000  1.0
  H  H11  1  0.46064000  0.84354000  0.84048000  1.0
  H  H12  1  0.74551000  0.31177000  0.41857000  1.0
  H  H13  1  0.47604000  0.18824000  0.08142000  1.0
  H  H14  1  0.25449000  0.68823000  0.58143000  1.0
  H  H15  1  0.52396000  0.81176000  0.91858000  1.0
  H  H16  1  0.76031000  0.25997000  0.34055000  1.0
  H  H17  1  0.36101000  0.23989000  0.15947000  1.0
  H  H18  1  0.23969000  0.74003000  0.65945000  1.0
  H  H19  1  0.63899000  0.76011000  0.84053000  1.0
  H  H20  1  0.08037000  0.06474000  0.45174000  1.0
  H  H21  1  0.59678000  0.43542000  0.04826000  1.0
  H  H22  1  0.91963000  0.93526000  0.54826000  1.0
  H  H23  1  0.40322000  0.56458000  0.95174000  1.0
  H  H24  1  0.92801000  0.17520000  0.49324000  1.0
  H  H25  1  0.59630000  0.32494000  0.00678000  1.0
  H  H26  1  0.07199000  0.82480000  0.50676000  1.0
  H  H27  1  0.40370000  0.67506000  0.99322000  1.0
  H  H28  1  0.03626000  0.22683000  0.42331000  1.0
  H  H29  1  0.68640000  0.27331000  0.07666000  1.0
  H  H30  1  0.96373000  0.77317000  0.57669000  1.0
  H  H31  1  0.31360000  0.72669000  0.92334000  1.0
  H  H32  1  0.52040000  0.98976000  0.31900000  1.0
  H  H33  1  0.82924000  0.51020000  0.18105000  1.0
  H  H34  1  0.47960000  0.01024000  0.68100000  1.0
  H  H35  1  0.17076000  0.48980000  0.81896000  1.0
  H  H36  1  0.30616000  0.08878000  0.31934000  1.0
  H  H37  1  0.71437000  0.41118000  0.18066000  1.0
  H  H38  1  0.69384000  0.91122000  0.68066000  1.0
  H  H39  1  0.28563000  0.58882000  0.81934000  1.0
  H  H40  1  0.24984000  0.24843000  0.27632000  1.0
  H  H41  1  0.77466000  0.25151000  0.22368000  1.0
  H  H42  1  0.75016000  0.75157000  0.72368000  1.0
  H  H43  1  0.22534000  0.74849000  0.77632000  1.0
  H  H44  1  0.22689000  0.21140000  0.36960000  1.0
  H  H45  1  0.80800000  0.28852000  0.13041000  1.0
  H  H46  1  0.77311000  0.78860000  0.63040000  1.0
  H  H47  1  0.19200000  0.71148000  0.86959000  1.0
  H  H48  1  0.53541000  0.28007000  0.30869000  1.0
  H  H49  1  0.12421000  0.21995000  0.19134000  1.0
  H  H50  1  0.46459000  0.71993000  0.69131000  1.0
  H  H51  1  0.87579000  0.78005000  0.80866000  1.0
  H  H52  1  0.38269000  0.31863000  0.37275000  1.0
  H  H53  1  0.07412000  0.18138000  0.12727000  1.0
  H  H54  1  0.61732000  0.68136000  0.62725000  1.0
  H  H55  1  0.92588000  0.81862000  0.87273000  1.0
  H  H56  1  0.37346000  0.36700000  0.28140000  1.0
  H  H57  1  0.02197000  0.13296000  0.21862000  1.0
  H  H58  1  0.62654000  0.63300000  0.71860000  1.0
  H  H59  1  0.97803000  0.86704000  0.78138000  1.0
  C  C60  1  0.20307000  0.74994000  0.25006000  1.0
  C  C61  1  0.79693000  0.25006000  0.74994000  1.0
  C  C62  1  0.33678000  0.74991000  0.25011000  1.0
  C  C63  1  0.66322000  0.25009000  0.74989000  1.0
  C  C64  1  0.36205000  0.85600000  0.22261000  1.0
  C  C65  1  0.44066000  0.64384000  0.27759000  1.0
  C  C66  1  0.63795000  0.14400000  0.77739000  1.0
  C  C67  1  0.55934000  0.35616000  0.72241000  1.0
  C  C68  1  0.48532000  0.85570000  0.22211000  1.0
  C  C69  1  0.56319000  0.64412000  0.27802000  1.0
  C  C70  1  0.51468000  0.14430000  0.77789000  1.0
  C  C71  1  0.43681000  0.35588000  0.72198000  1.0
  C  C72  1  0.58902000  0.74993000  0.25006000  1.0
  C  C73  1  0.41098000  0.25007000  0.74994000  1.0
  C  C74  1  0.72235000  0.74996000  0.25001000  1.0
  C  C75  1  0.27765000  0.25004000  0.74999000  1.0
  C  C76  1  0.01787000  0.56154000  0.34763000  1.0
  C  C77  1  0.92686000  0.93846000  0.15237000  1.0
  C  C78  1  0.98213000  0.43846000  0.65237000  1.0
  C  C79  1  0.07314000  0.06154000  0.84763000  1.0
  C  C80  1  0.00816000  0.53061000  0.42623000  1.0
  C  C81  1  0.96489000  0.96938000  0.07377000  1.0
  C  C82  1  0.99184000  0.46939000  0.57377000  1.0
  C  C83  1  0.03511000  0.03062000  0.92623000  1.0
  C  C84  1  0.09355000  0.54469000  0.45803000  1.0
  C  C85  1  0.09618000  0.95525000  0.04203000  1.0
  C  C86  1  0.90644000  0.45531000  0.54198000  1.0
  C  C87  1  0.90382000  0.04475000  0.95797000  1.0
  C  C88  1  0.08563000  0.51410000  0.53064000  1.0
  C  C89  1  0.13040000  0.98584000  0.96942000  1.0
  C  C90  1  0.91436000  0.48590000  0.46937000  1.0
  C  C91  1  0.86960000  0.01416000  0.03058000  1.0
  C  C92  1  0.95550000  0.05728000  0.36718000  1.0
  C  C93  1  0.37995000  0.44275000  0.13285000  1.0
  C  C94  1  0.04449000  0.94273000  0.63282000  1.0
  C  C95  1  0.62005000  0.55725000  0.86715000  1.0
  C  C96  1  0.81451000  0.27554000  0.37157000  1.0
  C  C97  1  0.46176000  0.22442000  0.12845000  1.0
  C  C98  1  0.18549000  0.72446000  0.62843000  1.0
  C  C99  1  0.53824000  0.77558000  0.87155000  1.0
  C  C100  1  0.99613000  0.15573000  0.44285000  1.0
  C  C101  1  0.59468000  0.34440000  0.05715000  1.0
  C  C102  1  0.00387000  0.84427000  0.55715000  1.0
  C  C103  1  0.40532000  0.65560000  0.94285000  1.0
  C  C104  1  0.53624000  0.07158000  0.31866000  1.0
  C  C105  1  0.92653000  0.42838000  0.18138000  1.0
  C  C106  1  0.46376000  0.92842000  0.68134000  1.0
  C  C107  1  0.07348000  0.57162000  0.81862000  1.0
  C  C108  1  0.29451000  0.18139000  0.32107000  1.0
  C  C109  1  0.79705000  0.31856000  0.17894000  1.0
  C  C110  1  0.70549000  0.81861000  0.67893000  1.0
  C  C111  1  0.20296000  0.68144000  0.82105000  1.0
  C  C112  1  0.42986000  0.29317000  0.32042000  1.0
  C  C113  1  0.04351000  0.20682000  0.17961000  1.0
  C  C114  1  0.57015000  0.70682000  0.67958000  1.0
  C  C115  1  0.95649000  0.79318000  0.82039000  1.0
  N  N116  1  0.92434000  0.15807000  0.39255000  1.0
  N  N117  1  0.47501000  0.34196000  0.10750000  1.0
  N  N118  1  0.07566000  0.84193000  0.60745000  1.0
  N  N119  1  0.52500000  0.65804000  0.89250000  1.0
  N  N120  1  0.42577000  0.17747000  0.31904000  1.0
  N  N121  1  0.92232000  0.32248000  0.18101000  1.0
  N  N122  1  0.57423000  0.82253000  0.68096000  1.0
  N  N123  1  0.07768000  0.67752000  0.81899000  1.0
  N  N124  1  0.79773000  0.81115000  0.45375000  1.0
  N  N125  1  0.06255000  0.68897000  0.04628000  1.0
  N  N126  1  0.20227000  0.18885000  0.54625000  1.0
  N  N127  1  0.93745000  0.31103000  0.95372000  1.0
  O  O128  1  0.09901000  0.83406000  0.27743000  1.0
  O  O129  1  0.21055000  0.66587000  0.22262000  1.0
  O  O130  1  0.90100000  0.16594000  0.72257000  1.0
  O  O131  1  0.78944000  0.33414000  0.77738000  1.0
  O  O132  1  0.71595000  0.84157000  0.26962000  1.0
  O  O133  1  0.82719000  0.65843000  0.23034000  1.0
  O  O134  1  0.28405000  0.15843000  0.73038000  1.0
  O  O135  1  0.17281000  0.34157000  0.76966000  1.0
  O  O136  1  0.96911000  0.67530000  0.31864000  1.0
  O  O137  1  0.96302000  0.82470000  0.18137000  1.0
  O  O138  1  0.03087000  0.32470000  0.68137000  1.0
  O  O139  1  0.03698000  0.17530000  0.81863000  1.0
  O  O140  1  0.07455000  0.47513000  0.31251000  1.0
  O  O141  1  0.86195000  0.02488000  0.18748000  1.0
  O  O142  1  0.92545000  0.52487000  0.68749000  1.0
  O  O143  1  0.13805000  0.97512000  0.81252000  1.0
  O  O144  1  0.89540000  0.05596000  0.32393000  1.0
  O  O145  1  0.27530000  0.44403000  0.17607000  1.0
  O  O146  1  0.10459000  0.94405000  0.67607000  1.0
  O  O147  1  0.72470000  0.55597000  0.82393000  1.0
  O  O148  1  0.65237000  0.06255000  0.31686000  1.0
  O  O149  1  0.03180000  0.43742000  0.18323000  1.0
  O  O150  1  0.34762000  0.93745000  0.68314000  1.0
  O  O151  1  0.96820000  0.56258000  0.81677000  1.0
  O  O152  1  0.72588000  0.82173000  0.41144000  1.0
  O  O153  1  0.95909000  0.67812000  0.08855000  1.0
  O  O154  1  0.27412000  0.17827000  0.58856000  1.0
  O  O155  1  0.04092000  0.32187000  0.91145000  1.0
  O  O156  1  0.77284000  0.77539000  0.51777000  1.0
  O  O157  1  0.06589000  0.72482000  0.98226000  1.0
  O  O158  1  0.22716000  0.22461000  0.48223000  1.0
  O  O159  1  0.93411000  0.27518000  0.01774000  1.0
  O  O160  1  0.89991000  0.83958000  0.42524000  1.0
  O  O161  1  0.16459000  0.66070000  0.07481000  1.0
  O  O162  1  0.10009000  0.16042000  0.57476000  1.0
  O  O163  1  0.83541000  0.33930000  0.92519000  1.0
  F  F164  1  0.26745000  0.96200000  0.19393000  1.0
  F  F165  1  0.42338000  0.53781000  0.30629000  1.0
  F  F166  1  0.73255000  0.03800000  0.80607000  1.0
  F  F167  1  0.57662000  0.46219000  0.69371000  1.0
  F  F168  1  0.50349000  0.96122000  0.19197000  1.0
  F  F169  1  0.65679000  0.53857000  0.30812000  1.0
  F  F170  1  0.49651000  0.03878000  0.80803000  1.0
  F  F171  1  0.34321000  0.46143000  0.69188000  1.0
  F  F172  1  0.18683000  0.58720000  0.41810000  1.0
  F  F173  1  0.19195000  0.91271000  0.08202000  1.0
  F  F174  1  0.81316000  0.41280000  0.58191000  1.0
  F  F175  1  0.80805000  0.08729000  0.91798000  1.0
  F  F176  1  0.17199000  0.52701000  0.55960000  1.0
  F  F177  1  0.25867000  0.97286000  0.94053000  1.0
  F  F178  1  0.82801000  0.47299000  0.44040000  1.0
  F  F179  1  0.74133000  0.02714000  0.05947000  1.0
