# generated using pymatgen
data_ZnH6C7N5Cl
_symmetry_space_group_name_H-M   'P 1'
_cell_length_a   8.77441000
_cell_length_b   9.15569000
_cell_length_c   11.98920000
_cell_angle_alpha   90.00000000
_cell_angle_beta   94.17450000
_cell_angle_gamma   89.99970000
_symmetry_Int_Tables_number   1
_chemical_formula_structural   ZnH6C7N5Cl
_chemical_formula_sum   'Zn4 H24 C28 N20 Cl4'
_cell_volume   960.60641502
_cell_formula_units_Z   4
loop_
 _symmetry_equiv_pos_site_id
 _symmetry_equiv_pos_as_xyz
  1  'x, y, z'
loop_
 _atom_site_type_symbol
 _atom_site_label
 _atom_site_symmetry_multiplicity
 _atom_site_fract_x
 _atom_site_fract_y
 _atom_site_fract_z
 _atom_site_occupancy
  Zn  Zn0  1  0.84174000  0.26703000  0.41026000  1.0
  Zn  Zn1  1  0.65826000  0.76703000  0.08974000  1.0
  Zn  Zn2  1  0.15826000  0.73297000  0.58974000  1.0
  Zn  Zn3  1  0.34174000  0.23297000  0.91026000  1.0
  H  H4  1  0.96927000  0.68312000  0.23005000  1.0
  H  H5  1  0.53073000  0.18312000  0.26995000  1.0
  H  H6  1  0.03073000  0.31688000  0.76995000  1.0
  H  H7  1  0.46927000  0.81688000  0.73005000  1.0
  H  H8  1  0.01337000  0.55710000  0.33829000  1.0
  H  H9  1  0.48663000  0.05710000  0.16171000  1.0
  H  H10  1  0.98663000  0.44290000  0.66171000  1.0
  H  H11  1  0.51337000  0.94290000  0.83829000  1.0
  H  H12  1  0.84870000  0.33685000  0.10947000  1.0
  H  H13  1  0.65130000  0.83686000  0.39053000  1.0
  H  H14  1  0.15129000  0.66315000  0.89053000  1.0
  H  H15  1  0.34870000  0.16315000  0.60947000  1.0
  H  H16  1  0.00604000  0.20021000  0.98062000  1.0
  H  H17  1  0.49397000  0.70021000  0.51937000  1.0
  H  H18  1  0.99396000  0.79979000  0.01937000  1.0
  H  H19  1  0.50604000  0.29979000  0.48063000  1.0
  H  H20  1  0.25643000  0.58268000  0.21641000  1.0
  H  H21  1  0.24356000  0.08268000  0.28359000  1.0
  H  H22  1  0.74356000  0.41732000  0.78359000  1.0
  H  H23  1  0.75644000  0.91732000  0.71641000  1.0
  H  H24  1  0.39491000  0.43699000  0.08468000  1.0
  H  H25  1  0.10509000  0.93699000  0.41532000  1.0
  H  H26  1  0.60508000  0.56301000  0.91531000  1.0
  H  H27  1  0.89492000  0.06301000  0.58469000  1.0
  C  C28  1  0.79136000  0.53624000  0.26249000  1.0
  C  C29  1  0.70864000  0.03624000  0.23751000  1.0
  C  C30  1  0.20864000  0.46377000  0.73751000  1.0
  C  C31  1  0.29136000  0.96377000  0.76249000  1.0
  C  C32  1  0.95599000  0.56785000  0.25384000  1.0
  C  C33  1  0.54401000  0.06785000  0.24616000  1.0
  C  C34  1  0.04401000  0.43215000  0.74616000  1.0
  C  C35  1  0.45599000  0.93215000  0.75384000  1.0
  C  C36  1  0.96975000  0.36305000  0.10774000  1.0
  C  C37  1  0.53025000  0.86306000  0.39226000  1.0
  C  C38  1  0.03025000  0.63694000  0.89226000  1.0
  C  C39  1  0.46975000  0.13694000  0.60774000  1.0
  C  C40  1  0.03855000  0.47341000  0.17455000  1.0
  C  C41  1  0.46145000  0.97341000  0.32545000  1.0
  C  C42  1  0.96145000  0.52659000  0.82545000  1.0
  C  C43  1  0.53856000  0.02659000  0.67455000  1.0
  C  C44  1  0.05649000  0.28552000  0.03512000  1.0
  C  C45  1  0.44352000  0.78553000  0.46488000  1.0
  C  C46  1  0.94351000  0.71448000  0.96488000  1.0
  C  C47  1  0.55649000  0.21448000  0.53512000  1.0
  C  C48  1  0.19461000  0.49929000  0.16667000  1.0
  C  C49  1  0.30539000  0.99929000  0.33333333  1.0
  C  C50  1  0.80538000  0.50071000  0.83334000  1.0
  C  C51  1  0.69462000  0.00071000  0.66666667  1.0
  C  C52  1  0.27370000  0.41813000  0.09268000  1.0
  C  C53  1  0.22631000  0.91813000  0.40732000  1.0
  C  C54  1  0.72630000  0.58187000  0.90732000  1.0
  C  C55  1  0.77370000  0.08187000  0.59268000  1.0
  N  N56  1  0.73656000  0.43327000  0.32827000  1.0
  N  N57  1  0.76344000  0.93327000  0.17173000  1.0
  N  N58  1  0.26344000  0.56674000  0.67173000  1.0
  N  N59  1  0.23656000  0.06674000  0.82827000  1.0
  N  N60  1  0.58171000  0.44117000  0.31561000  1.0
  N  N61  1  0.91829000  0.94116000  0.18440000  1.0
  N  N62  1  0.41828000  0.55884000  0.68440000  1.0
  N  N63  1  0.08172000  0.05884000  0.81561000  1.0
  N  N64  1  0.20637000  0.31325000  0.02696000  1.0
  N  N65  1  0.29363000  0.81325000  0.47304000  1.0
  N  N66  1  0.79362000  0.68675000  0.97304000  1.0
  N  N67  1  0.70638000  0.18675000  0.52696000  1.0
  N  N68  1  0.67242000  0.60627000  0.20972000  1.0
  N  N69  1  0.82758000  0.10627000  0.29028000  1.0
  N  N70  1  0.32758000  0.39374000  0.79028000  1.0
  N  N71  1  0.17243000  0.89374000  0.70973000  1.0
  N  N72  1  0.54366000  0.54521000  0.24502000  1.0
  N  N73  1  0.95634000  0.04520000  0.25498000  1.0
  N  N74  1  0.45634000  0.45480000  0.75498000  1.0
  N  N75  1  0.04366000  0.95480000  0.74502000  1.0
  Cl  Cl76  1  0.08281000  0.29250000  0.47580000  1.0
  Cl  Cl77  1  0.41718000  0.79250000  0.02420000  1.0
  Cl  Cl78  1  0.91719000  0.70750000  0.52420000  1.0
  Cl  Cl79  1  0.58282000  0.20750000  0.97580000  1.0
