# generated using pymatgen
data_Zn4H16C48N4(O5F2)5
_symmetry_space_group_name_H-M   'P 1'
_cell_length_a   17.79970000
_cell_length_b   19.07460000
_cell_length_c   19.34110000
_cell_angle_alpha   94.50380000
_cell_angle_beta   99.55700000
_cell_angle_gamma   104.58300000
_symmetry_Int_Tables_number   1
_chemical_formula_structural   Zn4H16C48N4(O5F2)5
_chemical_formula_sum   'Zn4 H16 C48 N4 O25 F10'
_cell_volume   6216.96062885
_cell_formula_units_Z   1
loop_
 _symmetry_equiv_pos_site_id
 _symmetry_equiv_pos_as_xyz
  1  'x, y, z'
loop_
 _atom_site_type_symbol
 _atom_site_label
 _atom_site_symmetry_multiplicity
 _atom_site_fract_x
 _atom_site_fract_y
 _atom_site_fract_z
 _atom_site_occupancy
  Zn  Zn0  1  0.56583000  0.45542000  0.45054000  1.0
  Zn  Zn1  1  0.42679000  0.43286000  0.54571000  1.0
  Zn  Zn2  1  0.43207000  0.53333000  0.42770000  1.0
  Zn  Zn3  1  0.56883000  0.57797000  0.57337000  1.0
  H  H4  1  0.05491000  0.38459000  0.28913000  1.0
  H  H5  1  0.24048000  0.44666000  0.56023000  1.0
  H  H6  1  0.44512000  0.03008000  0.57319000  1.0
  H  H7  1  0.51806000  0.96659000  0.63157000  1.0
  H  H8  1  0.53863000  0.28987000  0.38668000  1.0
  H  H9  1  0.56315000  0.14041000  0.34431000  1.0
  H  H10  1  0.94573000  0.35369000  0.29032000  1.0
  H  H11  1  0.18307000  0.62581000  0.60169000  1.0
  H  H12  1  0.63331000  0.47562000  0.25111000  1.0
  H  H13  1  0.19945000  0.40492000  0.32397000  1.0
  H  H14  1  0.79755000  0.47061000  0.48266000  1.0
  H  H15  1  0.07095000  0.67929000  0.67201000  1.0
  H  H16  1  0.62267000  0.58836000  0.74995000  1.0
  H  H17  1  0.61734000  0.54980000  0.98378000  1.0
  H  H18  1  0.40918000  0.54511000  0.26190000  1.0
  H  H19  1  0.42282000  0.26624000  0.58001000  1.0
  C  C20  1  0.49810000  0.51424000  0.68960000  1.0
  C  C21  1  0.91884000  0.43942000  0.42603000  1.0
  C  C22  1  0.95761000  0.41393000  0.37750000  1.0
  C  C23  1  0.51762000  0.50400000  0.31348000  1.0
  C  C24  1  0.04133000  0.42614000  0.39400000  1.0
  C  C25  1  0.08135000  0.45968000  0.46339000  1.0
  C  C26  1  0.08407000  0.40521000  0.34380000  1.0
  C  C27  1  0.16430000  0.41524000  0.36272000  1.0
  C  C28  1  0.15860000  0.45024000  0.48597000  1.0
  C  C29  1  0.52384000  0.50763000  0.23879000  1.0
  C  C30  1  0.46512000  0.52762000  0.19143000  1.0
  C  C31  1  0.84576000  0.60687000  0.61756000  1.0
  C  C32  1  0.47186000  0.52745000  0.12000000  1.0
  C  C33  1  0.53599000  0.51127000  0.09497000  1.0
  C  C34  1  0.59460000  0.49447000  0.14487000  1.0
  C  C35  1  0.48080000  0.30966000  0.48501000  1.0
  C  C36  1  0.58857000  0.49093000  0.21449000  1.0
  C  C37  1  0.56399000  0.53832000  0.88927000  1.0
  C  C38  1  0.56440000  0.54745000  0.81693000  1.0
  C  C39  1  0.49204000  0.50310000  0.90981000  1.0
  C  C40  1  0.49484000  0.51644000  0.76563000  1.0
  C  C41  1  0.42343000  0.48258000  0.78756000  1.0
  C  C42  1  0.83600000  0.51239000  0.52334000  1.0
  C  C43  1  0.42174000  0.47664000  0.85762000  1.0
  C  C44  1  0.48223000  0.75707000  0.50778000  1.0
  C  C45  1  0.46365000  0.78770000  0.44547000  1.0
  C  C46  1  0.46485000  0.86095000  0.44711000  1.0
  C  C47  1  0.48581000  0.67954000  0.50524000  1.0
  C  C48  1  0.48289000  0.90619000  0.51223000  1.0
  C  C49  1  0.49996000  0.87577000  0.57569000  1.0
  C  C50  1  0.49996000  0.80241000  0.57220000  1.0
  C  C51  1  0.46021000  0.11805000  0.53326000  1.0
  C  C52  1  0.45407000  0.19018000  0.53447000  1.0
  C  C53  1  0.91867000  0.52472000  0.53335000  1.0
  C  C54  1  0.49195000  0.08730000  0.47858000  1.0
  C  C55  1  0.48230000  0.23324000  0.48235000  1.0
  C  C56  1  0.51414000  0.20227000  0.42833000  1.0
  C  C57  1  0.51820000  0.13022000  0.42577000  1.0
  C  C58  1  0.28683000  0.44276000  0.45410000  1.0
  C  C59  1  0.71121000  0.53684000  0.54507000  1.0
  C  C60  1  0.79840000  0.55200000  0.56314000  1.0
  C  C61  1  0.20209000  0.43499000  0.43439000  1.0
  C  C62  1  0.92659000  0.61915000  0.62945000  1.0
  C  C63  1  0.96628000  0.58049000  0.58935000  1.0
  C  C64  1  0.95815000  0.48618000  0.48966000  1.0
  C  C65  1  0.04222000  0.49855000  0.50640000  1.0
  C  C66  1  0.08631000  0.55827000  0.55862000  1.0
  C  C67  1  0.04952000  0.59710000  0.59951000  1.0
  N  N68  1  0.54736000  0.51522000  0.02537000  1.0
  N  N69  1  0.48353000  0.49406000  0.97830000  1.0
  N  N70  1  0.48186000  0.97902000  0.52172000  1.0
  N  N71  1  0.49791000  0.01677000  0.47106000  1.0
  O  O72  1  0.50005000  0.50018000  0.50102000  1.0
  O  O73  1  0.31558000  0.43598000  0.51897000  1.0
  O  O74  1  0.67928000  0.58205000  0.57288000  1.0
  O  O75  1  0.33000000  0.45746000  0.40766000  1.0
  O  O76  1  0.67436000  0.47946000  0.50144000  1.0
  O  O77  1  0.10083000  0.65440000  0.64535000  1.0
  O  O78  1  0.63361000  0.58318000  0.80117000  1.0
  O  O79  1  0.63137000  0.56339000  0.93647000  1.0
  O  O80  1  0.40250000  0.54622000  0.20977000  1.0
  O  O81  1  0.42282000  0.21527000  0.58720000  1.0
  O  O82  1  0.18674000  0.45482000  0.55516000  1.0
  O  O83  1  0.51361000  0.34844000  0.44073000  1.0
  O  O84  1  0.43443000  0.07888000  0.58386000  1.0
  O  O85  1  0.51812000  0.91651000  0.63981000  1.0
  O  O86  1  0.54212000  0.23893000  0.37618000  1.0
  O  O87  1  0.54862000  0.10164000  0.37391000  1.0
  O  O88  1  0.91283000  0.37633000  0.31521000  1.0
  O  O89  1  0.16572000  0.58356000  0.56493000  1.0
  O  O90  1  0.54241000  0.66770000  0.54795000  1.0
  O  O91  1  0.44723000  0.46387000  0.64730000  1.0
  O  O92  1  0.46217000  0.52809000  0.33456000  1.0
  O  O93  1  0.55447000  0.56255000  0.67155000  1.0
  O  O94  1  0.56570000  0.47790000  0.35297000  1.0
  O  O95  1  0.44699000  0.33559000  0.53139000  1.0
  O  O96  1  0.43234000  0.63293000  0.46024000  1.0
  F  F97  1  0.65726000  0.47933000  0.12127000  1.0
  F  F98  1  0.83854000  0.42114000  0.40664000  1.0
  F  F99  1  0.35458000  0.45788000  0.74028000  1.0
  F  F100  1  0.41627000  0.54811000  0.07659000  1.0
  F  F101  1  0.35287000  0.44588000  0.87714000  1.0
  F  F102  1  0.51631000  0.77553000  0.63386000  1.0
  F  F103  1  0.44530000  0.88644000  0.38561000  1.0
  F  F104  1  0.44688000  0.74692000  0.38166000  1.0
  F  F105  1  0.97019000  0.67256000  0.68357000  1.0
  F  F106  1  0.81501000  0.64730000  0.65957000  1.0
