# generated using pymatgen
data_GdH4C12(O4F3)2
_symmetry_space_group_name_H-M   'P 1'
_cell_length_a   8.76449000
_cell_length_b   8.76629000
_cell_length_c   11.47807415
_cell_angle_alpha   111.86669913
_cell_angle_beta   105.68059467
_cell_angle_gamma   99.08350000
_symmetry_Int_Tables_number   1
_chemical_formula_structural   GdH4C12(O4F3)2
_chemical_formula_sum   'Gd2 H8 C24 O16 F12'
_cell_volume   754.26904410
_cell_formula_units_Z   2
loop_
 _symmetry_equiv_pos_site_id
 _symmetry_equiv_pos_as_xyz
  1  'x, y, z'
loop_
 _atom_site_type_symbol
 _atom_site_label
 _atom_site_symmetry_multiplicity
 _atom_site_fract_x
 _atom_site_fract_y
 _atom_site_fract_z
 _atom_site_occupancy
  Gd  Gd0  1  0.16100000  0.85602000  0.01715000  1.0
  Gd  Gd1  1  0.83900000  0.14398000  0.98285000  1.0
  H  H2  1  0.52694000  0.04151000  0.18884000  1.0
  H  H3  1  0.85256000  0.33818000  0.81103000  1.0
  H  H4  1  0.47305000  0.95849000  0.81115000  1.0
  H  H5  1  0.14744000  0.66182000  0.18897000  1.0
  H  H6  1  0.53049000  0.90858000  0.05628000  1.0
  H  H7  1  0.85236000  0.47423000  0.94365000  1.0
  H  H8  1  0.46952000  0.09143000  0.94372000  1.0
  H  H9  1  0.14764000  0.52578000  0.05635000  1.0
  C  C10  1  0.62327000  0.62331000  0.99982000  1.0
  C  C11  1  0.37672000  0.37669000  0.00018000  1.0
  C  C12  1  0.51111000  0.49048000  0.87982000  1.0
  C  C13  1  0.61071000  0.63139000  0.11999000  1.0
  C  C14  1  0.48888000  0.50951000  0.12018000  1.0
  C  C15  1  0.38928000  0.36861000  0.88001000  1.0
  C  C16  1  0.75548000  0.75557000  0.99979000  1.0
  C  C17  1  0.24452000  0.24444000  0.00021000  1.0
  C  C18  1  0.13783000  0.11776000  0.25613000  1.0
  C  C19  1  0.86217000  0.88224000  0.74387000  1.0
  C  C20  1  0.16056000  0.61546000  0.77649000  1.0
  C  C21  1  0.83945000  0.38454000  0.22351000  1.0
  C  C22  1  0.13745000  0.24862000  0.38679000  1.0
  C  C23  1  0.86255000  0.75137000  0.61321000  1.0
  C  C24  1  0.14776000  0.49185000  0.64022000  1.0
  C  C25  1  0.85225000  0.50815000  0.35979000  1.0
  C  C26  1  0.24302000  0.41524000  0.45015000  1.0
  C  C27  1  0.96585000  0.79341000  0.54978000  1.0
  C  C28  1  0.75699000  0.58477000  0.54985000  1.0
  C  C29  1  0.03416000  0.20659000  0.45022000  1.0
  C  C30  1  0.24836000  0.53428000  0.57329000  1.0
  C  C31  1  0.96166000  0.67557000  0.42664000  1.0
  C  C32  1  0.75163000  0.46571000  0.42670000  1.0
  C  C33  1  0.03834000  0.32443000  0.57336000  1.0
  O  O34  1  0.04076000  0.10369000  0.14495000  1.0
  O  O35  1  0.95925000  0.89632000  0.85506000  1.0
  O  O36  1  0.46473000  0.92810000  0.11515000  1.0
  O  O37  1  0.81303000  0.34964000  0.88487000  1.0
  O  O38  1  0.53527000  0.07191000  0.88485000  1.0
  O  O39  1  0.18696000  0.65036000  0.11512000  1.0
  O  O40  1  0.89400000  0.72554000  0.01112000  1.0
  O  O41  1  0.71413000  0.88276000  0.98854000  1.0
  O  O42  1  0.10599000  0.27447000  0.98888000  1.0
  O  O43  1  0.28585000  0.11723000  0.01145000  1.0
  O  O44  1  0.23434000  0.02610000  0.26086000  1.0
  O  O45  1  0.76567000  0.97390000  0.73914000  1.0
  O  O46  1  0.06850000  0.57038000  0.83435000  1.0
  O  O47  1  0.73621000  0.23483000  0.16562000  1.0
  O  O48  1  0.93150000  0.42962000  0.16565000  1.0
  O  O49  1  0.26379000  0.76517000  0.83438000  1.0
  F  F50  1  0.52161000  0.47765000  0.76156000  1.0
  F  F51  1  0.71627000  0.76024000  0.23806000  1.0
  F  F52  1  0.47839000  0.52235000  0.23844000  1.0
  F  F53  1  0.28374000  0.23976000  0.76194000  1.0
  F  F54  1  0.34235000  0.46357000  0.39106000  1.0
  F  F55  1  0.07347000  0.95161000  0.60870000  1.0
  F  F56  1  0.65765000  0.53643000  0.60894000  1.0
  F  F57  1  0.92654000  0.04839000  0.39131000  1.0
  F  F58  1  0.35548000  0.69199000  0.62484000  1.0
  F  F59  1  0.06789000  0.73093000  0.37499000  1.0
  F  F60  1  0.64451000  0.30800000  0.37515000  1.0
  F  F61  1  0.93212000  0.26908000  0.62502000  1.0
