# generated using pymatgen
data_CuH20C26(N3O2)2
_symmetry_space_group_name_H-M   'P 1'
_cell_length_a   7.95394000
_cell_length_b   11.03290000
_cell_length_c   14.18750000
_cell_angle_alpha   92.99260000
_cell_angle_beta   106.24700000
_cell_angle_gamma   92.18600000
_symmetry_Int_Tables_number   1
_chemical_formula_structural   CuH20C26(N3O2)2
_chemical_formula_sum   'Cu2 H40 C52 N12 O8'
_cell_volume   1191.86562466
_cell_formula_units_Z   2
loop_
 _symmetry_equiv_pos_site_id
 _symmetry_equiv_pos_as_xyz
  1  'x, y, z'
loop_
 _atom_site_type_symbol
 _atom_site_label
 _atom_site_symmetry_multiplicity
 _atom_site_fract_x
 _atom_site_fract_y
 _atom_site_fract_z
 _atom_site_occupancy
  Cu  Cu0  1  0.50000000  0.00000000  0.00000000  1.0
  Cu  Cu1  1  0.50000000  0.00000000  0.50000000  1.0
  H  H2  1  0.61083000  0.29114000  0.05593000  1.0
  H  H3  1  0.38917000  0.70886000  0.94407000  1.0
  H  H4  1  0.27392000  0.11337000  0.79681000  1.0
  H  H5  1  0.72608000  0.88663000  0.20319000  1.0
  H  H6  1  0.18750000  0.44352000  0.80013000  1.0
  H  H7  1  0.81250000  0.55649000  0.19988000  1.0
  H  H8  1  0.12048000  0.30270000  0.72973000  1.0
  H  H9  1  0.87951000  0.69730000  0.27028000  1.0
  H  H10  1  0.32997000  0.59552000  0.73375000  1.0
  H  H11  1  0.67004000  0.40448000  0.26625000  1.0
  H  H12  1  0.45070000  0.66228000  0.60354000  1.0
  H  H13  1  0.54929000  0.33771000  0.39646000  1.0
  H  H14  1  0.48415000  0.28667000  0.51002000  1.0
  H  H15  1  0.51584000  0.71332000  0.48998000  1.0
  H  H16  1  0.35706000  0.22104000  0.63794000  1.0
  H  H17  1  0.64292000  0.77896000  0.36207000  1.0
  H  H18  1  0.07079000  0.92629000  0.43829000  1.0
  H  H19  1  0.92921000  0.07371000  0.56171000  1.0
  H  H20  1  0.40197000  0.03947000  0.26864000  1.0
  H  H21  1  0.59803000  0.96053000  0.73136000  1.0
  H  H22  1  0.19954000  0.98817000  0.10402000  1.0
  H  H23  1  0.80046000  0.01183000  0.89598000  1.0
  H  H24  1  0.97175000  0.99472000  0.09755000  1.0
  H  H25  1  0.02825000  0.00527000  0.90245000  1.0
  H  H26  1  0.28801000  0.75411000  0.19975000  1.0
  H  H27  1  0.71199000  0.24589000  0.80025000  1.0
  H  H28  1  0.24765000  0.54242000  0.13832000  1.0
  H  H29  1  0.75236000  0.45758000  0.86168000  1.0
  H  H30  1  0.78244000  0.62552000  0.91270000  1.0
  H  H31  1  0.21756000  0.37448000  0.08730000  1.0
  H  H32  1  0.82604000  0.83749000  0.97397000  1.0
  H  H33  1  0.17396000  0.16251000  0.02603000  1.0
  H  H34  1  0.07392000  0.73755000  0.50074000  1.0
  H  H35  1  0.92608000  0.26244000  0.49926000  1.0
  H  H36  1  0.86461000  0.59755000  0.54785000  1.0
  H  H37  1  0.13539000  0.40244000  0.45215000  1.0
  H  H38  1  0.85430000  0.60093000  0.72207000  1.0
  H  H39  1  0.14571000  0.39907000  0.27793000  1.0
  H  H40  1  0.06550000  0.73931000  0.84940000  1.0
  H  H41  1  0.93450000  0.26069000  0.15060000  1.0
  C  C42  1  0.51761000  0.27364000  0.98410000  1.0
  C  C43  1  0.48239000  0.72637000  0.01590000  1.0
  C  C44  1  0.34932000  0.17962000  0.85363000  1.0
  C  C45  1  0.65068000  0.82038000  0.14637000  1.0
  C  C46  1  0.23404000  0.36489000  0.76610000  1.0
  C  C47  1  0.76595000  0.63512000  0.23390000  1.0
  C  C48  1  0.33005000  0.40407000  0.69395000  1.0
  C  C49  1  0.66995000  0.59593000  0.30605000  1.0
  C  C50  1  0.36358000  0.52739000  0.68447000  1.0
  C  C51  1  0.63642000  0.47260000  0.31553000  1.0
  C  C52  1  0.43268000  0.56508000  0.61007000  1.0
  C  C53  1  0.56732000  0.43491000  0.38993000  1.0
  C  C54  1  0.47136000  0.48022000  0.54257000  1.0
  C  C55  1  0.52863000  0.51978000  0.45743000  1.0
  C  C56  1  0.45011000  0.35592000  0.55800000  1.0
  C  C57  1  0.54988000  0.64407000  0.44200000  1.0
  C  C58  1  0.37918000  0.31827000  0.63158000  1.0
  C  C59  1  0.62081000  0.68173000  0.36842000  1.0
  C  C60  1  0.12287000  0.94365000  0.37721000  1.0
  C  C61  1  0.87713000  0.05635000  0.62279000  1.0
  C  C62  1  0.29444000  0.00257000  0.29384000  1.0
  C  C63  1  0.70556000  0.99744000  0.70616000  1.0
  C  C64  1  0.09060000  0.94496000  0.12597000  1.0
  C  C65  1  0.90941000  0.05504000  0.87403000  1.0
  C  C66  1  0.06187000  0.81259000  0.09041000  1.0
  C  C67  1  0.93813000  0.18741000  0.90959000  1.0
  C  C68  1  0.17687000  0.72652000  0.13615000  1.0
  C  C69  1  0.82314000  0.27348000  0.86385000  1.0
  C  C70  1  0.15243000  0.60516000  0.10124000  1.0
  C  C71  1  0.84757000  0.39484000  0.89876000  1.0
  C  C72  1  0.01216000  0.56450000  0.01905000  1.0
  C  C73  1  0.98785000  0.43550000  0.98095000  1.0
  C  C74  1  0.89596000  0.65177000  0.97486000  1.0
  C  C75  1  0.10405000  0.34823000  0.02513000  1.0
  C  C76  1  0.92048000  0.77331000  0.00975000  1.0
  C  C77  1  0.07953000  0.22669000  0.99025000  1.0
  C  C78  1  0.18725000  0.81814000  0.64751000  1.0
  C  C79  1  0.81275000  0.18186000  0.35249000  1.0
  C  C80  1  0.07095000  0.73832000  0.57716000  1.0
  C  C81  1  0.92905000  0.26168000  0.42284000  1.0
  C  C82  1  0.95302000  0.65944000  0.60370000  1.0
  C  C83  1  0.04698000  0.34056000  0.39630000  1.0
  C  C84  1  0.94814000  0.66106000  0.70130000  1.0
  C  C85  1  0.05186000  0.33894000  0.29870000  1.0
  C  C86  1  0.06538000  0.73902000  0.77250000  1.0
  C  C87  1  0.93462000  0.26099000  0.22750000  1.0
  C  C88  1  0.18744000  0.81599000  0.74681000  1.0
  C  C89  1  0.81256000  0.18402000  0.25319000  1.0
  C  C90  1  0.32769000  0.88426000  0.82713000  1.0
  C  C91  1  0.67231000  0.11574000  0.17287000  1.0
  C  C92  1  0.29869000  0.91062000  0.61396000  1.0
  C  C93  1  0.70131000  0.08939000  0.38603000  1.0
  N  N94  1  0.46067000  0.15953000  0.94116000  1.0
  N  N95  1  0.53933000  0.84047000  0.05884000  1.0
  N  N96  1  0.44732000  0.36163000  0.92856000  1.0
  N  N97  1  0.55268000  0.63838000  0.07144000  1.0
  N  N98  1  0.34121000  0.29990000  0.84659000  1.0
  N  N99  1  0.65879000  0.70010000  0.15341000  1.0
  N  N100  1  0.28828000  0.99223000  0.38665000  1.0
  N  N101  1  0.71172000  0.00777000  0.61335000  1.0
  N  N102  1  0.02890000  0.92230000  0.28442000  1.0
  N  N103  1  0.97110000  0.07770000  0.71558000  1.0
  N  N104  1  0.14023000  0.96027000  0.23297000  1.0
  N  N105  1  0.85977000  0.03973000  0.76703000  1.0
  O  O106  1  0.28106000  0.92720000  0.90240000  1.0
  O  O107  1  0.71894000  0.07280000  0.09760000  1.0
  O  O108  1  0.48306000  0.89198000  0.82234000  1.0
  O  O109  1  0.51694000  0.10802000  0.17766000  1.0
  O  O110  1  0.38792000  0.86734000  0.55718000  1.0
  O  O111  1  0.61209000  0.13266000  0.44282000  1.0
  O  O112  1  0.29415000  0.02117000  0.63706000  1.0
  O  O113  1  0.70585000  0.97883000  0.36294000  1.0
