# generated using pymatgen
data_ZnH5C13Br2N4O
_symmetry_space_group_name_H-M   'P 1'
_cell_length_a   19.96290000
_cell_length_b   22.36880000
_cell_length_c   22.45520000
_cell_angle_alpha   89.99950000
_cell_angle_beta   89.95120000
_cell_angle_gamma   92.74090000
_symmetry_Int_Tables_number   1
_chemical_formula_structural   ZnH5C13Br2N4O
_chemical_formula_sum   'Zn8 H40 C104 Br16 N32 O8'
_cell_volume   10015.80746189
_cell_formula_units_Z   8
loop_
 _symmetry_equiv_pos_site_id
 _symmetry_equiv_pos_as_xyz
  1  'x, y, z'
loop_
 _atom_site_type_symbol
 _atom_site_label
 _atom_site_symmetry_multiplicity
 _atom_site_fract_x
 _atom_site_fract_y
 _atom_site_fract_z
 _atom_site_occupancy
  Zn  Zn0  1  0.62394000  0.01078000  0.50167000  1.0
  Zn  Zn1  1  0.37603000  0.98919000  0.49832000  1.0
  Zn  Zn2  1  0.12390000  0.51071000  0.99835000  1.0
  Zn  Zn3  1  0.87617000  0.48936000  0.00170000  1.0
  Zn  Zn4  1  0.49908000  0.99537000  0.60821000  1.0
  Zn  Zn5  1  0.50088000  0.00460000  0.39179000  1.0
  Zn  Zn6  1  0.00099000  0.50436000  0.10831000  1.0
  Zn  Zn7  1  0.99908000  0.49567000  0.89177000  1.0
  H  H8  1  0.26175000  0.90596000  0.41889000  1.0
  H  H9  1  0.73825000  0.09400000  0.58114000  1.0
  H  H10  1  0.62999000  0.15421000  0.50189000  1.0
  H  H11  1  0.36997000  0.84575000  0.49811000  1.0
  H  H12  1  0.86971000  0.34597000  0.00159000  1.0
  H  H13  1  0.13019000  0.65411000  0.99848000  1.0
  H  H14  1  0.23828000  0.59398000  0.91890000  1.0
  H  H15  1  0.76172000  0.40613000  0.08110000  1.0
  H  H16  1  0.51946000  0.86896000  0.35847000  1.0
  H  H17  1  0.48050000  0.13102000  0.64153000  1.0
  H  H18  1  0.45762000  0.12205000  0.32612000  1.0
  H  H19  1  0.54238000  0.87795000  0.67393000  1.0
  H  H20  1  0.04224000  0.37813000  0.82605000  1.0
  H  H21  1  0.95780000  0.62183000  0.17411000  1.0
  H  H22  1  0.98062000  0.63133000  0.85860000  1.0
  H  H23  1  0.01941000  0.36871000  0.14149000  1.0
  H  H24  1  0.79251000  0.87113000  0.60766000  1.0
  H  H25  1  0.78559000  0.94475000  0.63838000  1.0
  H  H26  1  0.83060000  0.93508000  0.56991000  1.0
  H  H27  1  0.21440000  0.05516000  0.36155000  1.0
  H  H28  1  0.20745000  0.12879000  0.39222000  1.0
  H  H29  1  0.16933000  0.06485000  0.42996000  1.0
  H  H30  1  0.25937000  0.16865000  0.53973000  1.0
  H  H31  1  0.22167000  0.15568000  0.61155000  1.0
  H  H32  1  0.18374000  0.12226000  0.54624000  1.0
  H  H33  1  0.77829000  0.84429000  0.38843000  1.0
  H  H34  1  0.74059000  0.83136000  0.46026000  1.0
  H  H35  1  0.81623000  0.87773000  0.45372000  1.0
  H  H36  1  0.24071000  0.33116000  0.03964000  1.0
  H  H37  1  0.27830000  0.34407000  0.11147000  1.0
  H  H38  1  0.31634000  0.37753000  0.04617000  1.0
  H  H39  1  0.72170000  0.65589000  0.88843000  1.0
  H  H40  1  0.75920000  0.66878000  0.96029000  1.0
  H  H41  1  0.68360000  0.62239000  0.95368000  1.0
  H  H42  1  0.70786000  0.62900000  0.10774000  1.0
  H  H43  1  0.71459000  0.55528000  0.13827000  1.0
  H  H44  1  0.66980000  0.56519000  0.06980000  1.0
  H  H45  1  0.28545000  0.44483000  0.86155000  1.0
  H  H46  1  0.29232000  0.37115000  0.89210000  1.0
  H  H47  1  0.33038000  0.43501000  0.92995000  1.0
  C  C48  1  0.66928000  0.91727000  0.58681000  1.0
  C  C49  1  0.33067000  0.08267000  0.41316000  1.0
  C  C50  1  0.33252000  0.08799000  0.58767000  1.0
  C  C51  1  0.66745000  0.91199000  0.41231000  1.0
  C  C52  1  0.16750000  0.41176000  0.08762000  1.0
  C  C53  1  0.83251000  0.58822000  0.91237000  1.0
  C  C54  1  0.83108000  0.58280000  0.08686000  1.0
  C  C55  1  0.16908000  0.41730000  0.91310000  1.0
  C  C56  1  0.73059000  0.10240000  0.71211000  1.0
  C  C57  1  0.26932000  0.89764000  0.28791000  1.0
  C  C58  1  0.35975000  0.77413000  0.61163000  1.0
  C  C59  1  0.64022000  0.22584000  0.38837000  1.0
  C  C60  1  0.14054000  0.72548000  0.11209000  1.0
  C  C61  1  0.85932000  0.27459000  0.88800000  1.0
  C  C62  1  0.76909000  0.39766000  0.21206000  1.0
  C  C63  1  0.23092000  0.60231000  0.78794000  1.0
  C  C64  1  0.81419000  0.15879000  0.78379000  1.0
  C  C65  1  0.18561000  0.84129000  0.21629000  1.0
  C  C66  1  0.30282000  0.67860000  0.65955000  1.0
  C  C67  1  0.69713000  0.32137000  0.34046000  1.0
  C  C68  1  0.19742000  0.82113000  0.15974000  1.0
  C  C69  1  0.80234000  0.17898000  0.84033000  1.0
  C  C70  1  0.68533000  0.34145000  0.28389000  1.0
  C  C71  1  0.31467000  0.65850000  0.71610000  1.0
  C  C72  1  0.22922000  0.87574000  0.25184000  1.0
  C  C73  1  0.77062000  0.12433000  0.74822000  1.0
  C  C74  1  0.66317000  0.27339000  0.36808000  1.0
  C  C75  1  0.33678000  0.72658000  0.63189000  1.0
  C  C76  1  0.83627000  0.22705000  0.86779000  1.0
  C  C77  1  0.16353000  0.77304000  0.13228000  1.0
  C  C78  1  0.27101000  0.62420000  0.75180000  1.0
  C  C79  1  0.72900000  0.37575000  0.24820000  1.0
  C  C80  1  0.30668000  0.91833000  0.39353000  1.0
  C  C81  1  0.69331000  0.08165000  0.60648000  1.0
  C  C82  1  0.61592000  0.13743000  0.45808000  1.0
  C  C83  1  0.38406000  0.86254000  0.54192000  1.0
  C  C84  1  0.88382000  0.36282000  0.95779000  1.0
  C  C85  1  0.11614000  0.63722000  0.04229000  1.0
  C  C86  1  0.19338000  0.58165000  0.89355000  1.0
  C  C87  1  0.80662000  0.41842000  0.10646000  1.0
  C  C88  1  0.40538000  0.87781000  0.63746000  1.0
  C  C89  1  0.59459000  0.12216000  0.36255000  1.0
  C  C90  1  0.61657000  0.06211000  0.67535000  1.0
  C  C91  1  0.38336000  0.93795000  0.32461000  1.0
  C  C92  1  0.88320000  0.43790000  0.17538000  1.0
  C  C93  1  0.11680000  0.56211000  0.82464000  1.0
  C  C94  1  0.09486000  0.62179000  0.13784000  1.0
  C  C95  1  0.90523000  0.37822000  0.86225000  1.0
  C  C96  1  0.56435000  0.88826000  0.37965000  1.0
  C  C97  1  0.43561000  0.11172000  0.62035000  1.0
  C  C98  1  0.42141000  0.10592000  0.35921000  1.0
  C  C99  1  0.57857000  0.89406000  0.64081000  1.0
  C  C100  1  0.07841000  0.39422000  0.85913000  1.0
  C  C101  1  0.92167000  0.60580000  0.14096000  1.0
  C  C102  1  0.93567000  0.61202000  0.87975000  1.0
  C  C103  1  0.06435000  0.38801000  0.12031000  1.0
  C  C104  1  0.64816000  0.88527000  0.63899000  1.0
  C  C105  1  0.35182000  0.11468000  0.36099000  1.0
  C  C106  1  0.37007000  0.13269000  0.62085000  1.0
  C  C107  1  0.62990000  0.86729000  0.37913000  1.0
  C  C108  1  0.12990000  0.36708000  0.12085000  1.0
  C  C109  1  0.87010000  0.63293000  0.87917000  1.0
  C  C110  1  0.85210000  0.61470000  0.13910000  1.0
  C  C111  1  0.14799000  0.38534000  0.86091000  1.0
  C  C112  1  0.31547000  0.91759000  0.33107000  1.0
  C  C113  1  0.68446000  0.08245000  0.66893000  1.0
  C  C114  1  0.61717000  0.16769000  0.40303000  1.0
  C  C115  1  0.38281000  0.83227000  0.59697000  1.0
  C  C116  1  0.88253000  0.33267000  0.90268000  1.0
  C  C117  1  0.11744000  0.66737000  0.09740000  1.0
  C  C118  1  0.18470000  0.58239000  0.83110000  1.0
  C  C119  1  0.81531000  0.41761000  0.16891000  1.0
  C  C120  1  0.65457000  0.81930000  0.34746000  1.0
  C  C121  1  0.34539000  0.18069000  0.65251000  1.0
  C  C122  1  0.31456000  0.14759000  0.32114000  1.0
  C  C123  1  0.68544000  0.85237000  0.67882000  1.0
  C  C124  1  0.18527000  0.35238000  0.82108000  1.0
  C  C125  1  0.81477000  0.64762000  0.17894000  1.0
  C  C126  1  0.84546000  0.68089000  0.84746000  1.0
  C  C127  1  0.15454000  0.31911000  0.15254000  1.0
  C  C128  1  0.68112000  0.78073000  0.31758000  1.0
  C  C129  1  0.31885000  0.21925000  0.68240000  1.0
  C  C130  1  0.28212000  0.17672000  0.28573000  1.0
  C  C131  1  0.71789000  0.82325000  0.71423000  1.0
  C  C132  1  0.21774000  0.32322000  0.78567000  1.0
  C  C133  1  0.78228000  0.67677000  0.21435000  1.0
  C  C134  1  0.81892000  0.71943000  0.81758000  1.0
  C  C135  1  0.18109000  0.28057000  0.18242000  1.0
  C  C136  1  0.71360000  0.74234000  0.28359000  1.0
  C  C137  1  0.28638000  0.25764000  0.71641000  1.0
  C  C138  1  0.24625000  0.20987000  0.24906000  1.0
  C  C139  1  0.75378000  0.79012000  0.75091000  1.0
  C  C140  1  0.25366000  0.29003000  0.74902000  1.0
  C  C141  1  0.74635000  0.70994000  0.25100000  1.0
  C  C142  1  0.78650000  0.75778000  0.78353000  1.0
  C  C143  1  0.21352000  0.24221000  0.21645000  1.0
  C  C144  1  0.78798000  0.91866000  0.59702000  1.0
  C  C145  1  0.21198000  0.08127000  0.40289000  1.0
  C  C146  1  0.23118000  0.13598000  0.56779000  1.0
  C  C147  1  0.76879000  0.86400000  0.43218000  1.0
  C  C148  1  0.26887000  0.36379000  0.06773000  1.0
  C  C149  1  0.73109000  0.63614000  0.93217000  1.0
  C  C150  1  0.71235000  0.58150000  0.09699000  1.0
  C  C151  1  0.28779000  0.41865000  0.90285000  1.0
  Br  Br152  1  0.41475000  0.87121000  0.72010000  1.0
  Br  Br153  1  0.58523000  0.12877000  0.27990000  1.0
  Br  Br154  1  0.56645000  0.04946000  0.74505000  1.0
  Br  Br155  1  0.43339000  0.95067000  0.25488000  1.0
  Br  Br156  1  0.93314000  0.45047000  0.24511000  1.0
  Br  Br157  1  0.06687000  0.54951000  0.75490000  1.0
  Br  Br158  1  0.08550000  0.62830000  0.22051000  1.0
  Br  Br159  1  0.91465000  0.37166000  0.77960000  1.0
  Br  Br160  1  0.72546000  0.14483000  0.88151000  1.0
  Br  Br161  1  0.27421000  0.85532000  0.11848000  1.0
  Br  Br162  1  0.39549000  0.68745000  0.75487000  1.0
  Br  Br163  1  0.60451000  0.31251000  0.24511000  1.0
  Br  Br164  1  0.10477000  0.81242000  0.25522000  1.0
  Br  Br165  1  0.89505000  0.18765000  0.74489000  1.0
  Br  Br166  1  0.77404000  0.35554000  0.38148000  1.0
  Br  Br167  1  0.22589000  0.64445000  0.61860000  1.0
  N  N168  1  0.61655000  0.94120000  0.56064000  1.0
  N  N169  1  0.38339000  0.05876000  0.43935000  1.0
  N  N170  1  0.37248000  0.04491000  0.57048000  1.0
  N  N171  1  0.62749000  0.95507000  0.42950000  1.0
  N  N172  1  0.12754000  0.45480000  0.07039000  1.0
  N  N173  1  0.87247000  0.54520000  0.92963000  1.0
  N  N174  1  0.88384000  0.55884000  0.06070000  1.0
  N  N175  1  0.11635000  0.44127000  0.93930000  1.0
  N  N176  1  0.36392000  0.93688000  0.42067000  1.0
  N  N177  1  0.63609000  0.06307000  0.57931000  1.0
  N  N178  1  0.59524000  0.07972000  0.45005000  1.0
  N  N179  1  0.40472000  0.92025000  0.54995000  1.0
  N  N180  1  0.90463000  0.42050000  0.94984000  1.0
  N  N181  1  0.09543000  0.57952000  0.05025000  1.0
  N  N182  1  0.13606000  0.56317000  0.92071000  1.0
  N  N183  1  0.86392000  0.43695000  0.07932000  1.0
  N  N184  1  0.41810000  0.92971000  0.60952000  1.0
  N  N185  1  0.58185000  0.07026000  0.39049000  1.0
  N  N186  1  0.58809000  0.05094000  0.62229000  1.0
  N  N187  1  0.41189000  0.94906000  0.37766000  1.0
  N  N188  1  0.91183000  0.44902000  0.12233000  1.0
  N  N189  1  0.08816000  0.55105000  0.87770000  1.0
  N  N190  1  0.08208000  0.56994000  0.10983000  1.0
  N  N191  1  0.91806000  0.43007000  0.89028000  1.0
  N  N192  1  0.56357000  0.94047000  0.40937000  1.0
  N  N193  1  0.43639000  0.05951000  0.59063000  1.0
  N  N194  1  0.43950000  0.07257000  0.40596000  1.0
  N  N195  1  0.56047000  0.92740000  0.59407000  1.0
  N  N196  1  0.06029000  0.42756000  0.90590000  1.0
  N  N197  1  0.93985000  0.57250000  0.09418000  1.0
  N  N198  1  0.93642000  0.55983000  0.90951000  1.0
  N  N199  1  0.06360000  0.44020000  0.09055000  1.0
  O  O200  1  0.72959000  0.92728000  0.56084000  1.0
  O  O201  1  0.27034000  0.07266000  0.43910000  1.0
  O  O202  1  0.26724000  0.08191000  0.57360000  1.0
  O  O203  1  0.73273000  0.91808000  0.42635000  1.0
  O  O204  1  0.23281000  0.41786000  0.07358000  1.0
  O  O205  1  0.76718000  0.58209000  0.92634000  1.0
  O  O206  1  0.77084000  0.57291000  0.06083000  1.0
  O  O207  1  0.22936000  0.42721000  0.93908000  1.0
