# generated using pymatgen
data_Zn4H6C21N3Cl3O13
_symmetry_space_group_name_H-M   'P 1'
_cell_length_a   15.51130000
_cell_length_b   16.07105734
_cell_length_c   16.58300000
_cell_angle_alpha   63.17238976
_cell_angle_beta   62.54600000
_cell_angle_gamma   61.91109840
_symmetry_Int_Tables_number   1
_chemical_formula_structural   Zn4H6C21N3Cl3O13
_chemical_formula_sum   'Zn8 H12 C42 N6 Cl6 O26'
_cell_volume   3087.99806467
_cell_formula_units_Z   2
loop_
 _symmetry_equiv_pos_site_id
 _symmetry_equiv_pos_as_xyz
  1  'x, y, z'
loop_
 _atom_site_type_symbol
 _atom_site_label
 _atom_site_symmetry_multiplicity
 _atom_site_fract_x
 _atom_site_fract_y
 _atom_site_fract_z
 _atom_site_occupancy
  Zn  Zn0  1  0.02165000  0.84092000  0.11067000  1.0
  Zn  Zn1  1  0.04888000  0.01909000  0.91462000  1.0
  Zn  Zn2  1  0.05475000  0.02563000  0.10278000  1.0
  Zn  Zn3  1  0.84273000  0.05435000  0.08563000  1.0
  Zn  Zn4  1  0.42356000  0.63724000  0.51850000  1.0
  Zn  Zn5  1  0.46174000  0.43327000  0.68399000  1.0
  Zn  Zn6  1  0.63489000  0.45858000  0.48019000  1.0
  Zn  Zn7  1  0.42364000  0.44676000  0.50130000  1.0
  H  H8  1  0.55613000  0.60225000  0.75714000  1.0
  H  H9  1  0.35898000  0.75621000  0.96923000  1.0
  H  H10  1  0.06396000  0.67514000  0.62543000  1.0
  H  H11  1  0.89228000  0.86551000  0.42607000  1.0
  H  H12  1  0.53683000  0.71961000  0.19403000  1.0
  H  H13  1  0.72333000  0.90782000  0.00481000  1.0
  H  H14  1  0.55799000  0.12153000  0.66744000  1.0
  H  H15  1  0.39293000  0.92544000  0.89579000  1.0
  H  H16  1  0.76783000  0.51672000  0.61666000  1.0
  H  H17  1  0.91908000  0.34004000  0.83256000  1.0
  H  H18  1  0.63293000  0.53707000  0.19288000  1.0
  H  H19  1  0.86698000  0.34977000  0.01640000  1.0
  C  C20  1  0.46944000  0.67972000  0.86357000  1.0
  C  C21  1  0.48110000  0.64680000  0.79333000  1.0
  C  C22  1  0.39267000  0.67118000  0.77281000  1.0
  C  C23  1  0.28972000  0.75605000  0.88156000  1.0
  C  C24  1  0.37153000  0.73335000  0.91100000  1.0
  C  C25  1  0.18404000  0.81731000  0.92956000  1.0
  C  C26  1  0.40110000  0.62737000  0.70479000  1.0
  C  C27  1  0.96632000  0.77109000  0.53539000  1.0
  C  C28  1  0.05966000  0.70977000  0.55323000  1.0
  C  C29  1  0.14778000  0.69565000  0.47456000  1.0
  C  C30  1  0.05748000  0.79645000  0.36935000  1.0
  C  C31  1  0.96400000  0.81631000  0.44191000  1.0
  C  C32  1  0.05818000  0.84483000  0.26695000  1.0
  C  C33  1  0.25163000  0.63431000  0.48969000  1.0
  C  C34  1  0.62943000  0.81257000  0.08838000  1.0
  C  C35  1  0.59554000  0.74885000  0.17786000  1.0
  C  C36  1  0.63890000  0.72490000  0.24630000  1.0
  C  C37  1  0.73695000  0.82431000  0.14658000  1.0
  C  C38  1  0.69919000  0.85417000  0.07240000  1.0
  C  C39  1  0.81118000  0.86899000  0.13272000  1.0
  C  C40  1  0.60161000  0.65853000  0.34485000  1.0
  C  C41  1  0.48681000  0.01300000  0.77951000  1.0
  C  C42  1  0.48801000  0.10825000  0.72257000  1.0
  C  C43  1  0.39591000  0.18628000  0.73981000  1.0
  C  C44  1  0.30733000  0.08248000  0.85548000  1.0
  C  C45  1  0.39567000  0.99892000  0.84940000  1.0
  C  C46  1  0.20449000  0.06911000  0.91994000  1.0
  C  C47  1  0.39800000  0.29046000  0.68558000  1.0
  C  C48  1  0.84469000  0.43999000  0.72430000  1.0
  C  C49  1  0.78510000  0.45095000  0.67553000  1.0
  C  C50  1  0.74804000  0.37414000  0.70494000  1.0
  C  C51  1  0.83098000  0.27930000  0.81613000  1.0
  C  C52  1  0.86976000  0.35210000  0.79553000  1.0
  C  C53  1  0.86426000  0.18058000  0.88764000  1.0
  C  C54  1  0.67841000  0.38761000  0.65664000  1.0
  C  C55  1  0.75059000  0.45446000  0.09419000  1.0
  C  C56  1  0.68203000  0.46460000  0.18314000  1.0
  C  C57  1  0.68100000  0.37824000  0.26012000  1.0
  C  C58  1  0.79943000  0.27949000  0.16589000  1.0
  C  C59  1  0.81185000  0.36035000  0.08458000  1.0
  C  C60  1  0.85937000  0.17759000  0.15399000  1.0
  C  C61  1  0.61759000  0.38964000  0.35841000  1.0
  N  N62  1  0.29861000  0.72711000  0.81310000  1.0
  N  N63  1  0.14837000  0.73685000  0.38382000  1.0
  N  N64  1  0.71071000  0.75870000  0.23149000  1.0
  N  N65  1  0.30605000  0.17527000  0.80304000  1.0
  N  N66  1  0.76887000  0.28958000  0.77460000  1.0
  N  N67  1  0.73669000  0.28662000  0.25300000  1.0
  Cl  Cl68  1  0.57449000  0.65125000  0.89392000  1.0
  Cl  Cl69  1  0.85413000  0.79245000  0.62871000  1.0
  Cl  Cl70  1  0.58441000  0.84105000  0.99844000  1.0
  Cl  Cl71  1  0.59717000  0.91281000  0.76265000  1.0
  Cl  Cl72  1  0.88751000  0.53405000  0.69594000  1.0
  Cl  Cl73  1  0.76139000  0.55775000  0.99708000  1.0
  O  O74  1  0.99171000  0.98432000  0.05356000  1.0
  O  O75  1  0.14083000  0.89888000  0.87639000  1.0
  O  O76  1  0.15014000  0.78183000  0.01959000  1.0
  O  O77  1  0.39738000  0.53995000  0.74249000  1.0
  O  O78  1  0.41332000  0.67939000  0.61811000  1.0
  O  O79  1  0.06940000  0.92929000  0.22657000  1.0
  O  O80  1  0.04511000  0.79667000  0.23268000  1.0
  O  O81  1  0.29334000  0.54815000  0.48058000  1.0
  O  O82  1  0.28593000  0.67685000  0.51129000  1.0
  O  O83  1  0.77544000  0.96273000  0.11579000  1.0
  O  O84  1  0.89996000  0.81058000  0.13810000  1.0
  O  O85  1  0.66519000  0.57403000  0.37119000  1.0
  O  O86  1  0.50774000  0.69506000  0.39086000  1.0
  O  O87  1  0.19061000  0.03348000  0.00933000  1.0
  O  O88  1  0.14182000  0.09240000  0.87802000  1.0
  O  O89  1  0.40699000  0.32057000  0.59779000  1.0
  O  O90  1  0.39416000  0.33621000  0.73362000  1.0
  O  O91  1  0.81191000  0.17161000  0.97480000  1.0
  O  O92  1  0.94511000  0.11663000  0.85238000  1.0
  O  O93  1  0.70887000  0.42201000  0.56581000  1.0
  O  O94  1  0.59618000  0.36707000  0.70906000  1.0
  O  O95  1  0.95698000  0.15614000  0.12003000  1.0
  O  O96  1  0.80776000  0.12415000  0.17478000  1.0
  O  O97  1  0.52021000  0.42514000  0.37684000  1.0
  O  O98  1  0.66771000  0.36723000  0.41240000  1.0
  O  O99  1  0.48589000  0.49287000  0.54662000  1.0
