# generated using pymatgen
data_CdAg2H12(CN2)8
_symmetry_space_group_name_H-M   'P 1'
_cell_length_a   6.65512000
_cell_length_b   6.95756000
_cell_length_c   9.43842000
_cell_angle_alpha   106.89840000
_cell_angle_beta   106.30840000
_cell_angle_gamma   97.48900000
_symmetry_Int_Tables_number   1
_chemical_formula_structural   CdAg2H12(CN2)8
_chemical_formula_sum   'Cd1 Ag2 H12 C8 N16'
_cell_volume   390.49891559
_cell_formula_units_Z   1
loop_
 _symmetry_equiv_pos_site_id
 _symmetry_equiv_pos_as_xyz
  1  'x, y, z'
loop_
 _atom_site_type_symbol
 _atom_site_label
 _atom_site_symmetry_multiplicity
 _atom_site_fract_x
 _atom_site_fract_y
 _atom_site_fract_z
 _atom_site_occupancy
  Cd  Cd0  1  0.50000000  0.50000000  0.50000000  1.0
  Ag  Ag1  1  0.40220000  0.07302000  0.76323000  1.0
  Ag  Ag2  1  0.59780000  0.92698000  0.23677000  1.0
  H  H3  1  0.18502000  0.27094000  0.58116000  1.0
  H  H4  1  0.81498000  0.72906000  0.41884000  1.0
  H  H5  1  0.03161000  0.23398000  0.39837000  1.0
  H  H6  1  0.96840000  0.76602000  0.60164000  1.0
  H  H7  1  0.09509000  0.22204000  0.13036000  1.0
  H  H8  1  0.90490000  0.77796000  0.86963000  1.0
  H  H9  1  0.08044000  0.17567000  0.93955000  1.0
  H  H10  1  0.91955000  0.82432000  0.06045000  1.0
  H  H11  1  0.15554000  0.57873000  0.17612000  1.0
  H  H12  1  0.84447000  0.42128000  0.82388000  1.0
  H  H13  1  0.87391000  0.44389000  0.33333333  1.0
  H  H14  1  0.12608000  0.55611000  0.66666667  1.0
  C  C15  1  0.19316000  0.01616000  0.41827000  1.0
  C  C16  1  0.80685000  0.98383000  0.58173000  1.0
  C  C17  1  0.18486000  0.71637000  0.27778000  1.0
  C  C18  1  0.81515000  0.28364000  0.72222000  1.0
  C  C19  1  0.38764000  0.28007000  0.10135000  1.0
  C  C20  1  0.61236000  0.71993000  0.89866000  1.0
  C  C21  1  0.72346000  0.37839000  0.23542000  1.0
  C  C22  1  0.27653000  0.62161000  0.76458000  1.0
  N  N23  1  0.28069000  0.72817000  0.42623000  1.0
  N  N24  1  0.71931000  0.27184000  0.57377000  1.0
  N  N25  1  0.28585000  0.92571000  0.51883000  1.0
  N  N26  1  0.71416000  0.07429000  0.48117000  1.0
  N  N27  1  0.12531000  0.89247000  0.26704000  1.0
  N  N28  1  0.87469000  0.10753000  0.73296000  1.0
  N  N29  1  0.17629000  0.22182000  0.46572000  1.0
  N  N30  1  0.82372000  0.77818000  0.53429000  1.0
  N  N31  1  0.71703000  0.30351000  0.08832000  1.0
  N  N32  1  0.28297000  0.69648000  0.91169000  1.0
  N  N33  1  0.50024000  0.23812000  0.00130000  1.0
  N  N34  1  0.49976000  0.76188000  0.99870000  1.0
  N  N35  1  0.52442000  0.37021000  0.25261000  1.0
  N  N36  1  0.47557000  0.62980000  0.74739000  1.0
  N  N37  1  0.17064000  0.24887000  0.05636000  1.0
  N  N38  1  0.82935000  0.75113000  0.94364000  1.0
