# generated using pymatgen
data_Zn2H28C40(N2O3)3
_symmetry_space_group_name_H-M   'P 1'
_cell_length_a   9.48666000
_cell_length_b   19.54700000
_cell_length_c   19.54890000
_cell_angle_alpha   117.44200000
_cell_angle_beta   99.31740000
_cell_angle_gamma   99.29130000
_symmetry_Int_Tables_number   1
_chemical_formula_structural   Zn2H28C40(N2O3)3
_chemical_formula_sum   'Zn6 H84 C120 N18 O27'
_cell_volume   3057.20756653
_cell_formula_units_Z   3
loop_
 _symmetry_equiv_pos_site_id
 _symmetry_equiv_pos_as_xyz
  1  'x, y, z'
loop_
 _atom_site_type_symbol
 _atom_site_label
 _atom_site_symmetry_multiplicity
 _atom_site_fract_x
 _atom_site_fract_y
 _atom_site_fract_z
 _atom_site_occupancy
  Zn  Zn0  1  0.62831000  0.62116000  0.46255000  1.0
  Zn  Zn1  1  0.16599000  0.53768000  0.15874000  1.0
  Zn  Zn2  1  0.00741000  0.84127000  0.37880000  1.0
  Zn  Zn3  1  0.07315000  0.25962000  0.12816000  1.0
  Zn  Zn4  1  0.94567000  0.87210000  0.13159000  1.0
  Zn  Zn5  1  0.81409000  0.86840000  0.74044000  1.0
  H  H6  1  0.38401000  0.23548000  0.16056000  1.0
  H  H7  1  0.22408000  0.83938000  0.07487000  1.0
  H  H8  1  0.14918000  0.92494000  0.76443000  1.0
  H  H9  1  0.53348000  0.20921000  0.25775000  1.0
  H  H10  1  0.27575000  0.74216000  0.95122000  1.0
  H  H11  1  0.32457000  0.04845000  0.79067000  1.0
  H  H12  1  0.20027000  0.25705000  0.38846000  1.0
  H  H13  1  0.81177000  0.61185000  0.86880000  1.0
  H  H14  1  0.94321000  0.13114000  0.74287000  1.0
  H  H15  1  0.06897000  0.28558000  0.28708000  1.0
  H  H16  1  0.78239000  0.71327000  0.99883000  1.0
  H  H17  1  0.78372000  0.00121000  0.71435000  1.0
  H  H18  1  0.95710000  0.37350000  0.06177000  1.0
  H  H19  1  0.89575000  0.93825000  0.31171000  1.0
  H  H20  1  0.58407000  0.68817000  0.62660000  1.0
  H  H21  1  0.84445000  0.27592000  0.92085000  1.0
  H  H22  1  0.92480000  0.07920000  0.35498000  1.0
  H  H23  1  0.56960000  0.64488000  0.72422000  1.0
  H  H24  1  0.03180000  0.45611000  0.86524000  1.0
  H  H25  1  0.16686000  0.13474000  0.59095000  1.0
  H  H26  1  0.57653000  0.40898000  0.54394000  1.0
  H  H27  1  0.14237000  0.54637000  0.01039000  1.0
  H  H28  1  0.13184000  0.98953000  0.53606000  1.0
  H  H29  1  0.59660000  0.46390000  0.45369000  1.0
  H  H30  1  0.34440000  0.61720000  0.34298000  1.0
  H  H31  1  0.00176000  0.65730000  0.27432000  1.0
  H  H32  1  0.72797000  0.72584000  0.38302000  1.0
  H  H33  1  0.32446000  0.76040000  0.34817000  1.0
  H  H34  1  0.97582000  0.65191000  0.41215000  1.0
  H  H35  1  0.56423000  0.58792000  0.23995000  1.0
  H  H36  1  0.67695000  0.80739000  0.54175000  1.0
  H  H37  1  0.13494000  0.45834000  0.26564000  1.0
  H  H38  1  0.86916000  0.73425000  0.19249000  1.0
  H  H39  1  0.33149000  0.88434000  0.41629000  1.0
  H  H40  1  0.91433000  0.58357000  0.46780000  1.0
  H  H41  1  0.44699000  0.53182000  0.11599000  1.0
  H  H42  1  0.39271000  0.02739000  0.45523000  1.0
  H  H43  1  0.93645000  0.54455000  0.57184000  1.0
  H  H44  1  0.36472000  0.42784000  0.97290000  1.0
  H  H45  1  0.83995000  0.05811000  0.57599000  1.0
  H  H46  1  0.26325000  0.42396000  0.48200000  1.0
  H  H47  1  0.78057000  0.51800000  0.94174000  1.0
  H  H48  1  0.78052000  0.91432000  0.53513000  1.0
  H  H49  1  0.24481000  0.46485000  0.37913000  1.0
  H  H50  1  0.86534000  0.62083000  0.08554000  1.0
  H  H51  1  0.97702000  0.36900000  0.74929000  1.0
  H  H52  1  0.22830000  0.25084000  0.61971000  1.0
  H  H53  1  0.60850000  0.38017000  0.63128000  1.0
  H  H54  1  0.85710000  0.27509000  0.60650000  1.0
  H  H55  1  0.25041000  0.39361000  0.66867000  1.0
  H  H56  1  0.58133000  0.33129000  0.72511000  1.0
  H  H57  1  0.60097000  0.11782000  0.66666667  1.0
  H  H58  1  0.93437000  0.33321000  0.45104000  1.0
  H  H59  1  0.48288000  0.54900000  0.88214000  1.0
  H  H60  1  0.71279000  0.21325000  0.80902000  1.0
  H  H61  1  0.90439000  0.19082000  0.40402000  1.0
  H  H62  1  0.50021000  0.59595000  0.78677000  1.0
  H  H63  1  0.50512000  0.24567000  0.58051000  1.0
  H  H64  1  0.92398000  0.41955000  0.66500000  1.0
  H  H65  1  0.25846000  0.33483000  0.75436000  1.0
  H  H66  1  0.38570000  0.28680000  0.48939000  1.0
  H  H67  1  0.89580000  0.51072000  0.79729000  1.0
  H  H68  1  0.09844000  0.20243000  0.71316000  1.0
  H  H69  1  0.53451000  0.11781000  0.29913000  1.0
  H  H70  1  0.23503000  0.70080000  0.81854000  1.0
  H  H71  1  0.41686000  0.18128000  0.88194000  1.0
  H  H72  1  0.65415000  0.07689000  0.39127000  1.0
  H  H73  1  0.26243000  0.60863000  0.68550000  1.0
  H  H74  1  0.57680000  0.31448000  0.92299000  1.0
  H  H75  1  0.77834000  0.42415000  0.28977000  1.0
  H  H76  1  0.48905000  0.71051000  0.13431000  1.0
  H  H77  1  0.35474000  0.86561000  0.57599000  1.0
  H  H78  1  0.37164000  0.30440000  0.03974000  1.0
  H  H79  1  0.33255000  0.96056000  0.26493000  1.0
  H  H80  1  0.06793000  0.73489000  0.69534000  1.0
  H  H81  1  0.60958000  0.26399000  0.03655000  1.0
  H  H82  1  0.57344000  0.96375000  0.22753000  1.0
  H  H83  1  0.34624000  0.77234000  0.73594000  1.0
  H  H84  1  0.90457000  0.12423000  0.05220000  1.0
  H  H85  1  0.85246000  0.94786000  0.07199000  1.0
  H  H86  1  0.78044000  0.92792000  0.87576000  1.0
  H  H87  1  0.96116000  0.11598000  0.12862000  1.0
  H  H88  1  0.83286000  0.87150000  0.98733000  1.0
  H  H89  1  0.84512000  0.01259000  0.88405000  1.0
  C  C90  1  0.34811000  0.24021000  0.21245000  1.0
  C  C91  1  0.13611000  0.78759000  0.02777000  1.0
  C  C92  1  0.10838000  0.97207000  0.75973000  1.0
  C  C93  1  0.43031000  0.22493000  0.26686000  1.0
  C  C94  1  0.16359000  0.73313000  0.95799000  1.0
  C  C95  1  0.20567000  0.04179000  0.77497000  1.0
  C  C96  1  0.37903000  0.22937000  0.33193000  1.0
  C  C97  1  0.04702000  0.66814000  0.89742000  1.0
  C  C98  1  0.14981000  0.10239000  0.77051000  1.0
  C  C99  1  0.24795000  0.25335000  0.34016000  1.0
  C  C100  1  0.90788000  0.66010000  0.91332000  1.0
  C  C101  1  0.99475000  0.08659000  0.74661000  1.0
  C  C102  1  0.17244000  0.26828000  0.28375000  1.0
  C  C103  1  0.88911000  0.71654000  0.98476000  1.0
  C  C104  1  0.90449000  0.01521000  0.73166000  1.0
  C  C105  1  0.97022000  0.39025000  0.01668000  1.0
  C  C106  1  0.95399000  0.98334000  0.37357000  1.0
  C  C107  1  0.58057000  0.62633000  0.60984000  1.0
  C  C108  1  0.90584000  0.33541000  0.93621000  1.0
  C  C109  1  0.97057000  0.06382000  0.39915000  1.0
  C  C110  1  0.57141000  0.60073000  0.66471000  1.0
  C  C111  1  0.92413000  0.35610000  0.87747000  1.0
  C  C112  1  0.04750000  0.12254000  0.47861000  1.0
  C  C113  1  0.56900000  0.52128000  0.64400000  1.0
  C  C114  1  0.01176000  0.43428000  0.90590000  1.0
  C  C115  1  0.10632000  0.09409000  0.52842000  1.0
  C  C116  1  0.57829000  0.47148000  0.56578000  1.0
  C  C117  1  0.07402000  0.48580000  0.98723000  1.0
  C  C118  1  0.08690000  0.01272000  0.49863000  1.0
  C  C119  1  0.58881000  0.50130000  0.51426000  1.0
  C  C120  1  0.40836000  0.67829000  0.38509000  1.0
  C  C121  1  0.02340000  0.61513000  0.29327000  1.0
  C  C122  1  0.73055000  0.70683000  0.32187000  1.0
  C  C123  1  0.39920000  0.74796000  0.38646000  1.0
  C  C124  1  0.01242000  0.61367000  0.36147000  1.0
  C  C125  1  0.65138000  0.63856000  0.25226000  1.0
  C  C126  1  0.58519000  0.77453000  0.48823000  1.0
  C  C127  1  0.09676000  0.51188000  0.28629000  1.0
  C  C128  1  0.81047000  0.71367000  0.22546000  1.0
  C  C129  1  0.55026000  0.89092000  0.47505000  1.0
  C  C130  1  0.07445000  0.52489000  0.41570000  1.0
  C  C131  1  0.65882000  0.58412000  0.10918000  1.0
  C  C132  1  0.44258000  0.92240000  0.45144000  1.0
  C  C133  1  0.99026000  0.54841000  0.47072000  1.0
  C  C134  1  0.51978000  0.52898000  0.07783000  1.0
  C  C135  1  0.47727000  0.00273000  0.47315000  1.0
  C  C136  1  0.00317000  0.52665000  0.52931000  1.0
  C  C137  1  0.47390000  0.47042000  0.99746000  1.0
  C  C138  1  0.61994000  0.05220000  0.51906000  1.0
  C  C139  1  0.09997000  0.48075000  0.53290000  1.0
  C  C140  1  0.56674000  0.46697000  0.94786000  1.0
  C  C141  1  0.72804000  0.01988000  0.54162000  1.0
  C  C142  1  0.18556000  0.45824000  0.47807000  1.0
  C  C143  1  0.70708000  0.52184000  0.98006000  1.0
  C  C144  1  0.69423000  0.93947000  0.51982000  1.0
  C  C145  1  0.17364000  0.48008000  0.41948000  1.0
  C  C146  1  0.75393000  0.58040000  0.06049000  1.0
  C  C147  1  0.85523000  0.29959000  0.79180000  1.0
  C  C148  1  0.06417000  0.20821000  0.50769000  1.0
  C  C149  1  0.55633000  0.49222000  0.70056000  1.0
  C  C150  1  0.89191000  0.31519000  0.73235000  1.0
  C  C151  1  0.16004000  0.26773000  0.58280000  1.0
  C  C152  1  0.57704000  0.41711000  0.68502000  1.0
  C  C153  1  0.82521000  0.26242000  0.65149000  1.0
  C  C154  1  0.17372000  0.34857000  0.61094000  1.0
  C  C155  1  0.56239000  0.38901000  0.73773000  1.0
  C  C156  1  0.71984000  0.19017000  0.62647000  1.0
  C  C157  1  0.09320000  0.37348000  0.56363000  1.0
  C  C158  1  0.52901000  0.43636000  0.80987000  1.0
  C  C159  1  0.68284000  0.17336000  0.68506000  1.0
  C  C160  1  0.99784000  0.31481000  0.48816000  1.0
  C  C161  1  0.50929000  0.51184000  0.82665000  1.0
  C  C162  1  0.74840000  0.22733000  0.76569000  1.0
  C  C163  1  0.98317000  0.23421000  0.46149000  1.0
  C  C164  1  0.52148000  0.53848000  0.77272000  1.0
  C  C165  1  0.59229000  0.16076000  0.49290000  1.0
  C  C166  1  0.09879000  0.50707000  0.66770000  1.0
  C  C167  1  0.43070000  0.33222000  0.83924000  1.0
  C  C168  1  0.51550000  0.21972000  0.51948000  1.0
  C  C169  1  0.99543000  0.48057000  0.70010000  1.0
  C  C170  1  0.29498000  0.29975000  0.78026000  1.0
  C  C171  1  0.44783000  0.24232000  0.46759000  1.0
  C  C172  1  0.97973000  0.53247000  0.77460000  1.0
  C  C173  1  0.20506000  0.22517000  0.75760000  1.0
  C  C174  1  0.45516000  0.20740000  0.38768000  1.0
  C  C175  1  0.06710000  0.61235000  0.81963000  1.0
  C  C176  1  0.24764000  0.18017000  0.79245000  1.0
  C  C177  1  0.53149000  0.14782000  0.36152000  1.0
  C  C178  1  0.16958000  0.63844000  0.78618000  1.0
  C  C179  1  0.38355000  0.21367000  0.85201000  1.0
  C  C180  1  0.59855000  0.12444000  0.41288000  1.0
  C  C181  1  0.18516000  0.58705000  0.71141000  1.0
  C  C182  1  0.47363000  0.28852000  0.87547000  1.0
  C  C183  1  0.70800000  0.34171000  0.16289000  1.0
  C  C184  1  0.54554000  0.83739000  0.17878000  1.0
  C  C185  1  0.36691000  0.82109000  0.65835000  1.0
  C  C186  1  0.68950000  0.39859000  0.23502000  1.0
  C  C187  1  0.45499000  0.76526000  0.16358000  1.0
  C  C188  1  0.29151000  0.83629000  0.60144000  1.0
  C  C189  1  0.55941000  0.42332000  0.23745000  1.0
  C  C190  1  0.32267000  0.76281000  0.18604000  1.0
  C  C191  1  0.13674000  0.81381000  0.57655000  1.0
  C  C192  1  0.44498000  0.38941000  0.16634000  1.0
  C  C193  1  0.27936000  0.83395000  0.22330000  1.0
  C  C194  1  0.05620000  0.77653000  0.61039000  1.0
  C  C195  1  0.46221000  0.33152000  0.09411000  1.0
  C  C196  1  0.36874000  0.90617000  0.23762000  1.0
  C  C197  1  0.13133000  0.76219000  0.66825000  1.0
  C  C198  1  0.59360000  0.30843000  0.09231000  1.0
  C  C199  1  0.50178000  0.90798000  0.21620000  1.0
  C  C200  1  0.28582000  0.78364000  0.69149000  1.0
  C  C201  1  0.85040000  0.31812000  0.16189000  1.0
  C  C202  1  0.68894000  0.83830000  0.15613000  1.0
  C  C203  1  0.53290000  0.84372000  0.68193000  1.0
  C  C204  1  0.54169000  0.48449000  0.31541000  1.0
  C  C205  1  0.22693000  0.68483000  0.16921000  1.0
  C  C206  1  0.05771000  0.83069000  0.51546000  1.0
  C  C207  1  0.30898000  0.41890000  0.16404000  1.0
  C  C208  1  0.14565000  0.83623000  0.25507000  1.0
  C  C209  1  0.89069000  0.74484000  0.58101000  1.0
  N  N210  1  0.22017000  0.26069000  0.21988000  1.0
  N  N211  1  0.00087000  0.78031000  0.04098000  1.0
  N  N212  1  0.95994000  0.95895000  0.73926000  1.0
  N  N213  1  0.05398000  0.46460000  0.04234000  1.0
  N  N214  1  0.01177000  0.95765000  0.42231000  1.0
  N  N215  1  0.58979000  0.57761000  0.53546000  1.0
  N  N216  1  0.52434000  0.69560000  0.44882000  1.0
  N  N217  1  0.07565000  0.55141000  0.24687000  1.0
  N  N218  1  0.82896000  0.75318000  0.30443000  1.0
  N  N219  1  0.51260000  0.80842000  0.45176000  1.0
  N  N220  1  0.06035000  0.54828000  0.35659000  1.0
  N  N221  1  0.70392000  0.64335000  0.19167000  1.0
  N  N222  1  0.65501000  0.13527000  0.54473000  1.0
  N  N223  1  0.10961000  0.45517000  0.59037000  1.0
  N  N224  1  0.51853000  0.40961000  0.86478000  1.0
  N  N225  1  0.07598000  0.13861000  0.96061000  1.0
  N  N226  1  0.11575000  0.03949000  0.17795000  1.0
  N  N227  1  0.93805000  0.82211000  0.86152000  1.0
  O  O228  1  0.66404000  0.53508000  0.36784000  1.0
  O  O229  1  0.29677000  0.63239000  0.16751000  1.0
  O  O230  1  0.12924000  0.83252000  0.46479000  1.0
  O  O231  1  0.41566000  0.48495000  0.32704000  1.0
  O  O232  1  0.08923000  0.67321000  0.15785000  1.0
  O  O233  1  0.93131000  0.84198000  0.51520000  1.0
  O  O234  1  0.33265000  0.49129000  0.17793000  1.0
  O  O235  1  0.15537000  0.82229000  0.31353000  1.0
  O  O236  1  0.84161000  0.68642000  0.50860000  1.0
  O  O237  1  0.18114000  0.37368000  0.14434000  1.0
  O  O238  1  0.03749000  0.85593000  0.22953000  1.0
  O  O239  1  0.80835000  0.77040000  0.62641000  1.0
  O  O240  1  0.87854000  0.28260000  0.09333000  1.0
  O  O241  1  0.78575000  0.90682000  0.18925000  1.0
  O  O242  1  0.59656000  0.81064000  0.71742000  1.0
  O  O243  1  0.93791000  0.33425000  0.22650000  1.0
  O  O244  1  0.71174000  0.77366000  0.10765000  1.0
  O  O245  1  0.60426000  0.89216000  0.66578000  1.0
  O  O246  1  0.92373000  0.15160000  0.11101000  1.0
  O  O247  1  0.81304000  0.88905000  0.04055000  1.0
  O  O248  1  0.77221000  0.95934000  0.84839000  1.0
  O  O249  1  0.15050000  0.20139000  0.02684000  1.0
  O  O250  1  0.12418000  0.97329000  0.17454000  1.0
  O  O251  1  0.94989000  0.82554000  0.79875000  1.0
  O  O252  1  0.94637000  0.10776000  0.95866000  1.0
  O  O253  1  0.98798000  0.04144000  0.14919000  1.0
  O  O254  1  0.83903000  0.85089000  0.89224000  1.0
