# generated using pymatgen
data_CuH9(CN)7
_symmetry_space_group_name_H-M   'P 1'
_cell_length_a   5.43212000
_cell_length_b   9.67493000
_cell_length_c   10.56420000
_cell_angle_alpha   114.06200000
_cell_angle_beta   100.89400000
_cell_angle_gamma   90.31150000
_symmetry_Int_Tables_number   1
_chemical_formula_structural   CuH9(CN)7
_chemical_formula_sum   'Cu2 H18 C14 N14'
_cell_volume   495.71329013
_cell_formula_units_Z   2
loop_
 _symmetry_equiv_pos_site_id
 _symmetry_equiv_pos_as_xyz
  1  'x, y, z'
loop_
 _atom_site_type_symbol
 _atom_site_label
 _atom_site_symmetry_multiplicity
 _atom_site_fract_x
 _atom_site_fract_y
 _atom_site_fract_z
 _atom_site_occupancy
  Cu  Cu0  1  0.12906000  0.97420000  0.36860000  1.0
  Cu  Cu1  1  0.87093000  0.02579000  0.63140000  1.0
  H  H2  1  0.85617000  0.06260000  0.14882000  1.0
  H  H3  1  0.14382000  0.93740000  0.85118000  1.0
  H  H4  1  0.55672000  0.18192000  0.41976000  1.0
  H  H5  1  0.44328000  0.81807000  0.58024000  1.0
  H  H6  1  0.65621000  0.38499000  0.34265000  1.0
  H  H7  1  0.34379000  0.61501000  0.65735000  1.0
  H  H8  1  0.93436000  0.24525000  0.93331000  1.0
  H  H9  1  0.06564000  0.75475000  0.06669000  1.0
  H  H10  1  0.81852000  0.38521000  0.07192000  1.0
  H  H11  1  0.18148000  0.61479000  0.92808000  1.0
  H  H12  1  0.69743000  0.19209000  0.00528000  1.0
  H  H13  1  0.30256000  0.80792000  0.99471000  1.0
  H  H14  1  0.20498000  0.54223000  0.16770000  1.0
  H  H15  1  0.79502000  0.45777000  0.83231000  1.0
  H  H16  1  0.33515000  0.40993000  0.03017000  1.0
  H  H17  1  0.66486000  0.59008000  0.96984000  1.0
  H  H18  1  0.53267000  0.52283000  0.19959000  1.0
  H  H19  1  0.46733000  0.47716000  0.80042000  1.0
  C  C20  1  0.03121000  0.13646000  0.18759000  1.0
  C  C21  1  0.96879000  0.86355000  0.81241000  1.0
  C  C22  1  0.42390000  0.20325000  0.34000000  1.0
  C  C23  1  0.57610000  0.79675000  0.66000000  1.0
  C  C24  1  0.06938000  0.24647000  0.13822000  1.0
  C  C25  1  0.93061000  0.75353000  0.86177000  1.0
  C  C26  1  0.47697000  0.31514000  0.29586000  1.0
  C  C27  1  0.52303000  0.68486000  0.70414000  1.0
  C  C28  1  0.29958000  0.33915000  0.19390000  1.0
  C  C29  1  0.70043000  0.66085000  0.80610000  1.0
  C  C30  1  0.86840000  0.26733000  0.03130000  1.0
  C  C31  1  0.13161000  0.73268000  0.96870000  1.0
  C  C32  1  0.34755000  0.46016000  0.14556000  1.0
  C  C33  1  0.65245000  0.53984000  0.85444000  1.0
  N  N34  1  0.40730000  0.84424000  0.31987000  1.0
  N  N35  1  0.59269000  0.15574000  0.68012000  1.0
  N  N36  1  0.03360000  0.86275000  0.48140000  1.0
  N  N37  1  0.96640000  0.13725000  0.51861000  1.0
  N  N38  1  0.20401000  0.11522000  0.28630000  1.0
  N  N39  1  0.79599000  0.88478000  0.71370000  1.0
  N  N40  1  0.57139000  0.85958000  0.26460000  1.0
  N  N41  1  0.42861000  0.14041000  0.73538000  1.0
  N  N42  1  0.99415000  0.72544000  0.43394000  1.0
  N  N43  1  0.00586000  0.27456000  0.56606000  1.0
  N  N44  1  0.73986000  0.86867000  0.21162000  1.0
  N  N45  1  0.26010000  0.13134000  0.78837000  1.0
  N  N46  1  0.96042000  0.59404000  0.38934000  1.0
  N  N47  1  0.03960000  0.40597000  0.61066000  1.0
