# generated using pymatgen
data_SmH14C11NO8
_symmetry_space_group_name_H-M   'P 1'
_cell_length_a   8.44558000
_cell_length_b   11.81390000
_cell_length_c   13.41360000
_cell_angle_alpha   90.00000000
_cell_angle_beta   90.00000000
_cell_angle_gamma   95.76310000
_symmetry_Int_Tables_number   1
_chemical_formula_structural   SmH14C11NO8
_chemical_formula_sum   'Sm4 H56 C44 N4 O32'
_cell_volume   1331.58057546
_cell_formula_units_Z   4
loop_
 _symmetry_equiv_pos_site_id
 _symmetry_equiv_pos_as_xyz
  1  'x, y, z'
loop_
 _atom_site_type_symbol
 _atom_site_label
 _atom_site_symmetry_multiplicity
 _atom_site_fract_x
 _atom_site_fract_y
 _atom_site_fract_z
 _atom_site_occupancy
  Sm  Sm0  1  0.00684000  0.83488000  0.40438000  1.0
  Sm  Sm1  1  0.49316000  0.16512000  0.90438000  1.0
  Sm  Sm2  1  0.99316000  0.16512000  0.59562000  1.0
  Sm  Sm3  1  0.50684000  0.83488000  0.09562000  1.0
  H  H4  1  0.79960000  0.02625000  0.38625000  1.0
  H  H5  1  0.70040000  0.97375000  0.88625000  1.0
  H  H6  1  0.20040000  0.97375000  0.61375000  1.0
  H  H7  1  0.29960000  0.02625000  0.11375000  1.0
  H  H8  1  0.77926000  0.97279000  0.27557000  1.0
  H  H9  1  0.72074000  0.02721000  0.77557000  1.0
  H  H10  1  0.22074000  0.02722000  0.72443000  1.0
  H  H11  1  0.27926000  0.97279000  0.22443000  1.0
  H  H12  1  0.93950000  0.76228000  0.18987000  1.0
  H  H13  1  0.56050000  0.23772000  0.68987000  1.0
  H  H14  1  0.06050000  0.23772000  0.81013000  1.0
  H  H15  1  0.43950000  0.76228000  0.31013000  1.0
  H  H16  1  0.12665000  0.75030000  0.20038000  1.0
  H  H17  1  0.37335000  0.24970000  0.70038000  1.0
  H  H18  1  0.87335000  0.24970000  0.79962000  1.0
  H  H19  1  0.62665000  0.75030000  0.29962000  1.0
  H  H20  1  0.64913000  0.45809000  0.55750000  1.0
  H  H21  1  0.85087000  0.54191000  0.05750000  1.0
  H  H22  1  0.35087000  0.54191000  0.44250000  1.0
  H  H23  1  0.14913000  0.45809000  0.94250000  1.0
  H  H24  1  0.80122000  0.42722000  0.71639000  1.0
  H  H25  1  0.69878000  0.57278000  0.21639000  1.0
  H  H26  1  0.19877000  0.57278000  0.28361000  1.0
  H  H27  1  0.30122000  0.42722000  0.78361000  1.0
  H  H28  1  0.05387000  0.54938000  0.74769000  1.0
  H  H29  1  0.44613000  0.45062000  0.24769000  1.0
  H  H30  1  0.94613000  0.45062000  0.25231000  1.0
  H  H31  1  0.55387000  0.54938000  0.75231000  1.0
  H  H32  1  0.15066000  0.69515000  0.61935000  1.0
  H  H33  1  0.34934000  0.30486000  0.11935000  1.0
  H  H34  1  0.84934000  0.30485000  0.38065000  1.0
  H  H35  1  0.65066000  0.69515000  0.88065000  1.0
  H  H36  1  0.27852000  0.26348000  0.35943000  1.0
  H  H37  1  0.22147000  0.73652000  0.85943000  1.0
  H  H38  1  0.72148000  0.73652000  0.64057000  1.0
  H  H39  1  0.77853000  0.26348000  0.14057000  1.0
  H  H40  1  0.31207000  0.17827000  0.25323000  1.0
  H  H41  1  0.18793000  0.82173000  0.75323000  1.0
  H  H42  1  0.68793000  0.82173000  0.74677000  1.0
  H  H43  1  0.81207000  0.17827000  0.24677000  1.0
  H  H44  1  0.52246000  0.08699000  0.34711000  1.0
  H  H45  1  0.97754000  0.91301000  0.84711000  1.0
  H  H46  1  0.47754000  0.91301000  0.65289000  1.0
  H  H47  1  0.02246000  0.08699000  0.15289000  1.0
  H  H48  1  0.56668000  0.23506000  0.32922000  1.0
  H  H49  1  0.93332000  0.76494000  0.82922000  1.0
  H  H50  1  0.43332000  0.76494000  0.67078000  1.0
  H  H51  1  0.06668000  0.23506000  0.17078000  1.0
  H  H52  1  0.47302000  0.27261000  0.50297000  1.0
  H  H53  1  0.02698000  0.72739000  0.00297000  1.0
  H  H54  1  0.52698000  0.72739000  0.49703000  1.0
  H  H55  1  0.97302000  0.27261000  0.99703000  1.0
  H  H56  1  0.43013000  0.12651000  0.52442000  1.0
  H  H57  1  0.06987000  0.87349000  0.02442000  1.0
  H  H58  1  0.56987000  0.87349000  0.47558000  1.0
  H  H59  1  0.93013000  0.12651000  0.97558000  1.0
  C  C60  1  0.72966000  0.61377000  0.41508000  1.0
  C  C61  1  0.77034000  0.38623000  0.91508000  1.0
  C  C62  1  0.27034000  0.38623000  0.58492000  1.0
  C  C63  1  0.22966000  0.61377000  0.08492000  1.0
  C  C64  1  0.82253000  0.59105000  0.50780000  1.0
  C  C65  1  0.67747000  0.40895000  0.00780000  1.0
  C  C66  1  0.17747000  0.40895000  0.49220000  1.0
  C  C67  1  0.32253000  0.59105000  0.99220000  1.0
  C  C68  1  0.76194000  0.50698000  0.57444000  1.0
  C  C69  1  0.73806000  0.49302000  0.07444000  1.0
  C  C70  1  0.23806000  0.49302000  0.42556000  1.0
  C  C71  1  0.26194000  0.50698000  0.92556000  1.0
  C  C72  1  0.84501000  0.49129000  0.66213000  1.0
  C  C73  1  0.65499000  0.50871000  0.16213000  1.0
  C  C74  1  0.15498000  0.50871000  0.33787000  1.0
  C  C75  1  0.34501000  0.49129000  0.83787000  1.0
  C  C76  1  0.98679000  0.55950000  0.67956000  1.0
  C  C77  1  0.51321000  0.44050000  0.17956000  1.0
  C  C78  1  0.01321000  0.44050000  0.32044000  1.0
  C  C79  1  0.48679000  0.55950000  0.82044000  1.0
  C  C80  1  0.04020000  0.64058000  0.60852000  1.0
  C  C81  1  0.45980000  0.35942000  0.10852000  1.0
  C  C82  1  0.95979000  0.35942000  0.39148000  1.0
  C  C83  1  0.54020000  0.64058000  0.89148000  1.0
  C  C84  1  0.20187000  0.08569000  0.37568000  1.0
  C  C85  1  0.29813000  0.91431000  0.87568000  1.0
  C  C86  1  0.79813000  0.91431000  0.62432000  1.0
  C  C87  1  0.70187000  0.08569000  0.12432000  1.0
  C  C88  1  0.31609000  0.18163000  0.33498000  1.0
  C  C89  1  0.18391000  0.81837000  0.83498000  1.0
  C  C90  1  0.68391000  0.81837000  0.66502000  1.0
  C  C91  1  0.81609000  0.18163000  0.16502000  1.0
  C  C92  1  0.48782000  0.17066000  0.36939000  1.0
  C  C93  1  0.01218000  0.82934000  0.86939000  1.0
  C  C94  1  0.51218000  0.82934000  0.63060000  1.0
  C  C95  1  0.98782000  0.17066000  0.13061000  1.0
  C  C96  1  0.50866000  0.18909000  0.48147000  1.0
  C  C97  1  0.99134000  0.81091000  0.98147000  1.0
  C  C98  1  0.49135000  0.81091000  0.51853000  1.0
  C  C99  1  0.00865000  0.18909000  0.01853000  1.0
  C  C100  1  0.67538000  0.18371000  0.52002000  1.0
  C  C101  1  0.82462000  0.81628000  0.02002000  1.0
  C  C102  1  0.32462000  0.81629000  0.47998000  1.0
  C  C103  1  0.17538000  0.18371000  0.97998000  1.0
  N  N104  1  0.95979000  0.65767000  0.52413000  1.0
  N  N105  1  0.54021000  0.34233000  0.02413000  1.0
  N  N106  1  0.04021000  0.34233000  0.47587000  1.0
  N  N107  1  0.45979000  0.65767000  0.97587000  1.0
  O  O108  1  0.82849000  0.96355000  0.34292000  1.0
  O  O109  1  0.67151000  0.03645000  0.84292000  1.0
  O  O110  1  0.17151000  0.03645000  0.65708000  1.0
  O  O111  1  0.32849000  0.96355000  0.15708000  1.0
  O  O112  1  0.03155000  0.77492000  0.23615000  1.0
  O  O113  1  0.46845000  0.22508000  0.73615000  1.0
  O  O114  1  0.96845000  0.22508000  0.76385000  1.0
  O  O115  1  0.53155000  0.77492000  0.26385000  1.0
  O  O116  1  0.77740000  0.70772000  0.36806000  1.0
  O  O117  1  0.72260000  0.29228000  0.86806000  1.0
  O  O118  1  0.22260000  0.29228000  0.63194000  1.0
  O  O119  1  0.27740000  0.70772000  0.13194000  1.0
  O  O120  1  0.61387000  0.54639000  0.39058000  1.0
  O  O121  1  0.88613000  0.45361000  0.89058000  1.0
  O  O122  1  0.38613000  0.45361000  0.60942000  1.0
  O  O123  1  0.11387000  0.54639000  0.10942000  1.0
  O  O124  1  0.19270000  0.98952000  0.33102000  1.0
  O  O125  1  0.30730000  0.01049000  0.83102000  1.0
  O  O126  1  0.80730000  0.01049000  0.66898000  1.0
  O  O127  1  0.69270000  0.98952000  0.16898000  1.0
  O  O128  1  0.12200000  0.09985000  0.45392000  1.0
  O  O129  1  0.37800000  0.90015000  0.95392000  1.0
  O  O130  1  0.87801000  0.90015000  0.54608000  1.0
  O  O131  1  0.62199000  0.09985000  0.04608000  1.0
  O  O132  1  0.71611000  0.23008000  0.60355000  1.0
  O  O133  1  0.78388000  0.76992000  0.10355000  1.0
  O  O134  1  0.28389000  0.76992000  0.39645000  1.0
  O  O135  1  0.21611000  0.23008000  0.89645000  1.0
  O  O136  1  0.77759000  0.13383000  0.46997000  1.0
  O  O137  1  0.72241000  0.86617000  0.96997000  1.0
  O  O138  1  0.22241000  0.86617000  0.53003000  1.0
  O  O139  1  0.27759000  0.13383000  0.03003000  1.0
