# generated using pymatgen
data_K2CuH8(CO3)4
_symmetry_space_group_name_H-M   'P 1'
_cell_length_a   3.84365000
_cell_length_b   10.84310000
_cell_length_c   14.41390000
_cell_angle_alpha   89.99980000
_cell_angle_beta   89.99950000
_cell_angle_gamma   93.64270000
_symmetry_Int_Tables_number   1
_chemical_formula_structural   K2CuH8(CO3)4
_chemical_formula_sum   'K4 Cu2 H16 C8 O24'
_cell_volume   599.51560271
_cell_formula_units_Z   2
loop_
 _symmetry_equiv_pos_site_id
 _symmetry_equiv_pos_as_xyz
  1  'x, y, z'
loop_
 _atom_site_type_symbol
 _atom_site_label
 _atom_site_symmetry_multiplicity
 _atom_site_fract_x
 _atom_site_fract_y
 _atom_site_fract_z
 _atom_site_occupancy
  K  K0  1  0.20543000  0.49238000  0.64063000  1.0
  K  K1  1  0.29461000  0.00762000  0.14062000  1.0
  K  K2  1  0.79457000  0.50760000  0.35938000  1.0
  K  K3  1  0.70544000  0.99239000  0.85938000  1.0
  Cu  Cu4  1  0.50000000  0.00000000  0.50000000  1.0
  Cu  Cu5  1  0.99999000  0.49999000  0.00000000  1.0
  H  H6  1  0.71211000  0.74462000  0.62725000  1.0
  H  H7  1  0.78790000  0.75539000  0.12724000  1.0
  H  H8  1  0.28790000  0.25539000  0.37275000  1.0
  H  H9  1  0.21212000  0.24462000  0.87275000  1.0
  H  H10  1  0.72099000  0.70627000  0.73375000  1.0
  H  H11  1  0.77901000  0.79373000  0.23374000  1.0
  H  H12  1  0.27900000  0.29374000  0.26626000  1.0
  H  H13  1  0.22101000  0.20627000  0.76625000  1.0
  H  H14  1  0.62313000  0.34180000  0.78969000  1.0
  H  H15  1  0.87689000  0.15821000  0.28969000  1.0
  H  H16  1  0.37690000  0.65821000  0.21031000  1.0
  H  H17  1  0.12313000  0.84180000  0.71031000  1.0
  H  H18  1  0.58887000  0.47665000  0.82103000  1.0
  H  H19  1  0.91115000  0.02336000  0.32103000  1.0
  H  H20  1  0.41114000  0.52336000  0.17897000  1.0
  H  H21  1  0.08887000  0.97664000  0.67897000  1.0
  C  C22  1  0.32439000  0.75208000  0.47578000  1.0
  C  C23  1  0.17558000  0.74790000  0.97579000  1.0
  C  C24  1  0.67560000  0.24792000  0.52421000  1.0
  C  C25  1  0.82439000  0.25209000  0.02422000  1.0
  C  C26  1  0.12317000  0.82212000  0.40130000  1.0
  C  C27  1  0.37679000  0.67787000  0.90130000  1.0
  C  C28  1  0.87683000  0.17788000  0.59870000  1.0
  C  C29  1  0.62318000  0.32212000  0.09870000  1.0
  O  O30  1  0.51325000  0.82333000  0.53106000  1.0
  O  O31  1  0.98673000  0.67666000  0.03107000  1.0
  O  O32  1  0.48675000  0.17668000  0.46893000  1.0
  O  O33  1  0.01323000  0.32333000  0.96893000  1.0
  O  O34  1  0.29687000  0.63751000  0.47950000  1.0
  O  O35  1  0.20312000  0.86248000  0.97951000  1.0
  O  O36  1  0.70315000  0.36249000  0.52051000  1.0
  O  O37  1  0.79687000  0.13751000  0.02050000  1.0
  O  O38  1  0.16328000  0.94157000  0.40587000  1.0
  O  O39  1  0.33672000  0.55842000  0.90587000  1.0
  O  O40  1  0.83672000  0.05843000  0.59412000  1.0
  O  O41  1  0.66326000  0.44158000  0.09413000  1.0
  O  O42  1  0.93574000  0.76370000  0.34406000  1.0
  O  O43  1  0.56420000  0.73629000  0.84407000  1.0
  O  O44  1  0.06423000  0.23630000  0.65593000  1.0
  O  O45  1  0.43575000  0.26371000  0.15594000  1.0
  O  O46  1  0.84414000  0.69937000  0.67374000  1.0
  O  O47  1  0.65585000  0.80063000  0.17373000  1.0
  O  O48  1  0.15586000  0.30063000  0.32627000  1.0
  O  O49  1  0.34416000  0.19937000  0.82626000  1.0
  O  O50  1  0.69562000  0.42768000  0.77230000  1.0
  O  O51  1  0.80441000  0.07232000  0.27230000  1.0
  O  O52  1  0.30440000  0.57232000  0.22770000  1.0
  O  O53  1  0.19562000  0.92769000  0.72770000  1.0
