# generated using pymatgen
data_MnV2H9C5N2O7
_symmetry_space_group_name_H-M   'P 1'
_cell_length_a   5.86016000
_cell_length_b   7.83949000
_cell_length_c   11.91210000
_cell_angle_alpha   100.35200000
_cell_angle_beta   101.51600000
_cell_angle_gamma   98.44060000
_symmetry_Int_Tables_number   1
_chemical_formula_structural   MnV2H9C5N2O7
_chemical_formula_sum   'Mn2 V4 H18 C10 N4 O14'
_cell_volume   517.94692970
_cell_formula_units_Z   2
loop_
 _symmetry_equiv_pos_site_id
 _symmetry_equiv_pos_as_xyz
  1  'x, y, z'
loop_
 _atom_site_type_symbol
 _atom_site_label
 _atom_site_symmetry_multiplicity
 _atom_site_fract_x
 _atom_site_fract_y
 _atom_site_fract_z
 _atom_site_occupancy
  Mn  Mn0  1  0.49769000  0.14701000  0.92003000  1.0
  Mn  Mn1  1  0.50240000  0.85289000  0.07990000  1.0
  V  V2  1  0.26652000  0.42635000  0.10054000  1.0
  V  V3  1  0.73358000  0.57376000  0.89948000  1.0
  V  V4  1  0.22528000  0.69640000  0.79552000  1.0
  V  V5  1  0.77466000  0.30351000  0.20445000  1.0
  H  H6  1  0.61749000  0.13827000  0.65611000  1.0
  H  H7  1  0.38250000  0.86170000  0.34393000  1.0
  H  H8  1  0.00053000  0.22813000  0.76964000  1.0
  H  H9  1  0.99947000  0.77186000  0.23037000  1.0
  H  H10  1  0.95691000  0.28062000  0.54056000  1.0
  H  H11  1  0.04312000  0.71940000  0.45945000  1.0
  H  H12  1  0.22102000  0.16895000  0.38487000  1.0
  H  H13  1  0.77902000  0.83108000  0.61516000  1.0
  H  H14  1  0.52793000  0.19756000  0.45197000  1.0
  H  H15  1  0.47209000  0.80243000  0.54804000  1.0
  H  H16  1  0.22984000  0.48816000  0.46478000  1.0
  H  H17  1  0.77021000  0.51187000  0.53525000  1.0
  H  H18  1  0.41354000  0.45103000  0.36555000  1.0
  H  H19  1  0.58653000  0.54896000  0.63449000  1.0
  H  H20  1  0.79729000  0.93044000  0.91210000  1.0
  H  H21  1  0.20258000  0.06960000  0.08788000  1.0
  H  H22  1  0.95159000  0.11337000  0.91566000  1.0
  H  H23  1  0.04831000  0.88668000  0.08435000  1.0
  C  C24  1  0.44383000  0.16926000  0.65791000  1.0
  C  C25  1  0.55615000  0.83072000  0.34209000  1.0
  C  C26  1  0.11982000  0.21340000  0.71163000  1.0
  C  C27  1  0.88016000  0.78660000  0.28837000  1.0
  C  C28  1  0.09632000  0.24262000  0.59997000  1.0
  C  C29  1  0.90369000  0.75741000  0.40004000  1.0
  C  C30  1  0.36398000  0.24663000  0.45843000  1.0
  C  C31  1  0.63605000  0.75338000  0.54160000  1.0
  C  C32  1  0.39449000  0.44213000  0.45419000  1.0
  C  C33  1  0.60554000  0.55786000  0.54583000  1.0
  N  N34  1  0.33709000  0.16718000  0.74701000  1.0
  N  N35  1  0.66287000  0.83280000  0.25298000  1.0
  N  N36  1  0.30336000  0.21440000  0.56736000  1.0
  N  N37  1  0.69664000  0.78560000  0.43265000  1.0
  O  O38  1  0.33759000  0.88333000  0.90506000  1.0
  O  O39  1  0.66230000  0.11650000  0.09496000  1.0
  O  O40  1  0.79836000  0.03251000  0.87383000  1.0
  O  O41  1  0.20164000  0.96747000  0.12609000  1.0
  O  O42  1  0.71482000  0.39027000  0.95437000  1.0
  O  O43  1  0.28528000  0.60981000  0.04561000  1.0
  O  O44  1  0.22208000  0.23765000  0.99376000  1.0
  O  O45  1  0.77780000  0.76246000  0.00629000  1.0
  O  O46  1  0.05285000  0.41729000  0.18658000  1.0
  O  O47  1  0.94712000  0.58269000  0.81340000  1.0
  O  O48  1  0.45798000  0.56925000  0.80421000  1.0
  O  O49  1  0.54210000  0.43075000  0.19574000  1.0
  O  O50  1  0.18252000  0.74870000  0.66828000  1.0
  O  O51  1  0.81747000  0.25130000  0.33171000  1.0
