# generated using pymatgen
data_Zr3H20(C18O11)2
_symmetry_space_group_name_H-M   'P 1'
_cell_length_a   17.02030000
_cell_length_b   17.02027427
_cell_length_c   17.02027427
_cell_angle_alpha   60.00000000
_cell_angle_beta   60.00005000
_cell_angle_gamma   60.00005000
_symmetry_Int_Tables_number   1
_chemical_formula_structural   Zr3H20(C18O11)2
_chemical_formula_sum   'Zr6 H40 C72 O44'
_cell_volume   3486.46772820
_cell_formula_units_Z   2
loop_
 _symmetry_equiv_pos_site_id
 _symmetry_equiv_pos_as_xyz
  1  'x, y, z'
loop_
 _atom_site_type_symbol
 _atom_site_label
 _atom_site_symmetry_multiplicity
 _atom_site_fract_x
 _atom_site_fract_y
 _atom_site_fract_z
 _atom_site_occupancy
  Zr  Zr0  1  0.89624000  0.39625000  0.10375000  1.0
  Zr  Zr1  1  0.10374000  0.60376000  0.89625000  1.0
  Zr  Zr2  1  0.10374000  0.39624000  0.89626000  1.0
  Zr  Zr3  1  0.89624000  0.60376000  0.10376000  1.0
  Zr  Zr4  1  0.10375000  0.39625000  0.10376000  1.0
  Zr  Zr5  1  0.89624000  0.60375000  0.89625000  1.0
  H  H6  1  0.08183000  0.25453000  0.08182000  1.0
  H  H7  1  0.08182000  0.58182000  0.08183000  1.0
  H  H8  1  0.08182000  0.58182000  0.75454000  1.0
  H  H9  1  0.75454000  0.58182000  0.08182000  1.0
  H  H10  1  0.89255000  0.12925000  0.37403000  1.0
  H  H11  1  0.14220000  0.15707000  0.34678000  1.0
  H  H12  1  0.10416000  0.87403000  0.62925000  1.0
  H  H13  1  0.85396000  0.84677000  0.65707000  1.0
  H  H14  1  0.62924000  0.39256000  0.10417000  1.0
  H  H15  1  0.65707000  0.64220000  0.85395000  1.0
  H  H16  1  0.37402000  0.60417000  0.89256000  1.0
  H  H17  1  0.34678000  0.35395000  0.14220000  1.0
  H  H18  1  0.10416000  0.39256000  0.37403000  1.0
  H  H19  1  0.85395000  0.64220000  0.34678000  1.0
  H  H20  1  0.89255000  0.60417000  0.62925000  1.0
  H  H21  1  0.14221000  0.35395000  0.65707000  1.0
  H  H22  1  0.62925000  0.87402000  0.89256000  1.0
  H  H23  1  0.65706000  0.84678000  0.14221000  1.0
  H  H24  1  0.37402000  0.12925000  0.10417000  1.0
  H  H25  1  0.34678000  0.15707000  0.85395000  1.0
  H  H26  1  0.10416000  0.12925000  0.89256000  1.0
  H  H27  1  0.85395000  0.15707000  0.14220000  1.0
  H  H28  1  0.89256000  0.87402000  0.10417000  1.0
  H  H29  1  0.14221000  0.84677000  0.85395000  1.0
  H  H30  1  0.62924000  0.60417000  0.37403000  1.0
  H  H31  1  0.65707000  0.35395000  0.34678000  1.0
  H  H32  1  0.37402000  0.39256000  0.62925000  1.0
  H  H33  1  0.34678000  0.64220000  0.65707000  1.0
  H  H34  1  0.82027000  0.04724000  0.45090000  1.0
  H  H35  1  0.18159000  0.95090000  0.54724000  1.0
  H  H36  1  0.54724000  0.32027000  0.18159000  1.0
  H  H37  1  0.45090000  0.68159000  0.82027000  1.0
  H  H38  1  0.18159000  0.32027000  0.45090000  1.0
  H  H39  1  0.82027000  0.68159000  0.54724000  1.0
  H  H40  1  0.54724000  0.95089000  0.82028000  1.0
  H  H41  1  0.45090000  0.04724000  0.18159000  1.0
  H  H42  1  0.18158000  0.04724000  0.82028000  1.0
  H  H43  1  0.82028000  0.95089000  0.18159000  1.0
  H  H44  1  0.54723000  0.68159000  0.45090000  1.0
  H  H45  1  0.45089000  0.32027000  0.54725000  1.0
  C  C46  1  0.00526000  0.23754000  0.26734000  1.0
  C  C47  1  0.26733000  0.48986000  0.00526000  1.0
  C  C48  1  0.98985000  0.76734000  0.73755000  1.0
  C  C49  1  0.73755000  0.50525000  0.98986000  1.0
  C  C50  1  0.98986000  0.23754000  0.00526000  1.0
  C  C51  1  0.73754000  0.48986000  0.26734000  1.0
  C  C52  1  0.00525000  0.76733000  0.98987000  1.0
  C  C53  1  0.26733000  0.50526000  0.73755000  1.0
  C  C54  1  0.26734000  0.23754000  0.98986000  1.0
  C  C55  1  0.00525000  0.48986000  0.73755000  1.0
  C  C56  1  0.73754000  0.76734000  0.00526000  1.0
  C  C57  1  0.98986000  0.50526000  0.26734000  1.0
  C  C58  1  0.95027000  0.10070000  0.40225000  1.0
  C  C59  1  0.09191000  0.11773000  0.38562000  1.0
  C  C60  1  0.10366000  0.03667000  0.46514000  1.0
  C  C61  1  0.03784000  0.98418000  0.51791000  1.0
  C  C62  1  0.04678000  0.90225000  0.60070000  1.0
  C  C63  1  0.90474000  0.88562000  0.61773000  1.0
  C  C64  1  0.89453000  0.96514000  0.53667000  1.0
  C  C65  1  0.96007000  0.01791000  0.48418000  1.0
  C  C66  1  0.01491000  0.14997000  0.35413000  1.0
  C  C67  1  0.98100000  0.85412000  0.64997000  1.0
  C  C68  1  0.60071000  0.45027000  0.04677000  1.0
  C  C69  1  0.61772000  0.59191000  0.90474000  1.0
  C  C70  1  0.53667000  0.60366000  0.89453000  1.0
  C  C71  1  0.48418000  0.53784000  0.96007000  1.0
  C  C72  1  0.40225000  0.54678000  0.95027000  1.0
  C  C73  1  0.38561000  0.40475000  0.09191000  1.0
  C  C74  1  0.46513000  0.39453000  0.10367000  1.0
  C  C75  1  0.51791000  0.46007000  0.03784000  1.0
  C  C76  1  0.64997000  0.51491000  0.98099000  1.0
  C  C77  1  0.35413000  0.48099000  0.01491000  1.0
  C  C78  1  0.04678000  0.45027000  0.40225000  1.0
  C  C79  1  0.90474000  0.59191000  0.38562000  1.0
  C  C80  1  0.89453000  0.60366000  0.46514000  1.0
  C  C81  1  0.96007000  0.53784000  0.51791000  1.0
  C  C82  1  0.95027000  0.54678000  0.60070000  1.0
  C  C83  1  0.09190000  0.40475000  0.61773000  1.0
  C  C84  1  0.10366000  0.39453000  0.53667000  1.0
  C  C85  1  0.03784000  0.46007000  0.48418000  1.0
  C  C86  1  0.98099000  0.51491000  0.35413000  1.0
  C  C87  1  0.01490000  0.48100000  0.64997000  1.0
  C  C88  1  0.60069000  0.90225000  0.95028000  1.0
  C  C89  1  0.61772000  0.88562000  0.09191000  1.0
  C  C90  1  0.53666000  0.96514000  0.10367000  1.0
  C  C91  1  0.48418000  0.01791000  0.03784000  1.0
  C  C92  1  0.40225000  0.10070000  0.04678000  1.0
  C  C93  1  0.38561000  0.11773000  0.90475000  1.0
  C  C94  1  0.46514000  0.03667000  0.89453000  1.0
  C  C95  1  0.51790000  0.98418000  0.96008000  1.0
  C  C96  1  0.64996000  0.85413000  0.01491000  1.0
  C  C97  1  0.35412000  0.14997000  0.98100000  1.0
  C  C98  1  0.04676000  0.10070000  0.95028000  1.0
  C  C99  1  0.90474000  0.11773000  0.09191000  1.0
  C  C100  1  0.89453000  0.03667000  0.10366000  1.0
  C  C101  1  0.96007000  0.98418000  0.03784000  1.0
  C  C102  1  0.95027000  0.90225000  0.04678000  1.0
  C  C103  1  0.09190000  0.88562000  0.90475000  1.0
  C  C104  1  0.10366000  0.96514000  0.89453000  1.0
  C  C105  1  0.03783000  0.01791000  0.96008000  1.0
  C  C106  1  0.98099000  0.14997000  0.01491000  1.0
  C  C107  1  0.01491000  0.85412000  0.98100000  1.0
  C  C108  1  0.60069000  0.54677000  0.40226000  1.0
  C  C109  1  0.61772000  0.40474000  0.38563000  1.0
  C  C110  1  0.53666000  0.39453000  0.46515000  1.0
  C  C111  1  0.48418000  0.46007000  0.51791000  1.0
  C  C112  1  0.40225000  0.45027000  0.60070000  1.0
  C  C113  1  0.38562000  0.59190000  0.61773000  1.0
  C  C114  1  0.46514000  0.60366000  0.53667000  1.0
  C  C115  1  0.51790000  0.53784000  0.48418000  1.0
  C  C116  1  0.64997000  0.48099000  0.35413000  1.0
  C  C117  1  0.35412000  0.51491000  0.64997000  1.0
  O  O118  1  0.93743000  0.26732000  0.23656000  1.0
  O  O119  1  0.23655000  0.55868000  0.93745000  1.0
  O  O120  1  0.05869000  0.73655000  0.76732000  1.0
  O  O121  1  0.76731000  0.43744000  0.05869000  1.0
  O  O122  1  0.05868000  0.26732000  0.93744000  1.0
  O  O123  1  0.76731000  0.55869000  0.23656000  1.0
  O  O124  1  0.93744000  0.73655000  0.05869000  1.0
  O  O125  1  0.23655000  0.43744000  0.76732000  1.0
  O  O126  1  0.23656000  0.26731000  0.05869000  1.0
  O  O127  1  0.93744000  0.55869000  0.76732000  1.0
  O  O128  1  0.76731000  0.73655000  0.93745000  1.0
  O  O129  1  0.05868000  0.43744000  0.23656000  1.0
  O  O130  1  0.07010000  0.42494000  0.77628000  1.0
  O  O131  1  0.77627000  0.72868000  0.07011000  1.0
  O  O132  1  0.92494000  0.57010000  0.22868000  1.0
  O  O133  1  0.22868000  0.27628000  0.92494000  1.0
  O  O134  1  0.92494000  0.27628000  0.07010000  1.0
  O  O135  1  0.22868000  0.57010000  0.77628000  1.0
  O  O136  1  0.07010000  0.72867000  0.92495000  1.0
  O  O137  1  0.77628000  0.42494000  0.22868000  1.0
  O  O138  1  0.77628000  0.57010000  0.92494000  1.0
  O  O139  1  0.07011000  0.27627000  0.22868000  1.0
  O  O140  1  0.22867000  0.42494000  0.07011000  1.0
  O  O141  1  0.92494000  0.72868000  0.77628000  1.0
  O  O142  1  0.82426000  0.55858000  0.05858000  1.0
  O  O143  1  0.05857000  0.55858000  0.82427000  1.0
  O  O144  1  0.05857000  0.55858000  0.05858000  1.0
  O  O145  1  0.05857000  0.32427000  0.05858000  1.0
  O  O146  1  0.12954000  0.45682000  0.95682000  1.0
  O  O147  1  0.95681000  0.45682000  0.12955000  1.0
  O  O148  1  0.95681000  0.62955000  0.95682000  1.0
  O  O149  1  0.95682000  0.45681000  0.95682000  1.0
  O  O150  1  0.81965000  0.99108000  0.50921000  1.0
  O  O151  1  0.18006000  0.00921000  0.49109000  1.0
  O  O152  1  0.49109000  0.31965000  0.18005000  1.0
  O  O153  1  0.50922000  0.68005000  0.81964000  1.0
  O  O154  1  0.18005000  0.31964000  0.50922000  1.0
  O  O155  1  0.81964000  0.68005000  0.49109000  1.0
  O  O156  1  0.49109000  0.00921000  0.81965000  1.0
  O  O157  1  0.50922000  0.99108000  0.18005000  1.0
  O  O158  1  0.18004000  0.99109000  0.81965000  1.0
  O  O159  1  0.81965000  0.00921000  0.18005000  1.0
  O  O160  1  0.49108000  0.68005000  0.50922000  1.0
  O  O161  1  0.50921000  0.31965000  0.49109000  1.0
