# generated using pymatgen
data_CsH5C7SO6
_symmetry_space_group_name_H-M   'P 1'
_cell_length_a   7.18353000
_cell_length_b   9.77109000
_cell_length_c   14.37130000
_cell_angle_alpha   91.68280000
_cell_angle_beta   90.00000000
_cell_angle_gamma   89.99990000
_symmetry_Int_Tables_number   1
_chemical_formula_structural   CsH5C7SO6
_chemical_formula_sum   'Cs4 H20 C28 S4 O24'
_cell_volume   1008.29969565
_cell_formula_units_Z   4
loop_
 _symmetry_equiv_pos_site_id
 _symmetry_equiv_pos_as_xyz
  1  'x, y, z'
loop_
 _atom_site_type_symbol
 _atom_site_label
 _atom_site_symmetry_multiplicity
 _atom_site_fract_x
 _atom_site_fract_y
 _atom_site_fract_z
 _atom_site_occupancy
  Cs  Cs0  1  0.81872000  0.54062000  0.65252000  1.0
  Cs  Cs1  1  0.31872000  0.45938000  0.84748000  1.0
  Cs  Cs2  1  0.18128000  0.45938000  0.34748000  1.0
  Cs  Cs3  1  0.68128000  0.54062000  0.15252000  1.0
  H  H4  1  0.81127000  0.35837000  0.88032000  1.0
  H  H5  1  0.31127000  0.64164000  0.61968000  1.0
  H  H6  1  0.18872000  0.64163000  0.11968000  1.0
  H  H7  1  0.68873000  0.35837000  0.38032000  1.0
  H  H8  1  0.06604000  0.12388000  0.73471000  1.0
  H  H9  1  0.56604000  0.87612000  0.76529000  1.0
  H  H10  1  0.93396000  0.87612000  0.26529000  1.0
  H  H11  1  0.43396000  0.12388000  0.23471000  1.0
  H  H12  1  0.05586000  0.87316000  0.76422000  1.0
  H  H13  1  0.55586000  0.12684000  0.73578000  1.0
  H  H14  1  0.94414000  0.12684000  0.23578000  1.0
  H  H15  1  0.44414000  0.87316000  0.26422000  1.0
  H  H16  1  0.70637000  0.95188000  0.00331000  1.0
  H  H17  1  0.20637000  0.04812000  0.49669000  1.0
  H  H18  1  0.29364000  0.04812000  0.99669000  1.0
  H  H19  1  0.79363000  0.95188000  0.50331000  1.0
  H  H20  1  0.50328000  0.23945000  0.09052000  1.0
  H  H21  1  0.00328000  0.76055000  0.40948000  1.0
  H  H22  1  0.49672000  0.76055000  0.90948000  1.0
  H  H23  1  0.99672000  0.23945000  0.59052000  1.0
  C  C24  1  0.78498000  0.12857000  0.92686000  1.0
  C  C25  1  0.28498000  0.87143000  0.57314000  1.0
  C  C26  1  0.21502000  0.87143000  0.07314000  1.0
  C  C27  1  0.71502000  0.12857000  0.42686000  1.0
  C  C28  1  0.88573000  0.17751000  0.84945000  1.0
  C  C29  1  0.38573000  0.82249000  0.65055000  1.0
  C  C30  1  0.11427000  0.82249000  0.15055000  1.0
  C  C31  1  0.61426000  0.17751000  0.34945000  1.0
  C  C32  1  0.98553000  0.08457000  0.79222000  1.0
  C  C33  1  0.48553000  0.91543000  0.70778000  1.0
  C  C34  1  0.01447000  0.91543000  0.20778000  1.0
  C  C35  1  0.51447000  0.08457000  0.29222000  1.0
  C  C36  1  0.97902000  0.94541000  0.80882000  1.0
  C  C37  1  0.47902000  0.05459000  0.69117000  1.0
  C  C38  1  0.02098000  0.05459000  0.19118000  1.0
  C  C39  1  0.52097000  0.94541000  0.30883000  1.0
  C  C40  1  0.87526000  0.89654000  0.88374000  1.0
  C  C41  1  0.37526000  0.10346000  0.61626000  1.0
  C  C42  1  0.12475000  0.10346000  0.11626000  1.0
  C  C43  1  0.62474000  0.89654000  0.38374000  1.0
  C  C44  1  0.78271000  0.98796000  0.94349000  1.0
  C  C45  1  0.28271000  0.01204000  0.55651000  1.0
  C  C46  1  0.21729000  0.01204000  0.05651000  1.0
  C  C47  1  0.71729000  0.98796000  0.44349000  1.0
  C  C48  1  0.67990000  0.22573000  0.98636000  1.0
  C  C49  1  0.17990000  0.77427000  0.51364000  1.0
  C  C50  1  0.32010000  0.77427000  0.01364000  1.0
  C  C51  1  0.82010000  0.22573000  0.48636000  1.0
  S  S52  1  0.84749000  0.71750000  0.89874000  1.0
  S  S53  1  0.34749000  0.28250000  0.60126000  1.0
  S  S54  1  0.15251000  0.28250000  0.10126000  1.0
  S  S55  1  0.65251000  0.71750000  0.39874000  1.0
  O  O56  1  0.88856000  0.31169000  0.82982000  1.0
  O  O57  1  0.38856000  0.68831000  0.67018000  1.0
  O  O58  1  0.11143000  0.68831000  0.17018000  1.0
  O  O59  1  0.61143000  0.31169000  0.32982000  1.0
  O  O60  1  0.85543000  0.69494000  0.99846000  1.0
  O  O61  1  0.35543000  0.30507000  0.50154000  1.0
  O  O62  1  0.14457000  0.30506000  0.00154000  1.0
  O  O63  1  0.64457000  0.69494000  0.49846000  1.0
  O  O64  1  0.65880000  0.68405000  0.85906000  1.0
  O  O65  1  0.15880000  0.31595000  0.64094000  1.0
  O  O66  1  0.34120000  0.31595000  0.14094000  1.0
  O  O67  1  0.84120000  0.68405000  0.35906000  1.0
  O  O68  1  0.99249000  0.64954000  0.84256000  1.0
  O  O69  1  0.49249000  0.35046000  0.65744000  1.0
  O  O70  1  0.00751000  0.35046000  0.15744000  1.0
  O  O71  1  0.50751000  0.64954000  0.34256000  1.0
  O  O72  1  0.59884000  0.17325000  0.05976000  1.0
  O  O73  1  0.09884000  0.82675000  0.44024000  1.0
  O  O74  1  0.40116000  0.82675000  0.94024000  1.0
  O  O75  1  0.90116000  0.17325000  0.55976000  1.0
  O  O76  1  0.66562000  0.35008000  0.96731000  1.0
  O  O77  1  0.16562000  0.64992000  0.53269000  1.0
  O  O78  1  0.33438000  0.64992000  0.03269000  1.0
  O  O79  1  0.83438000  0.35008000  0.46731000  1.0
