# generated using pymatgen
data_CuH7C10SN2
_symmetry_space_group_name_H-M   'P 1'
_cell_length_a   5.62361000
_cell_length_b   10.00540000
_cell_length_c   16.48140000
_cell_angle_alpha   89.99970000
_cell_angle_beta   96.18170000
_cell_angle_gamma   89.99910000
_symmetry_Int_Tables_number   1
_chemical_formula_structural   CuH7C10SN2
_chemical_formula_sum   'Cu4 H28 C40 S4 N8'
_cell_volume   921.95799418
_cell_formula_units_Z   4
loop_
 _symmetry_equiv_pos_site_id
 _symmetry_equiv_pos_as_xyz
  1  'x, y, z'
loop_
 _atom_site_type_symbol
 _atom_site_label
 _atom_site_symmetry_multiplicity
 _atom_site_fract_x
 _atom_site_fract_y
 _atom_site_fract_z
 _atom_site_occupancy
  Cu  Cu0  1  0.42576000  0.51860000  0.08600000  1.0
  Cu  Cu1  1  0.57423000  0.01860000  0.41399000  1.0
  Cu  Cu2  1  0.57421000  0.48141000  0.91400000  1.0
  Cu  Cu3  1  0.42579000  0.98141000  0.58601000  1.0
  H  H4  1  0.81401000  0.33612000  0.07142000  1.0
  H  H5  1  0.18598000  0.83611000  0.42858000  1.0
  H  H6  1  0.18594000  0.66389000  0.92857000  1.0
  H  H7  1  0.81404000  0.16388000  0.57142000  1.0
  H  H8  1  0.15172000  0.23462000  0.15988000  1.0
  H  H9  1  0.84827000  0.73462000  0.34012000  1.0
  H  H10  1  0.84826000  0.76539000  0.84011000  1.0
  H  H11  1  0.15174000  0.26538000  0.65988000  1.0
  H  H12  1  0.18435000  0.27562000  0.31145000  1.0
  H  H13  1  0.81566000  0.77562000  0.18854000  1.0
  H  H14  1  0.81565000  0.72438000  0.68853000  1.0
  H  H15  1  0.18436000  0.22437000  0.81146000  1.0
  H  H16  1  0.01701000  0.38611000  0.42821000  1.0
  H  H17  1  0.98301000  0.88611000  0.07179000  1.0
  H  H18  1  0.98301000  0.61389000  0.57179000  1.0
  H  H19  1  0.01702000  0.11389000  0.92821000  1.0
  H  H20  1  0.69867000  0.52428000  0.48098000  1.0
  H  H21  1  0.30135000  0.02428000  0.01902000  1.0
  H  H22  1  0.30135000  0.47571000  0.51902000  1.0
  H  H23  1  0.69868000  0.97571000  0.98098000  1.0
  H  H24  1  0.36267000  0.61194000  0.38548000  1.0
  H  H25  1  0.63734000  0.11195000  0.11452000  1.0
  H  H26  1  0.63735000  0.38804000  0.61453000  1.0
  H  H27  1  0.36267000  0.88805000  0.88548000  1.0
  H  H28  1  0.34540000  0.56698000  0.23657000  1.0
  H  H29  1  0.65459000  0.06697000  0.26343000  1.0
  H  H30  1  0.65459000  0.43303000  0.76344000  1.0
  H  H31  1  0.34541000  0.93303000  0.73657000  1.0
  C  C32  1  0.07901000  0.37292000  0.94718000  1.0
  C  C33  1  0.92098000  0.87292000  0.55282000  1.0
  C  C34  1  0.92094000  0.62709000  0.05282000  1.0
  C  C35  1  0.07904000  0.12709000  0.44718000  1.0
  C  C36  1  0.82798000  0.35075000  0.13734000  1.0
  C  C37  1  0.17201000  0.85075000  0.36267000  1.0
  C  C38  1  0.17199000  0.64925000  0.86266000  1.0
  C  C39  1  0.82800000  0.14925000  0.63734000  1.0
  C  C40  1  0.01972000  0.29392000  0.18764000  1.0
  C  C41  1  0.98028000  0.79392000  0.31235000  1.0
  C  C42  1  0.98027000  0.70609000  0.81234000  1.0
  C  C43  1  0.01973000  0.20608000  0.68765000  1.0
  C  C44  1  0.03739000  0.31682000  0.27043000  1.0
  C  C45  1  0.96261000  0.81682000  0.22957000  1.0
  C  C46  1  0.96260000  0.68318000  0.72957000  1.0
  C  C47  1  0.03740000  0.18318000  0.77043000  1.0
  C  C48  1  0.86938000  0.42613000  0.38707000  1.0
  C  C49  1  0.13062000  0.92612000  0.11293000  1.0
  C  C50  1  0.13062000  0.57387000  0.61292000  1.0
  C  C51  1  0.86941000  0.07387000  0.88708000  1.0
  C  C52  1  0.69254000  0.50198000  0.41613000  1.0
  C  C53  1  0.30748000  0.00198000  0.08387000  1.0
  C  C54  1  0.30748000  0.49801000  0.58387000  1.0
  C  C55  1  0.69254000  0.99801000  0.91614000  1.0
  C  C56  1  0.50203000  0.55244000  0.36181000  1.0
  C  C57  1  0.49797000  0.05244000  0.13820000  1.0
  C  C58  1  0.49797000  0.44755000  0.63820000  1.0
  C  C59  1  0.50204000  0.94756000  0.86180000  1.0
  C  C60  1  0.49125000  0.52791000  0.27907000  1.0
  C  C61  1  0.50875000  0.02792000  0.22093000  1.0
  C  C62  1  0.50874000  0.47208000  0.72093000  1.0
  C  C63  1  0.49126000  0.97208000  0.77907000  1.0
  C  C64  1  0.67034000  0.44971000  0.24774000  1.0
  C  C65  1  0.32965000  0.94971000  0.25226000  1.0
  C  C66  1  0.32964000  0.55029000  0.75226000  1.0
  C  C67  1  0.67036000  0.05029000  0.74774000  1.0
  C  C68  1  0.86201000  0.39682000  0.30265000  1.0
  C  C69  1  0.13800000  0.89682000  0.19734000  1.0
  C  C70  1  0.13799000  0.60317000  0.69734000  1.0
  C  C71  1  0.86202000  0.10317000  0.80266000  1.0
  S  S72  1  0.35050000  0.32359000  0.97917000  1.0
  S  S73  1  0.64950000  0.82360000  0.52083000  1.0
  S  S74  1  0.64947000  0.67641000  0.02083000  1.0
  S  S75  1  0.35051000  0.17641000  0.47917000  1.0
  N  N76  1  0.88441000  0.40972000  0.92299000  1.0
  N  N77  1  0.11557000  0.90972000  0.57701000  1.0
  N  N78  1  0.11554000  0.59029000  0.07701000  1.0
  N  N79  1  0.88443000  0.09029000  0.42299000  1.0
  N  N80  1  0.65724000  0.42540000  0.16494000  1.0
  N  N81  1  0.34276000  0.92540000  0.33506000  1.0
  N  N82  1  0.34274000  0.57460000  0.83507000  1.0
  N  N83  1  0.65725000  0.07460000  0.66494000  1.0
