# generated using pymatgen
data_CuH4C5N3O
_symmetry_space_group_name_H-M   'P 1'
_cell_length_a   5.86629000
_cell_length_b   8.61892000
_cell_length_c   11.90060000
_cell_angle_alpha   89.99950000
_cell_angle_beta   89.99980000
_cell_angle_gamma   89.99880000
_symmetry_Int_Tables_number   1
_chemical_formula_structural   CuH4C5N3O
_chemical_formula_sum   'Cu4 H16 C20 N12 O4'
_cell_volume   601.70723855
_cell_formula_units_Z   4
loop_
 _symmetry_equiv_pos_site_id
 _symmetry_equiv_pos_as_xyz
  1  'x, y, z'
loop_
 _atom_site_type_symbol
 _atom_site_label
 _atom_site_symmetry_multiplicity
 _atom_site_fract_x
 _atom_site_fract_y
 _atom_site_fract_z
 _atom_site_occupancy
  Cu  Cu0  1  0.17551000  0.35653000  0.25000000  1.0
  Cu  Cu1  1  0.67553000  0.14347000  0.25000000  1.0
  Cu  Cu2  1  0.32449000  0.85651000  0.75000000  1.0
  Cu  Cu3  1  0.82447000  0.64350000  0.75000000  1.0
  H  H4  1  0.92076000  0.23410000  0.44552000  1.0
  H  H5  1  0.42077000  0.26590000  0.44551000  1.0
  H  H6  1  0.92079000  0.23410000  0.05449000  1.0
  H  H7  1  0.57923000  0.73408000  0.94551000  1.0
  H  H8  1  0.07922000  0.76591000  0.55450000  1.0
  H  H9  1  0.57923000  0.73409000  0.55450000  1.0
  H  H10  1  0.07920000  0.76591000  0.94550000  1.0
  H  H11  1  0.42078000  0.26590000  0.05449000  1.0
  H  H12  1  0.20773000  0.66234000  0.36779000  1.0
  H  H13  1  0.70773000  0.83766000  0.36779000  1.0
  H  H14  1  0.20771000  0.66235000  0.13221000  1.0
  H  H15  1  0.29228000  0.16233000  0.86778000  1.0
  H  H16  1  0.79226000  0.33768000  0.63222000  1.0
  H  H17  1  0.29227000  0.16233000  0.63222000  1.0
  H  H18  1  0.79228000  0.33767000  0.86778000  1.0
  H  H19  1  0.70772000  0.83766000  0.13222000  1.0
  C  C20  1  0.61296000  0.49371000  0.24999000  1.0
  C  C21  1  0.11297000  0.00626000  0.25000000  1.0
  C  C22  1  0.88704000  0.99374000  0.75000000  1.0
  C  C23  1  0.38703000  0.50627000  0.75000000  1.0
  C  C24  1  0.95544000  0.35331000  0.47044000  1.0
  C  C25  1  0.45545000  0.14669000  0.47044000  1.0
  C  C26  1  0.95545000  0.35331000  0.02956000  1.0
  C  C27  1  0.54456000  0.85331000  0.97044000  1.0
  C  C28  1  0.04456000  0.64669000  0.52957000  1.0
  C  C29  1  0.54457000  0.85331000  0.52957000  1.0
  C  C30  1  0.04454000  0.64669000  0.97043000  1.0
  C  C31  1  0.45545000  0.14668000  0.02956000  1.0
  C  C32  1  0.11703000  0.58854000  0.42710000  1.0
  C  C33  1  0.61704000  0.91146000  0.42709000  1.0
  C  C34  1  0.11702000  0.58855000  0.07290000  1.0
  C  C35  1  0.38297000  0.08853000  0.92709000  1.0
  C  C36  1  0.88295000  0.41147000  0.57292000  1.0
  C  C37  1  0.38297000  0.08853000  0.57291000  1.0
  C  C38  1  0.88296000  0.41147000  0.92708000  1.0
  C  C39  1  0.61704000  0.91145000  0.07291000  1.0
  N  N40  1  0.52787000  0.36567000  0.24999000  1.0
  N  N41  1  0.02789000  0.13430000  0.25000000  1.0
  N  N42  1  0.97212000  0.86571000  0.75000000  1.0
  N  N43  1  0.47212000  0.63430000  0.75000000  1.0
  N  N44  1  0.07365000  0.44035000  0.39601000  1.0
  N  N45  1  0.57365000  0.05966000  0.39601000  1.0
  N  N46  1  0.07364000  0.44035000  0.10399000  1.0
  N  N47  1  0.42637000  0.94033000  0.89600000  1.0
  N  N48  1  0.92636000  0.55968000  0.60400000  1.0
  N  N49  1  0.42637000  0.94034000  0.60400000  1.0
  N  N50  1  0.92635000  0.55967000  0.89600000  1.0
  N  N51  1  0.57365000  0.05966000  0.10400000  1.0
  O  O52  1  0.69626000  0.62184000  0.24999000  1.0
  O  O53  1  0.19625000  0.87815000  0.25000000  1.0
  O  O54  1  0.80376000  0.12186000  0.75000000  1.0
  O  O55  1  0.30374000  0.37815000  0.75000000  1.0
