# generated using pymatgen
data_AgH10C12N5O2
_symmetry_space_group_name_H-M   'P 1'
_cell_length_a   10.55080000
_cell_length_b   10.55080000
_cell_length_c   12.05290000
_cell_angle_alpha   76.73300000
_cell_angle_beta   76.73290000
_cell_angle_gamma   77.96320000
_symmetry_Int_Tables_number   1
_chemical_formula_structural   AgH10C12N5O2
_chemical_formula_sum   'Ag4 H40 C48 N20 O8'
_cell_volume   1253.73473004
_cell_formula_units_Z   4
loop_
 _symmetry_equiv_pos_site_id
 _symmetry_equiv_pos_as_xyz
  1  'x, y, z'
loop_
 _atom_site_type_symbol
 _atom_site_label
 _atom_site_symmetry_multiplicity
 _atom_site_fract_x
 _atom_site_fract_y
 _atom_site_fract_z
 _atom_site_occupancy
  Ag  Ag0  1  0.78396000  0.72420000  0.26969000  1.0
  Ag  Ag1  1  0.27580000  0.21604000  0.23031000  1.0
  Ag  Ag2  1  0.21604000  0.27580000  0.73031000  1.0
  Ag  Ag3  1  0.72420000  0.78396000  0.76969000  1.0
  H  H4  1  0.47904000  0.79983000  0.66888000  1.0
  H  H5  1  0.20016000  0.52096000  0.83112000  1.0
  H  H6  1  0.52096000  0.20016000  0.33112000  1.0
  H  H7  1  0.79984000  0.47904000  0.16888000  1.0
  H  H8  1  0.73284000  0.99027000  0.32130000  1.0
  H  H9  1  0.00973000  0.26716000  0.17870000  1.0
  H  H10  1  0.26716000  0.00973000  0.67870000  1.0
  H  H11  1  0.99027000  0.73284000  0.82130000  1.0
  H  H12  1  0.36513000  0.64338000  0.60817000  1.0
  H  H13  1  0.35662000  0.63487000  0.89183000  1.0
  H  H14  1  0.63487000  0.35662000  0.39183000  1.0
  H  H15  1  0.64338000  0.36513000  0.10817000  1.0
  H  H16  1  0.50001000  0.61173000  0.38705000  1.0
  H  H17  1  0.38827000  0.49999000  0.11295000  1.0
  H  H18  1  0.49999000  0.38827000  0.61295000  1.0
  H  H19  1  0.61173000  0.50001000  0.88705000  1.0
  H  H20  1  0.88479000  0.11308000  0.38225000  1.0
  H  H21  1  0.88691000  0.11521000  0.11775000  1.0
  H  H22  1  0.11521000  0.88692000  0.61775000  1.0
  H  H23  1  0.11309000  0.88479000  0.88225000  1.0
  H  H24  1  0.86074000  0.03060000  0.62090000  1.0
  H  H25  1  0.96940000  0.13926000  0.87910000  1.0
  H  H26  1  0.13926000  0.96940000  0.37910000  1.0
  H  H27  1  0.03060000  0.86074000  0.12090000  1.0
  H  H28  1  0.91712000  0.74871000  0.50847000  1.0
  H  H29  1  0.25129000  0.08288000  0.99152000  1.0
  H  H30  1  0.08288000  0.25129000  0.49153000  1.0
  H  H31  1  0.74871000  0.91712000  0.00847000  1.0
  H  H32  1  0.28950000  0.49027000  0.50614000  1.0
  H  H33  1  0.50973000  0.71050000  0.99386000  1.0
  H  H34  1  0.71050000  0.50973000  0.49386000  1.0
  H  H35  1  0.49027000  0.28951000  0.00614000  1.0
  H  H36  1  0.28743000  0.47204000  0.30192000  1.0
  H  H37  1  0.52797000  0.71258000  0.19808000  1.0
  H  H38  1  0.71257000  0.52796000  0.69808000  1.0
  H  H39  1  0.47203000  0.28743000  0.80192000  1.0
  H  H40  1  0.09573000  0.59639000  0.21142000  1.0
  H  H41  1  0.40362000  0.90428000  0.28858000  1.0
  H  H42  1  0.90427000  0.40362000  0.78858000  1.0
  H  H43  1  0.59638000  0.09573000  0.71142000  1.0
  C  C44  1  0.60855000  0.80607000  0.49930000  1.0
  C  C45  1  0.19393000  0.39145000  0.00070000  1.0
  C  C46  1  0.39145000  0.19393000  0.50070000  1.0
  C  C47  1  0.80607000  0.60855000  0.99930000  1.0
  C  C48  1  0.44902000  0.68543000  0.55293000  1.0
  C  C49  1  0.31457000  0.55098000  0.94707000  1.0
  C  C50  1  0.55098000  0.31457000  0.44707000  1.0
  C  C51  1  0.68543000  0.44902000  0.05293000  1.0
  C  C52  1  0.51595000  0.67184000  0.44273000  1.0
  C  C53  1  0.32817000  0.48405000  0.05727000  1.0
  C  C54  1  0.48405000  0.32816000  0.55726000  1.0
  C  C55  1  0.67183000  0.51595000  0.94274000  1.0
  C  C56  1  0.69397000  0.89514000  0.50287000  1.0
  C  C57  1  0.10486000  0.30603000  0.99713000  1.0
  C  C58  1  0.30603000  0.10486000  0.49713000  1.0
  C  C59  1  0.89514000  0.69397000  0.00287000  1.0
  C  C60  1  0.82805000  0.04247000  0.44233000  1.0
  C  C61  1  0.95753000  0.17195000  0.05767000  1.0
  C  C62  1  0.17195000  0.95753000  0.55767000  1.0
  C  C63  1  0.04247000  0.82805000  0.94233000  1.0
  C  C64  1  0.81501000  0.00148000  0.56091000  1.0
  C  C65  1  0.99852000  0.18499000  0.93909000  1.0
  C  C66  1  0.18499000  0.99852000  0.43909000  1.0
  C  C67  1  0.00148000  0.81501000  0.06091000  1.0
  C  C68  1  0.00114000  0.68843000  0.46354000  1.0
  C  C69  1  0.31157000  0.99886000  0.03646000  1.0
  C  C70  1  0.99886000  0.31157000  0.53646000  1.0
  C  C71  1  0.68843000  0.00114000  0.96354000  1.0
  C  C72  1  0.10391000  0.62250000  0.52162000  1.0
  C  C73  1  0.37750000  0.89609000  0.97838000  1.0
  C  C74  1  0.89609000  0.37750000  0.47838000  1.0
  C  C75  1  0.62250000  0.10391000  0.02162000  1.0
  C  C76  1  0.20938000  0.54411000  0.46237000  1.0
  C  C77  1  0.45589000  0.79062000  0.03763000  1.0
  C  C78  1  0.79063000  0.45588000  0.53763000  1.0
  C  C79  1  0.54411000  0.20938000  0.96237000  1.0
  C  C80  1  0.20817000  0.53462000  0.34948000  1.0
  C  C81  1  0.46539000  0.79183000  0.15052000  1.0
  C  C82  1  0.79182000  0.46538000  0.65052000  1.0
  C  C83  1  0.53461000  0.20818000  0.84948000  1.0
  C  C84  1  0.10106000  0.60329000  0.29911000  1.0
  C  C85  1  0.39671000  0.89894000  0.20088000  1.0
  C  C86  1  0.89894000  0.39671000  0.70089000  1.0
  C  C87  1  0.60329000  0.10106000  0.79911000  1.0
  C  C88  1  0.09983000  0.63262000  0.64493000  1.0
  C  C89  1  0.36738000  0.90017000  0.85507000  1.0
  C  C90  1  0.90017000  0.36737000  0.35507000  1.0
  C  C91  1  0.63262000  0.09983000  0.14493000  1.0
  N  N92  1  0.61591000  0.74671000  0.40965000  1.0
  N  N93  1  0.25329000  0.38409000  0.09035000  1.0
  N  N94  1  0.38409000  0.25329000  0.59035000  1.0
  N  N95  1  0.74671000  0.61591000  0.90965000  1.0
  N  N96  1  0.50838000  0.77020000  0.58702000  1.0
  N  N97  1  0.22980000  0.49162000  0.91298000  1.0
  N  N98  1  0.49162000  0.22980000  0.41298000  1.0
  N  N99  1  0.77020000  0.50838000  0.08702000  1.0
  N  N100  1  0.73138000  0.90933000  0.59832000  1.0
  N  N101  1  0.09067000  0.26862000  0.90168000  1.0
  N  N102  1  0.26861000  0.09067000  0.40168000  1.0
  N  N103  1  0.90933000  0.73138000  0.09832000  1.0
  N  N104  1  0.75111000  0.97501000  0.40728000  1.0
  N  N105  1  0.02499000  0.24889000  0.09272000  1.0
  N  N106  1  0.24889000  0.02499000  0.59272000  1.0
  N  N107  1  0.97501000  0.75111000  0.90728000  1.0
  N  N108  1  0.99871000  0.67944000  0.35462000  1.0
  N  N109  1  0.32056000  0.00129000  0.14537000  1.0
  N  N110  1  0.00129000  0.32057000  0.64537000  1.0
  N  N111  1  0.67943000  0.99871000  0.85463000  1.0
  O  O112  1  0.18902000  0.55642000  0.69578000  1.0
  O  O113  1  0.44358000  0.81098000  0.80422000  1.0
  O  O114  1  0.81099000  0.44357000  0.30422000  1.0
  O  O115  1  0.55642000  0.18902000  0.19578000  1.0
  O  O116  1  0.00969000  0.71720000  0.68918000  1.0
  O  O117  1  0.28280000  0.99032000  0.81082000  1.0
  O  O118  1  0.99032000  0.28279000  0.31082000  1.0
  O  O119  1  0.71720000  0.00968000  0.18918000  1.0
