# generated using pymatgen
data_CdH11C9NO4
_symmetry_space_group_name_H-M   'P 1'
_cell_length_a   9.64971000
_cell_length_b   10.01420000
_cell_length_c   12.84460000
_cell_angle_alpha   71.67110000
_cell_angle_beta   73.58180000
_cell_angle_gamma   74.85370000
_symmetry_Int_Tables_number   1
_chemical_formula_structural   CdH11C9NO4
_chemical_formula_sum   'Cd4 H44 C36 N4 O16'
_cell_volume   1109.76869724
_cell_formula_units_Z   4
loop_
 _symmetry_equiv_pos_site_id
 _symmetry_equiv_pos_as_xyz
  1  'x, y, z'
loop_
 _atom_site_type_symbol
 _atom_site_label
 _atom_site_symmetry_multiplicity
 _atom_site_fract_x
 _atom_site_fract_y
 _atom_site_fract_z
 _atom_site_occupancy
  Cd  Cd0  1  0.00000000  0.00000000  0.00000000  1.0
  Cd  Cd1  1  0.75322000  0.72802000  0.23051000  1.0
  Cd  Cd2  1  0.24678000  0.27198000  0.76949000  1.0
  Cd  Cd3  1  0.50000000  0.50000000  0.50000000  1.0
  H  H4  1  0.91518000  0.33217000  0.86209000  1.0
  H  H5  1  0.08482000  0.66783000  0.13791000  1.0
  H  H6  1  0.69207000  0.51668000  0.82756000  1.0
  H  H7  1  0.30793000  0.48332000  0.17245000  1.0
  H  H8  1  0.44213000  0.44467000  0.90760000  1.0
  H  H9  1  0.55786000  0.55533000  0.09240000  1.0
  H  H10  1  0.43170000  0.19060000  0.01410000  1.0
  H  H11  1  0.56829000  0.80940000  0.98590000  1.0
  H  H12  1  0.66497000  0.01821000  0.04080000  1.0
  H  H13  1  0.33502000  0.98178000  0.95921000  1.0
  H  H14  1  0.98162000  0.79750000  0.84287000  1.0
  H  H15  1  0.01839000  0.20250000  0.15713000  1.0
  H  H16  1  0.84003000  0.70879000  0.84621000  1.0
  H  H17  1  0.15998000  0.29121000  0.15379000  1.0
  H  H18  1  0.00546000  0.60530000  0.88363000  1.0
  H  H19  1  0.99454000  0.39470000  0.11637000  1.0
  H  H20  1  0.83749000  0.97297000  0.46156000  1.0
  H  H21  1  0.16252000  0.02703000  0.53844000  1.0
  H  H22  1  0.83208000  0.13993000  0.35571000  1.0
  H  H23  1  0.16793000  0.86007000  0.64429000  1.0
  H  H24  1  0.00214000  0.02173000  0.36570000  1.0
  H  H25  1  0.99787000  0.97827000  0.63430000  1.0
  H  H26  1  0.24225000  0.74376000  0.38960000  1.0
  H  H27  1  0.75775000  0.25624000  0.61040000  1.0
  H  H28  1  0.22977000  0.85424000  0.25056000  1.0
  H  H29  1  0.77023000  0.14576000  0.74943000  1.0
  H  H30  1  0.24774000  0.93146000  0.35064000  1.0
  H  H31  1  0.75226000  0.06854000  0.64936000  1.0
  H  H32  1  0.11626000  0.35256000  0.37316000  1.0
  H  H33  1  0.88375000  0.64745000  0.62684000  1.0
  H  H34  1  0.98878000  0.23830000  0.45846000  1.0
  H  H35  1  0.01122000  0.76170000  0.54154000  1.0
  H  H36  1  0.02806000  0.36052000  0.51423000  1.0
  H  H37  1  0.97194000  0.63948000  0.48577000  1.0
  H  H38  1  0.35779000  0.24442000  0.51509000  1.0
  H  H39  1  0.64221000  0.75558000  0.48491000  1.0
  H  H40  1  0.36878000  0.07505000  0.40558000  1.0
  H  H41  1  0.63122000  0.92495000  0.59442000  1.0
  H  H42  1  0.53819000  0.09317000  0.21685000  1.0
  H  H43  1  0.46182000  0.90683000  0.78315000  1.0
  H  H44  1  0.69813000  0.28211000  0.14488000  1.0
  H  H45  1  0.30187000  0.71789000  0.85512000  1.0
  H  H46  1  0.67886000  0.44064000  0.26598000  1.0
  H  H47  1  0.32114000  0.55936000  0.73402000  1.0
  C  C48  1  0.80616000  0.30500000  0.89498000  1.0
  C  C49  1  0.19384000  0.69499000  0.10502000  1.0
  C  C50  1  0.68088000  0.40765000  0.87593000  1.0
  C  C51  1  0.31912000  0.59235000  0.12407000  1.0
  C  C52  1  0.54328000  0.36828000  0.91975000  1.0
  C  C53  1  0.45671000  0.63172000  0.08026000  1.0
  C  C54  1  0.53630000  0.22668000  0.97957000  1.0
  C  C55  1  0.46370000  0.77332000  0.02043000  1.0
  C  C56  1  0.66607000  0.12972000  0.99453000  1.0
  C  C57  1  0.33392000  0.87028000  0.00548000  1.0
  C  C58  1  0.85912000  0.70627000  0.00815000  1.0
  C  C59  1  0.14089000  0.29373000  0.99185000  1.0
  C  C60  1  0.92673000  0.70610000  0.88729000  1.0
  C  C61  1  0.07327000  0.29390000  0.11271000  1.0
  C  C62  1  0.86469000  0.95719000  0.29165000  1.0
  C  C63  1  0.13532000  0.04281000  0.70835000  1.0
  C  C64  1  0.88452000  0.02632000  0.37495000  1.0
  C  C65  1  0.11548000  0.97368000  0.62505000  1.0
  C  C66  1  0.44582000  0.80415000  0.28219000  1.0
  C  C67  1  0.55418000  0.19585000  0.71780000  1.0
  C  C68  1  0.28094000  0.83311000  0.32180000  1.0
  C  C69  1  0.71906000  0.16689000  0.67820000  1.0
  C  C70  1  0.88608000  0.45625000  0.39615000  1.0
  C  C71  1  0.11393000  0.54375000  0.60385000  1.0
  C  C72  1  0.01372000  0.34584000  0.43702000  1.0
  C  C73  1  0.98629000  0.65416000  0.56298000  1.0
  C  C74  1  0.43242000  0.24925000  0.43308000  1.0
  C  C75  1  0.56758000  0.75076000  0.56692000  1.0
  C  C76  1  0.43798000  0.15584000  0.37085000  1.0
  C  C77  1  0.56203000  0.84416000  0.62915000  1.0
  C  C78  1  0.53289000  0.16665000  0.26545000  1.0
  C  C79  1  0.46712000  0.83335000  0.73455000  1.0
  C  C80  1  0.62067000  0.27073000  0.22590000  1.0
  C  C81  1  0.37933000  0.72927000  0.77410000  1.0
  C  C82  1  0.61092000  0.35918000  0.29331000  1.0
  C  C83  1  0.38908000  0.64082000  0.70669000  1.0
  N  N84  1  0.79871000  0.16839000  0.95393000  1.0
  N  N85  1  0.20128000  0.83161000  0.04608000  1.0
  N  N86  1  0.51810000  0.34881000  0.39474000  1.0
  N  N87  1  0.48190000  0.65119000  0.60525000  1.0
  O  O88  1  0.87187000  0.80860000  0.04549000  1.0
  O  O89  1  0.12814000  0.19140000  0.95451000  1.0
  O  O90  1  0.79049000  0.60952000  0.07290000  1.0
  O  O91  1  0.20951000  0.39048000  0.92710000  1.0
  O  O92  1  0.91483000  0.01003000  0.18844000  1.0
  O  O93  1  0.08517000  0.98997000  0.81156000  1.0
  O  O94  1  0.79748000  0.85154000  0.33253000  1.0
  O  O95  1  0.20252000  0.14847000  0.66747000  1.0
  O  O96  1  0.50951000  0.89362000  0.20216000  1.0
  O  O97  1  0.49049000  0.10638000  0.79784000  1.0
  O  O98  1  0.52172000  0.68556000  0.33156000  1.0
  O  O99  1  0.47828000  0.31444000  0.66844000  1.0
  O  O100  1  0.91429000  0.53383000  0.29507000  1.0
  O  O101  1  0.08571000  0.46617000  0.70493000  1.0
  O  O102  1  0.76169000  0.46415000  0.46404000  1.0
  O  O103  1  0.23832000  0.53585000  0.53596000  1.0
