# generated using pymatgen
data_RbH4C3S3N3O
_symmetry_space_group_name_H-M   'P 1'
_cell_length_a   7.36848000
_cell_length_b   10.45610000
_cell_length_c   11.58000000
_cell_angle_alpha   76.71710000
_cell_angle_beta   80.82470000
_cell_angle_gamma   89.13900000
_symmetry_Int_Tables_number   1
_chemical_formula_structural   RbH4C3S3N3O
_chemical_formula_sum   'Rb4 H16 C12 S12 N12 O4'
_cell_volume   856.99246214
_cell_formula_units_Z   4
loop_
 _symmetry_equiv_pos_site_id
 _symmetry_equiv_pos_as_xyz
  1  'x, y, z'
loop_
 _atom_site_type_symbol
 _atom_site_label
 _atom_site_symmetry_multiplicity
 _atom_site_fract_x
 _atom_site_fract_y
 _atom_site_fract_z
 _atom_site_occupancy
  Rb  Rb0  1  0.23551000  0.56862000  0.05142000  1.0
  Rb  Rb1  1  0.76449000  0.43138000  0.94859000  1.0
  Rb  Rb2  1  0.20081000  0.37805000  0.41749000  1.0
  Rb  Rb3  1  0.79919000  0.62195000  0.58251000  1.0
  H  H4  1  0.57273000  0.44887000  0.21493000  1.0
  H  H5  1  0.42728000  0.55113000  0.78508000  1.0
  H  H6  1  0.50401000  0.30909000  0.20367000  1.0
  H  H7  1  0.49599000  0.69091000  0.79633000  1.0
  H  H8  1  0.06116000  0.69881000  0.28981000  1.0
  H  H9  1  0.93884000  0.30119000  0.71019000  1.0
  H  H10  1  0.89778000  0.61402000  0.27893000  1.0
  H  H11  1  0.10222000  0.38598000  0.72107000  1.0
  H  H12  1  0.18141000  0.83247000  0.63514000  1.0
  H  H13  1  0.81859000  0.16753000  0.36486000  1.0
  H  H14  1  0.34489000  0.04880000  0.89948000  1.0
  H  H15  1  0.65511000  0.95120000  0.10052000  1.0
  H  H16  1  0.49287000  0.83598000  0.30948000  1.0
  H  H17  1  0.50713000  0.16401000  0.69052000  1.0
  H  H18  1  0.01803000  0.04637000  0.22184000  1.0
  H  H19  1  0.98197000  0.95363000  0.77817000  1.0
  C  C20  1  0.33757000  0.81299000  0.47669000  1.0
  C  C21  1  0.66243000  0.18702000  0.52330000  1.0
  C  C22  1  0.41266000  0.02249000  0.33601000  1.0
  C  C23  1  0.58734000  0.97751000  0.66398000  1.0
  C  C24  1  0.22830000  0.01905000  0.51925000  1.0
  C  C25  1  0.77170000  0.98096000  0.48074000  1.0
  C  C26  1  0.07403000  0.23280000  0.10625000  1.0
  C  C27  1  0.92597000  0.76719000  0.89375000  1.0
  C  C28  1  0.18732000  0.02726000  0.06666000  1.0
  C  C29  1  0.81269000  0.97274000  0.93334000  1.0
  C  C30  1  0.25774000  0.23474000  0.92291000  1.0
  C  C31  1  0.74226000  0.76526000  0.07709000  1.0
  S  S32  1  0.35058000  0.64906000  0.51692000  1.0
  S  S33  1  0.64941000  0.35094000  0.48307000  1.0
  S  S34  1  0.94982000  0.31119000  0.20394000  1.0
  S  S35  1  0.05019000  0.68881000  0.79607000  1.0
  S  S36  1  0.20968000  0.86553000  0.10951000  1.0
  S  S37  1  0.79032000  0.13447000  0.89049000  1.0
  S  S38  1  0.10234000  0.09299000  0.61899000  1.0
  S  S39  1  0.89766000  0.90701000  0.38101000  1.0
  S  S40  1  0.53368000  0.09939000  0.20236000  1.0
  S  S41  1  0.46631000  0.90061000  0.79764000  1.0
  S  S42  1  0.36886000  0.31258000  0.78573000  1.0
  S  S43  1  0.63113000  0.68742000  0.21428000  1.0
  N  N44  1  0.15910000  0.30063000  0.99793000  1.0
  N  N45  1  0.84090000  0.69937000  0.00207000  1.0
  N  N46  1  0.31509000  0.08771000  0.41189000  1.0
  N  N47  1  0.68490000  0.91229000  0.58811000  1.0
  N  N48  1  0.24581000  0.88407000  0.55102000  1.0
  N  N49  1  0.75419000  0.11593000  0.44898000  1.0
  N  N50  1  0.27044000  0.09995000  0.95802000  1.0
  N  N51  1  0.72956000  0.90006000  0.04198000  1.0
  N  N52  1  0.41789000  0.88623000  0.36825000  1.0
  N  N53  1  0.58211000  0.11377000  0.63175000  1.0
  N  N54  1  0.08607000  0.09823000  0.13787000  1.0
  N  N55  1  0.91393000  0.90177000  0.86213000  1.0
  O  O56  1  0.48060000  0.40509000  0.18386000  1.0
  O  O57  1  0.51941000  0.59490000  0.81614000  1.0
  O  O58  1  0.01920000  0.60692000  0.30585000  1.0
  O  O59  1  0.98080000  0.39308000  0.69415000  1.0
