# generated using pymatgen
data_Zn4H18C28O19
_symmetry_space_group_name_H-M   'P 1'
_cell_length_a   15.95880000
_cell_length_b   15.96130000
_cell_length_c   21.35210238
_cell_angle_alpha   111.93648008
_cell_angle_beta   111.94201972
_cell_angle_gamma   89.99400000
_symmetry_Int_Tables_number   1
_chemical_formula_structural   Zn4H18C28O19
_chemical_formula_sum   'Zn8 H36 C56 O38'
_cell_volume   4617.73195445
_cell_formula_units_Z   2
loop_
 _symmetry_equiv_pos_site_id
 _symmetry_equiv_pos_as_xyz
  1  'x, y, z'
loop_
 _atom_site_type_symbol
 _atom_site_label
 _atom_site_symmetry_multiplicity
 _atom_site_fract_x
 _atom_site_fract_y
 _atom_site_fract_z
 _atom_site_occupancy
  Zn  Zn0  1  0.88170000  0.28217000  0.56439000  1.0
  Zn  Zn1  1  0.28207000  0.68257000  0.56422000  1.0
  Zn  Zn2  1  0.68255000  0.28205000  0.56422000  1.0
  Zn  Zn3  1  0.31745000  0.71795000  0.43579000  1.0
  Zn  Zn4  1  0.71793000  0.31743000  0.43578000  1.0
  Zn  Zn5  1  0.11830000  0.71784000  0.43561000  1.0
  Zn  Zn6  1  0.71780000  0.11831000  0.43560000  1.0
  Zn  Zn7  1  0.28219000  0.88170000  0.56440000  1.0
  H  H8  1  0.83968000  0.33992000  0.01933000  1.0
  H  H9  1  0.32228000  0.90625000  0.03720000  1.0
  H  H10  1  0.37942000  0.80886000  0.02017000  1.0
  H  H11  1  0.26141000  0.79906000  0.96189000  1.0
  H  H12  1  0.94930000  0.30368000  0.03717000  1.0
  H  H13  1  0.84920000  0.22806000  0.96157000  1.0
  H  H14  1  0.05070000  0.69632000  0.96283000  1.0
  H  H15  1  0.16031000  0.66008000  0.98066000  1.0
  H  H16  1  0.15079000  0.77193000  0.03842000  1.0
  H  H17  1  0.62058000  0.19113000  0.97982000  1.0
  H  H18  1  0.67772000  0.09375000  0.96280000  1.0
  H  H19  1  0.73859000  0.20094000  0.03811000  1.0
  H  H20  1  0.13439000  0.31630000  0.96324000  1.0
  H  H21  1  0.05443000  0.25770000  0.97966000  1.0
  H  H22  1  0.17425000  0.28025000  0.03826000  1.0
  H  H23  1  0.94557000  0.74230000  0.02034000  1.0
  H  H24  1  0.86560000  0.68369000  0.03675000  1.0
  H  H25  1  0.82575000  0.71975000  0.96173000  1.0
  H  H26  1  0.71217000  0.90240000  0.03590000  1.0
  H  H27  1  0.74987000  0.99609000  0.02085000  1.0
  H  H28  1  0.74734000  0.88073000  0.96123000  1.0
  H  H29  1  0.25014000  0.00390000  0.97915000  1.0
  H  H30  1  0.28783000  0.09760000  0.96410000  1.0
  H  H31  1  0.25265000  0.11927000  0.03876000  1.0
  H  H32  1  0.76097000  0.43269000  0.96129000  1.0
  H  H33  1  0.75692000  0.55100000  0.97876000  1.0
  H  H34  1  0.73309000  0.50460000  0.03619000  1.0
  H  H35  1  0.24308000  0.44899000  0.02124000  1.0
  H  H36  1  0.23903000  0.56731000  0.03871000  1.0
  H  H37  1  0.26691000  0.49539000  0.96381000  1.0
  H  H38  1  0.52069000  0.24399000  0.03838000  1.0
  H  H39  1  0.40222000  0.22538000  0.02142000  1.0
  H  H40  1  0.43568000  0.26333000  0.96364000  1.0
  H  H41  1  0.59778000  0.77462000  0.97858000  1.0
  H  H42  1  0.47931000  0.75601000  0.96161000  1.0
  H  H43  1  0.56432000  0.73667000  0.03636000  1.0
  C  C44  1  0.64925000  0.14998000  0.29917000  1.0
  C  C45  1  0.03684000  0.53750000  0.07514000  1.0
  C  C46  1  0.28708000  0.07455000  0.00650000  1.0
  C  C47  1  0.11837000  0.30673000  0.00624000  1.0
  C  C48  1  0.88163000  0.69327000  0.99376000  1.0
  C  C49  1  0.71291000  0.92544000  0.99349000  1.0
  C  C50  1  0.77456000  0.50188000  0.00476000  1.0
  C  C51  1  0.22544000  0.49812000  0.99524000  1.0
  C  C52  1  0.45069000  0.22049000  0.99514000  1.0
  C  C53  1  0.54931000  0.77951000  0.00486000  1.0
  C  C54  1  0.53798000  0.03696000  0.07514000  1.0
  C  C55  1  0.46202000  0.96304000  0.92486000  1.0
  C  C56  1  0.96316000  0.46250000  0.92486000  1.0
  C  C57  1  0.92371000  0.42364000  0.84710000  1.0
  C  C58  1  0.07629000  0.57636000  0.15290000  1.0
  C  C59  1  0.57649000  0.07638000  0.15290000  1.0
  C  C60  1  0.35075000  0.85003000  0.70083000  1.0
  C  C61  1  0.42352000  0.92363000  0.84711000  1.0
  C  C62  1  0.52690000  0.02678000  0.49996000  1.0
  C  C63  1  0.47311000  0.97322000  0.50005000  1.0
  C  C64  1  0.97324000  0.47310000  0.50007000  1.0
  C  C65  1  0.02676000  0.52690000  0.49993000  1.0
  C  C66  1  0.85018000  0.35053000  0.70083000  1.0
  C  C67  1  0.52691000  0.47318000  0.50006000  1.0
  C  C68  1  0.47308000  0.52682000  0.49994000  1.0
  C  C69  1  0.90924000  0.40898000  0.50009000  1.0
  C  C70  1  0.09077000  0.59102000  0.49991000  1.0
  C  C71  1  0.59101000  0.09080000  0.49994000  1.0
  C  C72  1  0.14982000  0.64947000  0.29917000  1.0
  C  C73  1  0.40899000  0.90921000  0.50006000  1.0
  C  C74  1  0.59104000  0.40915000  0.50013000  1.0
  C  C75  1  0.40895000  0.59084000  0.49987000  1.0
  C  C76  1  0.90906000  0.09096000  0.49992000  1.0
  C  C77  1  0.09094000  0.90905000  0.50008000  1.0
  C  C78  1  0.97314000  0.02688000  0.49997000  1.0
  C  C79  1  0.02686000  0.97313000  0.50003000  1.0
  C  C80  1  0.05456000  0.44277000  0.02545000  1.0
  C  C81  1  0.94544000  0.55723000  0.97455000  1.0
  C  C82  1  0.56430000  0.96096000  0.97446000  1.0
  C  C83  1  0.43570000  0.03905000  0.02554000  1.0
  C  C84  1  0.94769000  0.41603000  0.97452000  1.0
  C  C85  1  0.05231000  0.58397000  0.02548000  1.0
  C  C86  1  0.57416000  0.06631000  0.02535000  1.0
  C  C87  1  0.42584000  0.93369000  0.97465000  1.0
  C  C88  1  0.88974000  0.39010000  0.77996000  1.0
  C  C89  1  0.11025000  0.60990000  0.22003000  1.0
  C  C90  1  0.60973000  0.11038000  0.22003000  1.0
  C  C91  1  0.39026000  0.88962000  0.77996000  1.0
  C  C92  1  0.06927000  0.48877000  0.97490000  1.0
  C  C93  1  0.93073000  0.51123000  0.02510000  1.0
  C  C94  1  0.52842000  0.93231000  0.02513000  1.0
  C  C95  1  0.47158000  0.06769000  0.97487000  1.0
  C  C96  1  0.88287000  0.29958000  0.99355000  1.0
  C  C97  1  0.11713000  0.70042000  0.00645000  1.0
  C  C98  1  0.67231000  0.15552000  0.00607000  1.0
  C  C99  1  0.32769000  0.84447000  0.99392000  1.0
  O  O100  1  0.75004000  0.24993000  0.50000000  1.0
  O  O101  1  0.33503000  0.90602000  0.66939000  1.0
  O  O102  1  0.90621000  0.33484000  0.66941000  1.0
  O  O103  1  0.09379000  0.66516000  0.33059000  1.0
  O  O104  1  0.82655000  0.39715000  0.45488000  1.0
  O  O105  1  0.17345000  0.60284000  0.54512000  1.0
  O  O106  1  0.60248000  0.17355000  0.54488000  1.0
  O  O107  1  0.39753000  0.82645000  0.45513000  1.0
  O  O108  1  0.24996000  0.75007000  0.50000000  1.0
  O  O109  1  0.62928000  0.39806000  0.45549000  1.0
  O  O110  1  0.37071000  0.60194000  0.54451000  1.0
  O  O111  1  0.60213000  0.37098000  0.54480000  1.0
  O  O112  1  0.39787000  0.62903000  0.45520000  1.0
  O  O113  1  0.82644000  0.05763000  0.45450000  1.0
  O  O114  1  0.17356000  0.94238000  0.54551000  1.0
  O  O115  1  0.94238000  0.17356000  0.54531000  1.0
  O  O116  1  0.05763000  0.82644000  0.45470000  1.0
  O  O117  1  0.94266000  0.37147000  0.54528000  1.0
  O  O118  1  0.05735000  0.62853000  0.45472000  1.0
  O  O119  1  0.62887000  0.05731000  0.45501000  1.0
  O  O120  1  0.37113000  0.94270000  0.54499000  1.0
  O  O121  1  0.66500000  0.23739000  0.33066000  1.0
  O  O122  1  0.33500000  0.76261000  0.66934000  1.0
  O  O123  1  0.76275000  0.33475000  0.66930000  1.0
  O  O124  1  0.23725000  0.66525000  0.33070000  1.0
  O  O125  1  0.66497000  0.09398000  0.33061000  1.0
  O  O126  1  0.89426000  0.33106000  0.94170000  1.0
  O  O127  1  0.10574000  0.66893000  0.05830000  1.0
  O  O128  1  0.64990000  0.13316000  0.05801000  1.0
  O  O129  1  0.35009000  0.86684000  0.94198000  1.0
  O  O130  1  0.11118000  0.39243000  0.05824000  1.0
  O  O131  1  0.88882000  0.60757000  0.94176000  1.0
  O  O132  1  0.62145000  0.91907000  0.94155000  1.0
  O  O133  1  0.37855000  0.08093000  0.05845000  1.0
  O  O134  1  0.86861000  0.52550000  0.05725000  1.0
  O  O135  1  0.13139000  0.47450000  0.94275000  1.0
  O  O136  1  0.44068000  0.12836000  0.94265000  1.0
  O  O137  1  0.55933000  0.87164000  0.05735000  1.0
