# generated using pymatgen
data_ZnH8C12(NO2)2
_symmetry_space_group_name_H-M   'P 1'
_cell_length_a   7.84578000
_cell_length_b   7.84578000
_cell_length_c   20.07990000
_cell_angle_alpha   90.00000000
_cell_angle_beta   89.99960000
_cell_angle_gamma   89.95300000
_symmetry_Int_Tables_number   1
_chemical_formula_structural   ZnH8C12(NO2)2
_chemical_formula_sum   'Zn4 H32 C48 N8 O16'
_cell_volume   1236.04320575
_cell_formula_units_Z   4
loop_
 _symmetry_equiv_pos_site_id
 _symmetry_equiv_pos_as_xyz
  1  'x, y, z'
loop_
 _atom_site_type_symbol
 _atom_site_label
 _atom_site_symmetry_multiplicity
 _atom_site_fract_x
 _atom_site_fract_y
 _atom_site_fract_z
 _atom_site_occupancy
  Zn  Zn0  1  0.67343000  0.32657000  0.00000000  1.0
  Zn  Zn1  1  0.32656000  0.67344000  0.50000000  1.0
  Zn  Zn2  1  0.82658000  0.82659000  0.25000000  1.0
  Zn  Zn3  1  0.17342000  0.17341000  0.75000000  1.0
  H  H4  1  0.69466000  0.69546000  0.01840000  1.0
  H  H5  1  0.30535000  0.30452000  0.51839000  1.0
  H  H6  1  0.19545000  0.80563000  0.26839000  1.0
  H  H7  1  0.80455000  0.19437000  0.76839000  1.0
  H  H8  1  0.80563000  0.19546000  0.23161000  1.0
  H  H9  1  0.19437000  0.80453000  0.73161000  1.0
  H  H10  1  0.30452000  0.30534000  0.98161000  1.0
  H  H11  1  0.69546000  0.69466000  0.48160000  1.0
  H  H12  1  0.53233000  0.94682000  0.83895000  1.0
  H  H13  1  0.46769000  0.05317000  0.33894000  1.0
  H  H14  1  0.44657000  0.96857000  0.08904000  1.0
  H  H15  1  0.55343000  0.03143000  0.58905000  1.0
  H  H16  1  0.96856000  0.44657000  0.41096000  1.0
  H  H17  1  0.03143000  0.55343000  0.91096000  1.0
  H  H18  1  0.05317000  0.46768000  0.16106000  1.0
  H  H19  1  0.94681000  0.53234000  0.66105000  1.0
  H  H20  1  0.49972000  0.65358000  0.78657000  1.0
  H  H21  1  0.50029000  0.34643000  0.28657000  1.0
  H  H22  1  0.15340000  0.00046000  0.03655000  1.0
  H  H23  1  0.84660000  0.99954000  0.53655000  1.0
  H  H24  1  0.00046000  0.15340000  0.46345000  1.0
  H  H25  1  0.99953000  0.84660000  0.96345000  1.0
  H  H26  1  0.34642000  0.50029000  0.21343000  1.0
  H  H27  1  0.65357000  0.49973000  0.71342000  1.0
  H  H28  1  0.56972000  0.39566000  0.85441000  1.0
  H  H29  1  0.43029000  0.60433000  0.35441000  1.0
  H  H30  1  0.89552000  0.92985000  0.10428000  1.0
  H  H31  1  0.10448000  0.07015000  0.60428000  1.0
  H  H32  1  0.92986000  0.89553000  0.39572000  1.0
  H  H33  1  0.07015000  0.10447000  0.89572000  1.0
  H  H34  1  0.60433000  0.43029000  0.14559000  1.0
  H  H35  1  0.39566000  0.56973000  0.64559000  1.0
  C  C36  1  0.65146000  0.69045000  0.96674000  1.0
  C  C37  1  0.34855000  0.30954000  0.46673000  1.0
  C  C38  1  0.19045000  0.84884000  0.21673000  1.0
  C  C39  1  0.80955000  0.15117000  0.71673000  1.0
  C  C40  1  0.84884000  0.19045000  0.28327000  1.0
  C  C41  1  0.15117000  0.80954000  0.78327000  1.0
  C  C42  1  0.30954000  0.34853000  0.03327000  1.0
  C  C43  1  0.69045000  0.65147000  0.53326000  1.0
  C  C44  1  0.61674000  0.84083000  0.93229000  1.0
  C  C45  1  0.38328000  0.15916000  0.43228000  1.0
  C  C46  1  0.34079000  0.88384000  0.18233000  1.0
  C  C47  1  0.65921000  0.11615000  0.68233000  1.0
  C  C48  1  0.88384000  0.34080000  0.31767000  1.0
  C  C49  1  0.11616000  0.65920000  0.81767000  1.0
  C  C50  1  0.15915000  0.38327000  0.06772000  1.0
  C  C51  1  0.84083000  0.61675000  0.56771000  1.0
  C  C52  1  0.56107000  0.82981000  0.86624000  1.0
  C  C53  1  0.43895000  0.17020000  0.36623000  1.0
  C  C54  1  0.32958000  0.93950000  0.11627000  1.0
  C  C55  1  0.67043000  0.06050000  0.61627000  1.0
  C  C56  1  0.93949000  0.32958000  0.38373000  1.0
  C  C57  1  0.06050000  0.67041000  0.88373000  1.0
  C  C58  1  0.17019000  0.43894000  0.13377000  1.0
  C  C59  1  0.82980000  0.56108000  0.63377000  1.0
  C  C60  1  0.54444000  0.66873000  0.83754000  1.0
  C  C61  1  0.45558000  0.33127000  0.33754000  1.0
  C  C62  1  0.16852000  0.95576000  0.08752000  1.0
  C  C63  1  0.83149000  0.04424000  0.58752000  1.0
  C  C64  1  0.95576000  0.16852000  0.41248000  1.0
  C  C65  1  0.04423000  0.83148000  0.91248000  1.0
  C  C66  1  0.33126000  0.45557000  0.16246000  1.0
  C  C67  1  0.66873000  0.54445000  0.66246000  1.0
  C  C68  1  0.58245000  0.52393000  0.87497000  1.0
  C  C69  1  0.41756000  0.47607000  0.37497000  1.0
  C  C70  1  0.02379000  0.91743000  0.12488000  1.0
  C  C71  1  0.97622000  0.08257000  0.62489000  1.0
  C  C72  1  0.91743000  0.02379000  0.37512000  1.0
  C  C73  1  0.08257000  0.97621000  0.87511000  1.0
  C  C74  1  0.47606000  0.41755000  0.12503000  1.0
  C  C75  1  0.52392000  0.58246000  0.62503000  1.0
  C  C76  1  0.64404000  0.00723000  0.96725000  1.0
  C  C77  1  0.35597000  0.99275000  0.46723000  1.0
  C  C78  1  0.50736000  0.85651000  0.21718000  1.0
  C  C79  1  0.49264000  0.14349000  0.71718000  1.0
  C  C80  1  0.85651000  0.50736000  0.28282000  1.0
  C  C81  1  0.14350000  0.49263000  0.78282000  1.0
  C  C82  1  0.99275000  0.35597000  0.03276000  1.0
  C  C83  1  0.00723000  0.64405000  0.53275000  1.0
  N  N84  1  0.63484000  0.53583000  0.93884000  1.0
  N  N85  1  0.36516000  0.46416000  0.43883000  1.0
  N  N86  1  0.03580000  0.86512000  0.18877000  1.0
  N  N87  1  0.96420000  0.13489000  0.68877000  1.0
  N  N88  1  0.86512000  0.03581000  0.31123000  1.0
  N  N89  1  0.13489000  0.96419000  0.81123000  1.0
  N  N90  1  0.46415000  0.36515000  0.06117000  1.0
  N  N91  1  0.53583000  0.63485000  0.56116000  1.0
  O  O92  1  0.60176000  0.14367000  0.93545000  1.0
  O  O93  1  0.39826000  0.85632000  0.43544000  1.0
  O  O94  1  0.64364000  0.89925000  0.18544000  1.0
  O  O95  1  0.35636000  0.10074000  0.68544000  1.0
  O  O96  1  0.89924000  0.64364000  0.31456000  1.0
  O  O97  1  0.10078000  0.35635000  0.81456000  1.0
  O  O98  1  0.85632000  0.39825000  0.06456000  1.0
  O  O99  1  0.14367000  0.60176000  0.56455000  1.0
  O  O100  1  0.70638000  0.00811000  0.02498000  1.0
  O  O101  1  0.29362000  0.99187000  0.52497000  1.0
  O  O102  1  0.50850000  0.79348000  0.27481000  1.0
  O  O103  1  0.49149000  0.20650000  0.77481000  1.0
  O  O104  1  0.79347000  0.50850000  0.22519000  1.0
  O  O105  1  0.20650000  0.49149000  0.72518000  1.0
  O  O106  1  0.99188000  0.29363000  0.97503000  1.0
  O  O107  1  0.00811000  0.70639000  0.47502000  1.0
