# generated using pymatgen
data_MgH8C6(NO3)2
_symmetry_space_group_name_H-M   'P 1'
_cell_length_a   7.44513000
_cell_length_b   10.65560000
_cell_length_c   12.05670000
_cell_angle_alpha   103.79600000
_cell_angle_beta   89.99990000
_cell_angle_gamma   89.99980000
_symmetry_Int_Tables_number   1
_chemical_formula_structural   MgH8C6(NO3)2
_chemical_formula_sum   'Mg4 H32 C24 N8 O24'
_cell_volume   928.89233641
_cell_formula_units_Z   4
loop_
 _symmetry_equiv_pos_site_id
 _symmetry_equiv_pos_as_xyz
  1  'x, y, z'
loop_
 _atom_site_type_symbol
 _atom_site_label
 _atom_site_symmetry_multiplicity
 _atom_site_fract_x
 _atom_site_fract_y
 _atom_site_fract_z
 _atom_site_occupancy
  Mg  Mg0  1  0.99834000  0.56934000  0.81848000  1.0
  Mg  Mg1  1  0.49835000  0.93066000  0.68152000  1.0
  Mg  Mg2  1  0.00165000  0.43067000  0.18152000  1.0
  Mg  Mg3  1  0.50165000  0.06934000  0.31848000  1.0
  H  H4  1  0.67392000  0.47881000  0.85297000  1.0
  H  H5  1  0.17393000  0.02118000  0.64702000  1.0
  H  H6  1  0.32608000  0.52119000  0.14703000  1.0
  H  H7  1  0.82607000  0.97882000  0.35297000  1.0
  H  H8  1  0.80677000  0.46037000  0.95164000  1.0
  H  H9  1  0.30678000  0.03963000  0.54836000  1.0
  H  H10  1  0.19324000  0.53963000  0.04836000  1.0
  H  H11  1  0.69323000  0.96038000  0.45164000  1.0
  H  H12  1  0.01458000  0.31212000  0.81141000  1.0
  H  H13  1  0.51457000  0.18787000  0.68860000  1.0
  H  H14  1  0.98543000  0.68787000  0.18859000  1.0
  H  H15  1  0.48543000  0.81213000  0.31140000  1.0
  H  H16  1  0.18829000  0.34664000  0.74022000  1.0
  H  H17  1  0.68829000  0.15336000  0.75978000  1.0
  H  H18  1  0.81171000  0.65336000  0.25978000  1.0
  H  H19  1  0.31171000  0.84663000  0.24022000  1.0
  H  H20  1  0.72260000  0.47941000  0.39560000  1.0
  H  H21  1  0.22261000  0.02059000  0.10440000  1.0
  H  H22  1  0.27739000  0.52059000  0.60440000  1.0
  H  H23  1  0.77739000  0.97941000  0.89560000  1.0
  H  H24  1  0.93397000  0.30475000  0.60559000  1.0
  H  H25  1  0.43396000  0.19524000  0.89441000  1.0
  H  H26  1  0.06603000  0.69525000  0.39441000  1.0
  H  H27  1  0.56603000  0.80476000  0.10559000  1.0
  H  H28  1  0.90767000  0.28460000  0.45483000  1.0
  H  H29  1  0.40767000  0.21541000  0.04517000  1.0
  H  H30  1  0.09233000  0.71540000  0.54517000  1.0
  H  H31  1  0.59233000  0.78459000  0.95483000  1.0
  H  H32  1  0.72084000  0.26782000  0.53883000  1.0
  H  H33  1  0.22084000  0.23218000  0.96117000  1.0
  H  H34  1  0.27916000  0.73219000  0.46118000  1.0
  H  H35  1  0.77916000  0.76781000  0.03883000  1.0
  C  C36  1  0.78218000  0.66755000  0.64475000  1.0
  C  C37  1  0.28219000  0.83245000  0.85525000  1.0
  C  C38  1  0.21782000  0.33245000  0.35525000  1.0
  C  C39  1  0.71781000  0.16755000  0.14475000  1.0
  C  C40  1  0.72058000  0.65296000  0.53287000  1.0
  C  C41  1  0.22059000  0.84704000  0.96713000  1.0
  C  C42  1  0.27942000  0.34704000  0.46713000  1.0
  C  C43  1  0.77942000  0.15296000  0.03287000  1.0
  C  C44  1  0.81048000  0.46290000  0.55944000  1.0
  C  C45  1  0.31048000  0.03710000  0.94057000  1.0
  C  C46  1  0.18952000  0.53710000  0.44056000  1.0
  C  C47  1  0.68952000  0.96290000  0.05943000  1.0
  C  C48  1  0.80457000  0.77731000  0.74665000  1.0
  C  C49  1  0.30456000  0.72268000  0.75335000  1.0
  C  C50  1  0.19543000  0.22269000  0.25335000  1.0
  C  C51  1  0.69544000  0.27732000  0.24665000  1.0
  C  C52  1  0.65459000  0.74480000  0.46813000  1.0
  C  C53  1  0.15458000  0.75520000  0.03188000  1.0
  C  C54  1  0.34541000  0.25520000  0.53187000  1.0
  C  C55  1  0.84542000  0.24480000  0.96813000  1.0
  C  C56  1  0.84563000  0.32238000  0.53837000  1.0
  C  C57  1  0.34563000  0.17761000  0.96163000  1.0
  C  C58  1  0.15437000  0.67762000  0.46163000  1.0
  C  C59  1  0.65437000  0.82239000  0.03837000  1.0
  N  N60  1  0.83932000  0.54894000  0.65855000  1.0
  N  N61  1  0.33933000  0.95105000  0.84145000  1.0
  N  N62  1  0.16068000  0.45106000  0.34145000  1.0
  N  N63  1  0.66068000  0.04895000  0.15855000  1.0
  N  N64  1  0.74090000  0.52339000  0.48201000  1.0
  N  N65  1  0.24090000  0.97661000  0.01799000  1.0
  N  N66  1  0.25910000  0.47661000  0.51798000  1.0
  N  N67  1  0.75910000  0.02339000  0.98201000  1.0
  O  O68  1  0.89790000  0.75274000  0.82673000  1.0
  O  O69  1  0.39788000  0.74725000  0.67327000  1.0
  O  O70  1  0.10211000  0.24726000  0.17326000  1.0
  O  O71  1  0.60211000  0.25275000  0.32673000  1.0
  O  O72  1  0.73283000  0.88788000  0.75361000  1.0
  O  O73  1  0.23282000  0.61212000  0.74639000  1.0
  O  O74  1  0.26718000  0.11212000  0.24639000  1.0
  O  O75  1  0.76718000  0.38788000  0.25360000  1.0
  O  O76  1  0.61844000  0.86065000  0.52376000  1.0
  O  O77  1  0.11843000  0.63935000  0.97624000  1.0
  O  O78  1  0.38155000  0.13934000  0.47624000  1.0
  O  O79  1  0.88156000  0.36065000  0.02376000  1.0
  O  O80  1  0.63845000  0.70728000  0.36005000  1.0
  O  O81  1  0.13844000  0.79273000  0.13995000  1.0
  O  O82  1  0.36155000  0.29273000  0.63995000  1.0
  O  O83  1  0.86156000  0.20727000  0.86005000  1.0
  O  O84  1  0.77164000  0.52004000  0.90168000  1.0
  O  O85  1  0.27166000  0.97996000  0.59831000  1.0
  O  O86  1  0.22836000  0.47996000  0.09832000  1.0
  O  O87  1  0.72835000  0.02004000  0.40169000  1.0
  O  O88  1  0.08687000  0.38207000  0.79130000  1.0
  O  O89  1  0.58687000  0.11793000  0.70871000  1.0
  O  O90  1  0.91313000  0.61793000  0.20870000  1.0
  O  O91  1  0.41313000  0.88207000  0.29129000  1.0
