# generated using pymatgen
data_NiH5C5NCl2
_symmetry_space_group_name_H-M   'P 1'
_cell_length_a   3.50561000
_cell_length_b   8.83554000
_cell_length_c   11.00070000
_cell_angle_alpha   75.63850000
_cell_angle_beta   81.00560000
_cell_angle_gamma   78.67090000
_symmetry_Int_Tables_number   1
_chemical_formula_structural   NiH5C5NCl2
_chemical_formula_sum   'Ni2 H10 C10 N2 Cl4'
_cell_volume   321.57176801
_cell_formula_units_Z   2
loop_
 _symmetry_equiv_pos_site_id
 _symmetry_equiv_pos_as_xyz
  1  'x, y, z'
loop_
 _atom_site_type_symbol
 _atom_site_label
 _atom_site_symmetry_multiplicity
 _atom_site_fract_x
 _atom_site_fract_y
 _atom_site_fract_z
 _atom_site_occupancy
  Ni  Ni0  1  0.33388000  0.46512000  0.86229000  1.0
  Ni  Ni1  1  0.66612000  0.53488000  0.13770000  1.0
  H  H2  1  0.47323000  0.44280000  0.59763000  1.0
  H  H3  1  0.52677000  0.55720000  0.40237000  1.0
  H  H4  1  0.47407000  0.11509000  0.93756000  1.0
  H  H5  1  0.52594000  0.88491000  0.06244000  1.0
  H  H6  1  0.64458000  0.23193000  0.47383000  1.0
  H  H7  1  0.35542000  0.76807000  0.52617000  1.0
  H  H8  1  0.64895000  0.88624000  0.82937000  1.0
  H  H9  1  0.35104000  0.11376000  0.17063000  1.0
  H  H10  1  0.73553000  0.94442000  0.59457000  1.0
  H  H11  1  0.26446000  0.05558000  0.40543000  1.0
  C  C12  1  0.51576000  0.31779000  0.64413000  1.0
  C  C13  1  0.48424000  0.68221000  0.35587000  1.0
  C  C14  1  0.51612000  0.13361000  0.83515000  1.0
  C  C15  1  0.48388000  0.86639000  0.16485000  1.0
  C  C16  1  0.61091000  0.19902000  0.57674000  1.0
  C  C17  1  0.38909000  0.80098000  0.42326000  1.0
  C  C18  1  0.61188000  0.00818000  0.77487000  1.0
  C  C19  1  0.38812000  0.99182000  0.22513000  1.0
  C  C20  1  0.66014000  0.04149000  0.64330000  1.0
  C  C21  1  0.33986000  0.95851000  0.35670000  1.0
  N  N22  1  0.46922000  0.28593000  0.77113000  1.0
  N  N23  1  0.53079000  0.71407000  0.22887000  1.0
  Cl  Cl24  1  0.82616000  0.33971000  0.00649000  1.0
  Cl  Cl25  1  0.17384000  0.66029000  0.99351000  1.0
  Cl  Cl26  1  0.82886000  0.60260000  0.73515000  1.0
  Cl  Cl27  1  0.17114000  0.39740000  0.26485000  1.0
