# generated using pymatgen
data_ZnH4C6N4O3
_symmetry_space_group_name_H-M   'P 1'
_cell_length_a   5.98703000
_cell_length_b   8.24146000
_cell_length_c   16.01190000
_cell_angle_alpha   101.00200000
_cell_angle_beta   89.99990000
_cell_angle_gamma   89.99980000
_symmetry_Int_Tables_number   1
_chemical_formula_structural   ZnH4C6N4O3
_chemical_formula_sum   'Zn4 H16 C24 N16 O12'
_cell_volume   775.53622437
_cell_formula_units_Z   4
loop_
 _symmetry_equiv_pos_site_id
 _symmetry_equiv_pos_as_xyz
  1  'x, y, z'
loop_
 _atom_site_type_symbol
 _atom_site_label
 _atom_site_symmetry_multiplicity
 _atom_site_fract_x
 _atom_site_fract_y
 _atom_site_fract_z
 _atom_site_occupancy
  Zn  Zn0  1  0.92513000  0.08138000  0.22652000  1.0
  Zn  Zn1  1  0.42513000  0.91862000  0.27348000  1.0
  Zn  Zn2  1  0.07487000  0.91862000  0.77348000  1.0
  Zn  Zn3  1  0.57487000  0.08138000  0.72652000  1.0
  H  H4  1  0.93351000  0.87938000  0.94873000  1.0
  H  H5  1  0.43350000  0.12063000  0.55127000  1.0
  H  H6  1  0.06649000  0.12063000  0.05127000  1.0
  H  H7  1  0.56649000  0.87937000  0.44873000  1.0
  H  H8  1  0.58844000  0.53905000  0.77003000  1.0
  H  H9  1  0.08843000  0.46095000  0.72997000  1.0
  H  H10  1  0.41157000  0.46094000  0.22996000  1.0
  H  H11  1  0.91157000  0.53905000  0.27003000  1.0
  H  H12  1  0.28472000  0.51098000  0.87462000  1.0
  H  H13  1  0.78471000  0.48902000  0.62538000  1.0
  H  H14  1  0.71530000  0.48902000  0.12538000  1.0
  H  H15  1  0.21530000  0.51098000  0.37462000  1.0
  H  H16  1  0.31573000  0.67323000  0.02409000  1.0
  H  H17  1  0.81572000  0.32677000  0.47591000  1.0
  H  H18  1  0.68428000  0.32676000  0.97591000  1.0
  H  H19  1  0.18427000  0.67324000  0.52409000  1.0
  C  C20  1  0.78499000  0.80218000  0.93696000  1.0
  C  C21  1  0.28500000  0.19782000  0.56305000  1.0
  C  C22  1  0.21500000  0.19782000  0.06304000  1.0
  C  C23  1  0.71499000  0.80218000  0.43696000  1.0
  C  C24  1  0.58772000  0.60899000  0.83490000  1.0
  C  C25  1  0.08771000  0.39101000  0.66510000  1.0
  C  C26  1  0.41229000  0.39100000  0.16509000  1.0
  C  C27  1  0.91229000  0.60900000  0.33491000  1.0
  C  C28  1  0.42366000  0.59500000  0.89369000  1.0
  C  C29  1  0.92366000  0.40499000  0.60631000  1.0
  C  C30  1  0.57634000  0.40499000  0.10631000  1.0
  C  C31  1  0.07635000  0.59500000  0.39369000  1.0
  C  C32  1  0.62462000  0.78884000  0.99819000  1.0
  C  C33  1  0.12462000  0.21116000  0.50181000  1.0
  C  C34  1  0.37538000  0.21115000  0.00181000  1.0
  C  C35  1  0.87538000  0.78884000  0.49819000  1.0
  C  C36  1  0.44053000  0.68516000  0.97630000  1.0
  C  C37  1  0.94053000  0.31484000  0.52370000  1.0
  C  C38  1  0.55948000  0.31482000  0.02369000  1.0
  C  C39  1  0.05947000  0.68517000  0.47630000  1.0
  C  C40  1  0.65611000  0.87843000  0.08875000  1.0
  C  C41  1  0.15612000  0.12158000  0.41125000  1.0
  C  C42  1  0.34388000  0.12156000  0.91125000  1.0
  C  C43  1  0.84388000  0.87844000  0.58875000  1.0
  N  N44  1  0.07541000  0.74886000  0.17132000  1.0
  N  N45  1  0.57542000  0.25116000  0.32869000  1.0
  N  N46  1  0.92459000  0.25116000  0.82869000  1.0
  N  N47  1  0.42458000  0.74885000  0.67132000  1.0
  N  N48  1  0.76396000  0.71258000  0.85696000  1.0
  N  N49  1  0.26395000  0.28742000  0.64304000  1.0
  N  N50  1  0.23604000  0.28742000  0.14304000  1.0
  N  N51  1  0.73605000  0.71258000  0.35696000  1.0
  N  N52  1  0.10851000  0.87085000  0.22576000  1.0
  N  N53  1  0.60851000  0.12914000  0.27424000  1.0
  N  N54  1  0.89149000  0.12914000  0.77424000  1.0
  N  N55  1  0.39149000  0.87085000  0.72576000  1.0
  N  N56  1  0.03999000  0.63142000  0.12073000  1.0
  N  N57  1  0.54000000  0.36857000  0.37927000  1.0
  N  N58  1  0.96000000  0.36857000  0.87927000  1.0
  N  N59  1  0.46001000  0.63142000  0.62073000  1.0
  O  O60  1  0.81009000  0.98773000  0.10270000  1.0
  O  O61  1  0.31009000  0.01227000  0.39730000  1.0
  O  O62  1  0.18991000  0.01226000  0.89729000  1.0
  O  O63  1  0.68990000  0.98774000  0.60271000  1.0
  O  O64  1  0.52915000  0.83437000  0.14335000  1.0
  O  O65  1  0.02916000  0.16564000  0.35665000  1.0
  O  O66  1  0.47085000  0.16563000  0.85665000  1.0
  O  O67  1  0.97085000  0.83436000  0.64335000  1.0
  O  O68  1  0.91975000  0.71599000  0.79774000  1.0
  O  O69  1  0.41974000  0.28400000  0.70226000  1.0
  O  O70  1  0.08025000  0.28401000  0.20226000  1.0
  O  O71  1  0.58026000  0.71600000  0.29774000  1.0
