# generated using pymatgen
data_CsH4C5(NO2)3
_symmetry_space_group_name_H-M   'P 1'
_cell_length_a   4.81390000
_cell_length_b   9.53966000
_cell_length_c   20.33430000
_cell_angle_alpha   89.99990000
_cell_angle_beta   90.00000000
_cell_angle_gamma   95.48000000
_symmetry_Int_Tables_number   1
_chemical_formula_structural   CsH4C5(NO2)3
_chemical_formula_sum   'Cs4 H16 C20 N12 O24'
_cell_volume   929.54353691
_cell_formula_units_Z   4
loop_
 _symmetry_equiv_pos_site_id
 _symmetry_equiv_pos_as_xyz
  1  'x, y, z'
loop_
 _atom_site_type_symbol
 _atom_site_label
 _atom_site_symmetry_multiplicity
 _atom_site_fract_x
 _atom_site_fract_y
 _atom_site_fract_z
 _atom_site_occupancy
  Cs  Cs0  1  0.39347000  0.13564000  0.18897000  1.0
  Cs  Cs1  1  0.10653000  0.36436000  0.68897000  1.0
  Cs  Cs2  1  0.60653000  0.86436000  0.81103000  1.0
  Cs  Cs3  1  0.89346000  0.63564000  0.31103000  1.0
  H  H4  1  0.97822000  0.40718000  0.45123000  1.0
  H  H5  1  0.52179000  0.09282000  0.95123000  1.0
  H  H6  1  0.02179000  0.59282000  0.54877000  1.0
  H  H7  1  0.47821000  0.90718000  0.04877000  1.0
  H  H8  1  0.29049000  0.08459000  0.46665000  1.0
  H  H9  1  0.20951000  0.41541000  0.96665000  1.0
  H  H10  1  0.70951000  0.91541000  0.53335000  1.0
  H  H11  1  0.79049000  0.58459000  0.03335000  1.0
  H  H12  1  0.84526000  0.93266000  0.23801000  1.0
  H  H13  1  0.65474000  0.56734000  0.73801000  1.0
  H  H14  1  0.15474000  0.06734000  0.76199000  1.0
  H  H15  1  0.34526000  0.43266000  0.26199000  1.0
  H  H16  1  0.74775000  0.83948000  0.17578000  1.0
  H  H17  1  0.75225000  0.66052000  0.67578000  1.0
  H  H18  1  0.25225000  0.16052000  0.82422000  1.0
  H  H19  1  0.24775000  0.33948000  0.32422000  1.0
  C  C20  1  0.80894000  0.13910000  0.34833000  1.0
  C  C21  1  0.69106000  0.36090000  0.84833000  1.0
  C  C22  1  0.19106000  0.86090000  0.65167000  1.0
  C  C23  1  0.30894000  0.63910000  0.15167000  1.0
  C  C24  1  0.86053000  0.31271000  0.43176000  1.0
  C  C25  1  0.63947000  0.18729000  0.93176000  1.0
  C  C26  1  0.13947000  0.68729000  0.56824000  1.0
  C  C27  1  0.36053000  0.81271000  0.06824000  1.0
  C  C28  1  0.62140000  0.25384000  0.46565000  1.0
  C  C29  1  0.87860000  0.24616000  0.96565000  1.0
  C  C30  1  0.37860000  0.74616000  0.53435000  1.0
  C  C31  1  0.12139000  0.75384000  0.03435000  1.0
  C  C32  1  0.47394000  0.13288000  0.44128000  1.0
  C  C33  1  0.02606000  0.36712000  0.94128000  1.0
  C  C34  1  0.52606000  0.86711000  0.55872000  1.0
  C  C35  1  0.97394000  0.63289000  0.05872000  1.0
  C  C36  1  0.56619000  0.07373000  0.38411000  1.0
  C  C37  1  0.93381000  0.42627000  0.88411000  1.0
  C  C38  1  0.43381000  0.92627000  0.61589000  1.0
  C  C39  1  0.06619000  0.57373000  0.11589000  1.0
  N  N40  1  0.40765000  0.94666000  0.36201000  1.0
  N  N41  1  0.09235000  0.55334000  0.86201000  1.0
  N  N42  1  0.59235000  0.05334000  0.63799000  1.0
  N  N43  1  0.90764000  0.44666000  0.13799000  1.0
  N  N44  1  0.53033000  0.31681000  0.52464000  1.0
  N  N45  1  0.96967000  0.18319000  0.02464000  1.0
  N  N46  1  0.46967000  0.68319000  0.47536000  1.0
  N  N47  1  0.03032000  0.81681000  0.97536000  1.0
  N  N48  1  0.94871000  0.25943000  0.37674000  1.0
  N  N49  1  0.55129000  0.24057000  0.87674000  1.0
  N  N50  1  0.05129000  0.74057000  0.62325000  1.0
  N  N51  1  0.44871000  0.75943000  0.12326000  1.0
  O  O52  1  0.91382000  0.88128000  0.20038000  1.0
  O  O53  1  0.58617000  0.61872000  0.70038000  1.0
  O  O54  1  0.08618000  0.11872000  0.79962000  1.0
  O  O55  1  0.41383000  0.38128000  0.29962000  1.0
  O  O56  1  0.89973000  0.09611000  0.29506000  1.0
  O  O57  1  0.60027000  0.40390000  0.79506000  1.0
  O  O58  1  0.10027000  0.90389000  0.70494000  1.0
  O  O59  1  0.39973000  0.59610000  0.20494000  1.0
  O  O60  1  0.47504000  0.88841000  0.31001000  1.0
  O  O61  1  0.02496000  0.61159000  0.81001000  1.0
  O  O62  1  0.52496000  0.11159000  0.68999000  1.0
  O  O63  1  0.97504000  0.38841000  0.18999000  1.0
  O  O64  1  0.20481000  0.89756000  0.39610000  1.0
  O  O65  1  0.29519000  0.60244000  0.89610000  1.0
  O  O66  1  0.79519000  0.10244000  0.60390000  1.0
  O  O67  1  0.70481000  0.39756000  0.10390000  1.0
  O  O68  1  0.30437000  0.26712000  0.54960000  1.0
  O  O69  1  0.19563000  0.23288000  0.04960000  1.0
  O  O70  1  0.69563000  0.73288000  0.45040000  1.0
  O  O71  1  0.80437000  0.76712000  0.95040000  1.0
  O  O72  1  0.67838000  0.41844000  0.54913000  1.0
  O  O73  1  0.82163000  0.08156000  0.04913000  1.0
  O  O74  1  0.32162000  0.58156000  0.45087000  1.0
  O  O75  1  0.17838000  0.91844000  0.95087000  1.0
