# generated using pymatgen
data_NaH9C8(NO2)2
_symmetry_space_group_name_H-M   'P 1'
_cell_length_a   7.16741000
_cell_length_b   7.35148000
_cell_length_c   8.80381000
_cell_angle_alpha   103.71400000
_cell_angle_beta   93.82650000
_cell_angle_gamma   91.22690000
_symmetry_Int_Tables_number   1
_chemical_formula_structural   NaH9C8(NO2)2
_chemical_formula_sum   'Na2 H18 C16 N4 O8'
_cell_volume   449.32097964
_cell_formula_units_Z   2
loop_
 _symmetry_equiv_pos_site_id
 _symmetry_equiv_pos_as_xyz
  1  'x, y, z'
loop_
 _atom_site_type_symbol
 _atom_site_label
 _atom_site_symmetry_multiplicity
 _atom_site_fract_x
 _atom_site_fract_y
 _atom_site_fract_z
 _atom_site_occupancy
  Na  Na0  1  0.00000000  0.00000000  0.00000000  1.0
  Na  Na1  1  0.50000000  0.00000000  0.00000000  1.0
  H  H2  1  0.12661000  0.30549000  0.29680000  1.0
  H  H3  1  0.87339000  0.69451000  0.70320000  1.0
  H  H4  1  0.14216000  0.47272000  0.58758000  1.0
  H  H5  1  0.85784000  0.52728000  0.41242000  1.0
  H  H6  1  0.32911000  0.80323000  0.63473000  1.0
  H  H7  1  0.67089000  0.19677000  0.36527000  1.0
  H  H8  1  0.36086000  0.57260000  0.37433000  1.0
  H  H9  1  0.63914000  0.42739000  0.62567000  1.0
  H  H10  1  0.28984000  0.66764000  0.12711000  1.0
  H  H11  1  0.71016000  0.33235000  0.87289000  1.0
  H  H12  1  0.92511000  0.43565000  0.13144000  1.0
  H  H13  1  0.07489000  0.56435000  0.86856000  1.0
  H  H14  1  0.10573000  0.36692000  0.04655000  1.0
  H  H15  1  0.89427000  0.63308000  0.95344000  1.0
  H  H16  1  0.60535000  0.42678000  0.13484000  1.0
  H  H17  1  0.39464000  0.57323000  0.86516000  1.0
  H  H18  1  0.40726000  0.35721000  0.05781000  1.0
  H  H19  1  0.59273000  0.64279000  0.94218000  1.0
  C  C20  1  0.17301000  0.32632000  0.54586000  1.0
  C  C21  1  0.82699000  0.67368000  0.45414000  1.0
  C  C22  1  0.21783000  0.19477000  0.63166000  1.0
  C  C23  1  0.78218000  0.80523000  0.36834000  1.0
  C  C24  1  0.24553000  0.02204000  0.51880000  1.0
  C  C25  1  0.75447000  0.97796000  0.48120000  1.0
  C  C26  1  0.29926000  0.84138000  0.52349000  1.0
  C  C27  1  0.70074000  0.15862000  0.47651000  1.0
  C  C28  1  0.31540000  0.71431000  0.38010000  1.0
  C  C29  1  0.68460000  0.28569000  0.61990000  1.0
  C  C30  1  0.27781000  0.76795000  0.23870000  1.0
  C  C31  1  0.72219000  0.23204000  0.76130000  1.0
  C  C32  1  0.21484000  0.06099000  0.36808000  1.0
  C  C33  1  0.78517000  0.93901000  0.63192000  1.0
  C  C34  1  0.23278000  0.22402000  0.80158000  1.0
  C  C35  1  0.76722000  0.77599000  0.19842000  1.0
  N  N36  1  0.17056000  0.24657000  0.38912000  1.0
  N  N37  1  0.82944000  0.75342000  0.61088000  1.0
  N  N38  1  0.22836000  0.94090000  0.22910000  1.0
  N  N39  1  0.77164000  0.05910000  0.77090000  1.0
  O  O40  1  0.23211000  0.39488000  0.88982000  1.0
  O  O41  1  0.76789000  0.60513000  0.11018000  1.0
  O  O42  1  0.24642000  0.08367000  0.86110000  1.0
  O  O43  1  0.75358000  0.91633000  0.13890000  1.0
  O  O44  1  0.01989000  0.33767000  0.12272000  1.0
  O  O45  1  0.98011000  0.66233000  0.87728000  1.0
  O  O46  1  0.50938000  0.32548000  0.12633000  1.0
  O  O47  1  0.49061000  0.67452000  0.87367000  1.0
