# generated using pymatgen
data_Al3H34C42O17
_symmetry_space_group_name_H-M   'P 1'
_cell_length_a   12.55600000
_cell_length_b   12.60920330
_cell_length_c   28.48990000
_cell_angle_alpha   89.45561931
_cell_angle_beta   89.61540000
_cell_angle_gamma   60.42801718
_symmetry_Int_Tables_number   1
_chemical_formula_structural   Al3H34C42O17
_chemical_formula_sum   'Al6 H68 C84 O34'
_cell_volume   3922.80505569
_cell_formula_units_Z   2
loop_
 _symmetry_equiv_pos_site_id
 _symmetry_equiv_pos_as_xyz
  1  'x, y, z'
loop_
 _atom_site_type_symbol
 _atom_site_label
 _atom_site_symmetry_multiplicity
 _atom_site_fract_x
 _atom_site_fract_y
 _atom_site_fract_z
 _atom_site_occupancy
  Al  Al0  1  0.40924000  0.40595000  0.50101000  1.0
  Al  Al1  1  0.41761000  0.65702000  0.49964000  1.0
  Al  Al2  1  0.65631000  0.42294000  0.49929000  1.0
  Al  Al3  1  0.93062000  0.92314000  0.99986000  1.0
  Al  Al4  1  0.67680000  0.91874000  0.99994000  1.0
  Al  Al5  1  0.91036000  0.67859000  0.00067000  1.0
  H  H6  1  0.47113000  0.74884000  0.78553000  1.0
  H  H7  1  0.86614000  0.06691000  0.70478000  1.0
  H  H8  1  0.87176000  0.04369000  0.78616000  1.0
  H  H9  1  0.79984000  0.95427000  0.78144000  1.0
  H  H10  1  0.47291000  0.24930000  0.70953000  1.0
  H  H11  1  0.55507000  0.09043000  0.70115000  1.0
  H  H12  1  0.57729000  0.36787000  0.71800000  1.0
  H  H13  1  0.58899000  0.34370000  0.79862000  1.0
  H  H14  1  0.56650000  0.05816000  0.78273000  1.0
  H  H15  1  0.27579000  0.47511000  0.79405000  1.0
  H  H16  1  0.52233000  0.87776000  0.71470000  1.0
  H  H17  1  0.31427000  0.47403000  0.71370000  1.0
  H  H18  1  0.99239000  0.71118000  0.69595000  1.0
  H  H19  1  0.09455000  0.55358000  0.70266000  1.0
  H  H20  1  0.04438000  0.57321000  0.78286000  1.0
  H  H21  1  0.95581000  0.73307000  0.77711000  1.0
  H  H22  1  0.22748000  0.80856000  0.71482000  1.0
  H  H23  1  0.07065000  0.86082000  0.70837000  1.0
  H  H24  1  0.21163000  0.79813000  0.79723000  1.0
  H  H25  1  0.34316000  0.56766000  0.80221000  1.0
  H  H26  1  0.60354000  0.53031000  0.73196000  1.0
  H  H27  1  0.05218000  0.86620000  0.79049000  1.0
  H  H28  1  0.77028000  0.48557000  0.20219000  1.0
  H  H29  1  0.76881000  0.47032000  0.28355000  1.0
  H  H30  1  0.74035000  0.77886000  0.29798000  1.0
  H  H31  1  0.84756000  0.62060000  0.29815000  1.0
  H  H32  1  0.86192000  0.61964000  0.21642000  1.0
  H  H33  1  0.76853000  0.78000000  0.21703000  1.0
  H  H34  1  0.46286000  0.74513000  0.28321000  1.0
  H  H35  1  0.47036000  0.78179000  0.20380000  1.0
  H  H36  1  0.81838000  0.47809000  0.77990000  1.0
  H  H37  1  0.60980000  0.52389000  0.28120000  1.0
  H  H38  1  0.60935000  0.54921000  0.20049000  1.0
  H  H39  1  0.47990000  0.26481000  0.20725000  1.0
  H  H40  1  0.47558000  0.29938000  0.28815000  1.0
  H  H41  1  0.57809000  0.06761000  0.30095000  1.0
  H  H42  1  0.58554000  0.03768000  0.22011000  1.0
  H  H43  1  0.74700000  0.95272000  0.22236000  1.0
  H  H44  1  0.87022000  0.60823000  0.70983000  1.0
  H  H45  1  0.86637000  0.07136000  0.29171000  1.0
  H  H46  1  0.79554000  0.22299000  0.20614000  1.0
  H  H47  1  0.56656000  0.36867000  0.27958000  1.0
  H  H48  1  0.87397000  0.06210000  0.21010000  1.0
  H  H49  1  0.25052000  0.75747000  0.19979000  1.0
  H  H50  1  0.25037000  0.77852000  0.28075000  1.0
  H  H51  1  0.03028000  0.85754000  0.29635000  1.0
  H  H52  1  0.02115000  0.85971000  0.21394000  1.0
  H  H53  1  0.73954000  0.82527000  0.76296000  1.0
  H  H54  1  0.94745000  0.77168000  0.21831000  1.0
  H  H55  1  0.23431000  0.46764000  0.21094000  1.0
  H  H56  1  0.34004000  0.59671000  0.20512000  1.0
  H  H57  1  0.07548000  0.54059000  0.22312000  1.0
  H  H58  1  0.75102000  0.26790000  0.79521000  1.0
  H  H59  1  0.79115000  0.98008000  0.69935000  1.0
  H  H60  1  0.47890000  0.21689000  0.79094000  1.0
  H  H61  1  0.39641000  0.64053000  0.73413000  1.0
  H  H62  1  0.48933000  0.87678000  0.33082000  1.0
  H  H63  1  0.53646000  0.87427000  0.21578000  1.0
  H  H64  1  0.73915000  0.98106000  0.30345000  1.0
  H  H65  1  0.81006000  0.26407000  0.32048000  1.0
  H  H66  1  0.56600000  0.34004000  0.19911000  1.0
  H  H67  1  0.97217000  0.75527000  0.29977000  1.0
  H  H68  1  0.27697000  0.47115000  0.28988000  1.0
  H  H69  1  0.11849000  0.50503000  0.33860000  1.0
  H  H70  1  0.39298000  0.59931000  0.31921000  1.0
  H  H71  1  0.76103000  0.31557000  0.68063000  1.0
  H  H72  1  0.30535000  0.30869000  0.47216000  1.0
  H  H73  1  0.02438000  0.03044000  0.02832000  1.0
  C  C74  1  0.28110000  0.61593000  0.56693000  1.0
  C  C75  1  0.63481000  0.64101000  0.60965000  1.0
  C  C76  1  0.70899000  0.75960000  0.75556000  1.0
  C  C77  1  0.68078000  0.68742000  0.79536000  1.0
  C  C78  1  0.78190000  0.63919000  0.72707000  1.0
  C  C79  1  0.66065000  0.66884000  0.69972000  1.0
  C  C80  1  0.75320000  0.56721000  0.76533000  1.0
  C  C81  1  0.63270000  0.59654000  0.73958000  1.0
  C  C82  1  0.69027000  0.69971000  0.84429000  1.0
  C  C83  1  0.64812000  0.65493000  0.65116000  1.0
  C  C84  1  0.66426000  0.28697000  0.72811000  1.0
  C  C85  1  0.60722000  0.61482000  0.56389000  1.0
  C  C86  1  0.78800000  0.05827000  0.71739000  1.0
  C  C87  1  0.79216000  0.04205000  0.77128000  1.0
  C  C88  1  0.69128000  0.10369000  0.88635000  1.0
  C  C89  1  0.66894000  0.17476000  0.70323000  1.0
  C  C90  1  0.66909000  0.26833000  0.78166000  1.0
  C  C91  1  0.67499000  0.14599000  0.79420000  1.0
  C  C92  1  0.56141000  0.14545000  0.77368000  1.0
  C  C93  1  0.55631000  0.16547000  0.71997000  1.0
  C  C94  1  0.68153000  0.12643000  0.84457000  1.0
  C  C95  1  0.66357000  0.19732000  0.65316000  1.0
  C  C96  1  0.62564000  0.27961000  0.56579000  1.0
  C  C97  1  0.65516000  0.22577000  0.61191000  1.0
  C  C98  1  0.29636000  0.56042000  0.72956000  1.0
  C  C99  1  0.07229000  0.64388000  0.71587000  1.0
  C  C100  1  0.04566000  0.65430000  0.76918000  1.0
  C  C101  1  0.10271000  0.68118000  0.88761000  1.0
  C  C102  1  0.18136000  0.66505000  0.70484000  1.0
  C  C103  1  0.27140000  0.56076000  0.78280000  1.0
  C  C104  1  0.14491000  0.66918000  0.79561000  1.0
  C  C105  1  0.13956000  0.78914000  0.77904000  1.0
  C  C106  1  0.15416000  0.78930000  0.72514000  1.0
  C  C107  1  0.27577000  0.62286000  0.43411000  1.0
  C  C108  1  0.12392000  0.67289000  0.84577000  1.0
  C  C109  1  0.20443000  0.65842000  0.65478000  1.0
  C  C110  1  0.22887000  0.64673000  0.61317000  1.0
  C  C111  1  0.68150000  0.54499000  0.27084000  1.0
  C  C112  1  0.76163000  0.69115000  0.28251000  1.0
  C  C113  1  0.77358000  0.69439000  0.22850000  1.0
  C  C114  1  0.69031000  0.70532000  0.11150000  1.0
  C  C115  1  0.65700000  0.66467000  0.29506000  1.0
  C  C116  1  0.68383000  0.55755000  0.21688000  1.0
  C  C117  1  0.66950000  0.68336000  0.20390000  1.0
  C  C118  1  0.60858000  0.61312000  0.43368000  1.0
  C  C119  1  0.54491000  0.78459000  0.22266000  1.0
  C  C120  1  0.53371000  0.77044000  0.27589000  1.0
  C  C121  1  0.67916000  0.69507000  0.15350000  1.0
  C  C122  1  0.64659000  0.65248000  0.34538000  1.0
  C  C123  1  0.63299000  0.64104000  0.38719000  1.0
  C  C124  1  0.56085000  0.28662000  0.27210000  1.0
  C  C125  1  0.66254000  0.05909000  0.28582000  1.0
  C  C126  1  0.66729000  0.03984000  0.23218000  1.0
  C  C127  1  0.68965000  0.10019000  0.11399000  1.0
  C  C128  1  0.66947000  0.17552000  0.29631000  1.0
  C  C129  1  0.62120000  0.28278000  0.43298000  1.0
  C  C130  1  0.56250000  0.26636000  0.21870000  1.0
  C  C131  1  0.67599000  0.14353000  0.20579000  1.0
  C  C132  1  0.79255000  0.14498000  0.22222000  1.0
  C  C133  1  0.79303000  0.15642000  0.27590000  1.0
  C  C134  1  0.68150000  0.12240000  0.15568000  1.0
  C  C135  1  0.66311000  0.19955000  0.34615000  1.0
  C  C136  1  0.65371000  0.22838000  0.38724000  1.0
  C  C137  1  0.26784000  0.68648000  0.27128000  1.0
  C  C138  1  0.04165000  0.77131000  0.28274000  1.0
  C  C139  1  0.02944000  0.77528000  0.22878000  1.0
  C  C140  1  0.58807000  0.78923000  0.72966000  1.0
  C  C141  1  0.10055000  0.67939000  0.11458000  1.0
  C  C142  1  0.16897333  0.66666667  0.29711000  1.0
  C  C143  1  0.25708000  0.67727000  0.21793000  1.0
  C  C144  1  0.14316000  0.66547000  0.20647000  1.0
  C  C145  1  0.15909000  0.54615000  0.22858000  1.0
  C  C146  1  0.18275000  0.54218000  0.28155000  1.0
  C  C147  1  0.12405000  0.66904000  0.15622000  1.0
  C  C148  1  0.19047000  0.66334000  0.34711000  1.0
  C  C149  1  0.22057000  0.65221000  0.38815000  1.0
  C  C150  1  0.72015000  0.05360000  0.93312000  1.0
  C  C151  1  0.55943000  0.71718000  0.76791000  1.0
  C  C152  1  0.72061000  0.73375000  0.93368000  1.0
  C  C153  1  0.05418000  0.70909000  0.93454000  1.0
  C  C154  1  0.71590000  0.05230000  0.06713000  1.0
  C  C155  1  0.71746000  0.72791000  0.06466000  1.0
  C  C156  1  0.05030000  0.71069000  0.06799000  1.0
  C  C157  1  0.69864000  0.71080000  0.88640000  1.0
  O  O158  1  0.52500000  0.30013000  0.54854000  1.0
  O  O159  1  0.50767000  0.68991000  0.45308000  1.0
  O  O160  1  0.68691000  0.51020000  0.45134000  1.0
  O  O161  1  0.70032000  0.30303000  0.45384000  1.0
  O  O162  1  0.49502000  0.49642000  0.49935000  1.0
  O  O163  1  0.03488000  0.80906000  0.95141000  1.0
  O  O164  1  0.82586000  0.02255000  0.94810000  1.0
  O  O165  1  0.63720000  0.03974000  0.95486000  1.0
  O  O166  1  0.64359000  0.83634000  0.95150000  1.0
  O  O167  1  0.81849000  0.65267000  0.95359000  1.0
  O  O168  1  0.02931000  0.63129000  0.95429000  1.0
  O  O169  1  0.31129000  0.51058000  0.55235000  1.0
  O  O170  1  0.02684000  0.81389000  0.05234000  1.0
  O  O171  1  0.81717000  0.03012000  0.04936000  1.0
  O  O172  1  0.63546000  0.03103000  0.04803000  1.0
  O  O173  1  0.64102000  0.82832000  0.04488000  1.0
  O  O174  1  0.81987000  0.64834000  0.04700000  1.0
  O  O175  1  0.02854000  0.63291000  0.04726000  1.0
  O  O176  1  0.83824000  0.83907000  0.00036000  1.0
  O  O177  1  0.29723000  0.69702000  0.54494000  1.0
  O  O178  1  0.50278000  0.69060000  0.54641000  1.0
  O  O179  1  0.68600000  0.51514000  0.54456000  1.0
  O  O180  1  0.70280000  0.30710000  0.54693000  1.0
  O  O181  1  0.51580000  0.31061000  0.44798000  1.0
  O  O182  1  0.29913000  0.52134000  0.45147000  1.0
  O  O183  1  0.30161000  0.70087000  0.45203000  1.0
  O  O184  1  0.40478000  0.56686000  0.71986000  1.0
  O  O185  1  0.50106000  0.88486000  0.29733000  1.0
  O  O186  1  0.81409000  0.25498000  0.28638000  1.0
  O  O187  1  0.09731000  0.51633000  0.30533000  1.0
  O  O188  1  0.38941000  0.59763000  0.28496000  1.0
  O  O189  1  0.76491000  0.30402000  0.71467000  1.0
  O  O190  1  0.33036000  0.32395000  0.50217000  1.0
  O  O191  1  0.01555000  0.99906000  0.99866000  1.0
