# generated using pymatgen
data_AgH14C8(N2O)2
_symmetry_space_group_name_H-M   'P 1'
_cell_length_a   6.41966000
_cell_length_b   9.27613000
_cell_length_c   10.30260000
_cell_angle_alpha   69.08970000
_cell_angle_beta   79.35100000
_cell_angle_gamma   87.57860000
_symmetry_Int_Tables_number   1
_chemical_formula_structural   AgH14C8(N2O)2
_chemical_formula_sum   'Ag2 H28 C16 N8 O4'
_cell_volume   563.05170311
_cell_formula_units_Z   2
loop_
 _symmetry_equiv_pos_site_id
 _symmetry_equiv_pos_as_xyz
  1  'x, y, z'
loop_
 _atom_site_type_symbol
 _atom_site_label
 _atom_site_symmetry_multiplicity
 _atom_site_fract_x
 _atom_site_fract_y
 _atom_site_fract_z
 _atom_site_occupancy
  Ag  Ag0  1  0.14396000  0.06804000  0.37708000  1.0
  Ag  Ag1  1  0.85604000  0.93197000  0.62291000  1.0
  H  H2  1  0.40701000  0.10681000  0.06101000  1.0
  H  H3  1  0.59298000  0.89319000  0.93899000  1.0
  H  H4  1  0.51442000  0.94848000  0.18529000  1.0
  H  H5  1  0.48558000  0.05152000  0.81471000  1.0
  H  H6  1  0.62311000  0.16058000  0.40259000  1.0
  H  H7  1  0.37689000  0.83943000  0.59741000  1.0
  H  H8  1  0.64151000  0.97831000  0.37796000  1.0
  H  H9  1  0.35849000  0.02169000  0.62204000  1.0
  H  H10  1  0.47501000  0.37541000  0.23877000  1.0
  H  H11  1  0.52499000  0.62458000  0.76123000  1.0
  H  H12  1  0.38412000  0.35727000  0.09146000  1.0
  H  H13  1  0.61588000  0.64273000  0.90854000  1.0
  H  H14  1  0.88760000  0.94616000  0.18913000  1.0
  H  H15  1  0.11240000  0.05384000  0.81087000  1.0
  H  H16  1  0.05728000  0.10126000  0.06802000  1.0
  H  H17  1  0.94272000  0.89875000  0.93198000  1.0
  H  H18  1  0.03372000  0.35256000  0.09873000  1.0
  H  H19  1  0.96629000  0.64744000  0.90126000  1.0
  H  H20  1  0.84640000  0.37331000  0.24224000  1.0
  H  H21  1  0.15360000  0.62670000  0.75776000  1.0
  H  H22  1  0.91071000  0.31910000  0.90363000  1.0
  H  H23  1  0.08929000  0.68089000  0.09637000  1.0
  H  H24  1  0.63287000  0.32114000  0.90022000  1.0
  H  H25  1  0.36712000  0.67886000  0.09978000  1.0
  H  H26  1  0.07452000  0.57040000  0.33892000  1.0
  H  H27  1  0.92552000  0.42959000  0.66109000  1.0
  H  H28  1  0.24337000  0.52325000  0.46206000  1.0
  H  H29  1  0.75664000  0.47675000  0.53797000  1.0
  C  C30  1  0.52812000  0.07390000  0.12832000  1.0
  C  C31  1  0.47188000  0.92609000  0.87167000  1.0
  C  C32  1  0.65013000  0.10422000  0.32370000  1.0
  C  C33  1  0.34987000  0.89579000  0.67630000  1.0
  C  C34  1  0.50453000  0.31999000  0.15911000  1.0
  C  C35  1  0.49547000  0.68001000  0.84088000  1.0
  C  C36  1  0.89766000  0.07164000  0.13211000  1.0
  C  C37  1  0.10235000  0.92836000  0.86788000  1.0
  C  C38  1  0.87468000  0.31755000  0.16281000  1.0
  C  C39  1  0.12532000  0.68245000  0.83719000  1.0
  C  C40  1  0.75206000  0.28589000  0.96917000  1.0
  C  C41  1  0.24793000  0.71411000  0.03083000  1.0
  C  C42  1  0.05238000  0.72025000  0.45684000  1.0
  C  C43  1  0.94764000  0.27975000  0.54317000  1.0
  C  C44  1  0.08157000  0.55995000  0.44801000  1.0
  C  C45  1  0.91845000  0.44005000  0.55200000  1.0
  N  N46  1  0.48533000  0.15063000  0.23421000  1.0
  N  N47  1  0.51467000  0.84937000  0.76579000  1.0
  N  N48  1  0.73915000  0.11669000  0.03968000  1.0
  N  N49  1  0.26084000  0.88330000  0.96032000  1.0
  N  N50  1  0.86554000  0.14821000  0.23811000  1.0
  N  N51  1  0.13445000  0.85179000  0.76189000  1.0
  N  N52  1  0.71565000  0.36789000  0.07071000  1.0
  N  N53  1  0.28434000  0.63211000  0.92929000  1.0
  O  O54  1  0.20999000  0.81459000  0.39888000  1.0
  O  O55  1  0.78998000  0.18542000  0.60111000  1.0
  O  O56  1  0.87409000  0.74761000  0.52069000  1.0
  O  O57  1  0.12591000  0.25239000  0.47933000  1.0
