# generated using pymatgen
data_Ag5H16C25N9
_symmetry_space_group_name_H-M   'P 1'
_cell_length_a   9.19926000
_cell_length_b   11.15040000
_cell_length_c   13.60890000
_cell_angle_alpha   87.59880000
_cell_angle_beta   72.74760000
_cell_angle_gamma   85.06540000
_symmetry_Int_Tables_number   1
_chemical_formula_structural   Ag5H16C25N9
_chemical_formula_sum   'Ag10 H32 C50 N18'
_cell_volume   1327.99384157
_cell_formula_units_Z   2
loop_
 _symmetry_equiv_pos_site_id
 _symmetry_equiv_pos_as_xyz
  1  'x, y, z'
loop_
 _atom_site_type_symbol
 _atom_site_label
 _atom_site_symmetry_multiplicity
 _atom_site_fract_x
 _atom_site_fract_y
 _atom_site_fract_z
 _atom_site_occupancy
  Ag  Ag0  1  0.93960000  0.98821000  0.32344000  1.0
  Ag  Ag1  1  0.06041000  0.01179000  0.67656000  1.0
  Ag  Ag2  1  0.70865000  0.29060000  0.02222000  1.0
  Ag  Ag3  1  0.29134000  0.70940000  0.97778000  1.0
  Ag  Ag4  1  0.08135000  0.54292000  0.15052000  1.0
  Ag  Ag5  1  0.91864000  0.45707000  0.84949000  1.0
  Ag  Ag6  1  0.49333000  0.24102000  0.24279000  1.0
  Ag  Ag7  1  0.50667000  0.75898000  0.75721000  1.0
  Ag  Ag8  1  0.28204000  0.20856000  0.50001000  1.0
  Ag  Ag9  1  0.71797000  0.79144000  0.49998000  1.0
  H  H10  1  0.59344000  0.08367000  0.51555000  1.0
  H  H11  1  0.40656000  0.91633000  0.48445000  1.0
  H  H12  1  0.46963000  0.04513000  0.79735000  1.0
  H  H13  1  0.53036000  0.95487000  0.20265000  1.0
  H  H14  1  0.85549000  0.01094000  0.08259000  1.0
  H  H15  1  0.14450000  0.98906000  0.91741000  1.0
  H  H16  1  0.58098000  0.47312000  0.67403000  1.0
  H  H17  1  0.41901000  0.52688000  0.32597000  1.0
  H  H18  1  0.43457000  0.43437000  0.96076000  1.0
  H  H19  1  0.56543000  0.56563000  0.03924000  1.0
  H  H20  1  0.99606000  0.42814000  0.57301000  1.0
  H  H21  1  0.00394000  0.57187000  0.42699000  1.0
  H  H22  1  0.42160000  0.59965000  0.65105000  1.0
  H  H23  1  0.57840000  0.40035000  0.34895000  1.0
  H  H24  1  0.79844000  0.32264000  0.66686000  1.0
  H  H25  1  0.20156000  0.67736000  0.33313000  1.0
  H  H26  1  0.96544000  0.64476000  0.62426000  1.0
  H  H27  1  0.03456000  0.35525000  0.37574000  1.0
  H  H28  1  0.80719000  0.12372000  0.58366000  1.0
  H  H29  1  0.19281000  0.87628000  0.41634000  1.0
  H  H30  1  0.94429000  0.81906000  0.98507000  1.0
  H  H31  1  0.05571000  0.18094000  0.01492000  1.0
  H  H32  1  0.27408000  0.20313000  0.77617000  1.0
  H  H33  1  0.72592000  0.79687000  0.22384000  1.0
  H  H34  1  0.25362000  0.40238000  0.86185000  1.0
  H  H35  1  0.74638000  0.59762000  0.13816000  1.0
  H  H36  1  0.66956000  0.94284000  0.78852000  1.0
  H  H37  1  0.33044000  0.05716000  0.21147000  1.0
  H  H38  1  0.84720000  0.78527000  0.83499000  1.0
  H  H39  1  0.15280000  0.21473000  0.16501000  1.0
  H  H40  1  0.18586000  0.73107000  0.66305000  1.0
  H  H41  1  0.81414000  0.26893000  0.33695000  1.0
  C  C42  1  0.33435000  0.44363000  0.60398000  1.0
  C  C43  1  0.66565000  0.55637000  0.39602000  1.0
  C  C44  1  0.03555000  0.72332000  0.19849000  1.0
  C  C45  1  0.96445000  0.27667000  0.80151000  1.0
  C  C46  1  0.59427000  0.16949000  0.55086000  1.0
  C  C47  1  0.40572000  0.83051000  0.44914000  1.0
  C  C48  1  0.07806000  0.07604000  0.38869000  1.0
  C  C49  1  0.92194000  0.92397000  0.61130000  1.0
  C  C50  1  0.93215000  0.42992000  0.11228000  1.0
  C  C51  1  0.06784000  0.57008000  0.88773000  1.0
  C  C52  1  0.72906000  0.05141000  0.30419000  1.0
  C  C53  1  0.27094000  0.94859000  0.69581000  1.0
  C  C54  1  0.46176000  0.13262000  0.83163000  1.0
  C  C55  1  0.53824000  0.86738000  0.16837000  1.0
  C  C56  1  0.66654000  0.05969000  0.91265000  1.0
  C  C57  1  0.33346000  0.94031000  0.08735000  1.0
  C  C58  1  0.27456000  0.44428000  0.17750000  1.0
  C  C59  1  0.72544000  0.55571000  0.82250000  1.0
  C  C60  1  0.81757000  0.99292000  0.01626000  1.0
  C  C61  1  0.18243000  0.00707000  0.98374000  1.0
  C  C62  1  0.58723000  0.38742000  0.63713000  1.0
  C  C63  1  0.41276000  0.61258000  0.36287000  1.0
  C  C64  1  0.55615000  0.15495000  0.89171000  1.0
  C  C65  1  0.44385000  0.84505000  0.10829000  1.0
  C  C66  1  0.43974000  0.34881000  0.92347000  1.0
  C  C67  1  0.56026000  0.65118000  0.07653000  1.0
  C  C68  1  0.08868000  0.47006000  0.58983000  1.0
  C  C69  1  0.91132000  0.52994000  0.41017000  1.0
  C  C70  1  0.32575000  0.56356000  0.63365000  1.0
  C  C71  1  0.67425000  0.43645000  0.36635000  1.0
  C  C72  1  0.70946000  0.30340000  0.63315000  1.0
  C  C73  1  0.29054000  0.69660000  0.36685000  1.0
  C  C74  1  0.07155000  0.59018000  0.61867000  1.0
  C  C75  1  0.92845000  0.40982000  0.38133000  1.0
  C  C76  1  0.71394000  0.19237000  0.58858000  1.0
  C  C77  1  0.28605000  0.80763000  0.41142000  1.0
  C  C78  1  0.86657000  0.88609000  0.96223000  1.0
  C  C79  1  0.13343000  0.11391000  0.03777000  1.0
  C  C80  1  0.35179000  0.22100000  0.81978000  1.0
  C  C81  1  0.64821000  0.77900000  0.18022000  1.0
  C  C82  1  0.47049000  0.35877000  0.59748000  1.0
  C  C83  1  0.52951000  0.64123000  0.40252000  1.0
  C  C84  1  0.33966000  0.33122000  0.86716000  1.0
  C  C85  1  0.66034000  0.66878000  0.13285000  1.0
  C  C86  1  0.71051000  0.95499000  0.85445000  1.0
  C  C87  1  0.28949000  0.04501000  0.14554000  1.0
  C  C88  1  0.81210000  0.86741000  0.87937000  1.0
  C  C89  1  0.18791000  0.13259000  0.12063000  1.0
  C  C90  1  0.19365000  0.63765000  0.64039000  1.0
  C  C91  1  0.80635000  0.36235000  0.35961000  1.0
  N  N92  1  0.47521000  0.25011000  0.55508000  1.0
  N  N93  1  0.52479000  0.74989000  0.44492000  1.0
  N  N94  1  0.21664000  0.39922000  0.58130000  1.0
  N  N95  1  0.78335000  0.60078000  0.41871000  1.0
  N  N96  1  0.35882000  0.37614000  0.20594000  1.0
  N  N97  1  0.64118000  0.62386000  0.79406000  1.0
  N  N98  1  0.72143000  0.07769000  0.99201000  1.0
  N  N99  1  0.27857000  0.92231000  0.00798000  1.0
  N  N100  1  0.54531000  0.26329000  0.93592000  1.0
  N  N101  1  0.45469000  0.73671000  0.06408000  1.0
  N  N102  1  0.01446000  0.81599000  0.24047000  1.0
  N  N103  1  0.98555000  0.18401000  0.75952000  1.0
  N  N104  1  0.62864000  0.10942000  0.28408000  1.0
  N  N105  1  0.37136000  0.89058000  0.71592000  1.0
  N  N106  1  0.84600000  0.37269000  0.08951000  1.0
  N  N107  1  0.15400000  0.62731000  0.91049000  1.0
  N  N108  1  0.15686000  0.12574000  0.42492000  1.0
  N  N109  1  0.84314000  0.87427000  0.57507000  1.0
