# generated using pymatgen
data_Cd2H42C36(N2O3)3
_symmetry_space_group_name_H-M   'P 1'
_cell_length_a   10.81590000
_cell_length_b   12.96450000
_cell_length_c   16.15320000
_cell_angle_alpha   75.80740000
_cell_angle_beta   72.76830000
_cell_angle_gamma   66.98540000
_symmetry_Int_Tables_number   1
_chemical_formula_structural   Cd2H42C36(N2O3)3
_chemical_formula_sum   'Cd4 H84 C72 N12 O18'
_cell_volume   1969.50739373
_cell_formula_units_Z   2
loop_
 _symmetry_equiv_pos_site_id
 _symmetry_equiv_pos_as_xyz
  1  'x, y, z'
loop_
 _atom_site_type_symbol
 _atom_site_label
 _atom_site_symmetry_multiplicity
 _atom_site_fract_x
 _atom_site_fract_y
 _atom_site_fract_z
 _atom_site_occupancy
  Cd  Cd0  1  0.43497000  0.11774000  0.24085000  1.0
  Cd  Cd1  1  0.56503000  0.88226000  0.75915000  1.0
  Cd  Cd2  1  0.43647000  0.21431000  0.77897000  1.0
  Cd  Cd3  1  0.56353000  0.78569000  0.22103000  1.0
  H  H4  1  0.57925000  0.24851000  0.60064000  1.0
  H  H5  1  0.42074000  0.75149000  0.39936000  1.0
  H  H6  1  0.64882000  0.11921000  0.63742000  1.0
  H  H7  1  0.35118000  0.88079000  0.36258000  1.0
  H  H8  1  0.78661000  0.54371000  0.44961000  1.0
  H  H9  1  0.21337000  0.45630000  0.55038000  1.0
  H  H10  1  0.22145000  0.48709000  0.39149000  1.0
  H  H11  1  0.77854000  0.51290000  0.60851000  1.0
  H  H12  1  0.90697000  0.57616000  0.29945000  1.0
  H  H13  1  0.09302000  0.42385000  0.70054000  1.0
  H  H14  1  0.07531000  0.58064000  0.27430000  1.0
  H  H15  1  0.92469000  0.41936000  0.72570000  1.0
  H  H16  1  0.28765000  0.39507000  0.23925000  1.0
  H  H17  1  0.71234000  0.60493000  0.76075000  1.0
  H  H18  1  0.89112000  0.36821000  0.31027000  1.0
  H  H19  1  0.10889000  0.63178000  0.68974000  1.0
  H  H20  1  0.07579000  0.10790000  0.85757000  1.0
  H  H21  1  0.92422000  0.89210000  0.14243000  1.0
  H  H22  1  0.13059000  0.94237000  0.11674000  1.0
  H  H23  1  0.86942000  0.05762000  0.88326000  1.0
  H  H24  1  0.31919000  0.01774000  0.90674000  1.0
  H  H25  1  0.68082000  0.98226000  0.09326000  1.0
  H  H26  1  0.22175000  0.15215000  0.94218000  1.0
  H  H27  1  0.77826000  0.84785000  0.05782000  1.0
  H  H28  1  0.26292000  0.18892000  0.07593000  1.0
  H  H29  1  0.73709000  0.81107000  0.92407000  1.0
  H  H30  1  0.41326000  0.84745000  0.03465000  1.0
  H  H31  1  0.58675000  0.15254000  0.96535000  1.0
  H  H32  1  0.30579000  0.18044000  0.54243000  1.0
  H  H33  1  0.69421000  0.81956000  0.45757000  1.0
  H  H34  1  0.40911000  0.03654000  0.56748000  1.0
  H  H35  1  0.59089000  0.96346000  0.43252000  1.0
  H  H36  1  0.08992000  0.22948000  0.48954000  1.0
  H  H37  1  0.91008000  0.77052000  0.51047000  1.0
  H  H38  1  0.04110000  0.12077000  0.47433000  1.0
  H  H39  1  0.95890000  0.87923000  0.52568000  1.0
  H  H40  1  0.18742000  0.91415000  0.50966000  1.0
  H  H41  1  0.81258000  0.08586000  0.49034000  1.0
  H  H42  1  0.33988000  0.87889000  0.54757000  1.0
  H  H43  1  0.66011000  0.12111000  0.45243000  1.0
  H  H44  1  0.89741000  0.19858000  0.61310000  1.0
  H  H45  1  0.10259000  0.80142000  0.38691000  1.0
  H  H46  1  0.14847000  0.85007000  0.67207000  1.0
  H  H47  1  0.85152000  0.14993000  0.32793000  1.0
  H  H48  1  0.00794000  0.17558000  0.73459000  1.0
  H  H49  1  0.99206000  0.82442000  0.26542000  1.0
  H  H50  1  0.07216000  0.26024000  0.64058000  1.0
  H  H51  1  0.92784000  0.73976000  0.35942000  1.0
  H  H52  1  0.16081000  0.96490000  0.76989000  1.0
  H  H53  1  0.83919000  0.03510000  0.23011000  1.0
  H  H54  1  0.32305000  0.91043000  0.69928000  1.0
  H  H55  1  0.67695000  0.08957000  0.30072000  1.0
  H  H56  1  0.94000000  0.01558000  0.71618000  1.0
  H  H57  1  0.05999000  0.98442000  0.28383000  1.0
  H  H58  1  0.95097000  0.99326000  0.61081000  1.0
  H  H59  1  0.04903000  0.00675000  0.38919000  1.0
  H  H60  1  0.38853000  0.58190000  0.80584000  1.0
  H  H61  1  0.61148000  0.41810000  0.19416000  1.0
  H  H62  1  0.48295000  0.51596000  0.88802000  1.0
  H  H63  1  0.51705000  0.48405000  0.11198000  1.0
  H  H64  1  0.14797000  0.58046000  0.83004000  1.0
  H  H65  1  0.85203000  0.41954000  0.16995000  1.0
  H  H66  1  0.07025000  0.51479000  0.93070000  1.0
  H  H67  1  0.92975000  0.48521000  0.06930000  1.0
  H  H68  1  0.37034000  0.41810000  0.03575000  1.0
  H  H69  1  0.62966000  0.58190000  0.96425000  1.0
  H  H70  1  0.20099000  0.42048000  0.05064000  1.0
  H  H71  1  0.79901000  0.57952000  0.94936000  1.0
  H  H72  1  0.97861000  0.72465000  0.92321000  1.0
  H  H73  1  0.02139000  0.27535000  0.07679000  1.0
  H  H74  1  0.20374000  0.56553000  0.12795000  1.0
  H  H75  1  0.79626000  0.43447000  0.87205000  1.0
  H  H76  1  0.18620000  0.76246000  0.82296000  1.0
  H  H77  1  0.81379000  0.23754000  0.17704000  1.0
  H  H78  1  0.13554000  0.82652000  0.91865000  1.0
  H  H79  1  0.86446000  0.17348000  0.08135000  1.0
  H  H80  1  0.26419000  0.73373000  0.04011000  1.0
  H  H81  1  0.73581000  0.26627000  0.95989000  1.0
  H  H82  1  0.40900000  0.60768000  0.02901000  1.0
  H  H83  1  0.59100000  0.39232000  0.97099000  1.0
  H  H84  1  0.99603000  0.60625000  0.06980000  1.0
  H  H85  1  0.00398000  0.39375000  0.93020000  1.0
  H  H86  1  0.02691000  0.73220000  0.06428000  1.0
  H  H87  1  0.97309000  0.26780000  0.93572000  1.0
  C  C88  1  0.00440000  0.51685000  0.40988000  1.0
  C  C89  1  0.99559000  0.48316000  0.59012000  1.0
  C  C90  1  0.88050000  0.52379000  0.47179000  1.0
  C  C91  1  0.11949000  0.47621000  0.52821000  1.0
  C  C92  1  0.12389000  0.49307000  0.43890000  1.0
  C  C93  1  0.87610000  0.50693000  0.56110000  1.0
  C  C94  1  0.00982000  0.53104000  0.31330000  1.0
  C  C95  1  0.99018000  0.46896000  0.68670000  1.0
  C  C96  1  0.20341000  0.36439000  0.24940000  1.0
  C  C97  1  0.79659000  0.63561000  0.75060000  1.0
  C  C98  1  0.00150000  0.34821000  0.28630000  1.0
  C  C99  1  0.99851000  0.65178000  0.71371000  1.0
  C  C100  1  0.11859000  0.02862000  0.98454000  1.0
  C  C101  1  0.88142000  0.97138000  0.01546000  1.0
  C  C102  1  0.04248000  0.06044000  0.92036000  1.0
  C  C103  1  0.95753000  0.93956000  0.07963000  1.0
  C  C104  1  0.07469000  0.96787000  0.06474000  1.0
  C  C105  1  0.92532000  0.03213000  0.93526000  1.0
  C  C106  1  0.24591000  0.06031000  0.96176000  1.0
  C  C107  1  0.75410000  0.93969000  0.03824000  1.0
  C  C108  1  0.31065000  0.09745000  0.08635000  1.0
  C  C109  1  0.68936000  0.90255000  0.91365000  1.0
  C  C110  1  0.38961000  0.92097000  0.06545000  1.0
  C  C111  1  0.61040000  0.07902000  0.93455000  1.0
  C  C112  1  0.23757000  0.05951000  0.51295000  1.0
  C  C113  1  0.76242000  0.94048000  0.48705000  1.0
  C  C114  1  0.30258000  0.09483000  0.56931000  1.0
  C  C115  1  0.69742000  0.90516000  0.43069000  1.0
  C  C116  1  0.08770000  0.14323000  0.51626000  1.0
  C  C117  1  0.91230000  0.85677000  0.48375000  1.0
  C  C118  1  0.23372000  0.93916000  0.55025000  1.0
  C  C119  1  0.76627000  0.06084000  0.44976000  1.0
  C  C120  1  0.21830000  0.09170000  0.66560000  1.0
  C  C121  1  0.78170000  0.90830000  0.33440000  1.0
  C  C122  1  0.00358000  0.13907000  0.61134000  1.0
  C  C123  1  0.99643000  0.86093000  0.38866000  1.0
  C  C124  1  0.14986000  0.93649000  0.64546000  1.0
  C  C125  1  0.85014000  0.06351000  0.35454000  1.0
  C  C126  1  0.06962000  0.17439000  0.66666667  1.0
  C  C127  1  0.93038000  0.82561000  0.33333333  1.0
  C  C128  1  0.21741000  0.97029000  0.70102000  1.0
  C  C129  1  0.78258000  0.02971000  0.29898000  1.0
  C  C130  1  0.00155000  0.01866000  0.64830000  1.0
  C  C131  1  0.99845000  0.98134000  0.35171000  1.0
  C  C132  1  0.31615000  0.06857000  0.41749000  1.0
  C  C133  1  0.68384000  0.93143000  0.58251000  1.0
  C  C134  1  0.28920000  0.13080000  0.71433000  1.0
  C  C135  1  0.71080000  0.86921000  0.28567000  1.0
  C  C136  1  0.28386000  0.49401000  0.92016000  1.0
  C  C137  1  0.71614000  0.50599000  0.07984000  1.0
  C  C138  1  0.37856000  0.56461000  0.87697000  1.0
  C  C139  1  0.62144000  0.43539000  0.12303000  1.0
  C  C140  1  0.13930000  0.56417000  0.90122000  1.0
  C  C141  1  0.86070000  0.43583000  0.09878000  1.0
  C  C142  1  0.26954000  0.47026000  0.02016000  1.0
  C  C143  1  0.73046000  0.52974000  0.97984000  1.0
  C  C144  1  0.32140000  0.67694000  0.91406000  1.0
  C  C145  1  0.67860000  0.32306000  0.08594000  1.0
  C  C146  1  0.08075000  0.67624000  0.93808000  1.0
  C  C147  1  0.91925000  0.32376000  0.06192000  1.0
  C  C148  1  0.21170000  0.58308000  0.05657000  1.0
  C  C149  1  0.78830000  0.41693000  0.94343000  1.0
  C  C150  1  0.17687000  0.74478000  0.89433000  1.0
  C  C151  1  0.82313000  0.25522000  0.10567000  1.0
  C  C152  1  0.30672000  0.65304000  0.01392000  1.0
  C  C153  1  0.69328000  0.34696000  0.98608000  1.0
  C  C154  1  0.06850000  0.65201000  0.03759000  1.0
  C  C155  1  0.93150000  0.34799000  0.96241000  1.0
  C  C156  1  0.33504000  0.38555000  0.87964000  1.0
  C  C157  1  0.66496000  0.61445000  0.12036000  1.0
  C  C158  1  0.41210000  0.74930000  0.86878000  1.0
  C  C159  1  0.58790000  0.25071000  0.13121000  1.0
  N  N160  1  0.21758000  0.26440000  0.23397000  1.0
  N  N161  1  0.78242000  0.73560000  0.76604000  1.0
  N  N162  1  0.08925000  0.25340000  0.25735000  1.0
  N  N163  1  0.91075000  0.74659000  0.74266000  1.0
  N  N164  1  0.06809000  0.42102000  0.28171000  1.0
  N  N165  1  0.93191000  0.57898000  0.71829000  1.0
  N  N166  1  0.37949000  0.03678000  0.14722000  1.0
  N  N167  1  0.62052000  0.96322000  0.85278000  1.0
  N  N168  1  0.42891000  0.92557000  0.13425000  1.0
  N  N169  1  0.57109000  0.07442000  0.86575000  1.0
  N  N170  1  0.31475000  0.02789000  0.03391000  1.0
  N  N171  1  0.68526000  0.97211000  0.96609000  1.0
  O  O172  1  0.31180000  0.00916000  0.36606000  1.0
  O  O173  1  0.68820000  0.99084000  0.63394000  1.0
  O  O174  1  0.37860000  0.13965000  0.38938000  1.0
  O  O175  1  0.62140000  0.86035000  0.61063000  1.0
  O  O176  1  0.26141000  0.23673000  0.71130000  1.0
  O  O177  1  0.73859000  0.76327000  0.28869000  1.0
  O  O178  1  0.38072000  0.05864000  0.75525000  1.0
  O  O179  1  0.61929000  0.94136000  0.24475000  1.0
  O  O180  1  0.40077000  0.38909000  0.79863000  1.0
  O  O181  1  0.59922000  0.61092000  0.20137000  1.0
  O  O182  1  0.30783000  0.29833000  0.92347000  1.0
  O  O183  1  0.69217000  0.70167000  0.07653000  1.0
  O  O184  1  0.41950000  0.81834000  0.90944000  1.0
  O  O185  1  0.58051000  0.18166000  0.09056000  1.0
  O  O186  1  0.47406000  0.74069000  0.78838000  1.0
  O  O187  1  0.52593000  0.25931000  0.21162000  1.0
  O  O188  1  0.61283000  0.19994000  0.65135000  1.0
  O  O189  1  0.38717000  0.80006000  0.34865000  1.0
