# generated using pymatgen
data_SrH4C4SO4
_symmetry_space_group_name_H-M   'P 1'
_cell_length_a   7.59305000
_cell_length_b   9.04952000
_cell_length_c   9.87656000
_cell_angle_alpha   80.05270000
_cell_angle_beta   89.99990000
_cell_angle_gamma   89.99990000
_symmetry_Int_Tables_number   1
_chemical_formula_structural   SrH4C4SO4
_chemical_formula_sum   'Sr4 H16 C16 S4 O16'
_cell_volume   668.45044276
_cell_formula_units_Z   4
loop_
 _symmetry_equiv_pos_site_id
 _symmetry_equiv_pos_as_xyz
  1  'x, y, z'
loop_
 _atom_site_type_symbol
 _atom_site_label
 _atom_site_symmetry_multiplicity
 _atom_site_fract_x
 _atom_site_fract_y
 _atom_site_fract_z
 _atom_site_occupancy
  Sr  Sr0  1  0.03971000  0.54510000  0.69579000  1.0
  Sr  Sr1  1  0.53971000  0.45490000  0.80421000  1.0
  Sr  Sr2  1  0.96029000  0.45490000  0.30421000  1.0
  Sr  Sr3  1  0.46029000  0.54510000  0.19579000  1.0
  H  H4  1  0.88805000  0.87423000  0.03137000  1.0
  H  H5  1  0.38805000  0.12576000  0.46863000  1.0
  H  H6  1  0.11195000  0.12577000  0.96863000  1.0
  H  H7  1  0.61195000  0.87423000  0.53137000  1.0
  H  H8  1  0.72720000  0.86826000  0.90152000  1.0
  H  H9  1  0.22721000  0.13174000  0.59849000  1.0
  H  H10  1  0.27280000  0.13175000  0.09849000  1.0
  H  H11  1  0.77279000  0.86825000  0.40151000  1.0
  H  H12  1  0.29273000  0.95402000  0.88874000  1.0
  H  H13  1  0.79273000  0.04598000  0.61126000  1.0
  H  H14  1  0.70727000  0.04598000  0.11125000  1.0
  H  H15  1  0.20727000  0.95402000  0.38875000  1.0
  H  H16  1  0.18655000  0.81909000  0.01350000  1.0
  H  H17  1  0.68656000  0.18091000  0.48650000  1.0
  H  H18  1  0.81345000  0.18091000  0.98650000  1.0
  H  H19  1  0.31345000  0.81909000  0.51350000  1.0
  C  C20  1  0.82730000  0.65426000  0.98738000  1.0
  C  C21  1  0.32730000  0.34573000  0.51262000  1.0
  C  C22  1  0.17272000  0.34573000  0.01261000  1.0
  C  C23  1  0.67271000  0.65427000  0.48739000  1.0
  C  C24  1  0.85515000  0.82286000  0.94187000  1.0
  C  C25  1  0.35516000  0.17714000  0.55813000  1.0
  C  C26  1  0.14485000  0.17715000  0.05813000  1.0
  C  C27  1  0.64484000  0.82286000  0.44187000  1.0
  C  C28  1  0.33676000  0.73036000  0.86057000  1.0
  C  C29  1  0.83676000  0.26964000  0.63943000  1.0
  C  C30  1  0.66324000  0.26964000  0.13942000  1.0
  C  C31  1  0.16323000  0.73036000  0.36057000  1.0
  C  C32  1  0.21725000  0.84867000  0.90354000  1.0
  C  C33  1  0.71726000  0.15133000  0.59646000  1.0
  C  C34  1  0.78274000  0.15133000  0.09647000  1.0
  C  C35  1  0.28274000  0.84867000  0.40353000  1.0
  S  S36  1  0.01339000  0.87997000  0.80638000  1.0
  S  S37  1  0.51339000  0.12003000  0.69362000  1.0
  S  S38  1  0.98661000  0.12003000  0.19363000  1.0
  S  S39  1  0.48661000  0.87997000  0.30637000  1.0
  O  O40  1  0.84186000  0.56681000  0.90104000  1.0
  O  O41  1  0.34186000  0.43319000  0.59896000  1.0
  O  O42  1  0.15813000  0.43320000  0.09897000  1.0
  O  O43  1  0.65813000  0.56680000  0.40103000  1.0
  O  O44  1  0.78174000  0.61454000  0.11247000  1.0
  O  O45  1  0.28174000  0.38546000  0.38753000  1.0
  O  O46  1  0.21826000  0.38546000  0.88754000  1.0
  O  O47  1  0.71826000  0.61454000  0.61246000  1.0
  O  O48  1  0.31858000  0.69251000  0.74343000  1.0
  O  O49  1  0.81858000  0.30750000  0.75657000  1.0
  O  O50  1  0.68143000  0.30750000  0.25657000  1.0
  O  O51  1  0.18142000  0.69250000  0.24342000  1.0
  O  O52  1  0.45486000  0.67470000  0.94609000  1.0
  O  O53  1  0.95486000  0.32529000  0.55391000  1.0
  O  O54  1  0.54515000  0.32529000  0.05391000  1.0
  O  O55  1  0.04515000  0.67471000  0.44608000  1.0
