# generated using pymatgen
data_CoBH15C14(N4O)2
_symmetry_space_group_name_H-M   'P 1'
_cell_length_a   13.14450000
_cell_length_b   14.87170000
_cell_length_c   14.87167655
_cell_angle_alpha   88.67373931
_cell_angle_beta   63.77298336
_cell_angle_gamma   63.77300000
_symmetry_Int_Tables_number   1
_chemical_formula_structural   CoBH15C14(N4O)2
_chemical_formula_sum   'Co4 B4 H60 C56 N32 O8'
_cell_volume   2285.20278839
_cell_formula_units_Z   4
loop_
 _symmetry_equiv_pos_site_id
 _symmetry_equiv_pos_as_xyz
  1  'x, y, z'
loop_
 _atom_site_type_symbol
 _atom_site_label
 _atom_site_symmetry_multiplicity
 _atom_site_fract_x
 _atom_site_fract_y
 _atom_site_fract_z
 _atom_site_occupancy
  Co  Co0  1  0.45769000  0.46040000  0.17675000  1.0
  Co  Co1  1  0.90516000  0.17676000  0.46040000  1.0
  Co  Co2  1  0.09495000  0.53958000  0.82322000  1.0
  Co  Co3  1  0.54225000  0.82323000  0.53958000  1.0
  B  B4  1  0.86221000  0.47311000  0.21464000  1.0
  B  B5  1  0.45004000  0.21464000  0.47311000  1.0
  B  B6  1  0.55000000  0.52691000  0.78537000  1.0
  B  B7  1  0.13772000  0.78537000  0.52691000  1.0
  H  H8  1  0.59018000  0.55477000  0.26809000  1.0
  H  H9  1  0.58696000  0.26809000  0.55477000  1.0
  H  H10  1  0.41307000  0.44525000  0.73199000  1.0
  H  H11  1  0.40970000  0.73199000  0.44524000  1.0
  H  H12  1  0.74470000  0.27146000  0.07942000  1.0
  H  H13  1  0.90442000  0.07942000  0.27146000  1.0
  H  H14  1  0.09554000  0.72853000  0.92065000  1.0
  H  H15  1  0.25528000  0.92065000  0.72853000  1.0
  H  H16  1  0.94537000  0.28632000  0.08730000  1.0
  H  H17  1  0.68101000  0.08729000  0.28632000  1.0
  H  H18  1  0.31891000  0.71372000  0.91282000  1.0
  H  H19  1  0.05455000  0.91281000  0.71372000  1.0
  H  H20  1  0.50046000  0.18474000  0.00664000  1.0
  H  H21  1  0.30816000  0.00663000  0.18474000  1.0
  H  H22  1  0.69186000  0.81533000  0.99330000  1.0
  H  H23  1  0.49950000  0.99330000  0.81534000  1.0
  H  H24  1  0.38397000  0.28736000  0.98181000  1.0
  H  H25  1  0.34686000  0.98180000  0.28736000  1.0
  H  H26  1  0.65337000  0.71261000  0.01806000  1.0
  H  H27  1  0.61595000  0.01806000  0.71262000  1.0
  H  H28  1  0.33159000  0.24920000  0.09975000  1.0
  H  H29  1  0.31946000  0.09975000  0.24920000  1.0
  H  H30  1  0.68065000  0.75082000  0.90017000  1.0
  H  H31  1  0.66836000  0.90017000  0.75082000  1.0
  H  H32  1  0.81909000  0.31111000  0.30585000  1.0
  H  H33  1  0.56394000  0.30585000  0.31112000  1.0
  H  H34  1  0.43603000  0.68885000  0.69418000  1.0
  H  H35  1  0.18094000  0.69418000  0.68885000  1.0
  H  H36  1  0.99718000  0.48249000  0.32365000  1.0
  H  H37  1  0.19668000  0.32365000  0.48249000  1.0
  H  H38  1  0.80339000  0.51756000  0.67621000  1.0
  H  H39  1  0.00284000  0.67622000  0.51756000  1.0
  H  H40  1  0.01306000  0.34462000  0.45281000  1.0
  H  H41  1  0.18952000  0.45281000  0.34462000  1.0
  H  H42  1  0.81044000  0.65535000  0.54700000  1.0
  H  H43  1  0.98721000  0.54699000  0.65535000  1.0
  H  H44  1  0.89616000  0.48884000  0.01239000  1.0
  H  H45  1  0.60261000  0.01239000  0.48884000  1.0
  H  H46  1  0.39753000  0.51113000  0.98758000  1.0
  H  H47  1  0.10376000  0.98758000  0.51113000  1.0
  H  H48  1  0.71097000  0.57953000  0.42775000  1.0
  H  H49  1  0.28175000  0.42775000  0.57953000  1.0
  H  H50  1  0.71853000  0.42049000  0.57232000  1.0
  H  H51  1  0.28866000  0.57232000  0.42049000  1.0
  H  H52  1  0.12666000  0.43954000  0.15689000  1.0
  H  H53  1  0.27691000  0.15689000  0.43954000  1.0
  H  H54  1  0.72321000  0.56051000  0.84310000  1.0
  H  H55  1  0.87319000  0.84310000  0.56050000  1.0
  H  H56  1  0.79435000  0.66410000  0.13988000  1.0
  H  H57  1  0.40167000  0.13988000  0.66410000  1.0
  H  H58  1  0.59810000  0.33596000  0.86015000  1.0
  H  H59  1  0.20579000  0.86015000  0.33596000  1.0
  H  H60  1  0.24684000  0.46793000  0.96347000  1.0
  H  H61  1  0.32176000  0.96347000  0.46793000  1.0
  H  H62  1  0.67832000  0.53207000  0.03652000  1.0
  H  H63  1  0.75309000  0.03653000  0.53207000  1.0
  H  H64  1  0.63046000  0.83853000  0.29580000  1.0
  H  H65  1  0.23521000  0.29580000  0.83853000  1.0
  H  H66  1  0.76482000  0.16147000  0.70423000  1.0
  H  H67  1  0.36947000  0.70424000  0.16147000  1.0
  C  C68  1  0.65851000  0.47891000  0.21900000  1.0
  C  C69  1  0.64359000  0.21900000  0.47891000  1.0
  C  C70  1  0.35642000  0.52111000  0.78107000  1.0
  C  C71  1  0.34140000  0.78107000  0.52111000  1.0
  C  C72  1  0.74320000  0.33158000  0.12067000  1.0
  C  C73  1  0.80455000  0.12067000  0.33158000  1.0
  C  C74  1  0.19542000  0.66844000  0.87941000  1.0
  C  C75  1  0.25673000  0.87941000  0.66844000  1.0
  C  C76  1  0.84233000  0.33879000  0.12362000  1.0
  C  C77  1  0.69526000  0.12362000  0.33879000  1.0
  C  C78  1  0.30470000  0.66124000  0.87647000  1.0
  C  C79  1  0.15760000  0.87647000  0.66123000  1.0
  C  C80  1  0.41161000  0.25872000  0.04068000  1.0
  C  C81  1  0.28899000  0.04068000  0.25872000  1.0
  C  C82  1  0.71118000  0.74131000  0.95920000  1.0
  C  C83  1  0.58831000  0.95921000  0.74131000  1.0
  C  C84  1  0.86943000  0.33879000  0.32890000  1.0
  C  C85  1  0.46288000  0.32890000  0.33879000  1.0
  C  C86  1  0.53710000  0.66120000  0.67108000  1.0
  C  C87  1  0.13062000  0.67108000  0.66120000  1.0
  C  C88  1  0.96424000  0.42589000  0.33815000  1.0
  C  C89  1  0.27171000  0.33815000  0.42590000  1.0
  C  C90  1  0.72829000  0.57413000  0.66176000  1.0
  C  C91  1  0.03582000  0.66175000  0.57413000  1.0
  C  C92  1  0.96980000  0.35876000  0.40310000  1.0
  C  C93  1  0.26835000  0.40310000  0.35876000  1.0
  C  C94  1  0.73162000  0.64122000  0.59675000  1.0
  C  C95  1  0.03041000  0.59675000  0.64122000  1.0
  C  C96  1  0.97500000  0.47924000  0.02524000  1.0
  C  C97  1  0.52052000  0.02524000  0.47924000  1.0
  C  C98  1  0.47961000  0.52076000  0.97470000  1.0
  C  C99  1  0.02493000  0.97471000  0.52076000  1.0
  C  C100  1  0.70943000  0.62689000  0.37143000  1.0
  C  C101  1  0.29225000  0.37143000  0.62689000  1.0
  C  C102  1  0.70799000  0.37311000  0.62861000  1.0
  C  C103  1  0.29029000  0.62861000  0.37311000  1.0
  C  C104  1  0.09467000  0.45412000  0.09979000  1.0
  C  C105  1  0.35142000  0.09979000  0.45412000  1.0
  C  C106  1  0.64869000  0.54591000  0.90019000  1.0
  C  C107  1  0.90522000  0.90020000  0.54590000  1.0
  C  C108  1  0.75071000  0.67222000  0.22253000  1.0
  C  C109  1  0.35454000  0.22253000  0.67222000  1.0
  C  C110  1  0.64537000  0.32781000  0.77751000  1.0
  C  C111  1  0.24930000  0.77752000  0.32781000  1.0
  C  C112  1  0.15489000  0.46824000  0.00252000  1.0
  C  C113  1  0.37435000  0.00251000  0.46824000  1.0
  C  C114  1  0.62572000  0.53180000  0.99747000  1.0
  C  C115  1  0.84501000  0.99748000  0.53180000  1.0
  C  C116  1  0.67061000  0.75838000  0.30025000  1.0
  C  C117  1  0.27075000  0.30025000  0.75838000  1.0
  C  C118  1  0.72931000  0.24162000  0.69980000  1.0
  C  C119  1  0.32927000  0.69980000  0.24162000  1.0
  C  C120  1  0.42996000  0.33582000  0.08750000  1.0
  C  C121  1  0.14672000  0.08750000  0.33582000  1.0
  C  C122  1  0.85347000  0.66426000  0.91235000  1.0
  C  C123  1  0.56993000  0.91235000  0.66426000  1.0
  N  N124  1  0.78793000  0.43310000  0.18594000  1.0
  N  N125  1  0.59303000  0.18594000  0.43310000  1.0
  N  N126  1  0.40697000  0.56694000  0.81413000  1.0
  N  N127  1  0.21196000  0.81413000  0.56694000  1.0
  N  N128  1  0.62848000  0.41998000  0.18068000  1.0
  N  N129  1  0.77086000  0.18067000  0.41998000  1.0
  N  N130  1  0.22914000  0.58003000  0.81940000  1.0
  N  N131  1  0.37143000  0.81940000  0.58003000  1.0
  N  N132  1  0.90080000  0.41238000  0.29012000  1.0
  N  N133  1  0.39670000  0.29012000  0.41238000  1.0
  N  N134  1  0.60330000  0.58764000  0.70988000  1.0
  N  N135  1  0.09918000  0.70987000  0.58764000  1.0
  N  N136  1  0.90972000  0.30474000  0.39683000  1.0
  N  N137  1  0.38873000  0.39683000  0.30473000  1.0
  N  N138  1  0.61121000  0.69523000  0.60309000  1.0
  N  N139  1  0.09047000  0.60308000  0.69523000  1.0
  N  N140  1  0.97980000  0.46073000  0.11400000  1.0
  N  N141  1  0.44547000  0.11399000  0.46073000  1.0
  N  N142  1  0.55464000  0.53929000  0.88598000  1.0
  N  N143  1  0.02009000  0.88598000  0.53929000  1.0
  N  N144  1  0.77522000  0.58836000  0.26845000  1.0
  N  N145  1  0.36797000  0.26845000  0.58836000  1.0
  N  N146  1  0.63207000  0.41165000  0.73158000  1.0
  N  N147  1  0.22470000  0.73158000  0.41165000  1.0
  N  N148  1  0.64597000  0.72918000  0.39351000  1.0
  N  N149  1  0.23134000  0.39351000  0.72918000  1.0
  N  N150  1  0.76887000  0.27082000  0.60654000  1.0
  N  N151  1  0.35377000  0.60654000  0.27082000  1.0
  N  N152  1  0.07878000  0.48452000  0.95660000  1.0
  N  N153  1  0.48011000  0.95660000  0.48452000  1.0
  N  N154  1  0.51999000  0.51548000  0.04337000  1.0
  N  N155  1  0.92115000  0.04337000  0.51549000  1.0
  O  O156  1  0.33404000  0.42564000  0.13573000  1.0
  O  O157  1  0.10460000  0.13573000  0.42563000  1.0
  O  O158  1  0.89562000  0.57445000  0.86409000  1.0
  O  O159  1  0.66585000  0.86409000  0.57445000  1.0
  O  O160  1  0.54034000  0.31113000  0.07894000  1.0
  O  O161  1  0.06960000  0.07894000  0.31112000  1.0
  O  O162  1  0.93060000  0.68893000  0.92096000  1.0
  O  O163  1  0.45952000  0.92096000  0.68893000  1.0
