# generated using pymatgen
data_CoH20C10(SO3)4
_symmetry_space_group_name_H-M   'P 1'
_cell_length_a   4.91679000
_cell_length_b   7.19818000
_cell_length_c   14.16460000
_cell_angle_alpha   96.77120000
_cell_angle_beta   92.24990000
_cell_angle_gamma   99.80120000
_symmetry_Int_Tables_number   1
_chemical_formula_structural   CoH20C10(SO3)4
_chemical_formula_sum   'Co1 H20 C10 S4 O12'
_cell_volume   489.64752187
_cell_formula_units_Z   1
loop_
 _symmetry_equiv_pos_site_id
 _symmetry_equiv_pos_as_xyz
  1  'x, y, z'
loop_
 _atom_site_type_symbol
 _atom_site_label
 _atom_site_symmetry_multiplicity
 _atom_site_fract_x
 _atom_site_fract_y
 _atom_site_fract_z
 _atom_site_occupancy
  Co  Co0  1  0.99999000  0.99999000  0.00000000  1.0
  H  H1  1  0.21828000  0.31214000  0.30876000  1.0
  H  H2  1  0.78172000  0.68787000  0.69123000  1.0
  H  H3  1  0.17254000  0.72132000  0.08626000  1.0
  H  H4  1  0.82745000  0.27867000  0.91374000  1.0
  H  H5  1  0.44426000  0.88390000  0.08932000  1.0
  H  H6  1  0.55574000  0.11610000  0.91068000  1.0
  H  H7  1  0.25512000  0.25035000  0.12728000  1.0
  H  H8  1  0.74486000  0.74965000  0.87272000  1.0
  H  H9  1  0.46340000  0.26071000  0.04279000  1.0
  H  H10  1  0.53661000  0.73929000  0.95721000  1.0
  H  H11  1  0.21509000  0.08447000  0.43393000  1.0
  H  H12  1  0.78493000  0.91553000  0.56607000  1.0
  H  H13  1  0.63139000  0.84780000  0.27768000  1.0
  H  H14  1  0.36863000  0.15221000  0.72232000  1.0
  H  H15  1  0.45133000  0.03521000  0.26164000  1.0
  H  H16  1  0.54866000  0.96477000  0.73838000  1.0
  H  H17  1  0.75730000  0.54636000  0.47070000  1.0
  H  H18  1  0.24271000  0.45363000  0.52931000  1.0
  H  H19  1  0.58138000  0.72787000  0.44152000  1.0
  H  H20  1  0.41861000  0.27212000  0.55847000  1.0
  C  C21  1  0.01414000  0.00005000  0.44611000  1.0
  C  C22  1  0.98587000  0.99994000  0.55389000  1.0
  C  C23  1  0.65576000  0.00327000  0.28114000  1.0
  C  C24  1  0.34424000  0.99673000  0.71886000  1.0
  C  C25  1  0.84965000  0.05942000  0.20470000  1.0
  C  C26  1  0.15032000  0.94058000  0.79528000  1.0
  C  C27  1  0.71886000  0.63099000  0.41363000  1.0
  C  C28  1  0.28113000  0.36900000  0.58637000  1.0
  C  C29  1  0.56010000  0.50009000  0.33076000  1.0
  C  C30  1  0.43990000  0.49991000  0.66923000  1.0
  S  S31  1  0.73659000  0.11594000  0.40152000  1.0
  S  S32  1  0.26340000  0.88407000  0.59849000  1.0
  S  S33  1  0.03802000  0.77044000  0.38440000  1.0
  S  S34  1  0.96199000  0.22955000  0.61560000  1.0
  O  O35  1  0.75954000  0.98725000  0.11920000  1.0
  O  O36  1  0.24045000  0.01276000  0.88082000  1.0
  O  O37  1  0.08384000  0.16292000  0.22352000  1.0
  O  O38  1  0.91613000  0.83714000  0.77647000  1.0
  O  O39  1  0.33103000  0.40372000  0.36201000  1.0
  O  O40  1  0.66898000  0.59627000  0.63799000  1.0
  O  O41  1  0.62568000  0.48445000  0.24776000  1.0
  O  O42  1  0.37435000  0.51553000  0.75223000  1.0
  O  O43  1  0.26345000  0.82285000  0.05258000  1.0
  O  O44  1  0.73654000  0.17715000  0.94742000  1.0
  O  O45  1  0.26842000  0.25133000  0.05737000  1.0
  O  O46  1  0.73158000  0.74867000  0.94262000  1.0
