# generated using pymatgen
data_YH8C6O7
_symmetry_space_group_name_H-M   'P 1'
_cell_length_a   7.66049000
_cell_length_b   10.69674448
_cell_length_c   12.66090000
_cell_angle_alpha   95.30393061
_cell_angle_beta   107.60910000
_cell_angle_gamma   110.98162458
_symmetry_Int_Tables_number   1
_chemical_formula_structural   YH8C6O7
_chemical_formula_sum   'Y4 H32 C24 O28'
_cell_volume   899.48505293
_cell_formula_units_Z   4
loop_
 _symmetry_equiv_pos_site_id
 _symmetry_equiv_pos_as_xyz
  1  'x, y, z'
loop_
 _atom_site_type_symbol
 _atom_site_label
 _atom_site_symmetry_multiplicity
 _atom_site_fract_x
 _atom_site_fract_y
 _atom_site_fract_z
 _atom_site_occupancy
  Y  Y0  1  0.25583000  0.31041000  0.77044000  1.0
  Y  Y1  1  0.32503000  0.81044000  0.27047000  1.0
  Y  Y2  1  0.74418000  0.68959000  0.22956000  1.0
  Y  Y3  1  0.67497000  0.18956000  0.72953000  1.0
  H  H4  1  0.68923000  0.49675000  0.85259000  1.0
  H  H5  1  0.15995000  0.99669000  0.35262000  1.0
  H  H6  1  0.31077000  0.50325000  0.14741000  1.0
  H  H7  1  0.84005000  0.00331000  0.64738000  1.0
  H  H8  1  0.58615000  0.57868000  0.91195000  1.0
  H  H9  1  0.40433000  0.07863000  0.41195000  1.0
  H  H10  1  0.41385000  0.42132000  0.08805000  1.0
  H  H11  1  0.59567000  0.92137000  0.58805000  1.0
  H  H12  1  0.92012000  0.83531000  0.51559000  1.0
  H  H13  1  0.93084000  0.33536000  0.01559000  1.0
  H  H14  1  0.07988000  0.16469000  0.48441000  1.0
  H  H15  1  0.06916000  0.66464000  0.98441000  1.0
  H  H16  1  0.96016000  0.79781000  0.65066000  1.0
  H  H17  1  0.98831000  0.29785000  0.15067000  1.0
  H  H18  1  0.03984000  0.20219000  0.34934000  1.0
  H  H19  1  0.01169000  0.70215000  0.84933000  1.0
  H  H20  1  0.26923000  0.75848000  0.63839000  1.0
  H  H21  1  0.62765000  0.25855000  0.13836000  1.0
  H  H22  1  0.73077000  0.24152000  0.36161000  1.0
  H  H23  1  0.37235000  0.74145000  0.86164000  1.0
  H  H24  1  0.02942000  0.63653000  0.54164000  1.0
  H  H25  1  0.64879000  0.13656000  0.04168000  1.0
  H  H26  1  0.97058000  0.36347000  0.45836000  1.0
  H  H27  1  0.35120000  0.86344000  0.95832000  1.0
  H  H28  1  0.18657000  0.13702000  0.03148000  1.0
  H  H29  1  0.48210000  0.63707000  0.53158000  1.0
  H  H30  1  0.81343000  0.86298000  0.96852000  1.0
  H  H31  1  0.51790000  0.36293000  0.46842000  1.0
  H  H32  1  0.11411000  0.00161000  0.91768000  1.0
  H  H33  1  0.30527000  0.50176000  0.41772000  1.0
  H  H34  1  0.88589000  0.99839000  0.08232000  1.0
  H  H35  1  0.69473000  0.49824000  0.58228000  1.0
  C  C36  1  0.18104000  0.98596000  0.64676000  1.0
  C  C37  1  0.95171000  0.48600000  0.14678000  1.0
  C  C38  1  0.81896000  0.01404000  0.35324000  1.0
  C  C39  1  0.04829000  0.51400000  0.85322000  1.0
  C  C40  1  0.03724000  0.83665000  0.59228000  1.0
  C  C41  1  0.89171000  0.33669000  0.09228000  1.0
  C  C42  1  0.96276000  0.16335000  0.40772000  1.0
  C  C43  1  0.10829000  0.66331000  0.90772000  1.0
  C  C44  1  0.13827000  0.74406000  0.56447000  1.0
  C  C45  1  0.67030000  0.24412000  0.06445000  1.0
  C  C46  1  0.86172000  0.25594000  0.43552000  1.0
  C  C47  1  0.32970000  0.75588000  0.93555000  1.0
  C  C48  1  0.20375000  0.76849000  0.46416000  1.0
  C  C49  1  0.52888000  0.26848000  0.96413000  1.0
  C  C50  1  0.79625000  0.23151000  0.53584000  1.0
  C  C51  1  0.47111000  0.73151000  0.03587000  1.0
  C  C52  1  0.92320000  0.10663000  0.89463000  1.0
  C  C53  1  0.57808000  0.60666000  0.39464000  1.0
  C  C54  1  0.07680000  0.89337000  0.10537000  1.0
  C  C55  1  0.42192000  0.39334000  0.60536000  1.0
  C  C56  1  0.05443000  0.05016000  0.97036000  1.0
  C  C57  1  0.46614000  0.55022000  0.47039000  1.0
  C  C58  1  0.94557000  0.94984000  0.02964000  1.0
  C  C59  1  0.53386000  0.44978000  0.52961000  1.0
  O  O60  1  0.10775000  0.06908000  0.67400000  1.0
  O  O61  1  0.13544000  0.56911000  0.17409000  1.0
  O  O62  1  0.89225000  0.93092000  0.32600000  1.0
  O  O63  1  0.86456000  0.43089000  0.82591000  1.0
  O  O64  1  0.36347000  0.01835000  0.66141000  1.0
  O  O65  1  0.81634000  0.51841000  0.16141000  1.0
  O  O66  1  0.63653000  0.98165000  0.33859000  1.0
  O  O67  1  0.18366000  0.48159000  0.83859000  1.0
  O  O68  1  0.07271000  0.73575000  0.36315000  1.0
  O  O69  1  0.52611000  0.23574000  0.86310000  1.0
  O  O70  1  0.92729000  0.26425000  0.63685000  1.0
  O  O71  1  0.47388000  0.76425000  0.13690000  1.0
  O  O72  1  0.38781000  0.81818000  0.47565000  1.0
  O  O73  1  0.40598000  0.31813000  0.97564000  1.0
  O  O74  1  0.61219000  0.18182000  0.52435000  1.0
  O  O75  1  0.59402000  0.68187000  0.02436000  1.0
  O  O76  1  0.99893000  0.19605000  0.84072000  1.0
  O  O77  1  0.53787000  0.69609000  0.34075000  1.0
  O  O78  1  0.00107000  0.80395000  0.15928000  1.0
  O  O79  1  0.46213000  0.30391000  0.65925000  1.0
  O  O80  1  0.74090000  0.06911000  0.88226000  1.0
  O  O81  1  0.71039000  0.56908000  0.38221000  1.0
  O  O82  1  0.25910000  0.93089000  0.11774000  1.0
  O  O83  1  0.28961000  0.43092000  0.61779000  1.0
  O  O84  1  0.56636000  0.51206000  0.84460000  1.0
  O  O85  1  0.29014000  0.01199000  0.34461000  1.0
  O  O86  1  0.43364000  0.48794000  0.15540000  1.0
  O  O87  1  0.70986000  0.98801000  0.65538000  1.0
