# generated using pymatgen
data_CuH5C5NCl
_symmetry_space_group_name_H-M   'P 1'
_cell_length_a   3.75333000
_cell_length_b   8.59688000
_cell_length_c   8.90008000
_cell_angle_alpha   106.94500000
_cell_angle_beta   89.99790000
_cell_angle_gamma   89.99960000
_symmetry_Int_Tables_number   1
_chemical_formula_structural   CuH5C5NCl
_chemical_formula_sum   'Cu2 H10 C10 N2 Cl2'
_cell_volume   274.71038565
_cell_formula_units_Z   2
loop_
 _symmetry_equiv_pos_site_id
 _symmetry_equiv_pos_as_xyz
  1  'x, y, z'
loop_
 _atom_site_type_symbol
 _atom_site_label
 _atom_site_symmetry_multiplicity
 _atom_site_fract_x
 _atom_site_fract_y
 _atom_site_fract_z
 _atom_site_occupancy
  Cu  Cu0  1  0.34527000  0.51378000  0.39201000  1.0
  Cu  Cu1  1  0.84527000  0.48623000  0.60799000  1.0
  H  H2  1  0.47724000  0.86260000  0.46335000  1.0
  H  H3  1  0.97725000  0.13742000  0.53664000  1.0
  H  H4  1  0.37800000  0.08111000  0.33208000  1.0
  H  H5  1  0.87806000  0.91888000  0.66789000  1.0
  H  H6  1  0.04387000  0.01147000  0.07843000  1.0
  H  H7  1  0.54389000  0.98851000  0.92157000  1.0
  H  H8  1  0.96337000  0.51917000  0.10547000  1.0
  H  H9  1  0.46336000  0.48085000  0.89456000  1.0
  H  H10  1  0.84895000  0.72073000  0.95682000  1.0
  H  H11  1  0.34897000  0.27924000  0.04317000  1.0
  C  C12  1  0.33848000  0.83726000  0.35128000  1.0
  C  C13  1  0.83859000  0.16276000  0.64871000  1.0
  C  C14  1  0.28001000  0.95796000  0.27874000  1.0
  C  C15  1  0.78002000  0.04210000  0.72125000  1.0
  C  C16  1  0.09968000  0.91806000  0.13568000  1.0
  C  C17  1  0.59964000  0.08193000  0.86434000  1.0
  C  C18  1  0.05459000  0.64458000  0.14999000  1.0
  C  C19  1  0.55460000  0.35539000  0.85003000  1.0
  C  C20  1  0.98765000  0.75792000  0.06940000  1.0
  C  C21  1  0.48762000  0.24205000  0.93064000  1.0
  N  N22  1  0.22886000  0.68212000  0.28885000  1.0
  N  N23  1  0.72884000  0.31787000  0.71112000  1.0
  Cl  Cl24  1  0.30798000  0.66402000  0.67190000  1.0
  Cl  Cl25  1  0.80797000  0.33597000  0.32811000  1.0
