# generated using pymatgen
data_ZnH12(C7O3)2
_symmetry_space_group_name_H-M   'P 1'
_cell_length_a   6.23126000
_cell_length_b   7.09039000
_cell_length_c   15.61320000
_cell_angle_alpha   76.92910000
_cell_angle_beta   84.94330000
_cell_angle_gamma   67.29700000
_symmetry_Int_Tables_number   1
_chemical_formula_structural   ZnH12(C7O3)2
_chemical_formula_sum   'Zn2 H24 C28 O12'
_cell_volume   619.88628390
_cell_formula_units_Z   2
loop_
 _symmetry_equiv_pos_site_id
 _symmetry_equiv_pos_as_xyz
  1  'x, y, z'
loop_
 _atom_site_type_symbol
 _atom_site_label
 _atom_site_symmetry_multiplicity
 _atom_site_fract_x
 _atom_site_fract_y
 _atom_site_fract_z
 _atom_site_occupancy
  Zn  Zn0  1  0.99999000  0.00001000  0.00000000  1.0
  Zn  Zn1  1  0.49998000  0.00001000  0.00000000  1.0
  H  H2  1  0.89687000  0.88723000  0.27625000  1.0
  H  H3  1  0.60360000  0.83412000  0.27611000  1.0
  H  H4  1  0.10312000  0.11274000  0.72376000  1.0
  H  H5  1  0.39637000  0.16589000  0.72389000  1.0
  H  H6  1  0.89171000  0.81378000  0.43896000  1.0
  H  H7  1  0.60830000  0.74591000  0.43885000  1.0
  H  H8  1  0.10828000  0.18620000  0.56105000  1.0
  H  H9  1  0.39170000  0.25409000  0.56116000  1.0
  H  H10  1  0.95501000  0.62928000  0.56315000  1.0
  H  H11  1  0.54357000  0.80937000  0.56290000  1.0
  H  H12  1  0.04500000  0.37073000  0.43685000  1.0
  H  H13  1  0.45645000  0.19062000  0.43710000  1.0
  H  H14  1  0.95034000  0.55880000  0.72530000  1.0
  H  H15  1  0.54835000  0.71841000  0.72509000  1.0
  H  H16  1  0.04969000  0.44117000  0.27470000  1.0
  H  H17  1  0.45168000  0.28157000  0.27491000  1.0
  H  H18  1  0.08502000  0.29371000  0.04439000  1.0
  H  H19  1  0.41507000  0.66194000  0.04440000  1.0
  H  H20  1  0.91496000  0.70630000  0.95561000  1.0
  H  H21  1  0.58491000  0.33806000  0.95560000  1.0
  H  H22  1  0.11311000  0.36639000  0.93977000  1.0
  H  H23  1  0.38705000  0.69377000  0.93976000  1.0
  H  H24  1  0.88688000  0.63361000  0.06023000  1.0
  H  H25  1  0.61294000  0.30624000  0.06024000  1.0
  C  C26  1  0.25004000  0.91554000  0.16820000  1.0
  C  C27  1  0.74992000  0.08447000  0.83180000  1.0
  C  C28  1  0.25019000  0.86562000  0.26620000  1.0
  C  C29  1  0.74981000  0.13439000  0.73380000  1.0
  C  C30  1  0.05156000  0.85535000  0.31301000  1.0
  C  C31  1  0.44869000  0.82939000  0.31291000  1.0
  C  C32  1  0.94843000  0.14465000  0.68699000  1.0
  C  C33  1  0.55131000  0.17060000  0.68709000  1.0
  C  C34  1  0.05134000  0.81161000  0.40422000  1.0
  C  C35  1  0.44865000  0.78268000  0.40417000  1.0
  C  C36  1  0.94866000  0.18837000  0.59578000  1.0
  C  C37  1  0.55135000  0.21732000  0.59583000  1.0
  C  C38  1  0.24982000  0.77350000  0.45226000  1.0
  C  C39  1  0.75019000  0.22650000  0.54774000  1.0
  C  C40  1  0.24942000  0.72580000  0.54938000  1.0
  C  C41  1  0.75061000  0.27419000  0.45063000  1.0
  C  C42  1  0.08211000  0.65610000  0.59740000  1.0
  C  C43  1  0.41640000  0.74836000  0.59729000  1.0
  C  C44  1  0.91793000  0.34389000  0.40259000  1.0
  C  C45  1  0.58365000  0.25164000  0.40272000  1.0
  C  C46  1  0.07966000  0.61352000  0.68864000  1.0
  C  C47  1  0.41879000  0.70023000  0.68855000  1.0
  C  C48  1  0.92036000  0.38648000  0.31136000  1.0
  C  C49  1  0.58125000  0.29977000  0.31144000  1.0
  C  C50  1  0.24922000  0.63355000  0.73526000  1.0
  C  C51  1  0.75080000  0.36644000  0.26475000  1.0
  C  C52  1  0.24975000  0.58398000  0.83308000  1.0
  C  C53  1  0.75026000  0.41603000  0.16692000  1.0
  O  O54  1  0.06356000  0.94202000  0.13027000  1.0
  O  O55  1  0.43603000  0.92827000  0.13024000  1.0
  O  O56  1  0.93641000  0.05799000  0.86973000  1.0
  O  O57  1  0.56393000  0.07177000  0.86976000  1.0
  O  O58  1  0.06509000  0.57058000  0.87253000  1.0
  O  O59  1  0.43493000  0.55714000  0.87235000  1.0
  O  O60  1  0.93493000  0.42942000  0.12747000  1.0
  O  O61  1  0.56505000  0.44287000  0.12765000  1.0
  O  O62  1  0.14491000  0.23703000  0.99014000  1.0
  O  O63  1  0.35520000  0.77275000  0.99025000  1.0
  O  O64  1  0.85507000  0.76298000  0.00986000  1.0
  O  O65  1  0.64478000  0.22727000  0.00975000  1.0
