# generated using pymatgen
data_KH8C13SN2(OF)3
_symmetry_space_group_name_H-M   'P 1'
_cell_length_a   6.31332000
_cell_length_b   12.72030000
_cell_length_c   18.43300000
_cell_angle_alpha   90.00000000
_cell_angle_beta   90.00000000
_cell_angle_gamma   97.42080000
_symmetry_Int_Tables_number   1
_chemical_formula_structural   KH8C13SN2(OF)3
_chemical_formula_sum   'K4 H32 C52 S4 N8 O12 F12'
_cell_volume   1467.90638080
_cell_formula_units_Z   4
loop_
 _symmetry_equiv_pos_site_id
 _symmetry_equiv_pos_as_xyz
  1  'x, y, z'
loop_
 _atom_site_type_symbol
 _atom_site_label
 _atom_site_symmetry_multiplicity
 _atom_site_fract_x
 _atom_site_fract_y
 _atom_site_fract_z
 _atom_site_occupancy
  K  K0  1  0.22163000  0.14437000  0.51508000  1.0
  K  K1  1  0.27835000  0.85563000  0.01508000  1.0
  K  K2  1  0.77837000  0.85563000  0.48492000  1.0
  K  K3  1  0.72163000  0.14436000  0.98491000  1.0
  H  H4  1  0.57533000  0.63750000  0.62445000  1.0
  H  H5  1  0.92464000  0.36250000  0.12446000  1.0
  H  H6  1  0.42466000  0.36250000  0.37555000  1.0
  H  H7  1  0.07536000  0.63750000  0.87555000  1.0
  H  H8  1  0.23643000  0.59695000  0.55416000  1.0
  H  H9  1  0.26354000  0.40304000  0.05417000  1.0
  H  H10  1  0.76357000  0.40305000  0.44584000  1.0
  H  H11  1  0.73645000  0.59696000  0.94584000  1.0
  H  H12  1  0.10884000  0.40742000  0.52198000  1.0
  H  H13  1  0.39113000  0.59257000  0.02199000  1.0
  H  H14  1  0.89114000  0.59258000  0.47802000  1.0
  H  H15  1  0.60887000  0.40742000  0.97802000  1.0
  H  H16  1  0.88921000  0.57152000  0.68351000  1.0
  H  H17  1  0.61077000  0.42847000  0.18352000  1.0
  H  H18  1  0.11078000  0.42847000  0.31649000  1.0
  H  H19  1  0.38924000  0.57153000  0.81648000  1.0
  H  H20  1  0.11452000  0.22918000  0.71576000  1.0
  H  H21  1  0.38546000  0.77082000  0.21576000  1.0
  H  H22  1  0.88548000  0.77082000  0.28424000  1.0
  H  H23  1  0.61453000  0.22918000  0.78424000  1.0
  H  H24  1  0.94532000  0.04404000  0.68819000  1.0
  H  H25  1  0.55468000  0.95595000  0.18820000  1.0
  H  H26  1  0.05469000  0.95596000  0.31180000  1.0
  H  H27  1  0.44532000  0.04404000  0.81180000  1.0
  H  H28  1  0.59030000  0.01844000  0.62567000  1.0
  H  H29  1  0.90971000  0.98156000  0.12568000  1.0
  H  H30  1  0.40971000  0.98156000  0.37432000  1.0
  H  H31  1  0.09030000  0.01844000  0.87432000  1.0
  H  H32  1  0.08830000  0.42253000  0.71524000  1.0
  H  H33  1  0.41168000  0.57747000  0.21524000  1.0
  H  H34  1  0.91169000  0.57747000  0.28477000  1.0
  H  H35  1  0.58832000  0.42253000  0.78476000  1.0
  C  C36  1  0.88015000  0.18291000  0.33118000  1.0
  C  C37  1  0.61986000  0.81709000  0.83117000  1.0
  C  C38  1  0.11987000  0.81710000  0.66883000  1.0
  C  C39  1  0.38014000  0.18291000  0.16883000  1.0
  C  C40  1  0.54052000  0.36686000  0.61106000  1.0
  C  C41  1  0.95946000  0.63314000  0.11106000  1.0
  C  C42  1  0.45948000  0.63314000  0.38894000  1.0
  C  C43  1  0.04054000  0.36686000  0.88894000  1.0
  C  C44  1  0.62803000  0.47212000  0.63070000  1.0
  C  C45  1  0.87195000  0.52787000  0.13071000  1.0
  C  C46  1  0.37195000  0.52787000  0.36930000  1.0
  C  C47  1  0.12805000  0.47213000  0.86930000  1.0
  C  C48  1  0.51389000  0.55600000  0.61009000  1.0
  C  C49  1  0.98608000  0.44400000  0.11010000  1.0
  C  C50  1  0.48610000  0.44400000  0.38991000  1.0
  C  C51  1  0.01392000  0.55600000  0.88991000  1.0
  C  C52  1  0.32659000  0.53384000  0.57123000  1.0
  C  C53  1  0.17339000  0.46615000  0.07124000  1.0
  C  C54  1  0.67340000  0.46616000  0.42877000  1.0
  C  C55  1  0.82661000  0.53384000  0.92877000  1.0
  C  C56  1  0.25541000  0.42759000  0.55339000  1.0
  C  C57  1  0.24458000  0.57240000  0.05339000  1.0
  C  C58  1  0.74458000  0.57241000  0.44662000  1.0
  C  C59  1  0.75543000  0.42760000  0.94661000  1.0
  C  C60  1  0.82604000  0.49029000  0.66931000  1.0
  C  C61  1  0.67394000  0.50971000  0.16931000  1.0
  C  C62  1  0.17395000  0.50971000  0.33069000  1.0
  C  C63  1  0.32607000  0.49029000  0.83069000  1.0
  C  C64  1  0.65222000  0.27885000  0.63278000  1.0
  C  C65  1  0.84777000  0.72115000  0.13278000  1.0
  C  C66  1  0.34778000  0.72115000  0.36722000  1.0
  C  C67  1  0.15224000  0.27886000  0.86722000  1.0
  C  C68  1  0.85161000  0.30116000  0.66975000  1.0
  C  C69  1  0.64837000  0.69884000  0.16975000  1.0
  C  C70  1  0.14839000  0.69884000  0.33025000  1.0
  C  C71  1  0.35163000  0.30116000  0.83025000  1.0
  C  C72  1  0.95975000  0.21450000  0.68884000  1.0
  C  C73  1  0.54024000  0.78550000  0.18884000  1.0
  C  C74  1  0.04026000  0.78550000  0.31116000  1.0
  C  C75  1  0.45976000  0.21450000  0.81116000  1.0
  C  C76  1  0.86721000  0.11250000  0.67347000  1.0
  C  C77  1  0.63278000  0.88750000  0.17347000  1.0
  C  C78  1  0.13279000  0.88750000  0.32653000  1.0
  C  C79  1  0.36722000  0.11250000  0.82653000  1.0
  C  C80  1  0.66759000  0.09840000  0.63804000  1.0
  C  C81  1  0.83241000  0.90160000  0.13805000  1.0
  C  C82  1  0.33242000  0.90160000  0.36196000  1.0
  C  C83  1  0.16759000  0.09840000  0.86195000  1.0
  C  C84  1  0.93525000  0.40806000  0.68721000  1.0
  C  C85  1  0.56473000  0.59195000  0.18721000  1.0
  C  C86  1  0.06475000  0.59194000  0.31280000  1.0
  C  C87  1  0.43527000  0.40806000  0.81279000  1.0
  S  S88  1  0.76431000  0.16130000  0.42387000  1.0
  S  S89  1  0.73568000  0.83871000  0.92388000  1.0
  S  S90  1  0.23570000  0.83870000  0.57612000  1.0
  S  S91  1  0.26431000  0.16130000  0.07612000  1.0
  N  N92  1  0.35620000  0.34634000  0.57268000  1.0
  N  N93  1  0.14379000  0.65366000  0.07269000  1.0
  N  N94  1  0.64380000  0.65366000  0.42731000  1.0
  N  N95  1  0.85622000  0.34634000  0.92731000  1.0
  N  N96  1  0.56375000  0.17815000  0.61754000  1.0
  N  N97  1  0.93626000  0.82185000  0.11755000  1.0
  N  N98  1  0.43627000  0.82185000  0.38245000  1.0
  N  N99  1  0.06375000  0.17815000  0.88245000  1.0
  O  O100  1  0.87764000  0.24852000  0.46566000  1.0
  O  O101  1  0.62236000  0.75149000  0.96566000  1.0
  O  O102  1  0.12236000  0.75148000  0.53434000  1.0
  O  O103  1  0.37766000  0.24852000  0.03434000  1.0
  O  O104  1  0.82461000  0.05754000  0.44336000  1.0
  O  O105  1  0.67537000  0.94246000  0.94336000  1.0
  O  O106  1  0.17540000  0.94246000  0.55663000  1.0
  O  O107  1  0.32462000  0.05754000  0.05663000  1.0
  O  O108  1  0.53641000  0.16402000  0.41336000  1.0
  O  O109  1  0.96360000  0.83598000  0.91336000  1.0
  O  O110  1  0.46359000  0.83597000  0.58664000  1.0
  O  O111  1  0.03642000  0.16403000  0.08663000  1.0
  F  F112  1  0.82657000  0.27318000  0.30087000  1.0
  F  F113  1  0.67344000  0.72682000  0.80087000  1.0
  F  F114  1  0.17343000  0.72682000  0.69913000  1.0
  F  F115  1  0.32656000  0.27318000  0.19913000  1.0
  F  F116  1  0.81285000  0.10070000  0.28639000  1.0
  F  F117  1  0.68715000  0.89930000  0.78639000  1.0
  F  F118  1  0.18718000  0.89930000  0.71361000  1.0
  F  F119  1  0.31282000  0.10070000  0.21361000  1.0
  F  F120  1  0.09701000  0.19187000  0.33531000  1.0
  F  F121  1  0.40300000  0.80813000  0.83530000  1.0
  F  F122  1  0.90301000  0.80815000  0.66470000  1.0
  F  F123  1  0.59700000  0.19186000  0.16470000  1.0
