# generated using pymatgen
data_ZnH18C28N3O4
_symmetry_space_group_name_H-M   'P 1'
_cell_length_a   10.23380000
_cell_length_b   11.38860000
_cell_length_c   12.89920000
_cell_angle_alpha   104.82900000
_cell_angle_beta   96.63570000
_cell_angle_gamma   111.72400000
_symmetry_Int_Tables_number   1
_chemical_formula_structural   ZnH18C28N3O4
_chemical_formula_sum   'Zn2 H36 C56 N6 O8'
_cell_volume   1312.55876660
_cell_formula_units_Z   2
loop_
 _symmetry_equiv_pos_site_id
 _symmetry_equiv_pos_as_xyz
  1  'x, y, z'
loop_
 _atom_site_type_symbol
 _atom_site_label
 _atom_site_symmetry_multiplicity
 _atom_site_fract_x
 _atom_site_fract_y
 _atom_site_fract_z
 _atom_site_occupancy
  Zn  Zn0  1  0.63988000  0.55673000  0.90459000  1.0
  Zn  Zn1  1  0.36012000  0.44327000  0.09541000  1.0
  H  H2  1  0.86050000  0.46669000  0.99051000  1.0
  H  H3  1  0.13951000  0.53330000  0.00948000  1.0
  H  H4  1  0.43003000  0.25932000  0.82592000  1.0
  H  H5  1  0.56998000  0.74068000  0.17408000  1.0
  H  H6  1  0.19124000  0.70689000  0.26397000  1.0
  H  H7  1  0.80876000  0.29311000  0.73603000  1.0
  H  H8  1  0.70996000  0.59198000  0.36593000  1.0
  H  H9  1  0.29004000  0.40801000  0.63406000  1.0
  H  H10  1  0.88542000  0.25993000  0.99664000  1.0
  H  H11  1  0.11457000  0.74006000  0.00335000  1.0
  H  H12  1  0.96855000  0.66602000  0.13052000  1.0
  H  H13  1  0.03146000  0.33397000  0.86948000  1.0
  H  H14  1  0.43276000  0.04159000  0.82299000  1.0
  H  H15  1  0.56723000  0.95840000  0.17701000  1.0
  H  H16  1  0.13427000  0.67361000  0.83062000  1.0
  H  H17  1  0.86572000  0.32639000  0.16938000  1.0
  H  H18  1  0.76425000  0.60442000  0.58954000  1.0
  H  H19  1  0.23575000  0.39558000  0.41046000  1.0
  H  H20  1  0.33086000  0.65409000  0.40043000  1.0
  H  H21  1  0.66915000  0.34593000  0.59958000  1.0
  H  H22  1  0.37347000  0.69415000  0.54470000  1.0
  H  H23  1  0.62654000  0.30587000  0.45531000  1.0
  H  H24  1  0.29203000  0.70951000  0.69955000  1.0
  H  H25  1  0.70796000  0.29049000  0.30046000  1.0
  H  H26  1  0.29038000  0.94322000  0.58672000  1.0
  H  H27  1  0.70962000  0.05678000  0.41328000  1.0
  H  H28  1  0.83025000  0.08114000  0.06026000  1.0
  H  H29  1  0.16974000  0.91885000  0.93973000  1.0
  H  H30  1  0.50653000  0.88706000  0.75235000  1.0
  H  H31  1  0.49346000  0.11294000  0.24766000  1.0
  H  H32  1  0.43991000  0.17985000  0.60735000  1.0
  H  H33  1  0.56010000  0.82015000  0.39265000  1.0
  H  H34  1  0.81458000  0.85429000  0.05498000  1.0
  H  H35  1  0.18541000  0.14570000  0.94502000  1.0
  H  H36  1  0.50287000  0.66858000  0.76295000  1.0
  H  H37  1  0.49712000  0.33142000  0.23705000  1.0
  C  C38  1  0.69592000  0.58870000  0.15492000  1.0
  C  C39  1  0.30409000  0.41130000  0.84508000  1.0
  C  C40  1  0.66502000  0.00237000  0.90784000  1.0
  C  C41  1  0.33497000  0.99763000  0.09217000  1.0
  C  C42  1  0.76860000  0.36974000  0.95501000  1.0
  C  C43  1  0.23141000  0.63026000  0.04498000  1.0
  C  C44  1  0.52857000  0.25419000  0.86165000  1.0
  C  C45  1  0.47144000  0.74581000  0.13834000  1.0
  C  C46  1  0.08783000  0.68389000  0.28721000  1.0
  C  C47  1  0.91217000  0.31611000  0.71278000  1.0
  C  C48  1  0.65999000  0.13031000  0.90845000  1.0
  C  C49  1  0.34002000  0.86968000  0.09155000  1.0
  C  C50  1  0.84767000  0.60956000  0.79699000  1.0
  C  C51  1  0.15233000  0.39045000  0.20302000  1.0
  C  C52  1  0.81587000  0.61925000  0.34635000  1.0
  C  C53  1  0.18414000  0.38075000  0.65365000  1.0
  C  C54  1  0.82774000  0.62403000  0.24036000  1.0
  C  C55  1  0.17227000  0.37597000  0.75963000  1.0
  C  C56  1  0.93975000  0.64882000  0.42394000  1.0
  C  C57  1  0.06026000  0.35118000  0.57605000  1.0
  C  C58  1  0.07418000  0.67663000  0.39230000  1.0
  C  C59  1  0.92582000  0.32337000  0.60770000  1.0
  C  C60  1  0.78098000  0.25281000  0.95727000  1.0
  C  C61  1  0.21902000  0.74718000  0.04272000  1.0
  C  C62  1  0.96366000  0.65950000  0.21286000  1.0
  C  C63  1  0.03635000  0.34049000  0.78714000  1.0
  C  C64  1  0.53142000  0.13289000  0.86008000  1.0
  C  C65  1  0.46858000  0.86710000  0.13992000  1.0
  C  C66  1  0.09012000  0.67070000  0.74870000  1.0
  C  C67  1  0.90988000  0.32931000  0.25130000  1.0
  C  C68  1  0.94118000  0.63884000  0.71801000  1.0
  C  C69  1  0.05882000  0.36117000  0.28200000  1.0
  C  C70  1  0.87980000  0.63012000  0.61203000  1.0
  C  C71  1  0.12021000  0.36989000  0.38797000  1.0
  C  C72  1  0.32768000  0.72123000  0.47767000  1.0
  C  C73  1  0.67233000  0.27877000  0.52233000  1.0
  C  C74  1  0.96703000  0.65257000  0.53749000  1.0
  C  C75  1  0.03297000  0.34743000  0.46251000  1.0
  C  C76  1  0.41622000  0.86578000  0.48928000  1.0
  C  C77  1  0.58378000  0.13423000  0.51073000  1.0
  C  C78  1  0.11662000  0.68116000  0.56940000  1.0
  C  C79  1  0.88339000  0.31885000  0.43060000  1.0
  C  C80  1  0.17901000  0.69111000  0.67533000  1.0
  C  C81  1  0.82099000  0.30889000  0.32468000  1.0
  C  C82  1  0.38289000  0.96801000  0.54898000  1.0
  C  C83  1  0.61712000  0.03201000  0.45103000  1.0
  C  C84  1  0.75605000  0.99266000  0.99229000  1.0
  C  C85  1  0.24394000  0.00734000  0.00772000  1.0
  C  C86  1  0.57459000  0.88410000  0.82229000  1.0
  C  C87  1  0.42540000  0.11590000  0.17772000  1.0
  C  C88  1  0.46603000  0.10084000  0.55974000  1.0
  C  C89  1  0.53397000  0.89917000  0.44026000  1.0
  C  C90  1  0.74805000  0.86727000  0.99026000  1.0
  C  C91  1  0.25194000  0.13273000  0.00974000  1.0
  C  C92  1  0.57324000  0.76310000  0.82659000  1.0
  C  C93  1  0.42675000  0.23689000  0.17341000  1.0
  N  N94  1  0.64496000  0.37120000  0.90804000  1.0
  N  N95  1  0.35505000  0.62879000  0.09195000  1.0
  N  N96  1  0.65654000  0.75409000  0.91017000  1.0
  N  N97  1  0.34345000  0.24590000  0.08984000  1.0
  N  N98  1  0.17819000  0.69292000  0.48019000  1.0
  N  N99  1  0.82181000  0.30708000  0.51981000  1.0
  O  O100  1  0.57434000  0.51985000  0.17127000  1.0
  O  O101  1  0.42567000  0.48014000  0.82872000  1.0
  O  O102  1  0.71362000  0.63125000  0.07307000  1.0
  O  O103  1  0.28638000  0.36874000  0.92693000  1.0
  O  O104  1  0.70984000  0.54546000  0.75686000  1.0
  O  O105  1  0.29016000  0.45454000  0.24314000  1.0
  O  O106  1  0.90336000  0.64735000  0.89943000  1.0
  O  O107  1  0.09663000  0.35266000  0.10057000  1.0
