# generated using pymatgen
data_Zn4H49C69N17O4
_symmetry_space_group_name_H-M   'P 1'
_cell_length_a   14.51980000
_cell_length_b   14.67100000
_cell_length_c   14.87890000
_cell_angle_alpha   103.71400000
_cell_angle_beta   112.09200000
_cell_angle_gamma   111.85100000
_symmetry_Int_Tables_number   1
_chemical_formula_structural   Zn4H49C69N17O4
_chemical_formula_sum   'Zn4 H49 C69 N17 O4'
_cell_volume   2449.85882268
_cell_formula_units_Z   1
loop_
 _symmetry_equiv_pos_site_id
 _symmetry_equiv_pos_as_xyz
  1  'x, y, z'
loop_
 _atom_site_type_symbol
 _atom_site_label
 _atom_site_symmetry_multiplicity
 _atom_site_fract_x
 _atom_site_fract_y
 _atom_site_fract_z
 _atom_site_occupancy
  Zn  Zn0  1  0.86916000  0.86284000  0.50190000  1.0
  Zn  Zn1  1  0.15028000  0.14344000  0.49667000  1.0
  Zn  Zn2  1  0.14922000  0.99845000  0.63233000  1.0
  Zn  Zn3  1  0.86699000  0.00428000  0.36235000  1.0
  H  H4  1  0.82148000  0.00514000  0.66140000  1.0
  H  H5  1  0.39157000  0.44390000  0.31834000  1.0
  H  H6  1  0.34492000  0.56891000  0.25263000  1.0
  H  H7  1  0.19776000  0.34827000  0.68179000  1.0
  H  H8  1  0.50596000  0.65743000  0.64172000  1.0
  H  H9  1  0.24797000  0.73800000  0.41552000  1.0
  H  H10  1  0.40649000  0.89119000  0.21174000  1.0
  H  H11  1  0.05716000  0.77732000  0.11047000  1.0
  H  H12  1  0.97015000  0.84745000  0.98609000  1.0
  H  H13  1  0.09408000  0.02666000  0.99747000  1.0
  H  H14  1  0.30526000  0.13426000  0.13265000  1.0
  H  H15  1  0.17496000  0.00674000  0.31118000  1.0
  H  H16  1  0.39227000  0.06220000  0.25519000  1.0
  H  H17  1  0.85051000  0.35205000  0.64318000  1.0
  H  H18  1  0.40830000  0.17005000  0.85218000  1.0
  H  H19  1  0.22960000  0.68616000  0.64748000  1.0
  H  H20  1  0.30332000  0.73485000  0.79061000  1.0
  H  H21  1  0.23199000  0.51416000  0.62541000  1.0
  H  H22  1  0.30582000  0.56158000  0.76858000  1.0
  H  H23  1  0.78203000  0.66261000  0.99825000  1.0
  H  H24  1  0.63090000  0.49738000  0.83077000  1.0
  H  H25  1  0.45143000  0.32686000  0.04372000  1.0
  H  H26  1  0.19961000  0.83468000  0.74001000  1.0
  H  H27  1  0.54484000  0.27222000  0.05825000  1.0
  H  H28  1  0.60678000  0.49364000  0.21378000  1.0
  H  H29  1  0.58780000  0.93871000  0.25588000  1.0
  H  H30  1  0.70186000  0.44085000  0.22960000  1.0
  H  H31  1  0.17134000  0.29639000  0.17069000  1.0
  H  H32  1  0.78613000  0.90870000  0.94748000  1.0
  H  H33  1  0.71716000  0.98719000  0.93348000  1.0
  H  H34  1  0.79047000  0.90039000  0.77940000  1.0
  H  H35  1  0.72179000  0.97913000  0.76470000  1.0
  H  H36  1  0.41493000  0.36829000  0.67820000  1.0
  H  H37  1  0.81809000  0.04188000  0.14058000  1.0
  H  H38  1  0.60033000  0.75774000  0.44715000  1.0
  H  H39  1  0.82270000  0.17802000  0.50002000  1.0
  H  H40  1  0.19686000  0.17646000  0.84679000  1.0
  H  H41  1  0.83738000  0.65128000  0.33957000  1.0
  H  H42  1  0.50046000  0.88734000  0.73298000  1.0
  H  H43  1  0.76535000  0.44823000  0.64959000  1.0
  H  H44  1  0.75720000  0.59947000  0.73533000  1.0
  H  H45  1  0.89812000  0.68975000  0.76593000  1.0
  H  H46  1  0.88043000  0.60535000  0.83397000  1.0
  H  H47  1  0.25844000  0.41625000  0.96164000  1.0
  H  H48  1  0.19250000  0.23209000  0.31824000  1.0
  H  H49  1  0.82540000  0.65012000  0.56729000  1.0
  H  H50  1  0.83387000  0.83655000  0.15167000  1.0
  H  H51  1  0.16596000  0.80794000  0.48564000  1.0
  H  H52  1  0.47245000  0.48703000  0.51499000  1.0
  C  C53  1  0.91341000  0.03819000  0.69243000  1.0
  C  C54  1  0.91651000  0.70956000  0.60460000  1.0
  C  C55  1  0.84277000  0.80656000  0.21273000  1.0
  C  C56  1  0.10544000  0.29170000  0.62774000  1.0
  C  C57  1  0.16339000  0.86568000  0.45209000  1.0
  C  C58  1  0.81347000  0.70039000  0.20308000  1.0
  C  C59  1  0.18554000  0.88011000  0.37030000  1.0
  C  C60  1  0.01368000  0.70540000  0.66882000  1.0
  C  C61  1  0.00418000  0.14559000  0.18907000  1.0
  C  C62  1  0.40652000  0.51763000  0.37552000  1.0
  C  C63  1  0.38059000  0.58860000  0.33811000  1.0
  C  C64  1  0.01202000  0.30659000  0.61644000  1.0
  C  C65  1  0.40093000  0.68603000  0.40853000  1.0
  C  C66  1  0.44730000  0.71030000  0.51907000  1.0
  C  C67  1  0.47034000  0.63713000  0.55610000  1.0
  C  C68  1  0.39267000  0.20392000  0.79435000  1.0
  C  C69  1  0.45144000  0.54188000  0.48497000  1.0
  C  C70  1  0.28247000  0.77257000  0.37018000  1.0
  C  C71  1  0.24365000  0.83579000  0.32779000  1.0
  C  C72  1  0.28188000  0.86862000  0.25979000  1.0
  C  C73  1  0.37306000  0.85816000  0.25836000  1.0
  C  C74  1  0.42511000  0.81083000  0.31590000  1.0
  C  C75  1  0.45995000  0.30888000  0.80632000  1.0
  C  C76  1  0.36932000  0.75722000  0.36364000  1.0
  C  C77  1  0.11122000  0.85548000  0.11488000  1.0
  C  C78  1  0.06275000  0.89525000  0.04554000  1.0
  C  C79  1  0.13218000  0.99542000  0.05132000  1.0
  C  C80  1  0.60835000  0.89816000  0.30619000  1.0
  C  C81  1  0.25081000  0.05544000  0.12692000  1.0
  C  C82  1  0.29970000  0.01510000  0.19562000  1.0
  C  C83  1  0.23060000  0.91475000  0.19070000  1.0
  C  C84  1  0.11793000  0.50884000  0.69308000  1.0
  C  C85  1  0.01975000  0.41095000  0.66043000  1.0
  C  C86  1  0.53887000  0.83070000  0.33577000  1.0
  C  C87  1  0.92729000  0.42299000  0.65961000  1.0
  C  C88  1  0.92627000  0.52118000  0.67503000  1.0
  C  C89  1  0.02024000  0.61511000  0.68953000  1.0
  C  C90  1  0.11672000  0.60544000  0.70581000  1.0
  C  C91  1  0.23262000  0.66349000  0.71345000  1.0
  C  C92  1  0.39690000  0.30467000  0.70539000  1.0
  C  C93  1  0.23416000  0.55425000  0.69941000  1.0
  C  C94  1  0.67397000  0.50020000  0.10209000  1.0
  C  C95  1  0.74438000  0.59832000  0.10513000  1.0
  C  C96  1  0.72742000  0.59097000  0.00289000  1.0
  C  C97  1  0.84339000  0.71174000  0.30839000  1.0
  C  C98  1  0.64061000  0.49652000  0.90698000  1.0
  C  C99  1  0.56292000  0.40111000  0.90459000  1.0
  C  C100  1  0.58717000  0.40632000  0.00657000  1.0
  C  C101  1  0.53945000  0.34596000  0.06338000  1.0
  C  C102  1  0.63819000  0.45224000  0.17164000  1.0
  C  C103  1  0.90738000  0.07637000  0.89583000  1.0
  C  C104  1  0.61435000  0.80621000  0.40377000  1.0
  C  C105  1  0.00400000  0.14539000  0.89489000  1.0
  C  C106  1  0.09730000  0.22977000  0.99982000  1.0
  C  C107  1  0.09476000  0.23154000  0.09384000  1.0
  C  C108  1  0.16801000  0.96714000  0.36316000  1.0
  C  C109  1  0.00033000  0.15450000  0.09280000  1.0
  C  C110  1  0.90487000  0.08056000  0.98924000  1.0
  C  C111  1  0.78691000  0.97714000  0.92883000  1.0
  C  C112  1  0.78965000  0.97195000  0.82274000  1.0
  C  C113  1  0.91400000  0.20453000  0.53576000  1.0
  C  C114  1  0.10512000  0.12661000  0.78680000  1.0
  C  C115  1  0.00895000  0.11389000  0.79704000  1.0
  C  C116  1  0.48404000  0.81831000  0.59927000  1.0
  C  C117  1  0.84221000  0.60857000  0.75583000  1.0
  C  C118  1  0.20318000  0.32223000  0.01972000  1.0
  C  C119  1  0.10745000  0.80294000  0.69202000  1.0
  C  C120  1  0.91023000  0.08568000  0.19899000  1.0
  C  C121  1  0.10108000  0.18410000  0.29017000  1.0
  N  N122  1  0.95099000  0.00829000  0.62712000  1.0
  N  N123  1  0.29823000  0.14270000  0.69474000  1.0
  N  N124  1  0.71501000  0.91225000  0.35256000  1.0
  N  N125  1  0.30039000  0.20544000  0.63928000  1.0
  N  N126  1  0.71834000  0.85479000  0.41320000  1.0
  N  N127  1  0.94792000  0.13644000  0.50125000  1.0
  N  N128  1  0.06857000  0.06237000  0.68524000  1.0
  N  N129  1  0.88487000  0.81575000  0.37382000  1.0
  N  N130  1  0.82725000  0.52321000  0.66738000  1.0
  N  N131  1  0.14052000  0.00154000  0.43608000  1.0
  N  N132  1  0.06927000  0.85928000  0.64491000  1.0
  N  N133  1  0.94820000  0.08889000  0.29776000  1.0
  N  N134  1  0.06712000  0.14990000  0.35451000  1.0
  N  N135  1  0.95039000  0.80124000  0.59044000  1.0
  N  N136  1  0.88402000  0.87403000  0.31517000  1.0
  N  N137  1  0.13770000  0.93942000  0.49077000  1.0
  N  N138  1  0.06549000  0.18996000  0.55793000  1.0
  O  O139  1  0.52726000  0.90556000  0.59581000  1.0
  O  O140  1  0.46899000  0.81175000  0.68369000  1.0
  O  O141  1  0.29902000  0.37072000  0.10223000  1.0
  O  O142  1  0.18403000  0.35387000  0.93872000  1.0
