# generated using pymatgen
data_Ag2P2H13C14NO5
_symmetry_space_group_name_H-M   'P 1'
_cell_length_a   5.79390000
_cell_length_b   10.99120000
_cell_length_c   13.07720000
_cell_angle_alpha   83.63020000
_cell_angle_beta   84.77010000
_cell_angle_gamma   86.92040000
_symmetry_Int_Tables_number   1
_chemical_formula_structural   Ag2P2H13C14NO5
_chemical_formula_sum   'Ag4 P4 H26 C28 N2 O10'
_cell_volume   823.39392528
_cell_formula_units_Z   2
loop_
 _symmetry_equiv_pos_site_id
 _symmetry_equiv_pos_as_xyz
  1  'x, y, z'
loop_
 _atom_site_type_symbol
 _atom_site_label
 _atom_site_symmetry_multiplicity
 _atom_site_fract_x
 _atom_site_fract_y
 _atom_site_fract_z
 _atom_site_occupancy
  Ag  Ag0  1  0.18167000  0.46440000  0.42236000  1.0
  Ag  Ag1  1  0.81831000  0.53561000  0.57763000  1.0
  Ag  Ag2  1  0.26478000  0.70391000  0.47188000  1.0
  Ag  Ag3  1  0.73519000  0.29608000  0.52813000  1.0
  P  P4  1  0.20484000  0.33934000  0.66724000  1.0
  P  P5  1  0.79513000  0.66067000  0.33275000  1.0
  P  P6  1  0.30206000  0.58618000  0.72188000  1.0
  P  P7  1  0.69792000  0.41382000  0.27812000  1.0
  H  H8  1  0.60344000  0.25967000  0.78643000  1.0
  H  H9  1  0.39654000  0.74034000  0.21356000  1.0
  H  H10  1  0.70716000  0.06062000  0.88449000  1.0
  H  H11  1  0.29283000  0.93941000  0.11551000  1.0
  H  H12  1  0.46041000  0.88108000  0.88308000  1.0
  H  H13  1  0.53961000  0.11894000  0.11692000  1.0
  H  H14  1  0.11030000  0.90251000  0.78638000  1.0
  H  H15  1  0.88973000  0.09749000  0.21362000  1.0
  H  H16  1  0.99775000  0.10425000  0.69328000  1.0
  H  H17  1  0.00225000  0.89575000  0.30672000  1.0
  H  H18  1  0.84614000  0.68738000  0.79623000  1.0
  H  H19  1  0.15385000  0.31262000  0.20378000  1.0
  H  H20  1  0.70191000  0.75699000  0.96706000  1.0
  H  H21  1  0.29809000  0.24300000  0.03296000  1.0
  H  H22  1  0.95047000  0.72756000  0.11272000  1.0
  H  H23  1  0.04956000  0.27242000  0.88729000  1.0
  H  H24  1  0.49912000  0.57056000  0.91742000  1.0
  H  H25  1  0.50088000  0.42943000  0.08257000  1.0
  H  H26  1  0.34597000  0.62910000  0.08992000  1.0
  H  H27  1  0.65405000  0.37089000  0.91008000  1.0
  H  H28  1  0.29250000  0.19038000  0.46798000  1.0
  H  H29  1  0.70750000  0.80962000  0.53202000  1.0
  H  H30  1  0.09169000  0.17447000  0.37542000  1.0
  H  H31  1  0.90832000  0.82552000  0.62458000  1.0
  H  H32  1  0.39671000  0.16398000  0.34004000  1.0
  H  H33  1  0.60328000  0.83602000  0.65996000  1.0
  C  C34  1  0.29237000  0.19491000  0.73462000  1.0
  C  C35  1  0.70764000  0.80510000  0.26538000  1.0
  C  C36  1  0.49371000  0.18202000  0.78771000  1.0
  C  C37  1  0.50629000  0.81800000  0.21230000  1.0
  C  C38  1  0.55320000  0.06949000  0.84155000  1.0
  C  C39  1  0.44680000  0.93053000  0.15845000  1.0
  C  C40  1  0.41524000  0.96908000  0.84088000  1.0
  C  C41  1  0.58479000  0.03093000  0.15913000  1.0
  C  C42  1  0.21756000  0.98103000  0.78612000  1.0
  C  C43  1  0.78247000  0.01897000  0.21388000  1.0
  C  C44  1  0.15522000  0.09370000  0.73352000  1.0
  C  C45  1  0.84479000  0.90630000  0.26649000  1.0
  C  C46  1  0.18358000  0.62693000  0.84587000  1.0
  C  C47  1  0.81641000  0.37307000  0.15413000  1.0
  C  C48  1  0.95761000  0.67843000  0.85977000  1.0
  C  C49  1  0.04238000  0.32156000  0.14024000  1.0
  C  C50  1  0.87645000  0.71582000  0.95573000  1.0
  C  C51  1  0.12356000  0.28417000  0.04428000  1.0
  C  C52  1  0.01609000  0.69904000  0.03810000  1.0
  C  C53  1  0.98392000  0.30095000  0.96190000  1.0
  C  C54  1  0.32340000  0.61001000  0.92887000  1.0
  C  C55  1  0.67661000  0.38998000  0.07113000  1.0
  C  C56  1  0.23859000  0.64455000  0.02506000  1.0
  C  C57  1  0.76142000  0.35545000  0.97494000  1.0
  C  C58  1  0.26253000  0.01167000  0.43250000  1.0
  C  C59  1  0.73749000  0.98832000  0.56750000  1.0
  C  C60  1  0.26062000  0.14133000  0.40213000  1.0
  C  C61  1  0.73938000  0.85866000  0.59788000  1.0
  N  N62  1  0.26276000  0.90664000  0.45706000  1.0
  N  N63  1  0.73726000  0.09336000  0.54293000  1.0
  O  O64  1  0.29532000  0.43492000  0.73787000  1.0
  O  O65  1  0.70464000  0.56508000  0.26213000  1.0
  O  O66  1  0.94119000  0.34989000  0.66973000  1.0
  O  O67  1  0.05879000  0.65012000  0.33027000  1.0
  O  O68  1  0.33524000  0.35483000  0.55952000  1.0
  O  O69  1  0.66475000  0.64518000  0.44047000  1.0
  O  O70  1  0.55319000  0.61701000  0.70406000  1.0
  O  O71  1  0.44680000  0.38299000  0.29594000  1.0
  O  O72  1  0.13822000  0.63558000  0.64093000  1.0
  O  O73  1  0.86177000  0.36443000  0.35907000  1.0
