# generated using pymatgen
data_CuH14C20(N2O3)2
_symmetry_space_group_name_H-M   'P 1'
_cell_length_a   8.75145000
_cell_length_b   9.35887000
_cell_length_c   14.13520000
_cell_angle_alpha   79.84250000
_cell_angle_beta   71.96700000
_cell_angle_gamma   62.12210000
_symmetry_Int_Tables_number   1
_chemical_formula_structural   CuH14C20(N2O3)2
_chemical_formula_sum   'Cu2 H28 C40 N8 O12'
_cell_volume   972.40878417
_cell_formula_units_Z   2
loop_
 _symmetry_equiv_pos_site_id
 _symmetry_equiv_pos_as_xyz
  1  'x, y, z'
loop_
 _atom_site_type_symbol
 _atom_site_label
 _atom_site_symmetry_multiplicity
 _atom_site_fract_x
 _atom_site_fract_y
 _atom_site_fract_z
 _atom_site_occupancy
  Cu  Cu0  1  0.00000000  0.50000000  0.50000000  1.0
  Cu  Cu1  1  0.00000000  0.00000000  0.00000000  1.0
  H  H2  1  0.95434000  0.42565000  0.88375000  1.0
  H  H3  1  0.26355000  0.07413000  0.61616000  1.0
  H  H4  1  0.04565000  0.57434000  0.11625000  1.0
  H  H5  1  0.73645000  0.92588000  0.38383000  1.0
  H  H6  1  0.97936000  0.81460000  0.52380000  1.0
  H  H7  1  0.31785000  0.68531000  0.97618000  1.0
  H  H8  1  0.02064000  0.18539000  0.47620000  1.0
  H  H9  1  0.68216000  0.31469000  0.02382000  1.0
  H  H10  1  0.96014000  0.96438000  0.66130000  1.0
  H  H11  1  0.58510000  0.53501000  0.83848000  1.0
  H  H12  1  0.03986000  0.03562000  0.33870000  1.0
  H  H13  1  0.41491000  0.46500000  0.16152000  1.0
  H  H14  1  0.94106000  0.83903000  0.83305000  1.0
  H  H15  1  0.61222000  0.66025000  0.66666667  1.0
  H  H16  1  0.05894000  0.16097000  0.16695000  1.0
  H  H17  1  0.38779000  0.33976000  0.33333333  1.0
  H  H18  1  0.98867000  0.42058000  0.71487000  1.0
  H  H19  1  0.12452000  0.07958000  0.78517000  1.0
  H  H20  1  0.01133000  0.57942000  0.28513000  1.0
  H  H21  1  0.87548000  0.92042000  0.21483000  1.0
  H  H22  1  0.42240000  0.64723000  0.42609000  1.0
  H  H23  1  0.49573000  0.85305000  0.07396000  1.0
  H  H24  1  0.57760000  0.35278000  0.57391000  1.0
  H  H25  1  0.50428000  0.14695000  0.92604000  1.0
  H  H26  1  0.68541000  0.70043000  0.33961000  1.0
  H  H27  1  0.72542000  0.79964000  0.16047000  1.0
  H  H28  1  0.31459000  0.29957000  0.66039000  1.0
  H  H29  1  0.27458000  0.20035000  0.83954000  1.0
  C  C30  1  0.97930000  0.76123000  0.59862000  1.0
  C  C31  1  0.33906000  0.73858000  0.90130000  1.0
  C  C32  1  0.02070000  0.23877000  0.40138000  1.0
  C  C33  1  0.66094000  0.26142000  0.09870000  1.0
  C  C34  1  0.96505000  0.84415000  0.67573000  1.0
  C  C35  1  0.48437000  0.65541000  0.82411000  1.0
  C  C36  1  0.03495000  0.15585000  0.32427000  1.0
  C  C37  1  0.51564000  0.34460000  0.17589000  1.0
  C  C38  1  0.95689000  0.77399000  0.77150000  1.0
  C  C39  1  0.50176000  0.72548000  0.72830000  1.0
  C  C40  1  0.04311000  0.22601000  0.22850000  1.0
  C  C41  1  0.49825000  0.27452000  0.27170000  1.0
  C  C42  1  0.96684000  0.61807000  0.78663000  1.0
  C  C43  1  0.37134000  0.88173000  0.71327000  1.0
  C  C44  1  0.03316000  0.38193000  0.21337000  1.0
  C  C45  1  0.62866000  0.11828000  0.28673000  1.0
  C  C46  1  0.98217000  0.54112000  0.70509000  1.0
  C  C47  1  0.22859000  0.95887000  0.79490000  1.0
  C  C48  1  0.01782000  0.45888000  0.29491000  1.0
  C  C49  1  0.77141000  0.04112000  0.20510000  1.0
  C  C50  1  0.99017000  0.56808000  0.95957000  1.0
  C  C51  1  0.51784000  0.93197000  0.54046000  1.0
  C  C52  1  0.00982000  0.43192000  0.04043000  1.0
  C  C53  1  0.48217000  0.06803000  0.45955000  1.0
  C  C54  1  0.14802000  0.69737000  0.35782000  1.0
  C  C55  1  0.20320000  0.80280000  0.14207000  1.0
  C  C56  1  0.85198000  0.30264000  0.64218000  1.0
  C  C57  1  0.79680000  0.19719000  0.85793000  1.0
  C  C58  1  0.31110000  0.72062000  0.29982000  1.0
  C  C59  1  0.33152000  0.77952000  0.20012000  1.0
  C  C60  1  0.68890000  0.27939000  0.70018000  1.0
  C  C61  1  0.66849000  0.22048000  0.79988000  1.0
  C  C62  1  0.44006000  0.69209000  0.34875000  1.0
  C  C63  1  0.48087000  0.80808000  0.15127000  1.0
  C  C64  1  0.55993000  0.30792000  0.65126000  1.0
  C  C65  1  0.51913000  0.19192000  0.84873000  1.0
  C  C66  1  0.58790000  0.72178000  0.29967000  1.0
  C  C67  1  0.60931000  0.77830000  0.20038000  1.0
  C  C68  1  0.41210000  0.27823000  0.70033000  1.0
  C  C69  1  0.39070000  0.22170000  0.79962000  1.0
  N  N70  1  0.98782000  0.61153000  0.61377000  1.0
  N  N71  1  0.21324000  0.88850000  0.88622000  1.0
  N  N72  1  0.01218000  0.38847000  0.38623000  1.0
  N  N73  1  0.78676000  0.11151000  0.11378000  1.0
  N  N74  1  0.96669000  0.53153000  0.87790000  1.0
  N  N75  1  0.37597000  0.96828000  0.62200000  1.0
  N  N76  1  0.03330000  0.46846000  0.12210000  1.0
  N  N77  1  0.62403000  0.03172000  0.37800000  1.0
  O  O78  1  0.99744000  0.69221000  0.97171000  1.0
  O  O79  1  0.66162000  0.80806000  0.52845000  1.0
  O  O80  1  0.00254000  0.30778000  0.02829000  1.0
  O  O81  1  0.33838000  0.19194000  0.47155000  1.0
  O  O82  1  0.99513000  0.80475000  0.35311000  1.0
  O  O83  1  0.15302000  0.69545000  0.14669000  1.0
  O  O84  1  0.00487000  0.19525000  0.64690000  1.0
  O  O85  1  0.84700000  0.30455000  0.85331000  1.0
  O  O86  1  0.18216000  0.56540000  0.41212000  1.0
  O  O87  1  0.15963000  0.93487000  0.08783000  1.0
  O  O88  1  0.81784000  0.43461000  0.58788000  1.0
  O  O89  1  0.84037000  0.06512000  0.91216000  1.0
