# generated using pymatgen
data_CuH8C11N3
_symmetry_space_group_name_H-M   'P 1'
_cell_length_a   9.34451000
_cell_length_b   12.74310000
_cell_length_c   13.03260000
_cell_angle_alpha   74.79640000
_cell_angle_beta   72.96660000
_cell_angle_gamma   70.29770000
_symmetry_Int_Tables_number   1
_chemical_formula_structural   CuH8C11N3
_chemical_formula_sum   'Cu2 H16 C22 N6'
_cell_volume   1373.71873746
_cell_formula_units_Z   2
loop_
 _symmetry_equiv_pos_site_id
 _symmetry_equiv_pos_as_xyz
  1  'x, y, z'
loop_
 _atom_site_type_symbol
 _atom_site_label
 _atom_site_symmetry_multiplicity
 _atom_site_fract_x
 _atom_site_fract_y
 _atom_site_fract_z
 _atom_site_occupancy
  Cu  Cu0  1  0.75260000  0.45973000  0.05322000  1.0
  Cu  Cu1  1  0.24741000  0.54027000  0.94676000  1.0
  H  H2  1  0.11570000  0.59417000  0.73425000  1.0
  H  H3  1  0.22343000  0.57975000  0.54018000  1.0
  H  H4  1  0.68065000  0.43715000  0.61514000  1.0
  H  H5  1  0.55041000  0.46417000  0.80708000  1.0
  H  H6  1  0.83700000  0.94013000  0.92998000  1.0
  H  H7  1  0.95401000  0.74511000  0.89498000  1.0
  H  H8  1  0.35294000  0.70790000  0.99352000  1.0
  H  H9  1  0.25409000  0.90432000  0.03381000  1.0
  H  H10  1  0.88429000  0.40583000  0.26576000  1.0
  H  H11  1  0.77656000  0.42025000  0.45982000  1.0
  H  H12  1  0.31936000  0.56287000  0.38485000  1.0
  H  H13  1  0.44960000  0.53584000  0.19292000  1.0
  H  H14  1  0.16303000  0.05987000  0.06998000  1.0
  H  H15  1  0.04599000  0.25489000  0.10502000  1.0
  H  H16  1  0.64704000  0.29208000  0.00652000  1.0
  H  H17  1  0.74589000  0.09568000  0.96622000  1.0
  C  C18  1  0.24122000  0.56033000  0.70410000  1.0
  C  C19  1  0.30292000  0.55125000  0.59491000  1.0
  C  C20  1  0.46451000  0.50601000  0.55767000  1.0
  C  C21  1  0.55457000  0.47309000  0.63631000  1.0
  C  C22  1  0.48422000  0.48633000  0.74379000  1.0
  C  C23  1  0.96674000  0.05785000  0.01264000  1.0
  C  C24  1  0.04827000  0.10632000  0.05377000  1.0
  C  C25  1  0.98259000  0.21619000  0.07433000  1.0
  C  C26  1  0.23924000  0.76461000  0.98050000  1.0
  C  C27  1  0.18164000  0.87386000  0.00309000  1.0
  C  C28  1  0.56506000  0.49669000  0.00673000  1.0
  C  C29  1  0.75877000  0.43967000  0.29590000  1.0
  C  C30  1  0.69708000  0.44876000  0.40509000  1.0
  C  C31  1  0.53549000  0.49400000  0.44233000  1.0
  C  C32  1  0.44543000  0.52691000  0.36368000  1.0
  C  C33  1  0.51578000  0.51368000  0.25621000  1.0
  C  C34  1  0.03325000  0.94215000  0.98735000  1.0
  C  C35  1  0.95174000  0.89369000  0.94621000  1.0
  C  C36  1  0.01742000  0.78381000  0.92567000  1.0
  C  C37  1  0.76074000  0.23539000  0.01951000  1.0
  C  C38  1  0.81835000  0.12614000  0.99692000  1.0
  C  C39  1  0.43496000  0.50330000  0.99327000  1.0
  N  N40  1  0.32911000  0.52901000  0.77817000  1.0
  N  N41  1  0.84169000  0.28106000  0.05718000  1.0
  N  N42  1  0.06208000  0.50424000  0.98750000  1.0
  N  N43  1  0.67090000  0.47100000  0.22182000  1.0
  N  N44  1  0.15829000  0.71894000  0.94284000  1.0
  N  N45  1  0.93793000  0.49573000  0.01249000  1.0
