# generated using pymatgen
data_CoH10(C2O)4
_symmetry_space_group_name_H-M   'P 1'
_cell_length_a   5.06413000
_cell_length_b   6.47792000
_cell_length_c   12.98640000
_cell_angle_alpha   100.55000000
_cell_angle_beta   98.39690000
_cell_angle_gamma   100.64800000
_symmetry_Int_Tables_number   1
_chemical_formula_structural   CoH10(C2O)4
_chemical_formula_sum   'Co2 H20 C16 O8'
_cell_volume   404.41091879
_cell_formula_units_Z   2
loop_
 _symmetry_equiv_pos_site_id
 _symmetry_equiv_pos_as_xyz
  1  'x, y, z'
loop_
 _atom_site_type_symbol
 _atom_site_label
 _atom_site_symmetry_multiplicity
 _atom_site_fract_x
 _atom_site_fract_y
 _atom_site_fract_z
 _atom_site_occupancy
  Co  Co0  1  0.77909000  0.92507000  0.96888000  1.0
  Co  Co1  1  0.22655000  0.07493000  0.03196000  1.0
  H  H2  1  0.58746000  0.47482000  0.17246000  1.0
  H  H3  1  0.41704000  0.52537000  0.82729000  1.0
  H  H4  1  0.97792000  0.34038000  0.33820000  1.0
  H  H5  1  0.02192000  0.66096000  0.66343000  1.0
  H  H6  1  0.64031000  0.19662000  0.27857000  1.0
  H  H7  1  0.36155000  0.80293000  0.72129000  1.0
  H  H8  1  0.44685000  0.49510000  0.35617000  1.0
  H  H9  1  0.54885000  0.50283000  0.64051000  1.0
  H  H10  1  0.65765000  0.42417000  0.45875000  1.0
  H  H11  1  0.33333333  0.57506000  0.53986000  1.0
  H  H12  1  0.73069000  0.82804000  0.47507000  1.0
  H  H13  1  0.25703000  0.17122000  0.52248000  1.0
  H  H14  1  0.03166000  0.73112000  0.46566000  1.0
  H  H15  1  0.95946000  0.27029000  0.53550000  1.0
  H  H16  1  0.66199000  0.84527000  0.28465000  1.0
  H  H17  1  0.33742000  0.15378000  0.71336000  1.0
  H  H18  1  0.99521000  0.98798000  0.34855000  1.0
  H  H19  1  0.00194000  0.01214000  0.65146000  1.0
  H  H20  1  0.18753000  0.67736000  0.27425000  1.0
  H  H21  1  0.81521000  0.32473000  0.72776000  1.0
  C  C22  1  0.79300000  0.46060000  0.20684000  1.0
  C  C23  1  0.21099000  0.53954000  0.79357000  1.0
  C  C24  1  0.77259000  0.35841000  0.30454000  1.0
  C  C25  1  0.22774000  0.64169000  0.69568000  1.0
  C  C26  1  0.66100000  0.49657000  0.38859000  1.0
  C  C27  1  0.33388000  0.50270000  0.61009000  1.0
  C  C28  1  0.82814000  0.72803000  0.42074000  1.0
  C  C29  1  0.16458000  0.27191000  0.57858000  1.0
  C  C30  1  0.86172000  0.82651000  0.32380000  1.0
  C  C31  1  0.13648000  0.17327000  0.67577000  1.0
  C  C32  1  0.97902000  0.68617000  0.24008000  1.0
  C  C33  1  0.02392000  0.31438000  0.76082000  1.0
  C  C34  1  0.88029000  0.30415000  0.12478000  1.0
  C  C35  1  0.12502000  0.69607000  0.87607000  1.0
  C  C36  1  0.99781000  0.79563000  0.14696000  1.0
  C  C37  1  0.00680000  0.20441000  0.85381000  1.0
  O  O38  1  0.68843000  0.15824000  0.06152000  1.0
  O  O39  1  0.31696000  0.84161000  0.93947000  1.0
  O  O40  1  0.13310000  0.30917000  0.12484000  1.0
  O  O41  1  0.87229000  0.69137000  0.87604000  1.0
  O  O42  1  0.77919000  0.76432000  0.07787000  1.0
  O  O43  1  0.22569000  0.23518000  0.92266000  1.0
  O  O44  1  0.22449000  0.92033000  0.14571000  1.0
  O  O45  1  0.78023000  0.07958000  0.85504000  1.0
