# generated using pymatgen
data_CdH14C14(N4O)2
_symmetry_space_group_name_H-M   'P 1'
_cell_length_a   8.48210000
_cell_length_b   8.71044000
_cell_length_c   11.15500000
_cell_angle_alpha   95.72530000
_cell_angle_beta   89.99990000
_cell_angle_gamma   89.99990000
_symmetry_Int_Tables_number   1
_chemical_formula_structural   CdH14C14(N4O)2
_chemical_formula_sum   'Cd2 H28 C28 N16 O4'
_cell_volume   820.05165137
_cell_formula_units_Z   2
loop_
 _symmetry_equiv_pos_site_id
 _symmetry_equiv_pos_as_xyz
  1  'x, y, z'
loop_
 _atom_site_type_symbol
 _atom_site_label
 _atom_site_symmetry_multiplicity
 _atom_site_fract_x
 _atom_site_fract_y
 _atom_site_fract_z
 _atom_site_occupancy
  Cd  Cd0  1  0.00000000  0.00000000  0.50000000  1.0
  Cd  Cd1  1  0.50000000  0.50000000  0.50000000  1.0
  H  H2  1  0.63340000  0.08129000  0.55579000  1.0
  H  H3  1  0.86660000  0.58130000  0.55580000  1.0
  H  H4  1  0.36660000  0.91870000  0.44421000  1.0
  H  H5  1  0.13340000  0.41870000  0.44421000  1.0
  H  H6  1  0.41574000  0.01914000  0.69214000  1.0
  H  H7  1  0.08426000  0.51914000  0.69215000  1.0
  H  H8  1  0.58426000  0.98085000  0.30785000  1.0
  H  H9  1  0.91574000  0.48086000  0.30786000  1.0
  H  H10  1  0.76072000  0.79781000  0.90275000  1.0
  H  H11  1  0.73928000  0.29782000  0.90276000  1.0
  H  H12  1  0.23928000  0.20218000  0.09724000  1.0
  H  H13  1  0.26072000  0.70219000  0.09724000  1.0
  H  H14  1  0.96365000  0.86656000  0.75638000  1.0
  H  H15  1  0.53635000  0.36656000  0.75638000  1.0
  H  H16  1  0.03635000  0.13345000  0.24362000  1.0
  H  H17  1  0.46365000  0.63345000  0.24362000  1.0
  H  H18  1  0.23639000  0.89857000  0.79126000  1.0
  H  H19  1  0.26360000  0.39856000  0.79126000  1.0
  H  H20  1  0.76361000  0.10144000  0.20874000  1.0
  H  H21  1  0.73639000  0.60143000  0.20874000  1.0
  H  H22  1  0.28457000  0.05157000  0.89942000  1.0
  H  H23  1  0.21543000  0.55157000  0.89942000  1.0
  H  H24  1  0.71544000  0.94843000  0.10058000  1.0
  H  H25  1  0.78457000  0.44844000  0.10058000  1.0
  H  H26  1  0.20116000  0.87874000  0.94764000  1.0
  H  H27  1  0.29884000  0.37874000  0.94764000  1.0
  H  H28  1  0.79884000  0.12126000  0.05236000  1.0
  H  H29  1  0.70116000  0.62126000  0.05237000  1.0
  C  C30  1  0.65703000  0.01792000  0.63332000  1.0
  C  C31  1  0.84296000  0.51793000  0.63332000  1.0
  C  C32  1  0.34297000  0.98207000  0.36668000  1.0
  C  C33  1  0.15704000  0.48207000  0.36668000  1.0
  C  C34  1  0.53564000  0.98398000  0.71034000  1.0
  C  C35  1  0.96436000  0.48398000  0.71034000  1.0
  C  C36  1  0.46436000  0.01602000  0.28966000  1.0
  C  C37  1  0.03564000  0.51602000  0.28966000  1.0
  C  C38  1  0.56993000  0.90289000  0.80922000  1.0
  C  C39  1  0.93007000  0.40289000  0.80923000  1.0
  C  C40  1  0.43007000  0.09711000  0.19077000  1.0
  C  C41  1  0.06994000  0.59711000  0.19078000  1.0
  C  C42  1  0.72670000  0.86036000  0.82707000  1.0
  C  C43  1  0.77329000  0.36037000  0.82707000  1.0
  C  C44  1  0.27330000  0.13963000  0.17293000  1.0
  C  C45  1  0.22671000  0.63963000  0.17293000  1.0
  C  C46  1  0.84082000  0.89911000  0.74606000  1.0
  C  C47  1  0.65917000  0.39912000  0.74607000  1.0
  C  C48  1  0.15918000  0.10088000  0.25394000  1.0
  C  C49  1  0.34082000  0.60089000  0.25394000  1.0
  C  C50  1  0.44445000  0.86146000  0.89567000  1.0
  C  C51  1  0.05554000  0.36146000  0.89567000  1.0
  C  C52  1  0.55555000  0.13854000  0.10433000  1.0
  C  C53  1  0.94445000  0.63854000  0.10433000  1.0
  C  C54  1  0.28132000  0.92491000  0.88324000  1.0
  C  C55  1  0.21868000  0.42491000  0.88324000  1.0
  C  C56  1  0.71868000  0.07509000  0.11676000  1.0
  C  C57  1  0.78132000  0.57509000  0.11676000  1.0
  N  N58  1  0.83671000  0.84945000  0.36370000  1.0
  N  N59  1  0.66329000  0.34944000  0.36370000  1.0
  N  N60  1  0.16330000  0.15056000  0.63630000  1.0
  N  N61  1  0.33671000  0.65056000  0.63630000  1.0
  N  N62  1  0.72733000  0.78526000  0.40273000  1.0
  N  N63  1  0.77268000  0.28525000  0.40274000  1.0
  N  N64  1  0.27268000  0.21475000  0.59726000  1.0
  N  N65  1  0.22733000  0.71475000  0.59726000  1.0
  N  N66  1  0.61361000  0.72653000  0.43877000  1.0
  N  N67  1  0.88640000  0.22653000  0.43878000  1.0
  N  N68  1  0.38640000  0.27347000  0.56123000  1.0
  N  N69  1  0.11360000  0.77347000  0.56123000  1.0
  N  N70  1  0.80717000  0.97586000  0.65026000  1.0
  N  N71  1  0.69283000  0.47586000  0.65026000  1.0
  N  N72  1  0.19284000  0.02414000  0.34974000  1.0
  N  N73  1  0.30717000  0.52414000  0.34974000  1.0
  O  O74  1  0.47869000  0.78036000  0.97660000  1.0
  O  O75  1  0.02131000  0.28036000  0.97660000  1.0
  O  O76  1  0.52131000  0.21964000  0.02340000  1.0
  O  O77  1  0.97868000  0.71965000  0.02341000  1.0
