# generated using pymatgen
data_Cu3H18C27N7
_symmetry_space_group_name_H-M   'P 1'
_cell_length_a   28.91870000
_cell_length_b   29.48360000
_cell_length_c   29.71840000
_cell_angle_alpha   89.97080000
_cell_angle_beta   89.97790000
_cell_angle_gamma   89.95980000
_symmetry_Int_Tables_number   1
_chemical_formula_structural   Cu3H18C27N7
_chemical_formula_sum   'Cu12 H72 C108 N28'
_cell_volume   25338.71021963
_cell_formula_units_Z   4
loop_
 _symmetry_equiv_pos_site_id
 _symmetry_equiv_pos_as_xyz
  1  'x, y, z'
loop_
 _atom_site_type_symbol
 _atom_site_label
 _atom_site_symmetry_multiplicity
 _atom_site_fract_x
 _atom_site_fract_y
 _atom_site_fract_z
 _atom_site_occupancy
  Cu  Cu0  1  0.37475000  0.58124000  0.66717000  1.0
  Cu  Cu1  1  0.32958000  0.62533000  0.57993000  1.0
  Cu  Cu2  1  0.41810000  0.67021000  0.62518000  1.0
  Cu  Cu3  1  0.62652000  0.91656000  0.16907000  1.0
  Cu  Cu4  1  0.66917000  0.87497000  0.07995000  1.0
  Cu  Cu5  1  0.58022000  0.82982000  0.12448000  1.0
  Cu  Cu6  1  0.87356000  0.41759000  0.83155000  1.0
  Cu  Cu7  1  0.82954000  0.37412000  0.91934000  1.0
  Cu  Cu8  1  0.91850000  0.32962000  0.87489000  1.0
  Cu  Cu9  1  0.12607000  0.08377000  0.33140000  1.0
  Cu  Cu10  1  0.16906000  0.12577000  0.41998000  1.0
  Cu  Cu11  1  0.08011000  0.17098000  0.37544000  1.0
  H  H12  1  0.30789000  0.49764000  0.68209000  1.0
  H  H13  1  0.24688000  0.55691000  0.56263000  1.0
  H  H14  1  0.50015000  0.68838000  0.69376000  1.0
  H  H15  1  0.44243000  0.56503000  0.74963000  1.0
  H  H16  1  0.31303000  0.69295000  0.49852000  1.0
  H  H17  1  0.43532000  0.75233000  0.55845000  1.0
  H  H18  1  0.69552000  0.99844000  0.18602000  1.0
  H  H19  1  0.75191000  0.94340000  0.06246000  1.0
  H  H20  1  0.49774000  0.81206000  0.19286000  1.0
  H  H21  1  0.55979000  0.93147000  0.25238000  1.0
  H  H22  1  0.68505000  0.80862000  0.99743000  1.0
  H  H23  1  0.56250000  0.74884000  0.05660000  1.0
  H  H24  1  0.80507000  0.50001000  0.81551000  1.0
  H  H25  1  0.74726000  0.44296000  0.93752000  1.0
  H  H26  1  0.00101000  0.31204000  0.80686000  1.0
  H  H27  1  0.94169000  0.43399000  0.74949000  1.0
  H  H28  1  0.81271000  0.30665000  0.00074000  1.0
  H  H29  1  0.93647000  0.24819000  0.94252000  1.0
  H  H30  1  0.19499000  0.00172000  0.31452000  1.0
  H  H31  1  0.25176000  0.05722000  0.43764000  1.0
  H  H32  1  0.99734000  0.18839000  0.30746000  1.0
  H  H33  1  0.05920000  0.06856000  0.24836000  1.0
  H  H34  1  0.18494000  0.19221000  0.50228000  1.0
  H  H35  1  0.06272000  0.25241000  0.44278000  1.0
  H  H36  1  0.78756000  0.01919000  0.05231000  1.0
  H  H37  1  0.77130000  0.03444000  0.19575000  1.0
  H  H38  1  0.82966000  0.09529000  0.19550000  1.0
  H  H39  1  0.84681000  0.07929000  0.05244000  1.0
  H  H40  1  0.21699000  0.47526000  0.55035000  1.0
  H  H41  1  0.22697000  0.46823000  0.69488000  1.0
  H  H42  1  0.16794000  0.40787000  0.69591000  1.0
  H  H43  1  0.15681000  0.41594000  0.55158000  1.0
  H  H44  1  0.27112000  0.96584000  0.30460000  1.0
  H  H45  1  0.28726000  0.98146000  0.44799000  1.0
  H  H46  1  0.34672000  0.92147000  0.44799000  1.0
  H  H47  1  0.32972000  0.90511000  0.30496000  1.0
  H  H48  1  0.72276000  0.52846000  0.80432000  1.0
  H  H49  1  0.71894000  0.52591000  0.94924000  1.0
  H  H50  1  0.65929000  0.58575000  0.94876000  1.0
  H  H51  1  0.66432000  0.58939000  0.80388000  1.0
  H  H52  1  0.96960000  0.20140000  0.22456000  1.0
  H  H53  1  0.97704000  0.05551000  0.22015000  1.0
  H  H54  1  0.91851000  0.05454000  0.15978000  1.0
  H  H55  1  0.91003000  0.20035000  0.16518000  1.0
  H  H56  1  0.51794000  0.55479000  0.78545000  1.0
  H  H57  1  0.53550000  0.69909000  0.76919000  1.0
  H  H58  1  0.59493000  0.69875000  0.82872000  1.0
  H  H59  1  0.57648000  0.55486000  0.84572000  1.0
  H  H60  1  0.03014000  0.29993000  0.72580000  1.0
  H  H61  1  0.02345000  0.44582000  0.72015000  1.0
  H  H62  1  0.08202000  0.44603000  0.65981000  1.0
  H  H63  1  0.08987000  0.30025000  0.66649000  1.0
  H  H64  1  0.47019000  0.79890000  0.27638000  1.0
  H  H65  1  0.47712000  0.94481000  0.28010000  1.0
  H  H66  1  0.41848000  0.94599000  0.34036000  1.0
  H  H67  1  0.41051000  0.80013000  0.33568000  1.0
  H  H68  1  0.80067000  0.22392000  0.02831000  1.0
  H  H69  1  0.94959000  0.22181000  0.02484000  1.0
  H  H70  1  0.95019000  0.16261000  0.08357000  1.0
  H  H71  1  0.80130000  0.16567000  0.08801000  1.0
  H  H72  1  0.30042000  0.77619000  0.47154000  1.0
  H  H73  1  0.44929000  0.77875000  0.47599000  1.0
  H  H74  1  0.45007000  0.83814000  0.41745000  1.0
  H  H75  1  0.30123000  0.83465000  0.41204000  1.0
  H  H76  1  0.54920000  0.72205000  0.97410000  1.0
  H  H77  1  0.69808000  0.72596000  0.97023000  1.0
  H  H78  1  0.69812000  0.66734000  0.91105000  1.0
  H  H79  1  0.54932000  0.66245000  0.91577000  1.0
  H  H80  1  0.19795000  0.27316000  0.53077000  1.0
  H  H81  1  0.04927000  0.28040000  0.52415000  1.0
  H  H82  1  0.04947000  0.33959000  0.58291000  1.0
  H  H83  1  0.19798000  0.33138000  0.59045000  1.0
  C  C84  1  0.29820000  0.51802000  0.65317000  1.0
  C  C85  1  0.26201000  0.51181000  0.62229000  1.0
  C  C86  1  0.26757000  0.54773000  0.59171000  1.0
  C  C87  1  0.48038000  0.65829000  0.70218000  1.0
  C  C88  1  0.48674000  0.62686000  0.73722000  1.0
  C  C89  1  0.45136000  0.59496000  0.73024000  1.0
  C  C90  1  0.34265000  0.70226000  0.51894000  1.0
  C  C91  1  0.37435000  0.73788000  0.51328000  1.0
  C  C92  1  0.40561000  0.73200000  0.54898000  1.0
  C  C93  1  0.70405000  0.97927000  0.15597000  1.0
  C  C94  1  0.73929000  0.98646000  0.12415000  1.0
  C  C95  1  0.73239000  0.95164000  0.09257000  1.0
  C  C96  1  0.51868000  0.84113000  0.20212000  1.0
  C  C97  1  0.51350000  0.87160000  0.23810000  1.0
  C  C98  1  0.54983000  0.90260000  0.23193000  1.0
  C  C99  1  0.65536000  0.79916000  0.01772000  1.0
  C  C100  1  0.62369000  0.76358000  0.01173000  1.0
  C  C101  1  0.59227000  0.76921000  0.04736000  1.0
  C  C102  1  0.79621000  0.48019000  0.84506000  1.0
  C  C103  1  0.76080000  0.48698000  0.87672000  1.0
  C  C104  1  0.76722000  0.45162000  0.90780000  1.0
  C  C105  1  0.98069000  0.34170000  0.79805000  1.0
  C  C106  1  0.98678000  0.37291000  0.76283000  1.0
  C  C107  1  0.95094000  0.40442000  0.76931000  1.0
  C  C108  1  0.84269000  0.29752000  0.98071000  1.0
  C  C109  1  0.87474000  0.26226000  0.98690000  1.0
  C  C110  1  0.90638000  0.26825000  0.95154000  1.0
  C  C111  1  0.20361000  0.02101000  0.34446000  1.0
  C  C112  1  0.23896000  0.01393000  0.37616000  1.0
  C  C113  1  0.23215000  0.04888000  0.40763000  1.0
  C  C114  1  0.01825000  0.15924000  0.29829000  1.0
  C  C115  1  0.01302000  0.12863000  0.26246000  1.0
  C  C116  1  0.04929000  0.09755000  0.26870000  1.0
  C  C117  1  0.15535000  0.20177000  0.48192000  1.0
  C  C118  1  0.12371000  0.23745000  0.48781000  1.0
  C  C119  1  0.09242000  0.23195000  0.45211000  1.0
  C  C120  1  0.79671000  0.03550000  0.08402000  1.0
  C  C121  1  0.77453000  0.02198000  0.12402000  1.0
  C  C122  1  0.78741000  0.04424000  0.16400000  1.0
  C  C123  1  0.82038000  0.07853000  0.16409000  1.0
  C  C124  1  0.84228000  0.09168000  0.12394000  1.0
  C  C125  1  0.83007000  0.06948000  0.08386000  1.0
  C  C126  1  0.20612000  0.46092000  0.58252000  1.0
  C  C127  1  0.22670000  0.47641000  0.62255000  1.0
  C  C128  1  0.21206000  0.45659000  0.66321000  1.0
  C  C129  1  0.17871000  0.42271000  0.66399000  1.0
  C  C130  1  0.15820000  0.40766000  0.62382000  1.0
  C  C131  1  0.17234000  0.42738000  0.58301000  1.0
  C  C132  1  0.28725000  0.95613000  0.33636000  1.0
  C  C133  1  0.27429000  0.97844000  0.37631000  1.0
  C  C134  1  0.29649000  0.96506000  0.41632000  1.0
  C  C135  1  0.32996000  0.93113000  0.41655000  1.0
  C  C136  1  0.34227000  0.90887000  0.37650000  1.0
  C  C137  1  0.32034000  0.92190000  0.33635000  1.0
  C  C138  1  0.70935000  0.54123000  0.83622000  1.0
  C  C139  1  0.72558000  0.52250000  0.87679000  1.0
  C  C140  1  0.70679000  0.53937000  0.91714000  1.0
  C  C141  1  0.67329000  0.57324000  0.91704000  1.0
  C  C142  1  0.65763000  0.59197000  0.87629000  1.0
  C  C143  1  0.67627000  0.57544000  0.83579000  1.0
  C  C144  1  0.95825000  0.16895000  0.21081000  1.0
  C  C145  1  0.97798000  0.12850000  0.22705000  1.0
  C  C146  1  0.96278000  0.08749000  0.20794000  1.0
  C  C147  1  0.92969000  0.08676000  0.17406000  1.0
  C  C148  1  0.91001000  0.12734000  0.15823000  1.0
  C  C149  1  0.92476000  0.16854000  0.17723000  1.0
  C  C150  1  0.53432000  0.58670000  0.79497000  1.0
  C  C151  1  0.52183000  0.62698000  0.77260000  1.0
  C  C152  1  0.54437000  0.66717000  0.78566000  1.0
  C  C153  1  0.57780000  0.66722000  0.81932000  1.0
  C  C154  1  0.58971000  0.62683000  0.84156000  1.0
  C  C155  1  0.56738000  0.58650000  0.82891000  1.0
  C  C156  1  0.04165000  0.33221000  0.71176000  1.0
  C  C157  1  0.02205000  0.37286000  0.72761000  1.0
  C  C158  1  0.03751000  0.41366000  0.70821000  1.0
  C  C159  1  0.07064000  0.41397000  0.67432000  1.0
  C  C160  1  0.09009000  0.37316000  0.65883000  1.0
  C  C161  1  0.07520000  0.33220000  0.67822000  1.0
  C  C162  1  0.45873000  0.83140000  0.28996000  1.0
  C  C163  1  0.47838000  0.87179000  0.27352000  1.0
  C  C164  1  0.46297000  0.91285000  0.29245000  1.0
  C  C165  1  0.42979000  0.91369000  0.32629000  1.0
  C  C166  1  0.41020000  0.87317000  0.34232000  1.0
  C  C167  1  0.42515000  0.83192000  0.32352000  1.0
  C  C168  1  0.83367000  0.21090000  0.04058000  1.0
  C  C169  1  0.87508000  0.22747000  0.02195000  1.0
  C  C170  1  0.91685000  0.20932000  0.03825000  1.0
  C  C171  1  0.91736000  0.17609000  0.07146000  1.0
  C  C172  1  0.87578000  0.15996000  0.09001000  1.0
  C  C173  1  0.83384000  0.17795000  0.07408000  1.0
  C  C174  1  0.33345000  0.78937000  0.45953000  1.0
  C  C175  1  0.37478000  0.77285000  0.47838000  1.0
  C  C176  1  0.41660000  0.79118000  0.46241000  1.0
  C  C177  1  0.41721000  0.82453000  0.42931000  1.0
  C  C178  1  0.37571000  0.84056000  0.41049000  1.0
  C  C179  1  0.33373000  0.82243000  0.42613000  1.0
  C  C180  1  0.58208000  0.70996000  0.96064000  1.0
  C  C181  1  0.62362000  0.72870000  0.97677000  1.0
  C  C182  1  0.66521000  0.71253000  0.95811000  1.0
  C  C183  1  0.66542000  0.67938000  0.92485000  1.0
  C  C184  1  0.62372000  0.66068000  0.90920000  1.0
  C  C185  1  0.58196000  0.67650000  0.92766000  1.0
  C  C186  1  0.16515000  0.28728000  0.54236000  1.0
  C  C187  1  0.12361000  0.27218000  0.52285000  1.0
  C  C188  1  0.08212000  0.29171000  0.53828000  1.0
  C  C189  1  0.08203000  0.32493000  0.57148000  1.0
  C  C190  1  0.12374000  0.33961000  0.59082000  1.0
  C  C191  1  0.16536000  0.32016000  0.57586000  1.0
  N  N192  1  0.30418000  0.57336000  0.60372000  1.0
  N  N193  1  0.32331000  0.55483000  0.64176000  1.0
  N  N194  1  0.42603000  0.60664000  0.69393000  1.0
  N  N195  1  0.44413000  0.64587000  0.67641000  1.0
  N  N196  1  0.39331000  0.69570000  0.57393000  1.0
  N  N197  1  0.35434000  0.67713000  0.55516000  1.0
  N  N198  1  0.69596000  0.92584000  0.10479000  1.0
  N  N199  1  0.67826000  0.94309000  0.14408000  1.0
  N  N200  1  0.57467000  0.89135000  0.19514000  1.0
  N  N201  1  0.55521000  0.85330000  0.17652000  1.0
  N  N202  1  0.60450000  0.80531000  0.07259000  1.0
  N  N203  1  0.64356000  0.82403000  0.05409000  1.0
  N  N204  1  0.80359000  0.42579000  0.89538000  1.0
  N  N205  1  0.82170000  0.44365000  0.85655000  1.0
  N  N206  1  0.92551000  0.39270000  0.80556000  1.0
  N  N207  1  0.94410000  0.35388000  0.82351000  1.0
  N  N208  1  0.89394000  0.30427000  0.92625000  1.0
  N  N209  1  0.85453000  0.32256000  0.94448000  1.0
  N  N210  1  0.19568000  0.07466000  0.39544000  1.0
  N  N211  1  0.17785000  0.05726000  0.35630000  1.0
  N  N212  1  0.07418000  0.10891000  0.30540000  1.0
  N  N213  1  0.05479000  0.14709000  0.32386000  1.0
  N  N214  1  0.10467000  0.19581000  0.42694000  1.0
  N  N215  1  0.14362000  0.17696000  0.44554000  1.0
  N  N216  1  0.87606000  0.12645000  0.12404000  1.0
  N  N217  1  0.12398000  0.37343000  0.62454000  1.0
  N  N218  1  0.37616000  0.87413000  0.37648000  1.0
  N  N219  1  0.62378000  0.62655000  0.87579000  1.0
