# generated using pymatgen
data_ZnH6C10NO5
_symmetry_space_group_name_H-M   'P 1'
_cell_length_a   9.65521000
_cell_length_b   11.05510000
_cell_length_c   11.14930000
_cell_angle_alpha   89.00720000
_cell_angle_beta   88.82570000
_cell_angle_gamma   87.33200000
_symmetry_Int_Tables_number   1
_chemical_formula_structural   ZnH6C10NO5
_chemical_formula_sum   'Zn2 H12 C20 N2 O10'
_cell_volume   1188.36921284
_cell_formula_units_Z   2
loop_
 _symmetry_equiv_pos_site_id
 _symmetry_equiv_pos_as_xyz
  1  'x, y, z'
loop_
 _atom_site_type_symbol
 _atom_site_label
 _atom_site_symmetry_multiplicity
 _atom_site_fract_x
 _atom_site_fract_y
 _atom_site_fract_z
 _atom_site_occupancy
  Zn  Zn0  1  0.34560000  0.50912000  0.49260000  1.0
  Zn  Zn1  1  0.63349000  0.49487000  0.48627000  1.0
  H  H2  1  0.70196000  0.50247000  0.87451000  1.0
  H  H3  1  0.14050000  0.34541000  0.39767000  1.0
  H  H4  1  0.68591000  0.21627000  0.33211000  1.0
  H  H5  1  0.71913000  0.81990000  0.29533000  1.0
  H  H6  1  0.70306000  0.47764000  0.09452000  1.0
  H  H7  1  0.38426000  0.49085000  0.89371000  1.0
  H  H8  1  0.38593000  0.52256000  0.08957000  1.0
  H  H9  1  0.29479000  0.89694000  0.58412000  1.0
  H  H10  1  0.30051000  0.12378000  0.58746000  1.0
  H  H11  1  0.83930000  0.66433000  0.57402000  1.0
  H  H12  1  0.87671000  0.33805000  0.39322000  1.0
  H  H13  1  0.10253000  0.67274000  0.57527000  1.0
  C  C14  1  0.49008000  0.26408000  0.48847000  1.0
  C  C15  1  0.60103000  0.93138000  0.43350000  1.0
  C  C16  1  0.48916000  0.87422000  0.48871000  1.0
  C  C17  1  0.49101000  0.12807000  0.48456000  1.0
  C  C18  1  0.38049000  0.94398000  0.54242000  1.0
  C  C19  1  0.38283000  0.06947000  0.54305000  1.0
  C  C20  1  0.90692000  0.59302000  0.53553000  1.0
  C  C21  1  0.92806000  0.41208000  0.43445000  1.0
  C  C22  1  0.05094000  0.59762000  0.53626000  1.0
  C  C23  1  0.07164000  0.41616000  0.43602000  1.0
  C  C24  1  0.69700000  0.11627000  0.34223000  1.0
  C  C25  1  0.48188000  0.73907000  0.48776000  1.0
  C  C26  1  0.72681000  0.85900000  0.38593000  1.0
  C  C27  1  0.49602000  0.49885000  0.25701000  1.0
  C  C28  1  0.49188000  0.50217000  0.72120000  1.0
  C  C29  1  0.60183000  0.49858000  0.92160000  1.0
  C  C30  1  0.60257000  0.49210000  0.05183000  1.0
  C  C31  1  0.48769000  0.49787000  0.85379000  1.0
  C  C32  1  0.48956000  0.50440000  0.12469000  1.0
  C  C33  1  0.59784000  0.05908000  0.42574000  1.0
  N  N34  1  0.13181000  0.50883000  0.48767000  1.0
  N  N35  1  0.84697000  0.49992000  0.48509000  1.0
  O  O36  1  0.37390000  0.32026000  0.47303000  1.0
  O  O37  1  0.83044000  0.84295000  0.44696000  1.0
  O  O38  1  0.36674000  0.69408000  0.51628000  1.0
  O  O39  1  0.60490000  0.31105000  0.50961000  1.0
  O  O40  1  0.59254000  0.67945000  0.45620000  1.0
  O  O41  1  0.38186000  0.52580000  0.31286000  1.0
  O  O42  1  0.37618000  0.48594000  0.67115000  1.0
  O  O43  1  0.61137000  0.46912000  0.30615000  1.0
  O  O44  1  0.60660000  0.52058000  0.66632000  1.0
  O  O45  1  0.78282000  0.05743000  0.28128000  1.0
