# generated using pymatgen
data_MgH6C9NO4
_symmetry_space_group_name_H-M   'P 1'
_cell_length_a   6.86030000
_cell_length_b   28.84090000
_cell_length_c   28.84520000
_cell_angle_alpha   119.39500000
_cell_angle_beta   94.53520000
_cell_angle_gamma   94.54280000
_symmetry_Int_Tables_number   1
_chemical_formula_structural   MgH6C9NO4
_chemical_formula_sum   'Mg6 H36 C54 N6 O24'
_cell_volume   4910.92151876
_cell_formula_units_Z   6
loop_
 _symmetry_equiv_pos_site_id
 _symmetry_equiv_pos_as_xyz
  1  'x, y, z'
loop_
 _atom_site_type_symbol
 _atom_site_label
 _atom_site_symmetry_multiplicity
 _atom_site_fract_x
 _atom_site_fract_y
 _atom_site_fract_z
 _atom_site_occupancy
  Mg  Mg0  1  0.58937000  0.69477000  0.32037000  1.0
  Mg  Mg1  1  0.35523000  0.30243000  0.67576000  1.0
  Mg  Mg2  1  0.89467000  0.62552000  0.30533000  1.0
  Mg  Mg3  1  0.05277000  0.37350000  0.69749000  1.0
  Mg  Mg4  1  0.26892000  0.67975000  0.37454000  1.0
  Mg  Mg5  1  0.67943000  0.32409000  0.62638000  1.0
  H  H6  1  0.36692000  0.51758000  0.96261000  1.0
  H  H7  1  0.12584000  0.40632000  0.83109000  1.0
  H  H8  1  0.83257000  0.47144000  0.84639000  1.0
  H  H9  1  0.65921000  0.51196000  0.92724000  1.0
  H  H10  1  0.02235000  0.53909000  0.99634000  1.0
  H  H11  1  0.18676000  0.51579000  0.02698000  1.0
  H  H12  1  0.92586000  0.44188000  0.01158000  1.0
  H  H13  1  0.76548000  0.45924000  0.97410000  1.0
  H  H14  1  0.59451000  0.45725000  0.04570000  1.0
  H  H15  1  0.81722000  0.57939000  0.16907000  1.0
  H  H16  1  0.11358000  0.51627000  0.15980000  1.0
  H  H17  1  0.28681000  0.46849000  0.07972000  1.0
  H  H18  1  0.84917000  0.44503000  0.48228000  1.0
  H  H19  1  0.71988000  0.42476000  0.59353000  1.0
  H  H20  1  0.36158000  0.37504000  0.52839000  1.0
  H  H21  1  0.14745000  0.41529000  0.48787000  1.0
  H  H22  1  0.48298000  0.45724000  0.46085000  1.0
  H  H23  1  0.67039000  0.51127000  0.48422000  1.0
  H  H24  1  0.48306000  0.56962000  0.55817000  1.0
  H  H25  1  0.30547000  0.51468000  0.54067000  1.0
  H  H26  1  0.13626000  0.58833000  0.54280000  1.0
  H  H27  1  0.23740000  0.58971000  0.42081000  1.0
  H  H28  1  0.59659000  0.64351000  0.48376000  1.0
  H  H29  1  0.81733000  0.61122000  0.53157000  1.0
  H  H30  1  0.40430000  0.03734000  0.55512000  1.0
  H  H31  1  0.29508000  0.16887000  0.57531000  1.0
  H  H32  1  0.98648000  0.15350000  0.62496000  1.0
  H  H33  1  0.73216000  0.07272000  0.58484000  1.0
  H  H34  1  0.02603000  0.00356000  0.54273000  1.0
  H  H35  1  0.15945000  0.97295000  0.48867000  1.0
  H  H36  1  0.91372000  0.98858000  0.43041000  1.0
  H  H37  1  0.79115000  0.02605000  0.48538000  1.0
  H  H38  1  0.54833000  0.95438000  0.41163000  1.0
  H  H39  1  0.64771000  0.83103000  0.41042000  1.0
  H  H40  1  0.95342000  0.84026000  0.35656000  1.0
  H  H41  1  0.20658000  0.92033000  0.38881000  1.0
  C  C42  1  0.11569000  0.46461000  0.94048000  1.0
  C  C43  1  0.38131000  0.46088000  0.88424000  1.0
  C  C44  1  0.28009000  0.42110000  0.83481000  1.0
  C  C45  1  0.37514000  0.39898000  0.78855000  1.0
  C  C46  1  0.58044000  0.41708000  0.79330000  1.0
  C  C47  1  0.67709000  0.45798000  0.84374000  1.0
  C  C48  1  0.58124000  0.48023000  0.88862000  1.0
  C  C49  1  0.69631000  0.39528000  0.74815000  1.0
  C  C50  1  0.05976000  0.50221000  0.99540000  1.0
  C  C51  1  0.88597000  0.47631000  0.00794000  1.0
  C  C52  1  0.81494000  0.51655000  0.05953000  1.0
  C  C53  1  0.56321000  0.52172000  0.11923000  1.0
  C  C54  1  0.66340000  0.56505000  0.16657000  1.0
  C  C55  1  0.56905000  0.59138000  0.21253000  1.0
  C  C56  1  0.36441000  0.57380000  0.20941000  1.0
  C  C57  1  0.26839000  0.52932000  0.16109000  1.0
  C  C58  1  0.36421000  0.50295000  0.11663000  1.0
  C  C59  1  0.24946000  0.59949000  0.25436000  1.0
  C  C60  1  0.65090000  0.47581000  0.53529000  1.0
  C  C61  1  0.92063000  0.42337000  0.53895000  1.0
  C  C62  1  0.85936000  0.41373000  0.57873000  1.0
  C  C63  1  0.97663000  0.38962000  0.60085000  1.0
  C  C64  1  0.16388000  0.37631000  0.58277000  1.0
  C  C65  1  0.21951000  0.38581000  0.54185000  1.0
  C  C66  1  0.10123000  0.40838000  0.51959000  1.0
  C  C67  1  0.30134000  0.35299000  0.60459000  1.0
  C  C68  1  0.55710000  0.49318000  0.49776000  1.0
  C  C69  1  0.40891000  0.53155000  0.52368000  1.0
  C  C70  1  0.29770000  0.54296000  0.48349000  1.0
  C  C71  1  0.04075000  0.59750000  0.47839000  1.0
  C  C72  1  0.09786000  0.60155000  0.43511000  1.0
  C  C73  1  0.97736000  0.62116000  0.40874000  1.0
  C  C74  1  0.79022000  0.63559000  0.42628000  1.0
  C  C75  1  0.73841000  0.63174000  0.47073000  1.0
  C  C76  1  0.86038000  0.61364000  0.49711000  1.0
  C  C77  1  0.64962000  0.65479000  0.40055000  1.0
  C  C78  1  0.17535000  0.05950000  0.52425000  1.0
  C  C79  1  0.49721000  0.11569000  0.57673000  1.0
  C  C80  1  0.44558000  0.16511000  0.58632000  1.0
  C  C81  1  0.58696000  0.21134000  0.61033000  1.0
  C  C82  1  0.78751000  0.20657000  0.62363000  1.0
  C  C83  1  0.83363000  0.15616000  0.61419000  1.0
  C  C84  1  0.69279000  0.11133000  0.59170000  1.0
  C  C85  1  0.94837000  0.25171000  0.64687000  1.0
  C  C86  1  0.06424000  0.00457000  0.50682000  1.0
  C  C87  1  0.87764000  0.99215000  0.46848000  1.0
  C  C88  1  0.75499000  0.94055000  0.45708000  1.0
  C  C89  1  0.44356000  0.88086000  0.40259000  1.0
  C  C90  1  0.49644000  0.83352000  0.39858000  1.0
  C  C91  1  0.35621000  0.78756000  0.37897000  1.0
  C  C92  1  0.15471000  0.79068000  0.36452000  1.0
  C  C93  1  0.10696000  0.83897000  0.36831000  1.0
  C  C94  1  0.24713000  0.88343000  0.38638000  1.0
  C  C95  1  0.99493000  0.74573000  0.34528000  1.0
  N  N96  1  0.29046000  0.48360000  0.93104000  1.0
  N  N97  1  0.65743000  0.49513000  0.07335000  1.0
  N  N98  1  0.80684000  0.44742000  0.51626000  1.0
  N  N99  1  0.16142000  0.57816000  0.50494000  1.0
  N  N100  1  0.35945000  0.06892000  0.55272000  1.0
  N  N101  1  0.58366000  0.92674000  0.42185000  1.0
  O  O102  1  0.06892000  0.58190000  0.25035000  1.0
  O  O103  1  0.33574000  0.64126000  0.29840000  1.0
  O  O104  1  0.67825000  0.63146000  0.25705000  1.0
  O  O105  1  0.87752000  0.41339000  0.75387000  1.0
  O  O106  1  0.61021000  0.35633000  0.70211000  1.0
  O  O107  1  0.26603000  0.36202000  0.74223000  1.0
  O  O108  1  0.01269000  0.42205000  0.90775000  1.0
  O  O109  1  0.89099000  0.56378000  0.08630000  1.0
  O  O110  1  0.48655000  0.66831000  0.41809000  1.0
  O  O111  1  0.69438000  0.65710000  0.35882000  1.0
  O  O112  1  0.04663000  0.62558000  0.36868000  1.0
  O  O113  1  0.46438000  0.34052000  0.58647000  1.0
  O  O114  1  0.25409000  0.34601000  0.64360000  1.0
  O  O115  1  0.90441000  0.38027000  0.63781000  1.0
  O  O116  1  0.59062000  0.48560000  0.57784000  1.0
  O  O117  1  0.32685000  0.52258000  0.43629000  1.0
  O  O118  1  0.81841000  0.74977000  0.33175000  1.0
  O  O119  1  0.03733000  0.70167000  0.34294000  1.0
  O  O120  1  0.42104000  0.74307000  0.37457000  1.0
  O  O121  1  0.12391000  0.24602000  0.65923000  1.0
  O  O122  1  0.90814000  0.29772000  0.65389000  1.0
  O  O123  1  0.52410000  0.25764000  0.61960000  1.0
  O  O124  1  0.10534000  0.09225000  0.51441000  1.0
  O  O125  1  0.80422000  0.91377000  0.47751000  1.0
