# generated using pymatgen
data_InH16C9NO
_symmetry_space_group_name_H-M   'P 1'
_cell_length_a   10.25200000
_cell_length_b   10.35440000
_cell_length_c   10.78310000
_cell_angle_alpha   109.32200000
_cell_angle_beta   108.36500000
_cell_angle_gamma   91.92100000
_symmetry_Int_Tables_number   1
_chemical_formula_structural   InH16C9NO
_chemical_formula_sum   'In4 H64 C36 N4 O4'
_cell_volume   1012.97003504
_cell_formula_units_Z   4
loop_
 _symmetry_equiv_pos_site_id
 _symmetry_equiv_pos_as_xyz
  1  'x, y, z'
loop_
 _atom_site_type_symbol
 _atom_site_label
 _atom_site_symmetry_multiplicity
 _atom_site_fract_x
 _atom_site_fract_y
 _atom_site_fract_z
 _atom_site_occupancy
  In  In0  1  0.01440000  0.35183000  0.30452000  1.0
  In  In1  1  0.98561000  0.64817000  0.69548000  1.0
  In  In2  1  0.36670000  0.59293000  0.55405000  1.0
  In  In3  1  0.63330000  0.40707000  0.44595000  1.0
  H  H4  1  0.17084000  0.19624000  0.50980000  1.0
  H  H5  1  0.82916000  0.80376000  0.49020000  1.0
  H  H6  1  0.33197000  0.30504000  0.60859000  1.0
  H  H7  1  0.66803000  0.69496000  0.39141000  1.0
  H  H8  1  0.28590000  0.07940000  0.67812000  1.0
  H  H9  1  0.71410000  0.92060000  0.32188000  1.0
  H  H10  1  0.03058000  0.13762000  0.65393000  1.0
  H  H11  1  0.96943000  0.86238000  0.34607000  1.0
  H  H12  1  0.12012000  0.14993000  0.83042000  1.0
  H  H13  1  0.87988000  0.85007000  0.16958000  1.0
  H  H14  1  0.05235000  0.39683000  0.82992000  1.0
  H  H15  1  0.94765000  0.60317000  0.17008000  1.0
  H  H16  1  0.26764000  0.38816000  0.01397000  1.0
  H  H17  1  0.73236000  0.61184000  0.98603000  1.0
  H  H18  1  0.32828000  0.49710000  0.94022000  1.0
  H  H19  1  0.67172000  0.50290000  0.05978000  1.0
  H  H20  1  0.40057000  0.22160000  0.93250000  1.0
  H  H21  1  0.59943000  0.77840000  0.06750000  1.0
  H  H22  1  0.45837000  0.32212000  0.85034000  1.0
  H  H23  1  0.54163000  0.67788000  0.14966000  1.0
  H  H24  1  0.10506000  0.45417000  0.13493000  1.0
  H  H25  1  0.89494000  0.54582000  0.86507000  1.0
  H  H26  1  0.92959000  0.36813000  0.04093000  1.0
  H  H27  1  0.07041000  0.63186000  0.95907000  1.0
  H  H28  1  0.07016000  0.27006000  0.06196000  1.0
  H  H29  1  0.92984000  0.72994000  0.93804000  1.0
  H  H30  1  0.95653000  0.09742000  0.32675000  1.0
  H  H31  1  0.04347000  0.90258000  0.67325000  1.0
  H  H32  1  0.79865000  0.15931000  0.26247000  1.0
  H  H33  1  0.20135000  0.84069000  0.73753000  1.0
  H  H34  1  0.90022000  0.23039000  0.44439000  1.0
  H  H35  1  0.09978000  0.76961000  0.55561000  1.0
  H  H36  1  0.51955000  0.13185000  0.33648000  1.0
  H  H37  1  0.48045000  0.86816000  0.66352000  1.0
  H  H38  1  0.44647000  0.10857000  0.45735000  1.0
  H  H39  1  0.55353000  0.89143000  0.54265000  1.0
  H  H40  1  0.42314000  0.86538000  0.28619000  1.0
  H  H41  1  0.57686000  0.13462000  0.71381000  1.0
  H  H42  1  0.33660000  0.81880000  0.03009000  1.0
  H  H43  1  0.66340000  0.18120000  0.96991000  1.0
  H  H44  1  0.45498000  0.97416000  0.09813000  1.0
  H  H45  1  0.54501000  0.02584000  0.90187000  1.0
  H  H46  1  0.14782000  0.93358000  0.96247000  1.0
  H  H47  1  0.85218000  0.06642000  0.03752000  1.0
  H  H48  1  0.26210000  0.09126000  0.02473000  1.0
  H  H49  1  0.73789000  0.90875000  0.97527000  1.0
  H  H50  1  0.14817000  0.83391000  0.16019000  1.0
  H  H51  1  0.85183000  0.16609000  0.83981000  1.0
  H  H52  1  0.19707000  0.95275000  0.33682000  1.0
  H  H53  1  0.80293000  0.04725000  0.66318000  1.0
  H  H54  1  0.08288000  0.08319000  0.16181000  1.0
  H  H55  1  0.91712000  0.91681000  0.83819000  1.0
  H  H56  1  0.36395000  0.68596000  0.82328000  1.0
  H  H57  1  0.63605000  0.31404000  0.17672000  1.0
  H  H58  1  0.46974000  0.55269000  0.80232000  1.0
  H  H59  1  0.53026000  0.44731000  0.19768000  1.0
  H  H60  1  0.53706000  0.72333000  0.82684000  1.0
  H  H61  1  0.46294000  0.27667000  0.17316000  1.0
  H  H62  1  0.30751000  0.78016000  0.42191000  1.0
  H  H63  1  0.69249000  0.21984000  0.57809000  1.0
  H  H64  1  0.31397000  0.61743000  0.29933000  1.0
  H  H65  1  0.68603000  0.38257000  0.70067000  1.0
  H  H66  1  0.16274000  0.64574000  0.34793000  1.0
  H  H67  1  0.83727000  0.35425000  0.65207000  1.0
  C  C68  1  0.15892000  0.37336000  0.67636000  1.0
  C  C69  1  0.84108000  0.62664000  0.32364000  1.0
  C  C70  1  0.23693000  0.26202000  0.61685000  1.0
  C  C71  1  0.76307000  0.73799000  0.38315000  1.0
  C  C72  1  0.25987000  0.18331000  0.71885000  1.0
  C  C73  1  0.74013000  0.81669000  0.28115000  1.0
  C  C74  1  0.12207000  0.18963000  0.74829000  1.0
  C  C75  1  0.87793000  0.81037000  0.25171000  1.0
  C  C76  1  0.13616000  0.34937000  0.79883000  1.0
  C  C77  1  0.86385000  0.65063000  0.20117000  1.0
  C  C78  1  0.28059000  0.39162000  0.91777000  1.0
  C  C79  1  0.71941000  0.60838000  0.08223000  1.0
  C  C80  1  0.36531000  0.27845000  0.86146000  1.0
  C  C81  1  0.63469000  0.72155000  0.13854000  1.0
  C  C82  1  0.03127000  0.36340000  0.11232000  1.0
  C  C83  1  0.96873000  0.63660000  0.88768000  1.0
  C  C84  1  0.90518000  0.18962000  0.33858000  1.0
  C  C85  1  0.09482000  0.81038000  0.66142000  1.0
  C  C86  1  0.30144000  0.16504000  0.29758000  1.0
  C  C87  1  0.69855000  0.83496000  0.70242000  1.0
  C  C88  1  0.42344000  0.09284000  0.34588000  1.0
  C  C89  1  0.57656000  0.90716000  0.65411000  1.0
  C  C90  1  0.36655000  0.94079000  0.24873000  1.0
  C  C91  1  0.63345000  0.05921000  0.75127000  1.0
  C  C92  1  0.35744000  0.92798000  0.09928000  1.0
  C  C93  1  0.64256000  0.07202000  0.90072000  1.0
  C  C94  1  0.23332000  0.00465000  0.05312000  1.0
  C  C95  1  0.76668000  0.99535000  0.94688000  1.0
  C  C96  1  0.21217000  0.93238000  0.23597000  1.0
  C  C97  1  0.78783000  0.06762000  0.76403000  1.0
  C  C98  1  0.18708000  0.05410000  0.18281000  1.0
  C  C99  1  0.81292000  0.94590000  0.81720000  1.0
  C  C100  1  0.44311000  0.64566000  0.77858000  1.0
  C  C101  1  0.55689000  0.35434000  0.22142000  1.0
  C  C102  1  0.27648000  0.66802000  0.38562000  1.0
  C  C103  1  0.72352000  0.33197000  0.61437000  1.0
  N  N104  1  0.28664000  0.29293000  0.34589000  1.0
  N  N105  1  0.71336000  0.70707000  0.65411000  1.0
  N  N106  1  0.11796000  0.47202000  0.63341000  1.0
  N  N107  1  0.88204000  0.52798000  0.36659000  1.0
  O  O108  1  0.15200000  0.47846000  0.51994000  1.0
  O  O109  1  0.84800000  0.52154000  0.48006000  1.0
  O  O110  1  0.40285000  0.37876000  0.45405000  1.0
  O  O111  1  0.59714000  0.62124000  0.54595000  1.0
