# generated using pymatgen
data_AgH10C9NO3
_symmetry_space_group_name_H-M   'P 1'
_cell_length_a   6.99240000
_cell_length_b   7.36222000
_cell_length_c   9.14997000
_cell_angle_alpha   78.40100000
_cell_angle_beta   89.99970000
_cell_angle_gamma   89.99990000
_symmetry_Int_Tables_number   1
_chemical_formula_structural   AgH10C9NO3
_chemical_formula_sum   'Ag2 H20 C18 N2 O6'
_cell_volume   461.41752427
_cell_formula_units_Z   2
loop_
 _symmetry_equiv_pos_site_id
 _symmetry_equiv_pos_as_xyz
  1  'x, y, z'
loop_
 _atom_site_type_symbol
 _atom_site_label
 _atom_site_symmetry_multiplicity
 _atom_site_fract_x
 _atom_site_fract_y
 _atom_site_fract_z
 _atom_site_occupancy
  Ag  Ag0  1  0.57220000  0.95474000  0.11639000  1.0
  Ag  Ag1  1  0.07220000  0.04526000  0.88361000  1.0
  H  H2  1  0.94145000  0.58848000  0.29016000  1.0
  H  H3  1  0.44146000  0.41153000  0.70984000  1.0
  H  H4  1  0.75843000  0.22317000  0.21730000  1.0
  H  H5  1  0.25843000  0.77683000  0.78270000  1.0
  H  H6  1  0.74637000  0.28211000  0.03582000  1.0
  H  H7  1  0.24637000  0.71789000  0.96418000  1.0
  H  H8  1  0.40904000  0.36268000  0.05420000  1.0
  H  H9  1  0.90904000  0.63732000  0.94580000  1.0
  H  H10  1  0.50848000  0.29322000  0.38793000  1.0
  H  H11  1  0.00848000  0.70678000  0.61207000  1.0
  H  H12  1  0.29643000  0.39948000  0.30700000  1.0
  H  H13  1  0.79643000  0.60052000  0.69301000  1.0
  H  H14  1  0.08199000  0.20581000  0.16161000  1.0
  H  H15  1  0.58199000  0.79419000  0.83839000  1.0
  H  H16  1  0.92685000  0.89652000  0.18486000  1.0
  H  H17  1  0.42685000  0.10349000  0.81514000  1.0
  H  H18  1  0.36603000  0.65285000  0.49226000  1.0
  H  H19  1  0.86604000  0.34715000  0.50774000  1.0
  H  H20  1  0.51724000  0.96180000  0.47231000  1.0
  H  H21  1  0.01725000  0.03819000  0.52769000  1.0
  C  C22  1  0.58512000  0.55506000  0.14110000  1.0
  C  C23  1  0.08512000  0.44494000  0.85889000  1.0
  C  C24  1  0.50948000  0.35844000  0.14721000  1.0
  C  C25  1  0.00948000  0.64156000  0.85279000  1.0
  C  C26  1  0.40489000  0.29452000  0.29741000  1.0
  C  C27  1  0.90489000  0.70548000  0.70260000  1.0
  C  C28  1  0.31156000  0.10720000  0.31443000  1.0
  C  C29  1  0.81156000  0.89280000  0.68557000  1.0
  C  C30  1  0.14439000  0.08510000  0.23503000  1.0
  C  C31  1  0.64440000  0.91491000  0.76497000  1.0
  C  C32  1  0.05742000  0.91227000  0.24691000  1.0
  C  C33  1  0.55742000  0.08773000  0.75309000  1.0
  C  C34  1  0.13609000  0.75552000  0.34024000  1.0
  C  C35  1  0.63609000  0.24448000  0.65976000  1.0
  C  C36  1  0.30219000  0.77481000  0.42181000  1.0
  C  C37  1  0.80220000  0.22519000  0.57819000  1.0
  C  C38  1  0.38829000  0.94866000  0.40799000  1.0
  C  C39  1  0.88829000  0.05134000  0.59201000  1.0
  N  N40  1  0.66595000  0.22955000  0.12950000  1.0
  N  N41  1  0.16595000  0.77045000  0.87050000  1.0
  O  O42  1  0.46428000  0.68673000  0.09802000  1.0
  O  O43  1  0.96427000  0.31327000  0.90198000  1.0
  O  O44  1  0.75519000  0.57820000  0.17793000  1.0
  O  O45  1  0.25519000  0.42180000  0.82207000  1.0
  O  O46  1  0.05613000  0.58429000  0.35527000  1.0
  O  O47  1  0.55613000  0.41572000  0.64473000  1.0
