# generated using pymatgen
data_Cu3H6C15N7
_symmetry_space_group_name_H-M   'P 1'
_cell_length_a   23.35880000
_cell_length_b   23.68330000
_cell_length_c   23.74100000
_cell_angle_alpha   89.95920000
_cell_angle_beta   89.96610000
_cell_angle_gamma   89.87920000
_symmetry_Int_Tables_number   1
_chemical_formula_structural   Cu3H6C15N7
_chemical_formula_sum   'Cu12 H24 C60 N28'
_cell_volume   13133.80613649
_cell_formula_units_Z   4
loop_
 _symmetry_equiv_pos_site_id
 _symmetry_equiv_pos_as_xyz
  1  'x, y, z'
loop_
 _atom_site_type_symbol
 _atom_site_label
 _atom_site_symmetry_multiplicity
 _atom_site_fract_x
 _atom_site_fract_y
 _atom_site_fract_z
 _atom_site_occupancy
  Cu  Cu0  1  0.41890000  0.33779000  0.56120000  1.0
  Cu  Cu1  1  0.33566000  0.44169000  0.58320000  1.0
  Cu  Cu2  1  0.44096000  0.41822000  0.66586000  1.0
  Cu  Cu3  1  0.58081000  0.83864000  0.93981000  1.0
  Cu  Cu4  1  0.66360000  0.94232000  0.91772000  1.0
  Cu  Cu5  1  0.55791000  0.91949000  0.83549000  1.0
  Cu  Cu6  1  0.91851000  0.16205000  0.43849000  1.0
  Cu  Cu7  1  0.83527000  0.05882000  0.41624000  1.0
  Cu  Cu8  1  0.94120000  0.08168000  0.33385000  1.0
  Cu  Cu9  1  0.08120000  0.66129000  0.06025000  1.0
  Cu  Cu10  1  0.16475000  0.55770000  0.08250000  1.0
  Cu  Cu11  1  0.05860000  0.58064000  0.16450000  1.0
  H  H12  1  0.36227000  0.28571000  0.45040000  1.0
  H  H13  1  0.24864000  0.42719000  0.48158000  1.0
  H  H14  1  0.55291000  0.36025000  0.71819000  1.0
  H  H15  1  0.52085000  0.25062000  0.57563000  1.0
  H  H16  1  0.28259000  0.55193000  0.64058000  1.0
  H  H17  1  0.42534000  0.51858000  0.75232000  1.0
  H  H18  1  0.63786000  0.78614000  0.05038000  1.0
  H  H19  1  0.75104000  0.92749000  0.01906000  1.0
  H  H20  1  0.44646000  0.86112000  0.78301000  1.0
  H  H21  1  0.47961000  0.75119000  0.92535000  1.0
  H  H22  1  0.71677000  0.05200000  0.86010000  1.0
  H  H23  1  0.57382000  0.01966000  0.74855000  1.0
  H  H24  1  0.86199000  0.21408000  0.54950000  1.0
  H  H25  1  0.74824000  0.07330000  0.51813000  1.0
  H  H26  1  0.05345000  0.13961000  0.28195000  1.0
  H  H27  1  0.02031000  0.24890000  0.42463000  1.0
  H  H28  1  0.78241000  0.94896000  0.35887000  1.0
  H  H29  1  0.92555000  0.98132000  0.24735000  1.0
  H  H30  1  0.13800000  0.71377000  0.94977000  1.0
  H  H31  1  0.25223000  0.57277000  0.98107000  1.0
  H  H32  1  0.94664000  0.63896000  0.21692000  1.0
  H  H33  1  0.97949000  0.74875000  0.07447000  1.0
  H  H34  1  0.21811000  0.44782000  0.14048000  1.0
  H  H35  1  0.07446000  0.48057000  0.25141000  1.0
  C  C36  1  0.34020000  0.32287000  0.46612000  1.0
  C  C37  1  0.29096000  0.34991000  0.44491000  1.0
  C  C38  1  0.28198000  0.39526000  0.48232000  1.0
  C  C39  1  0.53693000  0.33920000  0.68082000  1.0
  C  C40  1  0.55817000  0.29082000  0.65333000  1.0
  C  C41  1  0.52024000  0.28304000  0.60787000  1.0
  C  C42  1  0.32007000  0.53570000  0.66220000  1.0
  C  C43  1  0.34735000  0.55631000  0.71087000  1.0
  C  C44  1  0.39311000  0.51840000  0.71944000  1.0
  C  C45  1  0.65980000  0.82328000  0.03467000  1.0
  C  C46  1  0.70897000  0.85023000  0.05583000  1.0
  C  C47  1  0.71780000  0.89560000  0.01840000  1.0
  C  C48  1  0.46264000  0.84009000  0.82035000  1.0
  C  C49  1  0.44196000  0.79141000  0.84762000  1.0
  C  C50  1  0.47986000  0.78375000  0.89317000  1.0
  C  C51  1  0.67916000  0.03609000  0.83859000  1.0
  C  C52  1  0.65209000  0.05667000  0.78972000  1.0
  C  C53  1  0.60601000  0.01929000  0.78145000  1.0
  C  C54  1  0.83985000  0.17714000  0.53369000  1.0
  C  C55  1  0.79075000  0.15016000  0.55503000  1.0
  C  C56  1  0.78157000  0.10509000  0.51740000  1.0
  C  C57  1  0.03722000  0.16056000  0.31932000  1.0
  C  C58  1  0.05811000  0.20890000  0.34696000  1.0
  C  C59  1  0.01997000  0.21656000  0.39232000  1.0
  C  C60  1  0.81998000  0.96492000  0.33728000  1.0
  C  C61  1  0.84737000  0.94412000  0.28868000  1.0
  C  C62  1  0.89322000  0.98175000  0.28017000  1.0
  C  C63  1  0.16021000  0.67671000  0.96548000  1.0
  C  C64  1  0.20958000  0.64990000  0.94429000  1.0
  C  C65  1  0.21873000  0.60456000  0.98174000  1.0
  C  C66  1  0.96279000  0.65995000  0.17956000  1.0
  C  C67  1  0.94193000  0.70862000  0.15225000  1.0
  C  C68  1  0.97985000  0.71623000  0.10668000  1.0
  C  C69  1  0.18035000  0.46385000  0.16185000  1.0
  C  C70  1  0.15298000  0.44328000  0.21056000  1.0
  C  C71  1  0.10685000  0.48086000  0.21865000  1.0
  C  C72  1  0.74332000  0.83610000  0.10248000  1.0
  C  C73  1  0.77724000  0.82758000  0.14039000  1.0
  C  C74  1  0.25666000  0.33588000  0.39822000  1.0
  C  C75  1  0.22281000  0.32738000  0.36028000  1.0
  C  C76  1  0.24386000  0.66412000  0.89761000  1.0
  C  C77  1  0.27765000  0.67277000  0.85960000  1.0
  C  C78  1  0.75677000  0.16402000  0.60205000  1.0
  C  C79  1  0.72324000  0.17235000  0.64036000  1.0
  C  C80  1  0.89522000  0.74370000  0.16604000  1.0
  C  C81  1  0.85770000  0.77851000  0.17384000  1.0
  C  C82  1  0.60518000  0.25606000  0.66691000  1.0
  C  C83  1  0.64297000  0.22144000  0.67428000  1.0
  C  C84  1  0.10497000  0.24377000  0.33359000  1.0
  C  C85  1  0.14256000  0.27848000  0.32636000  1.0
  C  C86  1  0.39539000  0.75640000  0.83383000  1.0
  C  C87  1  0.35793000  0.72172000  0.82596000  1.0
  C  C88  1  0.83336000  0.89757000  0.25455000  1.0
  C  C89  1  0.82534000  0.85972000  0.22091000  1.0
  C  C90  1  0.33333333  0.60291000  0.74505000  1.0
  C  C91  1  0.32553000  0.64074000  0.77880000  1.0
  C  C92  1  0.66666667  0.10283000  0.75520000  1.0
  C  C93  1  0.67535000  0.14029000  0.72123000  1.0
  C  C94  1  0.16716000  0.39700000  0.24517000  1.0
  C  C95  1  0.17519000  0.35950000  0.27931000  1.0
  N  N96  1  0.32259000  0.39502000  0.52239000  1.0
  N  N97  1  0.35859000  0.34998000  0.51253000  1.0
  N  N98  1  0.47991000  0.32358000  0.60840000  1.0
  N  N99  1  0.49005000  0.35830000  0.65380000  1.0
  N  N100  1  0.39293000  0.47868000  0.67906000  1.0
  N  N101  1  0.34749000  0.48923000  0.64361000  1.0
  N  N102  1  0.67713000  0.89548000  0.97839000  1.0
  N  N103  1  0.64127000  0.85048000  0.98829000  1.0
  N  N104  1  0.51967000  0.82461000  0.89283000  1.0
  N  N105  1  0.50921000  0.85945000  0.84753000  1.0
  N  N106  1  0.60583000  0.97982000  0.82214000  1.0
  N  N107  1  0.65136000  0.99006000  0.85749000  1.0
  N  N108  1  0.82197000  0.10541000  0.47709000  1.0
  N  N109  1  0.85802000  0.15024000  0.48702000  1.0
  N  N110  1  0.97983000  0.17602000  0.39160000  1.0
  N  N111  1  0.99031000  0.14138000  0.34617000  1.0
  N  N112  1  0.89300000  0.02152000  0.32051000  1.0
  N  N113  1  0.84741000  0.01126000  0.35586000  1.0
  N  N114  1  0.17804000  0.60458000  0.02178000  1.0
  N  N115  1  0.14185000  0.64947000  0.01188000  1.0
  N  N116  1  0.01985000  0.67537000  0.10706000  1.0
  N  N117  1  0.00949000  0.64056000  0.15240000  1.0
  N  N118  1  0.10688000  0.52038000  0.17802000  1.0
  N  N119  1  0.15263000  0.51001000  0.14285000  1.0
  N  N120  1  0.81706000  0.81905000  0.18133000  1.0
  N  N121  1  0.18318000  0.31895000  0.31916000  1.0
  N  N122  1  0.31731000  0.68134000  0.81851000  1.0
  N  N123  1  0.68368000  0.18094000  0.68158000  1.0
