# generated using pymatgen
data_CaH11C12NO5
_symmetry_space_group_name_H-M   'P 1'
_cell_length_a   6.82759000
_cell_length_b   10.34400000
_cell_length_c   17.87930000
_cell_angle_alpha   90.00010000
_cell_angle_beta   90.00010000
_cell_angle_gamma   89.99960000
_symmetry_Int_Tables_number   1
_chemical_formula_structural   CaH11C12NO5
_chemical_formula_sum   'Ca4 H44 C48 N4 O20'
_cell_volume   1262.71824912
_cell_formula_units_Z   4
loop_
 _symmetry_equiv_pos_site_id
 _symmetry_equiv_pos_as_xyz
  1  'x, y, z'
loop_
 _atom_site_type_symbol
 _atom_site_label
 _atom_site_symmetry_multiplicity
 _atom_site_fract_x
 _atom_site_fract_y
 _atom_site_fract_z
 _atom_site_occupancy
  Ca  Ca0  1  0.49940000  0.25830000  0.97489000  1.0
  Ca  Ca1  1  0.00060000  0.74170000  0.47489000  1.0
  Ca  Ca2  1  0.50060000  0.75830000  0.52511000  1.0
  Ca  Ca3  1  0.99940000  0.24170000  0.02511000  1.0
  H  H4  1  0.59408000  0.53473000  0.88133000  1.0
  H  H5  1  0.90592000  0.46527000  0.38133000  1.0
  H  H6  1  0.40591000  0.03473000  0.61867000  1.0
  H  H7  1  0.09408000  0.96527000  0.11867000  1.0
  H  H8  1  0.39690000  0.50783000  0.75158000  1.0
  H  H9  1  0.10311000  0.49217000  0.25159000  1.0
  H  H10  1  0.60311000  0.00783000  0.74842000  1.0
  H  H11  1  0.89689000  0.99217000  0.24841000  1.0
  H  H12  1  0.87768000  0.54078000  0.61716000  1.0
  H  H13  1  0.62232000  0.45923000  0.11716000  1.0
  H  H14  1  0.12233000  0.04078000  0.88284000  1.0
  H  H15  1  0.37768000  0.95922000  0.38284000  1.0
  H  H16  1  0.69090000  0.41594000  0.71244000  1.0
  H  H17  1  0.80910000  0.58407000  0.21244000  1.0
  H  H18  1  0.30910000  0.91593000  0.78756000  1.0
  H  H19  1  0.19090000  0.08408000  0.28756000  1.0
  H  H20  1  0.86086000  0.33111000  0.82593000  1.0
  H  H21  1  0.63914000  0.66891000  0.32594000  1.0
  H  H22  1  0.13914000  0.83109000  0.67407000  1.0
  H  H23  1  0.36086000  0.16891000  0.17407000  1.0
  H  H24  1  0.12632000  0.54895000  0.97042000  1.0
  H  H25  1  0.37367000  0.45104000  0.47042000  1.0
  H  H26  1  0.87366000  0.04895000  0.52958000  1.0
  H  H27  1  0.62633000  0.95104000  0.02957000  1.0
  H  H28  1  0.98192000  0.62068000  0.04046000  1.0
  H  H29  1  0.51808000  0.37932000  0.54046000  1.0
  H  H30  1  0.01807000  0.12068000  0.45955000  1.0
  H  H31  1  0.48192000  0.87932000  0.95954000  1.0
  H  H32  1  0.93900000  0.81129000  0.96695000  1.0
  H  H33  1  0.56100000  0.18870000  0.46695000  1.0
  H  H34  1  0.06097000  0.31129000  0.53305000  1.0
  H  H35  1  0.43900000  0.68871000  0.03305000  1.0
  H  H36  1  0.10628000  0.74811000  0.90136000  1.0
  H  H37  1  0.39372000  0.25189000  0.40136000  1.0
  H  H38  1  0.89370000  0.24810000  0.59865000  1.0
  H  H39  1  0.60628000  0.75189000  0.09864000  1.0
  H  H40  1  0.69197000  0.77846000  0.87675000  1.0
  H  H41  1  0.80803000  0.22154000  0.37675000  1.0
  H  H42  1  0.30801000  0.27846000  0.62325000  1.0
  H  H43  1  0.19198000  0.72154000  0.12325000  1.0
  H  H44  1  0.85160000  0.68721000  0.81915000  1.0
  H  H45  1  0.64840000  0.31279000  0.31915000  1.0
  H  H46  1  0.14839000  0.18721000  0.68085000  1.0
  H  H47  1  0.35160000  0.81279000  0.18085000  1.0
  C  C48  1  0.24429000  0.37038000  0.86531000  1.0
  C  C49  1  0.25572000  0.62962000  0.36532000  1.0
  C  C50  1  0.75571000  0.87037000  0.63468000  1.0
  C  C51  1  0.74429000  0.12963000  0.13468000  1.0
  C  C52  1  0.27333000  0.59699000  0.62032000  1.0
  C  C53  1  0.22668000  0.40301000  0.12032000  1.0
  C  C54  1  0.72668000  0.09699000  0.87968000  1.0
  C  C55  1  0.77333000  0.90301000  0.37967000  1.0
  C  C56  1  0.13932000  0.41571000  0.79672000  1.0
  C  C57  1  0.36069000  0.58430000  0.29673000  1.0
  C  C58  1  0.86069000  0.91570000  0.70328000  1.0
  C  C59  1  0.63931000  0.08430000  0.20328000  1.0
  C  C60  1  0.24251000  0.48630000  0.74310000  1.0
  C  C61  1  0.25750000  0.51370000  0.24311000  1.0
  C  C62  1  0.75750000  0.98630000  0.75690000  1.0
  C  C63  1  0.74251000  0.01370000  0.25690000  1.0
  C  C64  1  0.15121000  0.52850000  0.67755000  1.0
  C  C65  1  0.34880000  0.47149000  0.17756000  1.0
  C  C66  1  0.84880000  0.02850000  0.82244000  1.0
  C  C67  1  0.65120000  0.97150000  0.32244000  1.0
  C  C68  1  0.95098000  0.50431000  0.66698000  1.0
  C  C69  1  0.54902000  0.49569000  0.16698000  1.0
  C  C70  1  0.04903000  0.00431000  0.83302000  1.0
  C  C71  1  0.45098000  0.99569000  0.33302000  1.0
  C  C72  1  0.84666000  0.43430000  0.72070000  1.0
  C  C73  1  0.65334000  0.56571000  0.22070000  1.0
  C  C74  1  0.15334000  0.93428000  0.77930000  1.0
  C  C75  1  0.34666000  0.06572000  0.27930000  1.0
  C  C76  1  0.94055000  0.38794000  0.78467000  1.0
  C  C77  1  0.55945000  0.61207000  0.28468000  1.0
  C  C78  1  0.05945000  0.88793000  0.71532000  1.0
  C  C79  1  0.44055000  0.11207000  0.21532000  1.0
  C  C80  1  0.81765000  0.52078000  0.95731000  1.0
  C  C81  1  0.68234000  0.47921000  0.45731000  1.0
  C  C82  1  0.18233000  0.02078000  0.54269000  1.0
  C  C83  1  0.31766000  0.97921000  0.04269000  1.0
  C  C84  1  0.99027000  0.60336000  0.97989000  1.0
  C  C85  1  0.50973000  0.39664000  0.47989000  1.0
  C  C86  1  0.00972000  0.10336000  0.52011000  1.0
  C  C87  1  0.49027000  0.89664000  0.02011000  1.0
  C  C88  1  0.97159000  0.72666000  0.93218000  1.0
  C  C89  1  0.52841000  0.27334000  0.43218000  1.0
  C  C90  1  0.02839000  0.22665000  0.56783000  1.0
  C  C91  1  0.47160000  0.77334000  0.06782000  1.0
  C  C92  1  0.80068000  0.70027000  0.87705000  1.0
  C  C93  1  0.69932000  0.29972000  0.37705000  1.0
  C  C94  1  0.19931000  0.20027000  0.62295000  1.0
  C  C95  1  0.30068000  0.79973000  0.12295000  1.0
  N  N96  1  0.71416000  0.58059000  0.90456000  1.0
  N  N97  1  0.78584000  0.41941000  0.40456000  1.0
  N  N98  1  0.28584000  0.08059000  0.59544000  1.0
  N  N99  1  0.21417000  0.91941000  0.09544000  1.0
  O  O100  1  0.41875000  0.41053000  0.87706000  1.0
  O  O101  1  0.08126000  0.58947000  0.37707000  1.0
  O  O102  1  0.58125000  0.91052000  0.62294000  1.0
  O  O103  1  0.91874000  0.08947000  0.12293000  1.0
  O  O104  1  0.15927000  0.29240000  0.90981000  1.0
  O  O105  1  0.34073000  0.70762000  0.40981000  1.0
  O  O106  1  0.84074000  0.79239000  0.59019000  1.0
  O  O107  1  0.65927000  0.20762000  0.09019000  1.0
  O  O108  1  0.44969000  0.62452000  0.63565000  1.0
  O  O109  1  0.05032000  0.37548000  0.13565000  1.0
  O  O110  1  0.55032000  0.12452000  0.86435000  1.0
  O  O111  1  0.94968000  0.87547000  0.36434000  1.0
  O  O112  1  0.19697000  0.62485000  0.55650000  1.0
  O  O113  1  0.30304000  0.37516000  0.05650000  1.0
  O  O114  1  0.80305000  0.12484000  0.94350000  1.0
  O  O115  1  0.69696000  0.87515000  0.44350000  1.0
  O  O116  1  0.77711000  0.41106000  0.98429000  1.0
  O  O117  1  0.72289000  0.58895000  0.48429000  1.0
  O  O118  1  0.22288000  0.91105000  0.51571000  1.0
  O  O119  1  0.27711000  0.08895000  0.01571000  1.0
