# generated using pymatgen
data_AlH8C14NO5F
_symmetry_space_group_name_H-M   'P 1'
_cell_length_a   6.66766000
_cell_length_b   11.10622892
_cell_length_c   17.72280000
_cell_angle_alpha   89.79362856
_cell_angle_beta   79.80010000
_cell_angle_gamma   72.87953177
_symmetry_Int_Tables_number   1
_chemical_formula_structural   AlH8C14NO5F
_chemical_formula_sum   'Al2 H16 C28 N2 O10 F2'
_cell_volume   1232.79612179
_cell_formula_units_Z   2
loop_
 _symmetry_equiv_pos_site_id
 _symmetry_equiv_pos_as_xyz
  1  'x, y, z'
loop_
 _atom_site_type_symbol
 _atom_site_label
 _atom_site_symmetry_multiplicity
 _atom_site_fract_x
 _atom_site_fract_y
 _atom_site_fract_z
 _atom_site_occupancy
  Al  Al0  1  0.00252000  0.50666000  0.49745000  1.0
  Al  Al1  1  0.50256000  0.50792000  0.49757000  1.0
  H  H2  1  0.35128000  0.36646000  0.43985000  1.0
  H  H3  1  0.65535000  0.65783000  0.53978000  1.0
  H  H4  1  0.86875000  0.43159000  0.71988000  1.0
  H  H5  1  0.80448000  0.40772000  0.86209000  1.0
  H  H6  1  0.43374000  0.53466000  0.73528000  1.0
  H  H7  1  0.53352000  0.54638000  0.26319000  1.0
  H  H8  1  0.20535000  0.43593000  0.26773000  1.0
  H  H9  1  0.28655000  0.41309000  0.12405000  1.0
  H  H10  1  0.53056000  0.24611000  0.60583000  1.0
  H  H11  1  0.78306000  0.77582000  0.60508000  1.0
  H  H12  1  0.35219000  0.88884000  0.44218000  1.0
  H  H13  1  0.23346000  0.12489000  0.44787000  1.0
  H  H14  1  0.33641000  0.54015000  0.94557000  1.0
  H  H15  1  0.49043000  0.57611000  0.86527000  1.0
  H  H16  1  0.61624000  0.54919000  0.05293000  1.0
  H  H17  1  0.42833000  0.58625000  0.13624000  1.0
  C  C18  1  0.86192000  0.28080000  0.50854000  1.0
  C  C19  1  0.81624000  0.50184000  0.35841000  1.0
  C  C20  1  0.13571000  0.73534000  0.49939000  1.0
  C  C21  1  0.19330000  0.49994000  0.63617000  1.0
  C  C22  1  0.15398000  0.48587000  0.72056000  1.0
  C  C23  1  0.97461000  0.45062000  0.75542000  1.0
  C  C24  1  0.93894000  0.43842000  0.83409000  1.0
  C  C25  1  0.07458000  0.46577000  0.87987000  1.0
  C  C26  1  0.25661000  0.50149000  0.84426000  1.0
  C  C27  1  0.29508000  0.50858000  0.76421000  1.0
  C  C28  1  0.03048000  0.46266000  0.96061000  1.0
  C  C29  1  0.00133000  0.46532000  0.03095000  1.0
  C  C30  1  0.95626000  0.47238000  0.11197000  1.0
  C  C31  1  0.73932000  0.51103000  0.15113000  1.0
  C  C32  1  0.69757000  0.51900000  0.23164000  1.0
  C  C33  1  0.86430000  0.49302000  0.27286000  1.0
  C  C34  1  0.07797000  0.45620000  0.23437000  1.0
  C  C35  1  0.12202000  0.44441000  0.15488000  1.0
  C  C36  1  0.92642000  0.14120000  0.51519000  1.0
  C  C37  1  0.78746000  0.07746000  0.55689000  1.0
  C  C38  1  0.12877000  0.07360000  0.47728000  1.0
  C  C39  1  0.58803000  0.14356000  0.60308000  1.0
  C  C40  1  0.46668000  0.07820000  0.64577000  1.0
  C  C41  1  0.06148000  0.87569000  0.51025000  1.0
  C  C42  1  0.19569000  0.94142000  0.47432000  1.0
  C  C43  1  0.85823000  0.94161000  0.55521000  1.0
  C  C44  1  0.72923000  0.87786000  0.60160000  1.0
  C  C45  1  0.53820000  0.94510000  0.64541000  1.0
  N  N46  1  0.39262000  0.52556000  0.88824000  1.0
  N  N47  1  0.57677000  0.53591000  0.10966000  1.0
  O  O48  1  0.00503000  0.33482000  0.51014000  1.0
  O  O49  1  0.62375000  0.51574000  0.39119000  1.0
  O  O50  1  0.33228000  0.68098000  0.50002000  1.0
  O  O51  1  0.03374000  0.51599000  0.60267000  1.0
  O  O52  1  0.99924000  0.68015000  0.48935000  1.0
  O  O53  1  0.38191000  0.49652000  0.60373000  1.0
  O  O54  1  0.67200000  0.33519000  0.49890000  1.0
  O  O55  1  0.97326000  0.49266000  0.39245000  1.0
  O  O56  1  0.29655000  0.45002000  0.46483000  1.0
  O  O57  1  0.70792000  0.56705000  0.52997000  1.0
  F  F58  1  0.27724000  0.13979000  0.69058000  1.0
  F  F59  1  0.41523000  0.88505000  0.69047000  1.0
