# generated using pymatgen
data_NaH12C10SN3O7
_symmetry_space_group_name_H-M   'P 1'
_cell_length_a   5.17791000
_cell_length_b   9.91739000
_cell_length_c   14.28900000
_cell_angle_alpha   99.92970000
_cell_angle_beta   95.83120000
_cell_angle_gamma   100.37100000
_symmetry_Int_Tables_number   1
_chemical_formula_structural   NaH12C10SN3O7
_chemical_formula_sum   'Na2 H24 C20 S2 N6 O14'
_cell_volume   704.26651491
_cell_formula_units_Z   2
loop_
 _symmetry_equiv_pos_site_id
 _symmetry_equiv_pos_as_xyz
  1  'x, y, z'
loop_
 _atom_site_type_symbol
 _atom_site_label
 _atom_site_symmetry_multiplicity
 _atom_site_fract_x
 _atom_site_fract_y
 _atom_site_fract_z
 _atom_site_occupancy
  Na  Na0  1  0.42861000  0.96312000  0.61654000  1.0
  Na  Na1  1  0.57137000  0.03688000  0.38346000  1.0
  H  H2  1  0.61834000  0.38664000  0.60718000  1.0
  H  H3  1  0.38164000  0.61334000  0.39283000  1.0
  H  H4  1  0.50099000  0.56006000  0.73409000  1.0
  H  H5  1  0.49901000  0.43994000  0.26591000  1.0
  H  H6  1  0.73972000  0.60334000  0.90113000  1.0
  H  H7  1  0.26031000  0.39668000  0.09887000  1.0
  H  H8  1  0.08496000  0.46853000  0.93868000  1.0
  H  H9  1  0.91506000  0.53149000  0.06131000  1.0
  H  H10  1  0.05822000  0.92593000  0.89957000  1.0
  H  H11  1  0.94177000  0.07407000  0.10042000  1.0
  H  H12  1  0.99830000  0.00361000  0.79587000  1.0
  H  H13  1  0.00169000  0.99639000  0.20412000  1.0
  H  H14  1  0.75618000  0.86412000  0.81727000  1.0
  H  H15  1  0.24381000  0.13588000  0.18272000  1.0
  H  H16  1  0.28272000  0.20364000  0.76492000  1.0
  H  H17  1  0.71728000  0.79636000  0.23508000  1.0
  H  H18  1  0.99388000  0.75129000  0.66578000  1.0
  H  H19  1  0.00612000  0.24871000  0.33422000  1.0
  H  H20  1  0.21960000  0.75866000  0.75138000  1.0
  H  H21  1  0.78041000  0.24134000  0.24862000  1.0
  H  H22  1  0.70419000  0.73789000  0.55074000  1.0
  H  H23  1  0.29581000  0.26210000  0.44926000  1.0
  H  H24  1  0.48864000  0.72236000  0.62362000  1.0
  H  H25  1  0.51137000  0.27764000  0.37638000  1.0
  C  C26  1  0.91321000  0.32872000  0.70091000  1.0
  C  C27  1  0.08679000  0.67127000  0.29909000  1.0
  C  C28  1  0.72118000  0.40591000  0.67999000  1.0
  C  C29  1  0.27881000  0.59408000  0.32001000  1.0
  C  C30  1  0.65510000  0.50314000  0.75136000  1.0
  C  C31  1  0.34490000  0.49686000  0.24864000  1.0
  C  C32  1  0.78654000  0.52616000  0.84487000  1.0
  C  C33  1  0.21347000  0.47385000  0.15513000  1.0
  C  C34  1  0.97808000  0.45083000  0.86679000  1.0
  C  C35  1  0.02193000  0.54918000  0.13321000  1.0
  C  C36  1  0.04185000  0.35058000  0.79583000  1.0
  C  C37  1  0.95816000  0.64943000  0.20417000  1.0
  C  C38  1  0.50008000  0.20717000  0.93415000  1.0
  C  C39  1  0.49992000  0.79283000  0.06585000  1.0
  C  C40  1  0.58137000  0.22618000  0.03411000  1.0
  C  C41  1  0.41863000  0.77383000  0.96589000  1.0
  C  C42  1  0.61156000  0.10969000  0.86801000  1.0
  C  C43  1  0.38844000  0.89033000  0.13199000  1.0
  C  C44  1  0.90974000  0.95529000  0.85159000  1.0
  C  C45  1  0.09026000  0.04471000  0.14841000  1.0
  S  S46  1  0.98340000  0.21063000  0.60138000  1.0
  S  S47  1  0.01659000  0.78936000  0.39863000  1.0
  N  N48  1  0.23047000  0.27205000  0.82025000  1.0
  N  N49  1  0.76954000  0.72795000  0.17975000  1.0
  N  N50  1  0.32393000  0.28151000  0.90923000  1.0
  N  N51  1  0.67607000  0.71850000  0.09077000  1.0
  N  N52  1  0.64869000  0.24003000  0.11637000  1.0
  N  N53  1  0.35131000  0.75997000  0.88362000  1.0
  O  O54  1  0.14126000  0.11990000  0.64223000  1.0
  O  O55  1  0.85872000  0.88008000  0.35778000  1.0
  O  O56  1  0.12805000  0.30245000  0.54580000  1.0
  O  O57  1  0.87195000  0.69754000  0.45420000  1.0
  O  O58  1  0.72452000  0.13205000  0.55046000  1.0
  O  O59  1  0.27547000  0.86795000  0.44955000  1.0
  O  O60  1  0.54460000  0.08328000  0.78049000  1.0
  O  O61  1  0.45541000  0.91673000  0.21951000  1.0
  O  O62  1  0.18828000  0.76652000  0.68377000  1.0
  O  O63  1  0.81172000  0.23347000  0.31623000  1.0
  O  O64  1  0.66715000  0.77038000  0.61666000  1.0
  O  O65  1  0.33285000  0.22961000  0.38334000  1.0
  O  O66  1  0.79446000  0.05415000  0.91329000  1.0
  O  O67  1  0.20554000  0.94585000  0.08670000  1.0
