# generated using pymatgen
data_ZnH2C2N3Cl
_symmetry_space_group_name_H-M   'P 1'
_cell_length_a   6.06067000
_cell_length_b   8.77976000
_cell_length_c   9.81905000
_cell_angle_alpha   90.00060000
_cell_angle_beta   90.00080000
_cell_angle_gamma   81.20720000
_symmetry_Int_Tables_number   1
_chemical_formula_structural   ZnH2C2N3Cl
_chemical_formula_sum   'Zn4 H8 C8 N12 Cl4'
_cell_volume   516.34327024
_cell_formula_units_Z   4
loop_
 _symmetry_equiv_pos_site_id
 _symmetry_equiv_pos_as_xyz
  1  'x, y, z'
loop_
 _atom_site_type_symbol
 _atom_site_label
 _atom_site_symmetry_multiplicity
 _atom_site_fract_x
 _atom_site_fract_y
 _atom_site_fract_z
 _atom_site_occupancy
  Zn  Zn0  1  0.54598000  0.18682000  0.42263000  1.0
  Zn  Zn1  1  0.95402000  0.31318000  0.92263000  1.0
  Zn  Zn2  1  0.45402000  0.81318000  0.57737000  1.0
  Zn  Zn3  1  0.04598000  0.68682000  0.07737000  1.0
  H  H4  1  0.15958000  0.97153000  0.82469000  1.0
  H  H5  1  0.34043000  0.52847000  0.32470000  1.0
  H  H6  1  0.84042000  0.02847000  0.17531000  1.0
  H  H7  1  0.65957000  0.47153000  0.67530000  1.0
  H  H8  1  0.25267000  0.39670000  0.65298000  1.0
  H  H9  1  0.24733000  0.10330000  0.15299000  1.0
  H  H10  1  0.74732000  0.60330000  0.34702000  1.0
  H  H11  1  0.75268000  0.89670000  0.84701000  1.0
  C  C12  1  0.20902000  0.05804000  0.75704000  1.0
  C  C13  1  0.29098000  0.44196000  0.25704000  1.0
  C  C14  1  0.79097000  0.94196000  0.24296000  1.0
  C  C15  1  0.70902000  0.55804000  0.74296000  1.0
  C  C16  1  0.26165000  0.27379000  0.67248000  1.0
  C  C17  1  0.23835000  0.22621000  0.17248000  1.0
  C  C18  1  0.73834000  0.72620000  0.32752000  1.0
  C  C19  1  0.76166000  0.77379000  0.82752000  1.0
  N  N20  1  0.37254000  0.16438000  0.59398000  1.0
  N  N21  1  0.12747000  0.33562000  0.09399000  1.0
  N  N22  1  0.62746000  0.83562000  0.40602000  1.0
  N  N23  1  0.87254000  0.66438000  0.90601000  1.0
  N  N24  1  0.33830000  0.02560000  0.64826000  1.0
  N  N25  1  0.16170000  0.47440000  0.14827000  1.0
  N  N26  1  0.66169000  0.97440000  0.35173000  1.0
  N  N27  1  0.83830000  0.52560000  0.85173000  1.0
  N  N28  1  0.15734000  0.21178000  0.77567000  1.0
  N  N29  1  0.34266000  0.28823000  0.27567000  1.0
  N  N30  1  0.84265000  0.78822000  0.22433000  1.0
  N  N31  1  0.65735000  0.71177000  0.72433000  1.0
  Cl  Cl32  1  0.81220000  0.33314000  0.44991000  1.0
  Cl  Cl33  1  0.68781000  0.16685000  0.94991000  1.0
  Cl  Cl34  1  0.18781000  0.66685000  0.55009000  1.0
  Cl  Cl35  1  0.31219000  0.83315000  0.05009000  1.0
