# generated using pymatgen
data_CuH11C18Br2(NO2)3
_symmetry_space_group_name_H-M   'P 1'
_cell_length_a   9.83143000
_cell_length_b   10.13540000
_cell_length_c   11.00110000
_cell_angle_alpha   73.49810000
_cell_angle_beta   87.35030000
_cell_angle_gamma   77.46660000
_symmetry_Int_Tables_number   1
_chemical_formula_structural   CuH11C18Br2(NO2)3
_chemical_formula_sum   'Cu2 H22 C36 Br4 N6 O12'
_cell_volume   1025.87116866
_cell_formula_units_Z   2
loop_
 _symmetry_equiv_pos_site_id
 _symmetry_equiv_pos_as_xyz
  1  'x, y, z'
loop_
 _atom_site_type_symbol
 _atom_site_label
 _atom_site_symmetry_multiplicity
 _atom_site_fract_x
 _atom_site_fract_y
 _atom_site_fract_z
 _atom_site_occupancy
  Cu  Cu0  1  0.85420000  0.36744000  0.56580000  1.0
  Cu  Cu1  1  0.14578000  0.63255000  0.43420000  1.0
  H  H2  1  0.85764000  0.92698000  0.52432000  1.0
  H  H3  1  0.14238000  0.07303000  0.47566000  1.0
  H  H4  1  0.55112000  0.67579000  0.66276000  1.0
  H  H5  1  0.44892000  0.32419000  0.33721000  1.0
  H  H6  1  0.47760000  0.10451000  0.68430000  1.0
  H  H7  1  0.52240000  0.89546000  0.31571000  1.0
  H  H8  1  0.71969000  0.36874000  0.80677000  1.0
  H  H9  1  0.28030000  0.63125000  0.19328000  1.0
  H  H10  1  0.78115000  0.27405000  0.03960000  1.0
  H  H11  1  0.21887000  0.72595000  0.96044000  1.0
  H  H12  1  0.97256000  0.35378000  0.31683000  1.0
  H  H13  1  0.02741000  0.64621000  0.68320000  1.0
  H  H14  1  0.19623000  0.10114000  0.93211000  1.0
  H  H15  1  0.80378000  0.89886000  0.06788000  1.0
  H  H16  1  0.60079000  0.55912000  0.43604000  1.0
  H  H17  1  0.39916000  0.44091000  0.56395000  1.0
  H  H18  1  0.11398000  0.19584000  0.70587000  1.0
  H  H19  1  0.88598000  0.80416000  0.29413000  1.0
  H  H20  1  0.90315000  0.46279000  0.08899000  1.0
  H  H21  1  0.09685000  0.53721000  0.91102000  1.0
  H  H22  1  0.51296000  0.67246000  0.21701000  1.0
  H  H23  1  0.48703000  0.32759000  0.78296000  1.0
  C  C24  1  0.80704000  0.66514000  0.55693000  1.0
  C  C25  1  0.19302000  0.33488000  0.44305000  1.0
  C  C26  1  0.50257000  0.88892000  0.67834000  1.0
  C  C27  1  0.49745000  0.11105000  0.32164000  1.0
  C  C28  1  0.71375000  0.78904000  0.58971000  1.0
  C  C29  1  0.28627000  0.21095000  0.41028000  1.0
  C  C30  1  0.75684000  0.91693000  0.56752000  1.0
  C  C31  1  0.24318000  0.08308000  0.43247000  1.0
  C  C32  1  0.67215000  0.03037000  0.60222000  1.0
  C  C33  1  0.32785000  0.96962000  0.39777000  1.0
  C  C34  1  0.58533000  0.77447000  0.64544000  1.0
  C  C35  1  0.41469000  0.22552000  0.35454000  1.0
  C  C36  1  0.54336000  0.01653000  0.65750000  1.0
  C  C37  1  0.45663000  0.98344000  0.34251000  1.0
  C  C38  1  0.71641000  0.16755000  0.58743000  1.0
  C  C39  1  0.28359000  0.83248000  0.41257000  1.0
  C  C40  1  0.99478000  0.18365000  0.00226000  1.0
  C  C41  1  0.00525000  0.81634000  0.99777000  1.0
  C  C42  1  0.82337000  0.30776000  0.83963000  1.0
  C  C43  1  0.17662000  0.69224000  0.16040000  1.0
  C  C44  1  0.85814000  0.25695000  0.96817000  1.0
  C  C45  1  0.14188000  0.74305000  0.03185000  1.0
  C  C46  1  0.87307000  0.42678000  0.28978000  1.0
  C  C47  1  0.12690000  0.57323000  0.71024000  1.0
  C  C48  1  0.08988000  0.16012000  0.90892000  1.0
  C  C49  1  0.91011000  0.83988000  0.09108000  1.0
  C  C50  1  0.66494000  0.53974000  0.35702000  1.0
  C  C51  1  0.33503000  0.46028000  0.64297000  1.0
  C  C52  1  0.04505000  0.21228000  0.78290000  1.0
  C  C53  1  0.95493000  0.78772000  0.21711000  1.0
  C  C54  1  0.83358000  0.48718000  0.16309000  1.0
  C  C55  1  0.16640000  0.51283000  0.83693000  1.0
  C  C56  1  0.61593000  0.60344000  0.23298000  1.0
  C  C57  1  0.38406000  0.39658000  0.76700000  1.0
  C  C58  1  0.70259000  0.57604000  0.13522000  1.0
  C  C59  1  0.29740000  0.42398000  0.86477000  1.0
  Br  Br60  1  0.05221000  0.11498000  0.17460000  1.0
  Br  Br61  1  0.94783000  0.88501000  0.82541000  1.0
  Br  Br62  1  0.64351000  0.65789000  0.96357000  1.0
  Br  Br63  1  0.35650000  0.34212000  0.03643000  1.0
  N  N64  1  0.79129000  0.45350000  0.38498000  1.0
  N  N65  1  0.20866000  0.54652000  0.61501000  1.0
  N  N66  1  0.91504000  0.28654000  0.74866000  1.0
  N  N67  1  0.08494000  0.71345000  0.25138000  1.0
  N  N68  1  0.37001000  0.87270000  0.74138000  1.0
  N  N69  1  0.63000000  0.12726000  0.25861000  1.0
  O  O70  1  0.84328000  0.17144000  0.55420000  1.0
  O  O71  1  0.15670000  0.82856000  0.44583000  1.0
  O  O72  1  0.77168000  0.54665000  0.60692000  1.0
  O  O73  1  0.22838000  0.45336000  0.39307000  1.0
  O  O74  1  0.90913000  0.68533000  0.48698000  1.0
  O  O75  1  0.09091000  0.31471000  0.51300000  1.0
  O  O76  1  0.62996000  0.26799000  0.61128000  1.0
  O  O77  1  0.37001000  0.73201000  0.38870000  1.0
  O  O78  1  0.30058000  0.97358000  0.77541000  1.0
  O  O79  1  0.69943000  0.02636000  0.22460000  1.0
  O  O80  1  0.33530000  0.75791000  0.75971000  1.0
  O  O81  1  0.66471000  0.24207000  0.24025000  1.0
