# generated using pymatgen
data_NiH8(C7N4)2
_symmetry_space_group_name_H-M   'P 1'
_cell_length_a   8.87555000
_cell_length_b   8.87554000
_cell_length_c   8.93466000
_cell_angle_alpha   84.99110000
_cell_angle_beta   84.99130000
_cell_angle_gamma   76.92010000
_symmetry_Int_Tables_number   1
_chemical_formula_structural   NiH8(C7N4)2
_chemical_formula_sum   'Ni2 H16 C28 N16'
_cell_volume   681.29505224
_cell_formula_units_Z   2
loop_
 _symmetry_equiv_pos_site_id
 _symmetry_equiv_pos_as_xyz
  1  'x, y, z'
loop_
 _atom_site_type_symbol
 _atom_site_label
 _atom_site_symmetry_multiplicity
 _atom_site_fract_x
 _atom_site_fract_y
 _atom_site_fract_z
 _atom_site_occupancy
  Ni  Ni0  1  0.66263000  0.33738000  0.25000000  1.0
  Ni  Ni1  1  0.33738000  0.66262000  0.75000000  1.0
  H  H2  1  0.69577000  0.73526000  0.56527000  1.0
  H  H3  1  0.26474000  0.30423000  0.93473000  1.0
  H  H4  1  0.30424000  0.26474000  0.43473000  1.0
  H  H5  1  0.73526000  0.69577000  0.06528000  1.0
  H  H6  1  0.88269000  0.86851000  0.40969000  1.0
  H  H7  1  0.13149000  0.11731000  0.09030000  1.0
  H  H8  1  0.11731000  0.13150000  0.59031000  1.0
  H  H9  1  0.86850000  0.88269000  0.90969000  1.0
  H  H10  1  0.15264000  0.83473000  0.49181000  1.0
  H  H11  1  0.16527000  0.84737000  0.00819000  1.0
  H  H12  1  0.84737000  0.16527000  0.50819000  1.0
  H  H13  1  0.83473000  0.15263000  0.99181000  1.0
  H  H14  1  0.06342000  0.53462000  0.85423000  1.0
  H  H15  1  0.46538000  0.93658000  0.64577000  1.0
  H  H16  1  0.93659000  0.46538000  0.14577000  1.0
  H  H17  1  0.53462000  0.06342000  0.35423000  1.0
  C  C18  1  0.57588000  0.50170000  0.96720000  1.0
  C  C19  1  0.49830000  0.42412000  0.53280000  1.0
  C  C20  1  0.42413000  0.49830000  0.03279000  1.0
  C  C21  1  0.50170000  0.57587000  0.46720000  1.0
  C  C22  1  0.76629000  0.54716000  0.82739000  1.0
  C  C23  1  0.45284000  0.23371000  0.67261000  1.0
  C  C24  1  0.23371000  0.45284000  0.17261000  1.0
  C  C25  1  0.54716000  0.76629000  0.32739000  1.0
  C  C26  1  0.86658000  0.62039000  0.72024000  1.0
  C  C27  1  0.37961000  0.13342000  0.77976000  1.0
  C  C28  1  0.13342000  0.37961000  0.27976000  1.0
  C  C29  1  0.62039000  0.86658000  0.22025000  1.0
  C  C30  1  0.81529000  0.71731000  0.59419000  1.0
  C  C31  1  0.28269000  0.18471000  0.90581000  1.0
  C  C32  1  0.18471000  0.28269000  0.40581000  1.0
  C  C33  1  0.71730000  0.81530000  0.09419000  1.0
  C  C34  1  0.91896000  0.79314000  0.50900000  1.0
  C  C35  1  0.20686000  0.08104000  0.99100000  1.0
  C  C36  1  0.08104000  0.20687000  0.49100000  1.0
  C  C37  1  0.79313000  0.91896000  0.00900000  1.0
  C  C38  1  0.06903000  0.77497000  0.55302000  1.0
  C  C39  1  0.22503000  0.93097000  0.94698000  1.0
  C  C40  1  0.93097000  0.22504000  0.44698000  1.0
  C  C41  1  0.77496000  0.06903000  0.05302000  1.0
  C  C42  1  0.02105000  0.60524000  0.75454000  1.0
  C  C43  1  0.39476000  0.97895000  0.74546000  1.0
  C  C44  1  0.97895000  0.39476000  0.24546000  1.0
  C  C45  1  0.60524000  0.02105000  0.25454000  1.0
  N  N46  1  0.70311000  0.42680000  0.03536000  1.0
  N  N47  1  0.57320000  0.29689000  0.46464000  1.0
  N  N48  1  0.29689000  0.57320000  0.96464000  1.0
  N  N49  1  0.42680000  0.70311000  0.53536000  1.0
  N  N50  1  0.82689000  0.45367000  0.94538000  1.0
  N  N51  1  0.54633000  0.17311000  0.55462000  1.0
  N  N52  1  0.17312000  0.54633000  0.05462000  1.0
  N  N53  1  0.45366000  0.82689000  0.44538000  1.0
  N  N54  1  0.60750000  0.57955000  0.83624000  1.0
  N  N55  1  0.42044000  0.39250000  0.66376000  1.0
  N  N56  1  0.39250000  0.42044000  0.16376000  1.0
  N  N57  1  0.57956000  0.60750000  0.33624000  1.0
  N  N58  1  0.11831000  0.68275000  0.67571000  1.0
  N  N59  1  0.31725000  0.88169000  0.82429000  1.0
  N  N60  1  0.88169000  0.31726000  0.32429000  1.0
  N  N61  1  0.68274000  0.11832000  0.17571000  1.0
