# generated using pymatgen
data_ZnH16C18N2(ClO)2
_symmetry_space_group_name_H-M   'P 1'
_cell_length_a   8.75815000
_cell_length_b   10.26260000
_cell_length_c   10.54110000
_cell_angle_alpha   86.97040000
_cell_angle_beta   72.34710000
_cell_angle_gamma   73.02650000
_symmetry_Int_Tables_number   1
_chemical_formula_structural   ZnH16C18N2(ClO)2
_chemical_formula_sum   'Zn2 H32 C36 N4 Cl4 O4'
_cell_volume   862.84501949
_cell_formula_units_Z   2
loop_
 _symmetry_equiv_pos_site_id
 _symmetry_equiv_pos_as_xyz
  1  'x, y, z'
loop_
 _atom_site_type_symbol
 _atom_site_label
 _atom_site_symmetry_multiplicity
 _atom_site_fract_x
 _atom_site_fract_y
 _atom_site_fract_z
 _atom_site_occupancy
  Zn  Zn0  1  0.70871000  0.79053000  0.29416000  1.0
  Zn  Zn1  1  0.29129000  0.20947000  0.70584000  1.0
  H  H2  1  0.89057000  0.57747000  0.42199000  1.0
  H  H3  1  0.10943000  0.42253000  0.57801000  1.0
  H  H4  1  0.05300000  0.32918000  0.39068000  1.0
  H  H5  1  0.94699000  0.67081000  0.60932000  1.0
  H  H6  1  0.05403000  0.19742000  0.19479000  1.0
  H  H7  1  0.94597000  0.80257000  0.80521000  1.0
  H  H8  1  0.89207000  0.31827000  0.04339000  1.0
  H  H9  1  0.10792000  0.68172000  0.95661000  1.0
  H  H10  1  0.57413000  0.61648000  0.12172000  1.0
  H  H11  1  0.42587000  0.38352000  0.87828000  1.0
  H  H12  1  0.74558000  0.68090000  0.03351000  1.0
  H  H13  1  0.25443000  0.31909000  0.96649000  1.0
  H  H14  1  0.77671000  0.36407000  0.74670000  1.0
  H  H15  1  0.22328000  0.63593000  0.25330000  1.0
  H  H16  1  0.64737000  0.44543000  0.56381000  1.0
  H  H17  1  0.35262000  0.55457000  0.43620000  1.0
  H  H18  1  0.39998000  0.83672000  0.77201000  1.0
  H  H19  1  0.60002000  0.16328000  0.22799000  1.0
  H  H20  1  0.52269000  0.75577000  0.95119000  1.0
  H  H21  1  0.47731000  0.24424000  0.04881000  1.0
  H  H22  1  0.43310000  0.88994000  0.56143000  1.0
  H  H23  1  0.56690000  0.11006000  0.43857000  1.0
  H  H24  1  0.24425000  0.84221000  0.62747000  1.0
  H  H25  1  0.75575000  0.15779000  0.37253000  1.0
  H  H26  1  0.06684000  0.86327000  0.49409000  1.0
  H  H27  1  0.93316000  0.13673000  0.50591000  1.0
  H  H28  1  0.00769000  0.92801000  0.27908000  1.0
  H  H29  1  0.99231000  0.07199000  0.72092000  1.0
  H  H30  1  0.24352000  0.95736000  0.08167000  1.0
  H  H31  1  0.75648000  0.04264000  0.91832000  1.0
  H  H32  1  0.53107000  0.90403000  0.10884000  1.0
  H  H33  1  0.46894000  0.09597000  0.89115000  1.0
  C  C34  1  0.89456000  0.51487000  0.34008000  1.0
  C  C35  1  0.10544000  0.48513000  0.65992000  1.0
  C  C36  1  0.98308000  0.37735000  0.32245000  1.0
  C  C37  1  0.01691000  0.62265000  0.67755000  1.0
  C  C38  1  0.98360000  0.30485000  0.21421000  1.0
  C  C39  1  0.01639000  0.69515000  0.78579000  1.0
  C  C40  1  0.89425000  0.37164000  0.12891000  1.0
  C  C41  1  0.10575000  0.62835000  0.87110000  1.0
  C  C42  1  0.80829000  0.50995000  0.15267000  1.0
  C  C43  1  0.19170000  0.49006000  0.84733000  1.0
  C  C44  1  0.70869000  0.58707000  0.06484000  1.0
  C  C45  1  0.29131000  0.41293000  0.93516000  1.0
  C  C46  1  0.65998000  0.55472000  0.85963000  1.0
  C  C47  1  0.34001000  0.44528000  0.14037000  1.0
  C  C48  1  0.69372000  0.46710000  0.75054000  1.0
  C  C49  1  0.30628000  0.53291000  0.24946000  1.0
  C  C50  1  0.62363000  0.51228000  0.64872000  1.0
  C  C51  1  0.37636000  0.48772000  0.35129000  1.0
  C  C52  1  0.51972000  0.64621000  0.65402000  1.0
  C  C53  1  0.48028000  0.35379000  0.34598000  1.0
  C  C54  1  0.48268000  0.73299000  0.76361000  1.0
  C  C55  1  0.51732000  0.26701000  0.23639000  1.0
  C  C56  1  0.55318000  0.68675000  0.86653000  1.0
  C  C57  1  0.44682000  0.31325000  0.13347000  1.0
  C  C58  1  0.36335000  0.82143000  0.54642000  1.0
  C  C59  1  0.63665000  0.17857000  0.45358000  1.0
  C  C60  1  0.32877000  0.84854000  0.41492000  1.0
  C  C61  1  0.67124000  0.15146000  0.58508000  1.0
  C  C62  1  0.16705000  0.87326000  0.40651000  1.0
  C  C63  1  0.83296000  0.12674000  0.59348000  1.0
  C  C64  1  0.13353000  0.91105000  0.28666000  1.0
  C  C65  1  0.86647000  0.08895000  0.71334000  1.0
  C  C66  1  0.26402000  0.92525000  0.17698000  1.0
  C  C67  1  0.73598000  0.07475000  0.82302000  1.0
  C  C68  1  0.42332000  0.89558000  0.19097000  1.0
  C  C69  1  0.57668000  0.10442000  0.80903000  1.0
  N  N70  1  0.80949000  0.58089000  0.25693000  1.0
  N  N71  1  0.19051000  0.41910000  0.74306000  1.0
  N  N72  1  0.45678000  0.85532000  0.30603000  1.0
  N  N73  1  0.54323000  0.14468000  0.69397000  1.0
  Cl  Cl74  1  0.76901000  0.83570000  0.47620000  1.0
  Cl  Cl75  1  0.23099000  0.16430000  0.52380000  1.0
  Cl  Cl76  1  0.82772000  0.90135000  0.11679000  1.0
  Cl  Cl77  1  0.17228000  0.09866000  0.88321000  1.0
  O  O78  1  0.73985000  0.50143000  0.95282000  1.0
  O  O79  1  0.26015000  0.49857000  0.04719000  1.0
  O  O80  1  0.46083000  0.68238000  0.54585000  1.0
  O  O81  1  0.53917000  0.31762000  0.45415000  1.0
