# generated using pymatgen
data_Sr2H18C8O15
_symmetry_space_group_name_H-M   'P 1'
_cell_length_a   6.43736000
_cell_length_b   7.81477000
_cell_length_c   8.92157000
_cell_angle_alpha   72.88200000
_cell_angle_beta   75.16640000
_cell_angle_gamma   86.23970000
_symmetry_Int_Tables_number   1
_chemical_formula_structural   Sr2H18C8O15
_chemical_formula_sum   'Sr2 H18 C8 O15'
_cell_volume   414.61271780
_cell_formula_units_Z   1
loop_
 _symmetry_equiv_pos_site_id
 _symmetry_equiv_pos_as_xyz
  1  'x, y, z'
loop_
 _atom_site_type_symbol
 _atom_site_label
 _atom_site_symmetry_multiplicity
 _atom_site_fract_x
 _atom_site_fract_y
 _atom_site_fract_z
 _atom_site_occupancy
  Sr  Sr0  1  0.20568000  0.11837000  0.58862000  1.0
  Sr  Sr1  1  0.16518000  0.46117000  0.10484000  1.0
  H  H2  1  0.79210000  0.65045000  0.73743000  1.0
  H  H3  1  0.97451000  0.76747000  0.36810000  1.0
  H  H4  1  0.73563000  0.63793000  0.47377000  1.0
  H  H5  1  0.42270000  0.81430000  0.30390000  1.0
  H  H6  1  0.66938000  0.92768000  0.19656000  1.0
  H  H7  1  0.58522000  0.93134000  0.93347000  1.0
  H  H8  1  0.60929000  0.22056000  0.66864000  1.0
  H  H9  1  0.43919000  0.20830000  0.83579000  1.0
  H  H10  1  0.97700000  0.10905000  0.94843000  1.0
  H  H11  1  0.94732000  0.90030000  0.95446000  1.0
  H  H12  1  0.14909000  0.69344000  0.68954000  1.0
  H  H13  1  0.22743000  0.89318000  0.99346000  1.0
  H  H14  1  0.67100000  0.35000000  0.26565000  1.0
  H  H15  1  0.78054000  0.22949000  0.40406000  1.0
  H  H16  1  0.93141000  0.36778000  0.84452000  1.0
  H  H17  1  0.77495000  0.37218000  0.01141000  1.0
  H  H18  1  0.39244000  0.47162000  0.73530000  1.0
  H  H19  1  0.42801000  0.67741000  0.72590000  1.0
  C  C20  1  0.72578000  0.91546000  0.60693000  1.0
  C  C21  1  0.87030000  0.75134000  0.62434000  1.0
  C  C22  1  0.89456000  0.67140000  0.48305000  1.0
  C  C23  1  0.02199000  0.49844000  0.51015000  1.0
  C  C24  1  0.39368000  0.08832000  0.16991000  1.0
  C  C25  1  0.50516000  0.90826000  0.18826000  1.0
  C  C26  1  0.51142000  0.83078000  0.04832000  1.0
  C  C27  1  0.65522000  0.66609000  0.05773000  1.0
  O  O28  1  0.46257000  0.25648000  0.71512000  1.0
  O  O29  1  0.04154000  0.01034000  0.90197000  1.0
  O  O30  1  0.81185000  0.06891000  0.57553000  1.0
  O  O31  1  0.52742000  0.88969000  0.62465000  1.0
  O  O32  1  0.07437000  0.80053000  0.63321000  1.0
  O  O33  1  0.32996000  0.14402000  0.29437000  1.0
  O  O34  1  0.36763000  0.17985000  0.03216000  1.0
  O  O35  1  0.85404000  0.69284000  0.04036000  1.0
  O  O36  1  0.57116000  0.51472000  0.08084000  1.0
  O  O37  1  0.30197000  0.78517000  0.04750000  1.0
  O  O38  1  0.16359000  0.46685000  0.39380000  1.0
  O  O39  1  0.97864000  0.38711000  0.65174000  1.0
  O  O40  1  0.80029000  0.33369000  0.30660000  1.0
  O  O41  1  0.91442000  0.32281000  0.96423000  1.0
  O  O42  1  0.32861000  0.57177000  0.77928000  1.0
