# generated using pymatgen
data_Zn2H19C18Br(NO4)2
_symmetry_space_group_name_H-M   'P 1'
_cell_length_a   9.78869000
_cell_length_b   10.86590000
_cell_length_c   11.17440000
_cell_angle_alpha   89.63460000
_cell_angle_beta   87.71250000
_cell_angle_gamma   88.07220000
_symmetry_Int_Tables_number   1
_chemical_formula_structural   Zn2H19C18Br(NO4)2
_chemical_formula_sum   'Zn2 H19 C18 Br1 N2 O8'
_cell_volume   1186.90752112
_cell_formula_units_Z   1
loop_
 _symmetry_equiv_pos_site_id
 _symmetry_equiv_pos_as_xyz
  1  'x, y, z'
loop_
 _atom_site_type_symbol
 _atom_site_label
 _atom_site_symmetry_multiplicity
 _atom_site_fract_x
 _atom_site_fract_y
 _atom_site_fract_z
 _atom_site_occupancy
  Zn  Zn0  1  0.35537000  0.50223000  0.51153000  1.0
  Zn  Zn1  1  0.63751000  0.49252000  0.48994000  1.0
  H  H2  1  0.29910000  0.12263000  0.44962000  1.0
  H  H3  1  0.67760000  0.86961000  0.61060000  1.0
  H  H4  1  0.67711000  0.11803000  0.37593000  1.0
  H  H5  1  0.69887000  0.90242000  0.38662000  1.0
  H  H6  1  0.67517000  0.43844000  0.11162000  1.0
  H  H7  1  0.36227000  0.47234000  0.09777000  1.0
  H  H8  1  0.42185000  0.57375000  0.91370000  1.0
  H  H9  1  0.12959000  0.61280000  0.36626000  1.0
  H  H10  1  0.08901000  0.48133000  0.59369000  1.0
  H  H11  1  0.86978000  0.66255000  0.41796000  1.0
  H  H12  1  0.31511000  0.09338000  0.60349000  1.0
  H  H13  1  0.90082000  0.40694000  0.49945000  1.0
  H  H14  1  0.30007000  0.88369000  0.55889000  1.0
  H  H15  1  0.31803000  0.91221000  0.40394000  1.0
  H  H16  1  0.51500000  0.11155000  0.31273000  1.0
  H  H17  1  0.55359000  0.89859000  0.29816000  1.0
  H  H18  1  0.69612000  0.08450000  0.59838000  1.0
  H  H19  1  0.54989000  0.09517000  0.69566000  1.0
  H  H20  1  0.51423000  0.88390000  0.68326000  1.0
  C  C21  1  0.49221000  0.51396000  0.73470000  1.0
  C  C22  1  0.50957000  0.87779000  0.48939000  1.0
  C  C23  1  0.59122000  0.93367000  0.38246000  1.0
  C  C24  1  0.57665000  0.91638000  0.60601000  1.0
  C  C25  1  0.57835000  0.45066000  0.06687000  1.0
  C  C26  1  0.46326000  0.46712000  0.13584000  1.0
  C  C27  1  0.58319000  0.44767000  0.93669000  1.0
  C  C28  1  0.49904000  0.51454000  0.86726000  1.0
  C  C29  1  0.07393000  0.57000000  0.44194000  1.0
  C  C30  1  0.92257000  0.57682000  0.44536000  1.0
  C  C31  1  0.51178000  0.25799000  0.51364000  1.0
  C  C32  1  0.46691000  0.47813000  0.26816000  1.0
  C  C33  1  0.51384000  0.73734000  0.48299000  1.0
  C  C34  1  0.36110000  0.07173000  0.51437000  1.0
  C  C35  1  0.36227000  0.93168000  0.49059000  1.0
  C  C36  1  0.57691000  0.07595000  0.38624000  1.0
  C  C37  1  0.58893000  0.05815000  0.60902000  1.0
  C  C38  1  0.50783000  0.11794000  0.50684000  1.0
  Br  Br39  1  0.72176000  0.33581000  0.87146000  1.0
  N  N40  1  0.14458000  0.51679000  0.52225000  1.0
  N  N41  1  0.84829000  0.48694000  0.47755000  1.0
  O  O42  1  0.37164000  0.51552000  0.69545000  1.0
  O  O43  1  0.60351000  0.51417000  0.67227000  1.0
  O  O44  1  0.39778000  0.31841000  0.51877000  1.0
  O  O45  1  0.62910000  0.30542000  0.51136000  1.0
  O  O46  1  0.35119000  0.49149000  0.32454000  1.0
  O  O47  1  0.58361000  0.47383000  0.31514000  1.0
  O  O48  1  0.40034000  0.68356000  0.49329000  1.0
  O  O49  1  0.63090000  0.68260000  0.47051000  1.0
