# generated using pymatgen
data_CuH16C18(NO3)2
_symmetry_space_group_name_H-M   'P 1'
_cell_length_a   9.83001000
_cell_length_b   10.06410000
_cell_length_c   11.06470000
_cell_angle_alpha   65.60720000
_cell_angle_beta   73.26340000
_cell_angle_gamma   68.32830000
_symmetry_Int_Tables_number   1
_chemical_formula_structural   CuH16C18(NO3)2
_chemical_formula_sum   'Cu2 H32 C36 N4 O12'
_cell_volume   914.51090099
_cell_formula_units_Z   2
loop_
 _symmetry_equiv_pos_site_id
 _symmetry_equiv_pos_as_xyz
  1  'x, y, z'
loop_
 _atom_site_type_symbol
 _atom_site_label
 _atom_site_symmetry_multiplicity
 _atom_site_fract_x
 _atom_site_fract_y
 _atom_site_fract_z
 _atom_site_occupancy
  Cu  Cu0  1  0.74059000  0.21193000  0.95407000  1.0
  Cu  Cu1  1  0.25941000  0.78807000  0.04594000  1.0
  H  H2  1  0.02983000  0.64750000  0.80372000  1.0
  H  H3  1  0.97017000  0.35250000  0.19627000  1.0
  H  H4  1  0.28839000  0.41198000  0.85382000  1.0
  H  H5  1  0.71161000  0.58802000  0.14616000  1.0
  H  H6  1  0.55510000  0.39069000  0.12770000  1.0
  H  H7  1  0.44491000  0.60931000  0.87230000  1.0
  H  H8  1  0.96118000  0.02737000  0.37650000  1.0
  H  H9  1  0.03882000  0.97263000  0.62351000  1.0
  H  H10  1  0.94842000  0.03933000  0.14855000  1.0
  H  H11  1  0.05159000  0.96067000  0.85146000  1.0
  H  H12  1  0.43514000  0.49166000  0.29602000  1.0
  H  H13  1  0.56486000  0.50834000  0.70398000  1.0
  H  H14  1  0.55718000  0.50399000  0.38021000  1.0
  H  H15  1  0.44282000  0.49601000  0.61979000  1.0
  H  H16  1  0.45592000  0.36918000  0.46494000  1.0
  H  H17  1  0.54408000  0.63082000  0.53506000  1.0
  H  H18  1  0.62301000  0.06200000  0.85067000  1.0
  H  H19  1  0.37698000  0.93800000  0.14933000  1.0
  H  H20  1  0.89881000  0.34252000  0.67522000  1.0
  H  H21  1  0.10119000  0.65748000  0.32478000  1.0
  H  H22  1  0.90577000  0.34588000  0.44561000  1.0
  H  H23  1  0.09423000  0.65412000  0.55439000  1.0
  H  H24  1  0.50632000  0.10420000  0.56058000  1.0
  H  H25  1  0.49368000  0.89580000  0.43942000  1.0
  H  H26  1  0.52885000  0.98159000  0.72892000  1.0
  H  H27  1  0.47114000  0.01841000  0.27109000  1.0
  H  H28  1  0.65948000  0.93834000  0.59199000  1.0
  H  H29  1  0.34051000  0.06165000  0.40802000  1.0
  H  H30  1  0.42023000  0.28186000  0.06661000  1.0
  H  H31  1  0.57977000  0.71813000  0.93339000  1.0
  H  H32  1  0.45176000  0.19207000  0.96988000  1.0
  H  H33  1  0.54824000  0.80793000  0.03012000  1.0
  C  C34  1  0.93806000  0.46176000  0.84921000  1.0
  C  C35  1  0.06194000  0.53824000  0.15078000  1.0
  C  C36  1  0.04727000  0.52693000  0.82933000  1.0
  C  C37  1  0.95274000  0.47307000  0.17067000  1.0
  C  C38  1  0.18005000  0.40644000  0.85444000  1.0
  C  C39  1  0.81995000  0.59356000  0.14555000  1.0
  C  C40  1  0.14485000  0.27351000  0.88945000  1.0
  C  C41  1  0.85515000  0.72649000  0.11054000  1.0
  C  C42  1  0.77754000  0.52885000  0.84420000  1.0
  C  C43  1  0.22246000  0.47115000  0.15580000  1.0
  C  C44  1  0.23532000  0.11264000  0.93484000  1.0
  C  C45  1  0.76469000  0.88736000  0.06516000  1.0
  C  C46  1  0.64208000  0.30987000  0.18684000  1.0
  C  C47  1  0.35792000  0.69013000  0.81316000  1.0
  C  C48  1  0.63837000  0.31162000  0.31346000  1.0
  C  C49  1  0.36163000  0.68838000  0.68654000  1.0
  C  C50  1  0.75518000  0.20736000  0.38424000  1.0
  C  C51  1  0.24483000  0.79264000  0.61576000  1.0
  C  C52  1  0.86824000  0.10829000  0.32510000  1.0
  C  C53  1  0.13176000  0.89171000  0.67490000  1.0
  C  C54  1  0.86265000  0.11338000  0.19912000  1.0
  C  C55  1  0.13735000  0.88662000  0.80088000  1.0
  C  C56  1  0.51458000  0.42523000  0.36644000  1.0
  C  C57  1  0.48542000  0.57477000  0.63356000  1.0
  C  C58  1  0.75861000  0.20330000  0.51909000  1.0
  C  C59  1  0.24139000  0.79670000  0.48091000  1.0
  C  C60  1  0.67746000  0.12099000  0.63474000  1.0
  C  C61  1  0.32254000  0.87901000  0.36526000  1.0
  C  C62  1  0.68333000  0.12432000  0.75819000  1.0
  C  C63  1  0.31666000  0.87568000  0.24181000  1.0
  C  C64  1  0.83823000  0.28065000  0.66017000  1.0
  C  C65  1  0.16177000  0.71935000  0.33983000  1.0
  C  C66  1  0.84118000  0.28205000  0.53330000  1.0
  C  C67  1  0.15881000  0.71795000  0.46670000  1.0
  C  C68  1  0.58787000  0.03163000  0.62901000  1.0
  C  C69  1  0.41212000  0.96837000  0.37099000  1.0
  N  N70  1  0.75023000  0.21262000  0.13209000  1.0
  N  N71  1  0.24977000  0.78738000  0.86791000  1.0
  N  N72  1  0.75964000  0.20361000  0.77064000  1.0
  N  N73  1  0.24036000  0.79639000  0.22936000  1.0
  O  O74  1  0.99702000  0.30614000  0.88602000  1.0
  O  O75  1  0.00298000  0.69386000  0.11398000  1.0
  O  O76  1  0.72771000  0.67170000  0.80928000  1.0
  O  O77  1  0.27229000  0.32830000  0.19072000  1.0
  O  O78  1  0.69578000  0.44046000  0.87642000  1.0
  O  O79  1  0.30422000  0.55954000  0.12359000  1.0
  O  O80  1  0.16334000  0.01298000  0.98048000  1.0
  O  O81  1  0.83667000  0.98702000  0.01952000  1.0
  O  O82  1  0.37193000  0.08615000  0.92817000  1.0
  O  O83  1  0.62807000  0.91385000  0.07183000  1.0
  O  O84  1  0.48627000  0.26424000  0.98454000  1.0
  O  O85  1  0.51373000  0.73576000  0.01546000  1.0
