# generated using pymatgen
data_UH6C8O7
_symmetry_space_group_name_H-M   'P 1'
_cell_length_a   6.69677000
_cell_length_b   7.83665000
_cell_length_c   10.49650000
_cell_angle_alpha   96.48320000
_cell_angle_beta   106.90300000
_cell_angle_gamma   102.25100000
_symmetry_Int_Tables_number   1
_chemical_formula_structural   UH6C8O7
_chemical_formula_sum   'U2 H12 C16 O14'
_cell_volume   505.99766732
_cell_formula_units_Z   2
loop_
 _symmetry_equiv_pos_site_id
 _symmetry_equiv_pos_as_xyz
  1  'x, y, z'
loop_
 _atom_site_type_symbol
 _atom_site_label
 _atom_site_symmetry_multiplicity
 _atom_site_fract_x
 _atom_site_fract_y
 _atom_site_fract_z
 _atom_site_occupancy
  U  U0  1  0.21975000  0.08042000  0.28578000  1.0
  U  U1  1  0.78025000  0.91959000  0.71422000  1.0
  H  H2  1  0.48927000  0.18746000  0.58150000  1.0
  H  H3  1  0.51073000  0.81255000  0.41850000  1.0
  H  H4  1  0.25200000  0.09438000  0.57378000  1.0
  H  H5  1  0.74801000  0.90562000  0.42622000  1.0
  H  H6  1  0.73529000  0.49612000  0.37157000  1.0
  H  H7  1  0.26472000  0.50388000  0.62843000  1.0
  H  H8  1  0.74570000  0.72504000  0.22794000  1.0
  H  H9  1  0.25428000  0.27495000  0.77205000  1.0
  H  H10  1  0.75727000  0.64935000  0.99417000  1.0
  H  H11  1  0.24271000  0.35065000  0.00583000  1.0
  H  H12  1  0.75772000  0.34238000  0.90496000  1.0
  H  H13  1  0.24228000  0.65762000  0.09504000  1.0
  C  C14  1  0.76615000  0.24922000  0.09120000  1.0
  C  C15  1  0.23385000  0.75077000  0.90879000  1.0
  C  C16  1  0.76265000  0.29336000  0.22490000  1.0
  C  C17  1  0.23735000  0.70664000  0.77510000  1.0
  C  C18  1  0.74795000  0.46363000  0.27096000  1.0
  C  C19  1  0.25206000  0.53637000  0.72904000  1.0
  C  C20  1  0.75110000  0.59198000  0.18947000  1.0
  C  C21  1  0.24889000  0.40803000  0.81053000  1.0
  C  C22  1  0.75705000  0.54958000  0.05837000  1.0
  C  C23  1  0.24293000  0.45042000  0.94164000  1.0
  C  C24  1  0.75829000  0.37783000  0.00849000  1.0
  C  C25  1  0.24171000  0.62217000  0.99151000  1.0
  C  C26  1  0.78106000  0.07307000  0.03091000  1.0
  C  C27  1  0.21895000  0.92693000  0.96909000  1.0
  C  C28  1  0.75576000  0.16582000  0.32018000  1.0
  C  C29  1  0.24425000  0.83418000  0.67982000  1.0
  O  O30  1  0.23676000  0.30401000  0.25605000  1.0
  O  O31  1  0.76323000  0.69600000  0.74396000  1.0
  O  O32  1  0.21254000  0.85883000  0.32333000  1.0
  O  O33  1  0.78747000  0.14118000  0.67668000  1.0
  O  O34  1  0.89586000  0.98594000  0.10347000  1.0
  O  O35  1  0.10414000  0.01406000  0.89653000  1.0
  O  O36  1  0.68296000  0.01577000  0.90448000  1.0
  O  O37  1  0.31704000  0.98423000  0.09553000  1.0
  O  O38  1  0.90156000  0.08310000  0.35858000  1.0
  O  O39  1  0.09845000  0.91690000  0.64142000  1.0
  O  O40  1  0.59748000  0.14451000  0.36659000  1.0
  O  O41  1  0.40252000  0.85549000  0.63341000  1.0
  O  O42  1  0.33676000  0.18419000  0.53686000  1.0
  O  O43  1  0.66324000  0.81581000  0.46314000  1.0
