# generated using pymatgen
data_CuH9C9S2IN3
_symmetry_space_group_name_H-M   'P 1'
_cell_length_a   5.58878000
_cell_length_b   13.74930000
_cell_length_c   15.33440000
_cell_angle_alpha   93.43870000
_cell_angle_beta   89.99930000
_cell_angle_gamma   90.00000000
_symmetry_Int_Tables_number   1
_chemical_formula_structural   CuH9C9S2IN3
_chemical_formula_sum   'Cu4 H36 C36 S8 I4 N12'
_cell_volume   1176.20157391
_cell_formula_units_Z   4
loop_
 _symmetry_equiv_pos_site_id
 _symmetry_equiv_pos_as_xyz
  1  'x, y, z'
loop_
 _atom_site_type_symbol
 _atom_site_label
 _atom_site_symmetry_multiplicity
 _atom_site_fract_x
 _atom_site_fract_y
 _atom_site_fract_z
 _atom_site_occupancy
  Cu  Cu0  1  0.23580000  0.49228000  0.49408000  1.0
  Cu  Cu1  1  0.73581000  0.50772000  0.00592000  1.0
  Cu  Cu2  1  0.76418000  0.50771000  0.50592000  1.0
  Cu  Cu3  1  0.26419000  0.49229000  0.99409000  1.0
  H  H4  1  0.20923000  0.76814000  0.68219000  1.0
  H  H5  1  0.70927000  0.23187000  0.81781000  1.0
  H  H6  1  0.79075000  0.23186000  0.31781000  1.0
  H  H7  1  0.29075000  0.76814000  0.18220000  1.0
  H  H8  1  0.71087000  0.70161000  0.55797000  1.0
  H  H9  1  0.21089000  0.29839000  0.94203000  1.0
  H  H10  1  0.28912000  0.29838000  0.44203000  1.0
  H  H11  1  0.78913000  0.70161000  0.05798000  1.0
  H  H12  1  0.00911000  0.57066000  0.66616000  1.0
  H  H13  1  0.50915000  0.42934000  0.83384000  1.0
  H  H14  1  0.99087000  0.42933000  0.33384000  1.0
  H  H15  1  0.49086000  0.57066000  0.16617000  1.0
  H  H16  1  0.91268000  0.66854000  0.73956000  1.0
  H  H17  1  0.41270000  0.33147000  0.76044000  1.0
  H  H18  1  0.08730000  0.33146000  0.26044000  1.0
  H  H19  1  0.58730000  0.66854000  0.23957000  1.0
  H  H20  1  0.15232000  0.59119000  0.76942000  1.0
  H  H21  1  0.65235000  0.40881000  0.73058000  1.0
  H  H22  1  0.84767000  0.40880000  0.23058000  1.0
  H  H23  1  0.34766000  0.59120000  0.26943000  1.0
  H  H24  1  0.83779000  0.12693000  0.56708000  1.0
  H  H25  1  0.33778000  0.87306000  0.93292000  1.0
  H  H26  1  0.16221000  0.87305000  0.43292000  1.0
  H  H27  1  0.66224000  0.12694000  0.06707000  1.0
  H  H28  1  0.55043000  0.24975000  0.62682000  1.0
  H  H29  1  0.05041000  0.75026000  0.87318000  1.0
  H  H30  1  0.44958000  0.75025000  0.37318000  1.0
  H  H31  1  0.94960000  0.24975000  0.12682000  1.0
  H  H32  1  0.17153000  0.19973000  0.69696000  1.0
  H  H33  1  0.67153000  0.80027000  0.80303000  1.0
  H  H34  1  0.82847000  0.80026000  0.30303000  1.0
  H  H35  1  0.32848000  0.19974000  0.19696000  1.0
  H  H36  1  0.07402000  0.02366000  0.70634000  1.0
  H  H37  1  0.57403000  0.97635000  0.79365000  1.0
  H  H38  1  0.92597000  0.97634000  0.29366000  1.0
  H  H39  1  0.42598000  0.02366000  0.20634000  1.0
  C  C40  1  0.42452000  0.66308000  0.63056000  1.0
  C  C41  1  0.92453000  0.33692000  0.86944000  1.0
  C  C42  1  0.57546000  0.33691000  0.36943000  1.0
  C  C43  1  0.07546000  0.66309000  0.13057000  1.0
  C  C44  1  0.06844000  0.62716000  0.71513000  1.0
  C  C45  1  0.56845000  0.37284000  0.78487000  1.0
  C  C46  1  0.93155000  0.37284000  0.28487000  1.0
  C  C47  1  0.43155000  0.62716000  0.21513000  1.0
  C  C48  1  0.55169000  0.83014000  0.60514000  1.0
  C  C49  1  0.05171000  0.16987000  0.89486000  1.0
  C  C50  1  0.44830000  0.16986000  0.39486000  1.0
  C  C51  1  0.94832000  0.83014000  0.10515000  1.0
  C  C52  1  0.61639000  0.00540000  0.60274000  1.0
  C  C53  1  0.11640000  0.99460000  0.89725000  1.0
  C  C54  1  0.38360000  0.99459000  0.39726000  1.0
  C  C55  1  0.88362000  0.00540000  0.10274000  1.0
  C  C56  1  0.67288000  0.10375000  0.59749000  1.0
  C  C57  1  0.17289000  0.89624000  0.90251000  1.0
  C  C58  1  0.32711000  0.89623000  0.40251000  1.0
  C  C59  1  0.82714000  0.10376000  0.09748000  1.0
  C  C60  1  0.51040000  0.17272000  0.63205000  1.0
  C  C61  1  0.01039000  0.82729000  0.86794000  1.0
  C  C62  1  0.48961000  0.82728000  0.36795000  1.0
  C  C63  1  0.98962000  0.17272000  0.13205000  1.0
  C  C64  1  0.29695000  0.14430000  0.67145000  1.0
  C  C65  1  0.79695000  0.85570000  0.82854000  1.0
  C  C66  1  0.70305000  0.85569000  0.32855000  1.0
  C  C67  1  0.20306000  0.14430000  0.17145000  1.0
  C  C68  1  0.23963000  0.04628000  0.67637000  1.0
  C  C69  1  0.73963000  0.95373000  0.82362000  1.0
  C  C70  1  0.76036000  0.95372000  0.32363000  1.0
  C  C71  1  0.26039000  0.04628000  0.17637000  1.0
  C  C72  1  0.39978000  0.97573000  0.64181000  1.0
  C  C73  1  0.89979000  0.02427000  0.85818000  1.0
  C  C74  1  0.60020000  0.02426000  0.35819000  1.0
  C  C75  1  0.10022000  0.97574000  0.14181000  1.0
  S  S76  1  0.49023000  0.54162000  0.61396000  1.0
  S  S77  1  0.99024000  0.45839000  0.88605000  1.0
  S  S78  1  0.50976000  0.45838000  0.38604000  1.0
  S  S79  1  0.00975000  0.54162000  0.11397000  1.0
  S  S80  1  0.78171000  0.90357000  0.56690000  1.0
  S  S81  1  0.28172000  0.09643000  0.93310000  1.0
  S  S82  1  0.21828000  0.09642000  0.43310000  1.0
  S  S83  1  0.71830000  0.90357000  0.06690000  1.0
  I  I84  1  0.01325000  0.64928000  0.44267000  1.0
  I  I85  1  0.51324000  0.35072000  0.05733000  1.0
  I  I86  1  0.98672000  0.35071000  0.55733000  1.0
  I  I87  1  0.48673000  0.64929000  0.94268000  1.0
  N  N88  1  0.23426000  0.69349000  0.67646000  1.0
  N  N89  1  0.73428000  0.30651000  0.82354000  1.0
  N  N90  1  0.76573000  0.30650000  0.32354000  1.0
  N  N91  1  0.26573000  0.69350000  0.17647000  1.0
  N  N92  1  0.57363000  0.73048000  0.59658000  1.0
  N  N93  1  0.07365000  0.26953000  0.90342000  1.0
  N  N94  1  0.42636000  0.26952000  0.40341000  1.0
  N  N95  1  0.92637000  0.73048000  0.09659000  1.0
  N  N96  1  0.36951000  0.87592000  0.64265000  1.0
  N  N97  1  0.86954000  0.12409000  0.85735000  1.0
  N  N98  1  0.63047000  0.12407000  0.35735000  1.0
  N  N99  1  0.13049000  0.87592000  0.14266000  1.0
