# generated using pymatgen
data_CoH11C15N2O5
_symmetry_space_group_name_H-M   'P 1'
_cell_length_a   7.59332000
_cell_length_b   8.91458000
_cell_length_c   10.61110000
_cell_angle_alpha   79.70840000
_cell_angle_beta   72.29460000
_cell_angle_gamma   76.75450000
_symmetry_Int_Tables_number   1
_chemical_formula_structural   CoH11C15N2O5
_chemical_formula_sum   'Co2 H22 C30 N4 O10'
_cell_volume   661.43730811
_cell_formula_units_Z   2
loop_
 _symmetry_equiv_pos_site_id
 _symmetry_equiv_pos_as_xyz
  1  'x, y, z'
loop_
 _atom_site_type_symbol
 _atom_site_label
 _atom_site_symmetry_multiplicity
 _atom_site_fract_x
 _atom_site_fract_y
 _atom_site_fract_z
 _atom_site_occupancy
  Co  Co0  1  0.17797000  0.13608000  0.27502000  1.0
  Co  Co1  1  0.82202000  0.86392000  0.72498000  1.0
  H  H2  1  0.22056000  0.91274000  0.47931000  1.0
  H  H3  1  0.77944000  0.08726000  0.52068000  1.0
  H  H4  1  0.39803000  0.00573000  0.41303000  1.0
  H  H5  1  0.60195000  0.99427000  0.58696000  1.0
  H  H6  1  0.82185000  0.51034000  0.50239000  1.0
  H  H7  1  0.17815000  0.48965000  0.49760000  1.0
  H  H8  1  0.00128000  0.83495000  0.37645000  1.0
  H  H9  1  0.99871000  0.16506000  0.62355000  1.0
  H  H10  1  0.98071000  0.60875000  0.27197000  1.0
  H  H11  1  0.01929000  0.39126000  0.72803000  1.0
  H  H12  1  0.09645000  0.61549000  0.02355000  1.0
  H  H13  1  0.90355000  0.38451000  0.97645000  1.0
  H  H14  1  0.24503000  0.83529000  0.88990000  1.0
  H  H15  1  0.75497000  0.16471000  0.11010000  1.0
  H  H16  1  0.36419000  0.03186000  0.79257000  1.0
  H  H17  1  0.63581000  0.96814000  0.20743000  1.0
  H  H18  1  0.48209000  0.27725000  0.69665000  1.0
  H  H19  1  0.51791000  0.72275000  0.30335000  1.0
  H  H20  1  0.45935000  0.47056000  0.84962000  1.0
  H  H21  1  0.54065000  0.52945000  0.15039000  1.0
  H  H22  1  0.33602000  0.39839000  0.09720000  1.0
  H  H23  1  0.66399000  0.60160000  0.90281000  1.0
  C  C24  1  0.68075000  0.50397000  0.50096000  1.0
  C  C25  1  0.31925000  0.49604000  0.49902000  1.0
  C  C26  1  0.65510000  0.39757000  0.42911000  1.0
  C  C27  1  0.34490000  0.60243000  0.57088000  1.0
  C  C28  1  0.47094000  0.39287000  0.42923000  1.0
  C  C29  1  0.52906000  0.60713000  0.57076000  1.0
  C  C30  1  0.43201000  0.27077000  0.36587000  1.0
  C  C31  1  0.56798000  0.72923000  0.63413000  1.0
  C  C32  1  0.83007000  0.30573000  0.34527000  1.0
  C  C33  1  0.16994000  0.69426000  0.65472000  1.0
  C  C34  1  0.05425000  0.83007000  0.26917000  1.0
  C  C35  1  0.94574000  0.16994000  0.73083000  1.0
  C  C36  1  0.04348000  0.70517000  0.21130000  1.0
  C  C37  1  0.95652000  0.29483000  0.78870000  1.0
  C  C38  1  0.11009000  0.70759000  0.07304000  1.0
  C  C39  1  0.88991000  0.29241000  0.92696000  1.0
  C  C40  1  0.19152000  0.83142000  0.99787000  1.0
  C  C41  1  0.80848000  0.16858000  0.00213000  1.0
  C  C42  1  0.20060000  0.95152000  0.06330000  1.0
  C  C43  1  0.79940000  0.04848000  0.93669000  1.0
  C  C44  1  0.28360000  0.08793000  0.99495000  1.0
  C  C45  1  0.71640000  0.91208000  0.00505000  1.0
  C  C46  1  0.35765000  0.11631000  0.85724000  1.0
  C  C47  1  0.64235000  0.88370000  0.14276000  1.0
  C  C48  1  0.42298000  0.25421000  0.80372000  1.0
  C  C49  1  0.57702000  0.74580000  0.19628000  1.0
  C  C50  1  0.41299000  0.36045000  0.88859000  1.0
  C  C51  1  0.58701000  0.63955000  0.11141000  1.0
  C  C52  1  0.34406000  0.32240000  0.02505000  1.0
  C  C53  1  0.65595000  0.67760000  0.97495000  1.0
  N  N54  1  0.12909000  0.95168000  0.19693000  1.0
  N  N55  1  0.87090000  0.04832000  0.80307000  1.0
  N  N56  1  0.28178000  0.18904000  0.07698000  1.0
  N  N57  1  0.71822000  0.81096000  0.92302000  1.0
  O  O58  1  0.29776000  0.96584000  0.39559000  1.0
  O  O59  1  0.70223000  0.03415000  0.60441000  1.0
  O  O60  1  0.91316000  0.17901000  0.40119000  1.0
  O  O61  1  0.08683000  0.82098000  0.59882000  1.0
  O  O62  1  0.90004000  0.36131000  0.22867000  1.0
  O  O63  1  0.10000000  0.63869000  0.77133000  1.0
  O  O64  1  0.55089000  0.14528000  0.35340000  1.0
  O  O65  1  0.44909000  0.85471000  0.64662000  1.0
  O  O66  1  0.27599000  0.30106000  0.33407000  1.0
  O  O67  1  0.72402000  0.69893000  0.66593000  1.0
