# generated using pymatgen
data_Zn2CoH42C54(NO6)2
_symmetry_space_group_name_H-M   'P 1'
_cell_length_a   10.35080000
_cell_length_b   10.92130000
_cell_length_c   12.89370000
_cell_angle_alpha   75.11840000
_cell_angle_beta   66.92820000
_cell_angle_gamma   63.36810000
_symmetry_Int_Tables_number   1
_chemical_formula_structural   Zn2CoH42C54(NO6)2
_chemical_formula_sum   'Zn2 Co1 H42 C54 N2 O12'
_cell_volume   1192.85245224
_cell_formula_units_Z   1
loop_
 _symmetry_equiv_pos_site_id
 _symmetry_equiv_pos_as_xyz
  1  'x, y, z'
loop_
 _atom_site_type_symbol
 _atom_site_label
 _atom_site_symmetry_multiplicity
 _atom_site_fract_x
 _atom_site_fract_y
 _atom_site_fract_z
 _atom_site_occupancy
  Zn  Zn0  1  0.70119000  0.96463000  0.71598000  1.0
  Zn  Zn1  1  0.29881000  0.03537000  0.28402000  1.0
  Co  Co2  1  0.00000000  0.00000000  0.50000000  1.0
  H  H3  1  0.95057000  0.80214000  0.27803000  1.0
  H  H4  1  0.04943000  0.19785000  0.72197000  1.0
  H  H5  1  0.89631000  0.68056000  0.16980000  1.0
  H  H6  1  0.10370000  0.31943000  0.83020000  1.0
  H  H7  1  0.65240000  0.64651000  0.24678000  1.0
  H  H8  1  0.34759000  0.35348000  0.75323000  1.0
  H  H9  1  0.46284000  0.73453000  0.42960000  1.0
  H  H10  1  0.53716000  0.26547000  0.57040000  1.0
  H  H11  1  0.52149000  0.85083000  0.53849000  1.0
  H  H12  1  0.47851000  0.14918000  0.46151000  1.0
  H  H13  1  0.30474000  0.70853000  0.61810000  1.0
  H  H14  1  0.69526000  0.29147000  0.38189000  1.0
  H  H15  1  0.50880000  0.55258000  0.70497000  1.0
  H  H16  1  0.49120000  0.44741000  0.29503000  1.0
  H  H17  1  0.43766000  0.45017000  0.90432000  1.0
  H  H18  1  0.56235000  0.54982000  0.09568000  1.0
  H  H19  1  0.16329000  0.50374000  0.01734000  1.0
  H  H20  1  0.83672000  0.49626000  0.98266000  1.0
  H  H21  1  0.96165000  0.65980000  0.92925000  1.0
  H  H22  1  0.03836000  0.34020000  0.07076000  1.0
  H  H23  1  0.71550000  0.31848000  0.87160000  1.0
  H  H24  1  0.28450000  0.68151000  0.12840000  1.0
  H  H25  1  0.74994000  0.53983000  0.84134000  1.0
  H  H26  1  0.25006000  0.46017000  0.15866000  1.0
  H  H27  1  0.82006000  0.65395000  0.64654000  1.0
  H  H28  1  0.17993000  0.34605000  0.35346000  1.0
  H  H29  1  0.85645000  0.54923000  0.48208000  1.0
  H  H30  1  0.14355000  0.45077000  0.51792000  1.0
  H  H31  1  0.82832000  0.32626000  0.51238000  1.0
  H  H32  1  0.17168000  0.67374000  0.48762000  1.0
  H  H33  1  0.45850000  0.10688000  0.91723000  1.0
  H  H34  1  0.54150000  0.89313000  0.08277000  1.0
  H  H35  1  0.20693000  0.10336000  0.04987000  1.0
  H  H36  1  0.79306000  0.89664000  0.95013000  1.0
  H  H37  1  0.26438000  0.80787000  0.85129000  1.0
  H  H38  1  0.73562000  0.19213000  0.14870000  1.0
  H  H39  1  0.51531000  0.82036000  0.72987000  1.0
  H  H40  1  0.48470000  0.17963000  0.27014000  1.0
  H  H41  1  0.02163000  0.99502000  0.11304000  1.0
  H  H42  1  0.97837000  0.00499000  0.88695000  1.0
  H  H43  1  0.06437000  0.84974000  0.04929000  1.0
  H  H44  1  0.93563000  0.15026000  0.95071000  1.0
  C  C45  1  0.78022000  0.89377000  0.48337000  1.0
  C  C46  1  0.21979000  0.10623000  0.51662000  1.0
  C  C47  1  0.74004000  0.83292000  0.41449000  1.0
  C  C48  1  0.25995000  0.16708000  0.58551000  1.0
  C  C49  1  0.84431000  0.78679000  0.30979000  1.0
  C  C50  1  0.15569000  0.21320000  0.69021000  1.0
  C  C51  1  0.81354000  0.71869000  0.25028000  1.0
  C  C52  1  0.18647000  0.28130000  0.74972000  1.0
  C  C53  1  0.67680000  0.69902000  0.29366000  1.0
  C  C54  1  0.32320000  0.30098000  0.70635000  1.0
  C  C55  1  0.57065000  0.74785000  0.39680000  1.0
  C  C56  1  0.42935000  0.25215000  0.60321000  1.0
  C  C57  1  0.60243000  0.81378000  0.45742000  1.0
  C  C58  1  0.39756000  0.18623000  0.54258000  1.0
  C  C59  1  0.00077000  0.78795000  0.71610000  1.0
  C  C60  1  0.99924000  0.21205000  0.28390000  1.0
  C  C61  1  0.12158000  0.69289000  0.76843000  1.0
  C  C62  1  0.87842000  0.30711000  0.23157000  1.0
  C  C63  1  0.27587000  0.66254000  0.70531000  1.0
  C  C64  1  0.72413000  0.33746000  0.29469000  1.0
  C  C65  1  0.38904000  0.57604000  0.75424000  1.0
  C  C66  1  0.61096000  0.42395000  0.24576000  1.0
  C  C67  1  0.34877000  0.51887000  0.86667000  1.0
  C  C68  1  0.65124000  0.48112000  0.13333000  1.0
  C  C69  1  0.19510000  0.54857000  0.92987000  1.0
  C  C70  1  0.80491000  0.45143000  0.07013000  1.0
  C  C71  1  0.08181000  0.63546000  0.88107000  1.0
  C  C72  1  0.91819000  0.36454000  0.11893000  1.0
  C  C73  1  0.74225000  0.18249000  0.71386000  1.0
  C  C74  1  0.25774000  0.81751000  0.28614000  1.0
  C  C75  1  0.77007000  0.30989000  0.69371000  1.0
  C  C76  1  0.22993000  0.69011000  0.30629000  1.0
  C  C77  1  0.74805000  0.36971000  0.78676000  1.0
  C  C78  1  0.25195000  0.63029000  0.21325000  1.0
  C  C79  1  0.76726000  0.49256000  0.76951000  1.0
  C  C80  1  0.23273000  0.50744000  0.23049000  1.0
  C  C81  1  0.80674000  0.55707000  0.65983000  1.0
  C  C82  1  0.19325000  0.44294000  0.34017000  1.0
  C  C83  1  0.82722000  0.49821000  0.56732000  1.0
  C  C84  1  0.17277000  0.50179000  0.43269000  1.0
  C  C85  1  0.81051000  0.37426000  0.58383000  1.0
  C  C86  1  0.18949000  0.62574000  0.41617000  1.0
  C  C87  1  0.41010000  0.04212000  0.90707000  1.0
  C  C88  1  0.58990000  0.95788000  0.09293000  1.0
  C  C89  1  0.26982000  0.04071000  0.97877000  1.0
  C  C90  1  0.73018000  0.95929000  0.02123000  1.0
  C  C91  1  0.21327000  0.95627000  0.96042000  1.0
  C  C92  1  0.78673000  0.04373000  0.03958000  1.0
  C  C93  1  0.30288000  0.87550000  0.86954000  1.0
  C  C94  1  0.69712000  0.12451000  0.13046000  1.0
  C  C95  1  0.44252000  0.88124000  0.80164000  1.0
  C  C96  1  0.55748000  0.11876000  0.19836000  1.0
  C  C97  1  0.05913000  0.95566000  0.03134000  1.0
  C  C98  1  0.94086000  0.04434000  0.96865000  1.0
  N  N99  1  0.49579000  0.96357000  0.81994000  1.0
  N  N100  1  0.50421000  0.03643000  0.18006000  1.0
  O  O101  1  0.88956000  0.93359000  0.43542000  1.0
  O  O102  1  0.11045000  0.06641000  0.56458000  1.0
  O  O103  1  0.69955000  0.89702000  0.58839000  1.0
  O  O104  1  0.30046000  0.10298000  0.41160000  1.0
  O  O105  1  0.04285000  0.83158000  0.61256000  1.0
  O  O106  1  0.95715000  0.16842000  0.38744000  1.0
  O  O107  1  0.86116000  0.81862000  0.78008000  1.0
  O  O108  1  0.13885000  0.18138000  0.21992000  1.0
  O  O109  1  0.78625000  0.11297000  0.62867000  1.0
  O  O110  1  0.21375000  0.88704000  0.37132000  1.0
  O  O111  1  0.67067000  0.14411000  0.81134000  1.0
  O  O112  1  0.32932000  0.85589000  0.18866000  1.0
