# generated using pymatgen
data_ZnH16C28SN3O7
_symmetry_space_group_name_H-M   'P 1'
_cell_length_a   11.76270000
_cell_length_b   16.66240000
_cell_length_c   16.97060000
_cell_angle_alpha   89.99460000
_cell_angle_beta   89.46820000
_cell_angle_gamma   89.32840000
_symmetry_Int_Tables_number   1
_chemical_formula_structural   ZnH16C28SN3O7
_chemical_formula_sum   'Zn2 H32 C56 S2 N6 O14'
_cell_volume   3325.77780431
_cell_formula_units_Z   2
loop_
 _symmetry_equiv_pos_site_id
 _symmetry_equiv_pos_as_xyz
  1  'x, y, z'
loop_
 _atom_site_type_symbol
 _atom_site_label
 _atom_site_symmetry_multiplicity
 _atom_site_fract_x
 _atom_site_fract_y
 _atom_site_fract_z
 _atom_site_occupancy
  Zn  Zn0  1  0.38609000  0.00166000  0.50076000  1.0
  Zn  Zn1  1  0.61379000  0.99840000  0.49955000  1.0
  H  H2  1  0.81956000  0.89180000  0.50190000  1.0
  H  H3  1  0.76317000  0.13720000  0.50232000  1.0
  H  H4  1  0.18026000  0.10822000  0.50422000  1.0
  H  H5  1  0.23658000  0.86282000  0.50169000  1.0
  H  H6  1  0.68677000  0.71606000  0.20847000  1.0
  H  H7  1  0.31508000  0.28519000  0.21161000  1.0
  H  H8  1  0.67931000  0.28209000  0.78361000  1.0
  H  H9  1  0.31892000  0.71726000  0.78525000  1.0
  H  H10  1  0.31357000  0.28613000  0.78785000  1.0
  H  H11  1  0.68468000  0.71247000  0.78428000  1.0
  H  H12  1  0.32134000  0.71706000  0.21786000  1.0
  H  H13  1  0.68048000  0.28386000  0.21642000  1.0
  H  H14  1  0.68917000  0.82117000  0.31415000  1.0
  H  H15  1  0.31236000  0.18054000  0.31781000  1.0
  H  H16  1  0.67716000  0.17789000  0.67759000  1.0
  H  H17  1  0.32125000  0.82093000  0.67866000  1.0
  H  H18  1  0.31216000  0.18209000  0.68157000  1.0
  H  H19  1  0.68623000  0.81600000  0.67753000  1.0
  H  H20  1  0.32479000  0.82176000  0.32345000  1.0
  H  H21  1  0.67674000  0.17967000  0.32256000  1.0
  H  H22  1  0.50223000  0.58157000  0.30096000  1.0
  H  H23  1  0.50115000  0.41960000  0.30120000  1.0
  H  H24  1  0.49731000  0.41846000  0.69865000  1.0
  H  H25  1  0.49900000  0.58047000  0.69838000  1.0
  H  H26  1  0.50277000  0.80749000  0.07865000  1.0
  H  H27  1  0.49827000  0.19292000  0.07989000  1.0
  H  H28  1  0.49744000  0.19267000  0.92059000  1.0
  H  H29  1  0.50199000  0.80706000  0.91935000  1.0
  H  H30  1  0.50091000  0.56549000  0.99963000  1.0
  H  H31  1  0.49937000  0.43458000  0.99972000  1.0
  H  H32  1  0.89294000  0.75959000  0.42072000  1.0
  H  H33  1  0.10885000  0.24172000  0.42383000  1.0
  C  C34  1  0.50481000  0.88707000  0.60847000  1.0
  C  C35  1  0.50912000  0.88932000  0.38916000  1.0
  C  C36  1  0.49222000  0.11227000  0.39062000  1.0
  C  C37  1  0.49369000  0.11144000  0.60996000  1.0
  C  C38  1  0.85829000  0.95087000  0.50086000  1.0
  C  C39  1  0.82729000  0.08949000  0.50161000  1.0
  C  C40  1  0.94196000  0.10497000  0.50267000  1.0
  C  C41  1  0.02168000  0.03996000  0.50219000  1.0
  C  C42  1  0.14155000  0.04917000  0.50232000  1.0
  C  C43  1  0.17250000  0.91055000  0.50132000  1.0
  C  C44  1  0.05781000  0.89507000  0.50150000  1.0
  C  C45  1  0.97813000  0.96011000  0.50148000  1.0
  C  C46  1  0.60749000  0.73926000  0.23395000  1.0
  C  C47  1  0.39427000  0.26200000  0.23620000  1.0
  C  C48  1  0.59889000  0.25980000  0.76139000  1.0
  C  C49  1  0.39938000  0.73922000  0.76174000  1.0
  C  C50  1  0.39323000  0.26207000  0.76376000  1.0
  C  C51  1  0.60505000  0.73653000  0.76117000  1.0
  C  C52  1  0.40204000  0.73985000  0.23913000  1.0
  C  C53  1  0.59973000  0.26129000  0.23882000  1.0
  C  C54  1  0.60916000  0.79740000  0.29288000  1.0
  C  C55  1  0.39244000  0.20417000  0.29546000  1.0
  C  C56  1  0.59797000  0.20188000  0.70227000  1.0
  C  C57  1  0.40039000  0.79681000  0.70228000  1.0
  C  C58  1  0.39212000  0.20417000  0.70456000  1.0
  C  C59  1  0.60623000  0.79412000  0.70168000  1.0
  C  C60  1  0.40366000  0.79806000  0.29799000  1.0
  C  C61  1  0.59794000  0.20339000  0.29803000  1.0
  C  C62  1  0.50183000  0.56575000  0.16806000  1.0
  C  C63  1  0.50074000  0.43502000  0.16824000  1.0
  C  C64  1  0.49816000  0.43434000  0.83150000  1.0
  C  C65  1  0.49959000  0.56500000  0.83128000  1.0
  C  C66  1  0.50194000  0.54133000  0.25063000  1.0
  C  C67  1  0.50124000  0.45968000  0.25074000  1.0
  C  C68  1  0.49792000  0.45874000  0.74892000  1.0
  C  C69  1  0.49883000  0.54034000  0.74878000  1.0
  C  C70  1  0.50212000  0.67400000  0.06594000  1.0
  C  C71  1  0.49886000  0.32636000  0.06657000  1.0
  C  C72  1  0.49820000  0.32608000  0.93346000  1.0
  C  C73  1  0.50131000  0.67369000  0.93282000  1.0
  C  C74  1  0.50242000  0.75590000  0.03966000  1.0
  C  C75  1  0.49822000  0.24433000  0.04068000  1.0
  C  C76  1  0.49786000  0.24418000  0.95967000  1.0
  C  C77  1  0.50197000  0.75571000  0.95865000  1.0
  C  C78  1  0.50243000  0.64668000  0.14406000  1.0
  C  C79  1  0.49946000  0.35402000  0.14454000  1.0
  C  C80  1  0.49764000  0.35340000  0.85537000  1.0
  C  C81  1  0.50073000  0.64602000  0.85484000  1.0
  C  C82  1  0.50390000  0.70962000  0.20666000  1.0
  C  C83  1  0.49794000  0.29138000  0.20745000  1.0
  C  C84  1  0.49654000  0.29056000  0.79265000  1.0
  C  C85  1  0.50170000  0.70848000  0.79174000  1.0
  C  C86  1  0.50728000  0.82710000  0.32559000  1.0
  C  C87  1  0.49425000  0.17454000  0.32706000  1.0
  C  C88  1  0.49457000  0.17368000  0.67338000  1.0
  C  C89  1  0.50382000  0.82471000  0.67182000  1.0
  S  S90  1  0.01770000  0.79185000  0.50550000  1.0
  S  S91  1  0.98192000  0.20812000  0.50817000  1.0
  N  N92  1  0.78784000  0.01312000  0.50040000  1.0
  N  N93  1  0.21201000  0.98692000  0.50138000  1.0
  N  N94  1  0.50114000  0.50032000  0.11908000  1.0
  N  N95  1  0.49914000  0.49975000  0.88051000  1.0
  N  N96  1  0.50133000  0.62675000  0.99950000  1.0
  N  N97  1  0.49895000  0.37331000  0.99992000  1.0
  O  O98  1  0.40881000  0.91241000  0.58362000  1.0
  O  O99  1  0.60143000  0.91109000  0.58376000  1.0
  O  O100  1  0.60607000  0.91119000  0.41402000  1.0
  O  O101  1  0.41337000  0.91622000  0.41402000  1.0
  O  O102  1  0.58787000  0.08530000  0.41436000  1.0
  O  O103  1  0.39517000  0.09028000  0.41643000  1.0
  O  O104  1  0.39717000  0.08751000  0.58624000  1.0
  O  O105  1  0.58979000  0.08624000  0.58394000  1.0
  O  O106  1  0.97027000  0.78073000  0.41702000  1.0
  O  O107  1  0.11995000  0.74523000  0.51246000  1.0
  O  O108  1  0.92338000  0.78284000  0.55937000  1.0
  O  O109  1  0.03168000  0.22051000  0.41986000  1.0
  O  O110  1  0.87942000  0.25459000  0.51578000  1.0
  O  O111  1  0.07474000  0.21637000  0.56220000  1.0
