# generated using pymatgen
data_Hf3H28C40(N3O8)2
_symmetry_space_group_name_H-M   'P 1'
_cell_length_a   18.28260000
_cell_length_b   22.47540000
_cell_length_c   22.49320000
_cell_angle_alpha   93.66590000
_cell_angle_beta   89.94910000
_cell_angle_gamma   89.92980000
_symmetry_Int_Tables_number   1
_chemical_formula_structural   Hf3H28C40(N3O8)2
_chemical_formula_sum   'Hf6 H56 C80 N12 O32'
_cell_volume   9223.72953214
_cell_formula_units_Z   2
loop_
 _symmetry_equiv_pos_site_id
 _symmetry_equiv_pos_as_xyz
  1  'x, y, z'
loop_
 _atom_site_type_symbol
 _atom_site_label
 _atom_site_symmetry_multiplicity
 _atom_site_fract_x
 _atom_site_fract_y
 _atom_site_fract_z
 _atom_site_occupancy
  Hf  Hf0  1  0.99475000  0.98837000  0.08443000  1.0
  Hf  Hf1  1  0.99528000  0.09422000  0.97150000  1.0
  Hf  Hf2  1  0.99363000  0.86766000  0.97469000  1.0
  Hf  Hf3  1  0.99436000  0.97108000  0.86328000  1.0
  Hf  Hf4  1  0.86136000  0.98092000  0.97340000  1.0
  Hf  Hf5  1  0.12741000  0.97973000  0.97267000  1.0
  H  H6  1  0.10262000  0.06992000  0.06314000  1.0
  H  H7  1  0.89067000  0.06552000  0.88242000  1.0
  H  H8  1  0.10098000  0.88877000  0.88205000  1.0
  H  H9  1  0.88662000  0.89659000  0.05921000  1.0
  H  H10  1  0.94532000  0.17906000  0.90813000  1.0
  H  H11  1  0.04635000  0.02440000  0.77016000  1.0
  H  H12  1  0.95524000  0.88480000  0.78372000  1.0
  H  H13  1  0.99261000  0.84094000  0.85210000  1.0
  H  H14  1  0.03560000  0.79578000  0.05648000  1.0
  H  H15  1  0.99635000  0.86786000  0.10537000  1.0
  H  H16  1  0.95498000  0.07395000  0.16396000  1.0
  H  H17  1  0.99306000  0.11893000  0.09464000  1.0
  H  H18  1  0.03345000  0.78480000  0.88207000  1.0
  H  H19  1  0.95182000  0.90171000  0.16116000  1.0
  H  H20  1  0.03271000  0.17566000  0.06466000  1.0
  H  H21  1  0.96030000  0.02012000  0.75604000  1.0
  H  H22  1  0.41915000  0.81132000  0.95507000  1.0
  H  H23  1  0.29159000  0.65438000  0.97864000  1.0
  H  H24  1  0.17677000  0.71587000  0.98075000  1.0
  H  H25  1  0.30480000  0.87279000  0.95771000  1.0
  H  H26  1  0.69841000  0.65738000  0.97493000  1.0
  H  H27  1  0.56533000  0.81295000  0.95827000  1.0
  H  H28  1  0.67791000  0.87622000  0.95882000  1.0
  H  H29  1  0.81150000  0.72101000  0.97490000  1.0
  H  H30  1  0.28832000  0.30304000  0.96248000  1.0
  H  H31  1  0.42170000  0.15063000  0.99318000  1.0
  H  H32  1  0.31000000  0.08605000  0.99077000  1.0
  H  H33  1  0.17602000  0.23800000  0.96054000  1.0
  H  H34  1  0.69721000  0.30280000  0.97532000  1.0
  H  H35  1  0.56183000  0.14834000  0.98877000  1.0
  H  H36  1  0.67350000  0.08357000  0.98817000  1.0
  H  H37  1  0.80942000  0.23785000  0.97629000  1.0
  H  H38  1  0.61225000  0.53585000  0.97613000  1.0
  H  H39  1  0.37768000  0.53659000  0.96792000  1.0
  H  H40  1  0.37671000  0.42510000  0.96974000  1.0
  H  H41  1  0.61128000  0.42429000  0.97810000  1.0
  H  H42  1  0.42616000  0.96946000  0.80471000  1.0
  H  H43  1  0.29337000  0.98182000  0.64874000  1.0
  H  H44  1  0.18036000  0.98282000  0.71218000  1.0
  H  H45  1  0.31352000  0.97140000  0.86821000  1.0
  H  H46  1  0.81448000  0.97660000  0.70965000  1.0
  H  H47  1  0.68215000  0.95612000  0.86477000  1.0
  H  H48  1  0.56920000  0.95774000  0.80198000  1.0
  H  H49  1  0.70129000  0.97924000  0.64695000  1.0
  H  H50  1  0.42349000  0.98800000  0.13966000  1.0
  H  H51  1  0.29029000  0.97756000  0.29593000  1.0
  H  H52  1  0.17721000  0.97609000  0.23222000  1.0
  H  H53  1  0.31095000  0.98600000  0.07638000  1.0
  H  H54  1  0.69797000  0.98205000  0.29838000  1.0
  H  H55  1  0.56826000  0.99926000  0.14144000  1.0
  H  H56  1  0.68231000  0.00086000  0.07987000  1.0
  H  H57  1  0.81244000  0.98420000  0.23676000  1.0
  H  H58  1  0.61174000  0.98692000  0.41607000  1.0
  H  H59  1  0.37743000  0.97533000  0.41674000  1.0
  H  H60  1  0.37856000  0.97312000  0.52823000  1.0
  H  H61  1  0.61297000  0.98413000  0.52746000  1.0
  C  C62  1  0.49431000  0.98285000  0.34436000  1.0
  C  C63  1  0.43227000  0.98405000  0.25690000  1.0
  C  C64  1  0.55708000  0.98757000  0.25765000  1.0
  C  C65  1  0.49650000  0.97679000  0.59988000  1.0
  C  C66  1  0.55958000  0.97195000  0.68643000  1.0
  C  C67  1  0.43488000  0.97464000  0.68751000  1.0
  C  C68  1  0.49334000  0.35248000  0.97551000  1.0
  C  C69  1  0.55489000  0.26502000  0.98007000  1.0
  C  C70  1  0.43009000  0.26573000  0.97790000  1.0
  C  C71  1  0.49501000  0.60842000  0.97053000  1.0
  C  C72  1  0.43172000  0.69518000  0.96724000  1.0
  C  C73  1  0.55653000  0.69605000  0.96739000  1.0
  C  C74  1  0.81931000  0.99072000  0.11395000  1.0
  C  C75  1  0.17264000  0.11729000  0.97393000  1.0
  C  C76  1  0.81278000  0.11614000  0.97907000  1.0
  C  C77  1  0.17245000  0.98083000  0.10983000  1.0
  C  C78  1  0.16876000  0.83873000  0.97230000  1.0
  C  C79  1  0.81946000  0.96837000  0.83214000  1.0
  C  C80  1  0.17528000  0.97743000  0.83481000  1.0
  C  C81  1  0.81620000  0.84324000  0.96888000  1.0
  C  C82  1  0.36583000  0.79094000  0.96056000  1.0
  C  C83  1  0.36235000  0.72927000  0.96694000  1.0
  C  C84  1  0.29382000  0.70226000  0.97378000  1.0
  C  C85  1  0.23002000  0.73654000  0.97498000  1.0
  C  C86  1  0.23400000  0.79828000  0.96963000  1.0
  C  C87  1  0.30260000  0.82489000  0.96200000  1.0
  C  C88  1  0.69451000  0.70536000  0.97111000  1.0
  C  C89  1  0.62489000  0.73135000  0.96663000  1.0
  C  C90  1  0.61941000  0.79323000  0.96175000  1.0
  C  C91  1  0.68171000  0.82821000  0.96191000  1.0
  C  C92  1  0.75130000  0.80247000  0.96676000  1.0
  C  C93  1  0.75729000  0.74067000  0.97105000  1.0
  C  C94  1  0.29245000  0.25552000  0.96898000  1.0
  C  C95  1  0.36176000  0.23051000  0.97782000  1.0
  C  C96  1  0.36771000  0.16925000  0.98611000  1.0
  C  C97  1  0.30607000  0.13362000  0.98484000  1.0
  C  C98  1  0.23687000  0.15836000  0.97557000  1.0
  C  C99  1  0.23021000  0.21957000  0.96799000  1.0
  C  C100  1  0.69267000  0.25478000  0.97851000  1.0
  C  C101  1  0.62279000  0.22929000  0.98178000  1.0
  C  C102  1  0.61630000  0.16740000  0.98600000  1.0
  C  C103  1  0.67801000  0.13164000  0.98579000  1.0
  C  C104  1  0.74785000  0.15685000  0.98184000  1.0
  C  C105  1  0.75481000  0.21873000  0.97883000  1.0
  C  C106  1  0.56104000  0.51112000  0.97477000  1.0
  C  C107  1  0.49500000  0.54284000  0.97196000  1.0
  C  C108  1  0.42846000  0.51150000  0.97016000  1.0
  C  C109  1  0.42792000  0.44982000  0.97112000  1.0
  C  C110  1  0.49397000  0.41809000  0.97398000  1.0
  C  C111  1  0.56051000  0.44940000  0.97580000  1.0
  C  C112  1  0.37207000  0.97252000  0.78503000  1.0
  C  C113  1  0.36660000  0.97552000  0.72300000  1.0
  C  C114  1  0.29714000  0.97948000  0.69687000  1.0
  C  C115  1  0.23441000  0.98030000  0.73230000  1.0
  C  C116  1  0.24023000  0.97751000  0.79424000  1.0
  C  C117  1  0.30979000  0.97358000  0.82012000  1.0
  C  C118  1  0.76054000  0.97243000  0.72967000  1.0
  C  C119  1  0.75492000  0.96651000  0.79120000  1.0
  C  C120  1  0.68558000  0.96075000  0.81700000  1.0
  C  C121  1  0.62320000  0.96177000  0.78233000  1.0
  C  C122  1  0.62832000  0.96895000  0.72087000  1.0
  C  C123  1  0.69765000  0.97383000  0.69465000  1.0
  C  C124  1  0.36942000  0.98530000  0.15950000  1.0
  C  C125  1  0.36390000  0.98291000  0.22162000  1.0
  C  C126  1  0.29428000  0.97946000  0.24776000  1.0
  C  C127  1  0.23149000  0.97857000  0.21241000  1.0
  C  C128  1  0.23750000  0.98092000  0.15045000  1.0
  C  C129  1  0.30714000  0.98421000  0.12450000  1.0
  C  C130  1  0.69517000  0.98638000  0.25047000  1.0
  C  C131  1  0.62615000  0.99022000  0.22348000  1.0
  C  C132  1  0.62196000  0.99605000  0.16179000  1.0
  C  C133  1  0.68501000  0.99702000  0.12779000  1.0
  C  C134  1  0.75409000  0.99234000  0.15438000  1.0
  C  C135  1  0.75875000  0.98753000  0.21613000  1.0
  C  C136  1  0.56110000  0.98374000  0.44117000  1.0
  C  C137  1  0.49455000  0.98120000  0.40989000  1.0
  C  C138  1  0.42862000  0.97731000  0.44151000  1.0
  C  C139  1  0.42925000  0.97609000  0.50314000  1.0
  C  C140  1  0.49582000  0.97850000  0.53440000  1.0
  C  C141  1  0.56176000  0.98229000  0.50274000  1.0
  N  N142  1  0.42907000  0.98183000  0.31645000  1.0
  N  N143  1  0.49492000  0.98725000  0.22599000  1.0
  N  N144  1  0.55980000  0.98536000  0.31710000  1.0
  N  N145  1  0.56218000  0.97492000  0.62702000  1.0
  N  N146  1  0.49748000  0.97159000  0.71822000  1.0
  N  N147  1  0.43138000  0.97696000  0.62807000  1.0
  N  N148  1  0.55850000  0.32453000  0.97757000  1.0
  N  N149  1  0.49221000  0.23426000  0.98082000  1.0
  N  N150  1  0.42760000  0.32522000  0.97498000  1.0
  N  N151  1  0.42937000  0.63574000  0.96968000  1.0
  N  N152  1  0.49371000  0.72695000  0.96549000  1.0
  N  N153  1  0.56011000  0.63652000  0.97003000  1.0
  O  O154  1  0.88418000  0.99016000  0.13562000  1.0
  O  O155  1  0.80385000  0.98873000  0.05870000  1.0
  O  O156  1  0.10834000  0.13892000  0.97717000  1.0
  O  O157  1  0.18877000  0.06175000  0.97026000  1.0
  O  O158  1  0.87663000  0.13754000  0.98194000  1.0
  O  O159  1  0.79727000  0.06028000  0.97214000  1.0
  O  O160  1  0.10799000  0.98149000  0.13089000  1.0
  O  O161  1  0.18885000  0.98127000  0.05437000  1.0
  O  O162  1  0.99556000  0.06950000  0.13608000  1.0
  O  O163  1  0.99543000  0.90516000  0.13683000  1.0
  O  O164  1  0.99205000  0.14797000  0.05951000  1.0
  O  O165  1  0.99057000  0.15785000  0.91433000  1.0
  O  O166  1  0.93826000  0.03009000  0.01934000  1.0
  O  O167  1  0.07037000  0.04575000  0.03735000  1.0
  O  O168  1  0.10370000  0.81704000  0.97218000  1.0
  O  O169  1  0.18420000  0.89388000  0.97375000  1.0
  O  O170  1  0.88452000  0.96758000  0.81050000  1.0
  O  O171  1  0.80399000  0.97190000  0.88724000  1.0
  O  O172  1  0.11052000  0.98001000  0.81357000  1.0
  O  O173  1  0.19017000  0.97305000  0.88967000  1.0
  O  O174  1  0.88068000  0.82201000  0.96822000  1.0
  O  O175  1  0.79992000  0.89891000  0.97258000  1.0
  O  O176  1  0.99172000  0.81148000  0.88748000  1.0
  O  O177  1  0.99438000  0.82283000  0.05383000  1.0
  O  O178  1  0.99671000  0.88931000  0.81066000  1.0
  O  O179  1  0.99674000  0.03312000  0.78568000  1.0
  O  O180  1  0.06916000  0.91279000  0.90847000  1.0
  O  O181  1  0.93750000  0.92999000  0.92612000  1.0
  O  O182  1  0.04998000  0.93547000  0.01885000  1.0
  O  O183  1  0.92255000  0.04184000  0.90602000  1.0
  O  O184  1  0.91934000  0.92046000  0.03657000  1.0
  O  O185  1  0.05228000  0.02555000  0.92467000  1.0
