# generated using pymatgen
data_ZnH8C26N3(Cl2O3)4
_symmetry_space_group_name_H-M   'P 1'
_cell_length_a   18.58920000
_cell_length_b   18.98640000
_cell_length_c   19.19930000
_cell_angle_alpha   90.94620000
_cell_angle_beta   90.18510000
_cell_angle_gamma   91.60730000
_symmetry_Int_Tables_number   1
_chemical_formula_structural   ZnH8C26N3(Cl2O3)4
_chemical_formula_sum   'Zn2 H16 C52 N6 Cl16 O24'
_cell_volume   6772.60309023
_cell_formula_units_Z   2
loop_
 _symmetry_equiv_pos_site_id
 _symmetry_equiv_pos_as_xyz
  1  'x, y, z'
loop_
 _atom_site_type_symbol
 _atom_site_label
 _atom_site_symmetry_multiplicity
 _atom_site_fract_x
 _atom_site_fract_y
 _atom_site_fract_z
 _atom_site_occupancy
  Zn  Zn0  1  0.58338000  0.50088000  0.49368000  1.0
  Zn  Zn1  1  0.42154000  0.50122000  0.49046000  1.0
  H  H2  1  0.61866000  0.53493000  0.32396000  1.0
  H  H3  1  0.38508000  0.44785000  0.65159000  1.0
  H  H4  1  0.61444000  0.51074000  0.66320000  1.0
  H  H5  1  0.34717000  0.42449000  0.25618000  1.0
  H  H6  1  0.72467000  0.38160000  0.59902000  1.0
  H  H7  1  0.35481000  0.38973000  0.43650000  1.0
  H  H8  1  0.73167000  0.62054000  0.39365000  1.0
  H  H9  1  0.36337000  0.61096000  0.55194000  1.0
  H  H10  1  0.87382000  0.41955000  0.60372000  1.0
  H  H11  1  0.19679000  0.36115000  0.41120000  1.0
  H  H12  1  0.87893000  0.58360000  0.39174000  1.0
  H  H13  1  0.20649000  0.63770000  0.58538000  1.0
  H  H14  1  0.90225000  0.47221000  0.36020000  1.0
  H  H15  1  0.04242000  0.48516000  0.65902000  1.0
  H  H16  1  0.90367000  0.53039000  0.63536000  1.0
  H  H17  1  0.04322000  0.51609000  0.33785000  1.0
  C  C18  1  0.50641000  0.63510000  0.52333000  1.0
  C  C19  1  0.49369000  0.36494000  0.48440000  1.0
  C  C20  1  0.49065000  0.14471000  0.54611000  1.0
  C  C21  1  0.51647000  0.85554000  0.58227000  1.0
  C  C22  1  0.48695000  0.28725000  0.49786000  1.0
  C  C23  1  0.50855000  0.71191000  0.54464000  1.0
  C  C24  1  0.57421000  0.04776000  0.58070000  1.0
  C  C25  1  0.45845000  0.96606000  0.62585000  1.0
  C  C26  1  0.57965000  0.97470000  0.58482000  1.0
  C  C27  1  0.45508000  0.04008000  0.62548000  1.0
  C  C28  1  0.51829000  0.93209000  0.59862000  1.0
  C  C29  1  0.50478000  0.07974000  0.58312000  1.0
  C  C30  1  0.73015000  0.45546000  0.53538000  1.0
  C  C31  1  0.27243000  0.44886000  0.46174000  1.0
  C  C32  1  0.73299000  0.54661000  0.45752000  1.0
  C  C33  1  0.27643000  0.55189000  0.52960000  1.0
  C  C34  1  0.80555000  0.45338000  0.53710000  1.0
  C  C35  1  0.19701000  0.44667000  0.46287000  1.0
  C  C36  1  0.80841000  0.54961000  0.45745000  1.0
  C  C37  1  0.20104000  0.55296000  0.53210000  1.0
  C  C38  1  0.84700000  0.50161000  0.49765000  1.0
  C  C39  1  0.16009000  0.49967000  0.49810000  1.0
  C  C40  1  0.96667000  0.50552000  0.43618000  1.0
  C  C41  1  0.04170000  0.49481000  0.56074000  1.0
  C  C42  1  0.96636000  0.49665000  0.56005000  1.0
  C  C43  1  0.04205000  0.50589000  0.43597000  1.0
  C  C44  1  0.08071000  0.49994000  0.49845000  1.0
  C  C45  1  0.92660000  0.50144000  0.49801000  1.0
  C  C46  1  0.50308000  0.50898000  0.35984000  1.0
  C  C47  1  0.50062000  0.48292000  0.62804000  1.0
  C  C48  1  0.56229000  0.51825000  0.24302000  1.0
  C  C49  1  0.43293000  0.45681000  0.73772000  1.0
  C  C50  1  0.56168000  0.49240000  0.74431000  1.0
  C  C51  1  0.43933000  0.46902000  0.24973000  1.0
  C  C52  1  0.55886000  0.51291000  0.16982000  1.0
  C  C53  1  0.43130000  0.45373000  0.81080000  1.0
  C  C54  1  0.55794000  0.48964000  0.81723000  1.0
  C  C55  1  0.43854000  0.46190000  0.17688000  1.0
  C  C56  1  0.49719000  0.48460000  0.13689000  1.0
  C  C57  1  0.49320000  0.47078000  0.84995000  1.0
  C  C58  1  0.50106000  0.49879000  0.28298000  1.0
  C  C59  1  0.49844000  0.47670000  0.70410000  1.0
  C  C60  1  0.49021000  0.47103000  0.92711000  1.0
  C  C61  1  0.49318000  0.47822000  0.05985000  1.0
  C  C62  1  0.42902000  0.25762000  0.53474000  1.0
  C  C63  1  0.50008000  0.76286000  0.49368000  1.0
  C  C64  1  0.52069000  0.73218000  0.61421000  1.0
  C  C65  1  0.53801000  0.24043000  0.47110000  1.0
  C  C66  1  0.42709000  0.18544000  0.55146000  1.0
  C  C67  1  0.50367000  0.83456000  0.51253000  1.0
  C  C68  1  0.52557000  0.80407000  0.63291000  1.0
  C  C69  1  0.53814000  0.17022000  0.49194000  1.0
  N  N70  1  0.45652000  0.52802000  0.02672000  1.0
  N  N71  1  0.52030000  0.41731000  0.96048000  1.0
  N  N72  1  0.45510000  0.52438000  0.95777000  1.0
  N  N73  1  0.52193000  0.42110000  0.02953000  1.0
  N  N74  1  0.69436000  0.50083000  0.49603000  1.0
  N  N75  1  0.31148000  0.50068000  0.49478000  1.0
  Cl  Cl76  1  0.63144000  0.54135000  0.12104000  1.0
  Cl  Cl77  1  0.35234000  0.42802000  0.85108000  1.0
  Cl  Cl78  1  0.63353000  0.51234000  0.86594000  1.0
  Cl  Cl79  1  0.36283000  0.42248000  0.13801000  1.0
  Cl  Cl80  1  0.35834000  0.30753000  0.56221000  1.0
  Cl  Cl81  1  0.48491000  0.73638000  0.40878000  1.0
  Cl  Cl82  1  0.52972000  0.66854000  0.67601000  1.0
  Cl  Cl83  1  0.59709000  0.26926000  0.40820000  1.0
  Cl  Cl84  1  0.34346000  0.14786000  0.56445000  1.0
  Cl  Cl85  1  0.49193000  0.89753000  0.45047000  1.0
  Cl  Cl86  1  0.54341000  0.82966000  0.71745000  1.0
  Cl  Cl87  1  0.58573000  0.11231000  0.44112000  1.0
  Cl  Cl88  1  0.65196000  0.09904000  0.58346000  1.0
  Cl  Cl89  1  0.38799000  0.91697000  0.65931000  1.0
  Cl  Cl90  1  0.66064000  0.93509000  0.57181000  1.0
  Cl  Cl91  1  0.40037000  0.07910000  0.68535000  1.0
  O  O92  1  0.56455000  0.60889000  0.50472000  1.0
  O  O93  1  0.43885000  0.39641000  0.46101000  1.0
  O  O94  1  0.55356000  0.39434000  0.49867000  1.0
  O  O95  1  0.44494000  0.60302000  0.52576000  1.0
  O  O96  1  0.56504000  0.50204000  0.38917000  1.0
  O  O97  1  0.44268000  0.47017000  0.59247000  1.0
  O  O98  1  0.56039000  0.50155000  0.59951000  1.0
  O  O99  1  0.44607000  0.52473000  0.39142000  1.0
  O  O100  1  0.62370000  0.54323000  0.27294000  1.0
  O  O101  1  0.37235000  0.44098000  0.70197000  1.0
  O  O102  1  0.62470000  0.51081000  0.71487000  1.0
  O  O103  1  0.38317000  0.44550000  0.28839000  1.0
  O  O104  1  0.69049000  0.41040000  0.57373000  1.0
  O  O105  1  0.30281000  0.39639000  0.42499000  1.0
  O  O106  1  0.69586000  0.59108000  0.41804000  1.0
  O  O107  1  0.31112000  0.60523000  0.56433000  1.0
  O  O108  1  0.83222000  0.40024000  0.57648000  1.0
  O  O109  1  0.16030000  0.39201000  0.43066000  1.0
  O  O110  1  0.83831000  0.60291000  0.41851000  1.0
  O  O111  1  0.16813000  0.60692000  0.56585000  1.0
  O  O112  1  0.93413000  0.51285000  0.37039000  1.0
  O  O113  1  0.07786000  0.48715000  0.62149000  1.0
  O  O114  1  0.93328000  0.48974000  0.62559000  1.0
  O  O115  1  0.07872000  0.51299000  0.37534000  1.0
