# generated using pymatgen
data_Zn4H12C25I4O13
_symmetry_space_group_name_H-M   'P 1'
_cell_length_a   18.31598100
_cell_length_b   18.31610000
_cell_length_c   18.34580000
_cell_angle_alpha   60.26700000
_cell_angle_beta   60.40303361
_cell_angle_gamma   90.48945266
_symmetry_Int_Tables_number   1
_chemical_formula_structural   Zn4H12C25I4O13
_chemical_formula_sum   'Zn8 H24 C50 I8 O26'
_cell_volume   4377.27409444
_cell_formula_units_Z   2
loop_
 _symmetry_equiv_pos_site_id
 _symmetry_equiv_pos_as_xyz
  1  'x, y, z'
loop_
 _atom_site_type_symbol
 _atom_site_label
 _atom_site_symmetry_multiplicity
 _atom_site_fract_x
 _atom_site_fract_y
 _atom_site_fract_z
 _atom_site_occupancy
  Zn  Zn0  1  0.70656000  0.61740000  0.08715000  1.0
  Zn  Zn1  1  0.29576000  0.20833000  0.91126000  1.0
  Zn  Zn2  1  0.88042000  0.79298000  0.91125000  1.0
  Zn  Zn3  1  0.70519000  0.79113000  0.08735000  1.0
  Zn  Zn4  1  0.12152000  0.20746000  0.08735000  1.0
  Zn  Zn5  1  0.70737000  0.79371000  0.91007000  1.0
  Zn  Zn6  1  0.29622000  0.38256000  0.91006000  1.0
  Zn  Zn7  1  0.29546000  0.20629000  0.08714000  1.0
  H  H8  1  0.52951000  0.65890000  0.89824000  1.0
  H  H9  1  0.63827000  0.49677000  0.95544000  1.0
  H  H10  1  0.54779000  0.40629000  0.95544000  1.0
  H  H11  1  0.54787000  0.50246000  0.85921000  1.0
  H  H12  1  0.63834000  0.59292000  0.85920000  1.0
  H  H13  1  0.55188000  0.66518000  0.40024000  1.0
  H  H14  1  0.55727000  0.95891000  0.10772000  1.0
  H  H15  1  0.93337000  0.33501000  0.10777000  1.0
  H  H16  1  0.52894000  0.42804000  0.12966000  1.0
  H  H17  1  0.93457000  0.04787000  0.40024000  1.0
  H  H18  1  0.45782000  0.57073000  0.59264000  1.0
  H  H19  1  0.45898000  0.05382000  0.10968000  1.0
  H  H20  1  0.83649000  0.43134000  0.10973000  1.0
  H  H21  1  0.83663000  0.94954000  0.59264000  1.0
  H  H22  1  0.44231000  0.34140000  0.12966000  1.0
  H  H23  1  0.44709000  0.33394000  0.59730000  1.0
  H  H24  1  0.44166000  0.03748000  0.89275000  1.0
  H  H25  1  0.06978000  0.66560000  0.89268000  1.0
  H  H26  1  0.06876000  0.95561000  0.59730000  1.0
  H  H27  1  0.44286000  0.57225000  0.89824000  1.0
  H  H28  1  0.54070000  0.42841000  0.40484000  1.0
  H  H29  1  0.53945000  0.94204000  0.89133000  1.0
  H  H30  1  0.16663000  0.56922000  0.89127000  1.0
  H  H31  1  0.16675000  0.05446000  0.40484000  1.0
  C  C32  1  0.88911000  0.88749000  0.72027000  1.0
  C  C33  1  0.44509000  0.05128000  0.00103000  1.0
  C  C34  1  0.90893000  0.97274000  0.55075000  1.0
  C  C35  1  0.94769000  0.55388000  0.00103000  1.0
  C  C36  1  0.94721000  0.94666000  0.60583000  1.0
  C  C37  1  0.44752000  0.44696000  0.60583000  1.0
  C  C38  1  0.47055000  0.40649000  0.55331000  1.0
  C  C39  1  0.46739000  0.01988000  0.93942000  1.0
  C  C40  1  0.04070000  0.59319000  0.93939000  1.0
  C  C41  1  0.88985000  0.61096000  0.00142000  1.0
  C  C42  1  0.04020000  0.97614000  0.55331000  1.0
  C  C43  1  0.52245000  0.45879000  0.44675000  1.0
  C  C44  1  0.52170000  0.96724000  0.93843000  1.0
  C  C45  1  0.09433000  0.53987000  0.93839000  1.0
  C  C46  1  0.09446000  0.03081000  0.44674000  1.0
  C  C47  1  0.38762000  0.10873000  0.00142000  1.0
  C  C48  1  0.55188000  0.55213000  0.39173000  1.0
  C  C49  1  0.55436000  0.94570000  0.99887000  1.0
  C  C50  1  0.05543000  0.44677000  0.99886000  1.0
  C  C51  1  0.05614000  0.05639000  0.39173000  1.0
  C  C52  1  0.39224000  0.39062000  0.72027000  1.0
  C  C53  1  0.94911000  0.03462000  0.96183000  1.0
  C  C54  1  0.00355000  0.08906000  0.96183000  1.0
  C  C55  1  0.05421000  0.05409000  0.00008000  1.0
  C  C56  1  0.94583000  0.94571000  0.00008000  1.0
  C  C57  1  0.05101000  0.96523000  0.03821000  1.0
  C  C58  1  0.99656000  0.91077000  0.03822000  1.0
  C  C59  1  0.60852000  0.60878000  0.27723000  1.0
  C  C60  1  0.61326000  0.88970000  0.99728000  1.0
  C  C61  1  0.11303000  0.38947000  0.99727000  1.0
  C  C62  1  0.11399000  0.11425000  0.27723000  1.0
  C  C63  1  0.88739000  0.88717000  0.99992000  1.0
  C  C64  1  0.11291000  0.11269000  0.99992000  1.0
  C  C65  1  0.60636000  0.60999000  0.00351000  1.0
  C  C66  1  0.38649000  0.39013000  0.00351000  1.0
  C  C67  1  0.48176000  0.60130000  0.97733000  1.0
  C  C68  1  0.48142000  0.45976000  0.11921000  1.0
  C  C69  1  0.42103000  0.39937000  0.11921000  1.0
  C  C70  1  0.42137000  0.54091000  0.97733000  1.0
  C  C71  1  0.59494000  0.52951000  0.93513000  1.0
  C  C72  1  0.53535000  0.46993000  0.93514000  1.0
  C  C73  1  0.53638000  0.55106000  0.01440000  1.0
  C  C74  1  0.43454000  0.44922000  0.01440000  1.0
  C  C75  1  0.52850000  0.59263000  0.44424000  1.0
  C  C76  1  0.53168000  0.97669000  0.06091000  1.0
  C  C77  1  0.96240000  0.40742000  0.06093000  1.0
  C  C78  1  0.96313000  0.02726000  0.44424000  1.0
  C  C79  1  0.47651000  0.54032000  0.55074000  1.0
  C  C80  1  0.47728000  0.02916000  0.06201000  1.0
  C  C81  1  0.90882000  0.46071000  0.06205000  1.0
  I  I82  1  0.42165000  0.67431000  0.04370000  1.0
  I  I83  1  0.01301000  0.22331000  0.90435000  1.0
  I  I84  1  0.87234000  0.08264000  0.90434000  1.0
  I  I85  1  0.12825000  0.91724000  0.09500000  1.0
  I  I86  1  0.98777000  0.77675000  0.09499000  1.0
  I  I87  1  0.42115000  0.46699000  0.25146000  1.0
  I  I88  1  0.28155000  0.32738000  0.25146000  1.0
  I  I89  1  0.28199000  0.53466000  0.04371000  1.0
  O  O90  1  0.74943000  0.74846000  0.99906000  1.0
  O  O91  1  0.80588000  0.57065000  0.05864000  1.0
  O  O92  1  0.37072000  0.13549000  0.05863000  1.0
  O  O93  1  0.36816000  0.43123000  0.76383000  1.0
  O  O94  1  0.63483000  0.56868000  0.23327000  1.0
  O  O95  1  0.63239000  0.86471000  0.93818000  1.0
  O  O96  1  0.19712000  0.42944000  0.93816000  1.0
  O  O97  1  0.19805000  0.13190000  0.23327000  1.0
  O  O98  1  0.25248000  0.25151000  0.99906000  1.0
  O  O99  1  0.92902000  0.69534000  0.94433000  1.0
  O  O100  1  0.92826000  0.86086000  0.76540000  1.0
  O  O101  1  0.37374000  0.30634000  0.76540000  1.0
  O  O102  1  0.36032000  0.12664000  0.94434000  1.0
  O  O103  1  0.63981000  0.87174000  0.05503000  1.0
  O  O104  1  0.62621000  0.69294000  0.23266000  1.0
  O  O105  1  0.07439000  0.14112000  0.23267000  1.0
  O  O106  1  0.07323000  0.30516000  0.05504000  1.0
  O  O107  1  0.92646000  0.87934000  0.92592000  1.0
  O  O108  1  0.19474000  0.14762000  0.92592000  1.0
  O  O109  1  0.63511000  0.69312000  0.93450000  1.0
  O  O110  1  0.63442000  0.56963000  0.05868000  1.0
  O  O111  1  0.37170000  0.30690000  0.05867000  1.0
  O  O112  1  0.37237000  0.43039000  0.93451000  1.0
  O  O113  1  0.80548000  0.85205000  0.07371000  1.0
  O  O114  1  0.80494000  0.86802000  0.76384000  1.0
  O  O115  1  0.07423000  0.12081000  0.07371000  1.0
