# generated using pymatgen
data_ZnH8C12O5
_symmetry_space_group_name_H-M   'P 1'
_cell_length_a   6.17822000
_cell_length_b   7.42305000
_cell_length_c   11.78820000
_cell_angle_alpha   90.89250000
_cell_angle_beta   104.47800000
_cell_angle_gamma   91.21740000
_symmetry_Int_Tables_number   1
_chemical_formula_structural   ZnH8C12O5
_chemical_formula_sum   'Zn2 H16 C24 O10'
_cell_volume   523.21328485
_cell_formula_units_Z   2
loop_
 _symmetry_equiv_pos_site_id
 _symmetry_equiv_pos_as_xyz
  1  'x, y, z'
loop_
 _atom_site_type_symbol
 _atom_site_label
 _atom_site_symmetry_multiplicity
 _atom_site_fract_x
 _atom_site_fract_y
 _atom_site_fract_z
 _atom_site_occupancy
  Zn  Zn0  1  0.68877000  0.75110000  0.99862000  1.0
  Zn  Zn1  1  0.31124000  0.24890000  0.00138000  1.0
  H  H2  1  0.08204000  0.65257000  0.96389000  1.0
  H  H3  1  0.11791000  0.85089000  0.01979000  1.0
  H  H4  1  0.91797000  0.34741000  0.03614000  1.0
  H  H5  1  0.88207000  0.14911000  0.98022000  1.0
  H  H6  1  0.22428000  0.14240000  0.63246000  1.0
  H  H7  1  0.59063000  0.35638000  0.36829000  1.0
  H  H8  1  0.77572000  0.85762000  0.36751000  1.0
  H  H9  1  0.40939000  0.64361000  0.63171000  1.0
  H  H10  1  0.86437000  0.91400000  0.78333000  1.0
  H  H11  1  0.09182000  0.59341000  0.21637000  1.0
  H  H12  1  0.13562000  0.08598000  0.21667000  1.0
  H  H13  1  0.90818000  0.40657000  0.78363000  1.0
  H  H14  1  0.08201000  0.15065000  0.41491000  1.0
  H  H15  1  0.65925000  0.34546000  0.58602000  1.0
  H  H16  1  0.91802000  0.84938000  0.58507000  1.0
  H  H17  1  0.34071000  0.65454000  0.41398000  1.0
  C  C18  1  0.51389000  0.07474000  0.83863000  1.0
  C  C19  1  0.68067000  0.43080000  0.16166000  1.0
  C  C20  1  0.48611000  0.92528000  0.16136000  1.0
  C  C21  1  0.31929000  0.56919000  0.83835000  1.0
  C  C22  1  0.54076000  0.03396000  0.71862000  1.0
  C  C23  1  0.82577000  0.47065000  0.28133000  1.0
  C  C24  1  0.45927000  0.96610000  0.28135000  1.0
  C  C25  1  0.17416000  0.52938000  0.71867000  1.0
  C  C26  1  0.37490000  0.07841000  0.62084000  1.0
  C  C27  1  0.75439000  0.42226000  0.37953000  1.0
  C  C28  1  0.62511000  0.92159000  0.37915000  1.0
  C  C29  1  0.24558000  0.57776000  0.62046000  1.0
  C  C30  1  0.39975000  0.04184000  0.50661000  1.0
  C  C31  1  0.89178000  0.45746000  0.49357000  1.0
  C  C32  1  0.60027000  0.95816000  0.49339000  1.0
  C  C33  1  0.10827000  0.54252000  0.50645000  1.0
  C  C34  1  0.73781000  0.94997000  0.70532000  1.0
  C  C35  1  0.03915000  0.55573000  0.29447000  1.0
  C  C36  1  0.26221000  0.05007000  0.29468000  1.0
  C  C37  1  0.96084000  0.44425000  0.70557000  1.0
  C  C38  1  0.23345000  0.08651000  0.40466000  1.0
  C  C39  1  0.82315000  0.41017000  0.59590000  1.0
  C  C40  1  0.76660000  0.91351000  0.59533000  1.0
  C  C41  1  0.17687000  0.58980000  0.40414000  1.0
  O  O42  1  0.66375000  0.02543000  0.92781000  1.0
  O  O43  1  0.74441000  0.48426000  0.07192000  1.0
  O  O44  1  0.33627000  0.97454000  0.07219000  1.0
  O  O45  1  0.25555000  0.51566000  0.92806000  1.0
  O  O46  1  0.34157000  0.16115000  0.84694000  1.0
  O  O47  1  0.50029000  0.33922000  0.15382000  1.0
  O  O48  1  0.65844000  0.83884000  0.15305000  1.0
  O  O49  1  0.49969000  0.66080000  0.84619000  1.0
  O  O50  1  0.99974000  0.76019000  0.98047000  1.0
  O  O51  1  0.00026000  0.23978000  0.01954000  1.0
