# generated using pymatgen
data_ZnH17C24(N3O)2
_symmetry_space_group_name_H-M   'P 1'
_cell_length_a   9.44222000
_cell_length_b   10.73620000
_cell_length_c   12.45260000
_cell_angle_alpha   112.50200000
_cell_angle_beta   95.47210000
_cell_angle_gamma   110.72300000
_symmetry_Int_Tables_number   1
_chemical_formula_structural   ZnH17C24(N3O)2
_chemical_formula_sum   'Zn2 H34 C48 N12 O4'
_cell_volume   1051.17637081
_cell_formula_units_Z   2
loop_
 _symmetry_equiv_pos_site_id
 _symmetry_equiv_pos_as_xyz
  1  'x, y, z'
loop_
 _atom_site_type_symbol
 _atom_site_label
 _atom_site_symmetry_multiplicity
 _atom_site_fract_x
 _atom_site_fract_y
 _atom_site_fract_z
 _atom_site_occupancy
  Zn  Zn0  1  0.62787000  0.70225000  0.63331000  1.0
  Zn  Zn1  1  0.37214000  0.29775000  0.36669000  1.0
  H  H2  1  0.05383000  0.61403000  0.45210000  1.0
  H  H3  1  0.94617000  0.38598000  0.54790000  1.0
  H  H4  1  0.34118000  0.79929000  0.62025000  1.0
  H  H5  1  0.65882000  0.20072000  0.37976000  1.0
  H  H6  1  0.56613000  0.18584000  0.90569000  1.0
  H  H7  1  0.43387000  0.81416000  0.09431000  1.0
  H  H8  1  0.66765000  0.23243000  0.71632000  1.0
  H  H9  1  0.33234000  0.76757000  0.28368000  1.0
  H  H10  1  0.78831000  0.16202000  0.54004000  1.0
  H  H11  1  0.21170000  0.83798000  0.45996000  1.0
  H  H12  1  0.85616000  0.05507000  0.34504000  1.0
  H  H13  1  0.14384000  0.94494000  0.65497000  1.0
  H  H14  1  0.82487000  0.79028000  0.26123000  1.0
  H  H15  1  0.17512000  0.20972000  0.73877000  1.0
  H  H16  1  0.72896000  0.64547000  0.37752000  1.0
  H  H17  1  0.27104000  0.35453000  0.62248000  1.0
  H  H18  1  0.82077000  0.72278000  0.93384000  1.0
  H  H19  1  0.17923000  0.27722000  0.06616000  1.0
  H  H20  1  0.05238000  0.72032000  0.04145000  1.0
  H  H21  1  0.94761000  0.27967000  0.95854000  1.0
  H  H22  1  0.24592000  0.57618000  0.83681000  1.0
  H  H23  1  0.75407000  0.42382000  0.16319000  1.0
  H  H24  1  0.01964000  0.57229000  0.15820000  1.0
  H  H25  1  0.98036000  0.42770000  0.84179000  1.0
  H  H26  1  0.56333000  0.92629000  0.87180000  1.0
  H  H27  1  0.43667000  0.07371000  0.12820000  1.0
  H  H28  1  0.07329000  0.99670000  0.14577000  1.0
  H  H29  1  0.92671000  0.00330000  0.85423000  1.0
  H  H30  1  0.80051000  0.93545000  0.03752000  1.0
  H  H31  1  0.19949000  0.06455000  0.96248000  1.0
  H  H32  1  0.70027000  0.13286000  0.10457000  1.0
  H  H33  1  0.29973000  0.86714000  0.89543000  1.0
  H  H34  1  0.87172000  0.37868000  0.28049000  1.0
  H  H35  1  0.12828000  0.62132000  0.71951000  1.0
  C  C36  1  0.17075000  0.45877000  0.40221000  1.0
  C  C37  1  0.82925000  0.54123000  0.59779000  1.0
  C  C38  1  0.15589000  0.59174000  0.46493000  1.0
  C  C39  1  0.84411000  0.40826000  0.53507000  1.0
  C  C40  1  0.30016000  0.68566000  0.55130000  1.0
  C  C41  1  0.69985000  0.31434000  0.44871000  1.0
  C  C42  1  0.60103000  0.11928000  0.83212000  1.0
  C  C43  1  0.39896000  0.88073000  0.16788000  1.0
  C  C44  1  0.65296000  0.13956000  0.73645000  1.0
  C  C45  1  0.34704000  0.86044000  0.26355000  1.0
  C  C46  1  0.67757000  0.01190000  0.67126000  1.0
  C  C47  1  0.32243000  0.98810000  0.32874000  1.0
  C  C48  1  0.72431000  0.95993000  0.55950000  1.0
  C  C49  1  0.27569000  0.04007000  0.44050000  1.0
  C  C50  1  0.77771000  0.04848000  0.50089000  1.0
  C  C51  1  0.22230000  0.95152000  0.49912000  1.0
  C  C52  1  0.81503000  0.98850000  0.39278000  1.0
  C  C53  1  0.18497000  0.01151000  0.60722000  1.0
  C  C54  1  0.79827000  0.84187000  0.34597000  1.0
  C  C55  1  0.20174000  0.15813000  0.65404000  1.0
  C  C56  1  0.74584000  0.76115000  0.41061000  1.0
  C  C57  1  0.25415000  0.23885000  0.58939000  1.0
  C  C58  1  0.53728000  0.68393000  0.87191000  1.0
  C  C59  1  0.46272000  0.31607000  0.12809000  1.0
  C  C60  1  0.51848000  0.58876000  0.93757000  1.0
  C  C61  1  0.48152000  0.41124000  0.06243000  1.0
  C  C62  1  0.65152000  0.58240000  0.99264000  1.0
  C  C63  1  0.34848000  0.41760000  0.00736000  1.0
  C  C64  1  0.80644000  0.66207000  0.98789000  1.0
  C  C65  1  0.19356000  0.33792000  0.01211000  1.0
  C  C66  1  0.93528000  0.65955000  0.04678000  1.0
  C  C67  1  0.06472000  0.34045000  0.95322000  1.0
  C  C68  1  0.36765000  0.50694000  0.94300000  1.0
  C  C69  1  0.63235000  0.49306000  0.05699000  1.0
  C  C70  1  0.23064000  0.50760000  0.88421000  1.0
  C  C71  1  0.76936000  0.49240000  0.11579000  1.0
  C  C72  1  0.91673000  0.57454000  0.11265000  1.0
  C  C73  1  0.08327000  0.42546000  0.88735000  1.0
  C  C74  1  0.02430000  0.07865000  0.17156000  1.0
  C  C75  1  0.97570000  0.92135000  0.82844000  1.0
  C  C76  1  0.87360000  0.04486000  0.11128000  1.0
  C  C77  1  0.12640000  0.95514000  0.88872000  1.0
  C  C78  1  0.81723000  0.15427000  0.14929000  1.0
  C  C79  1  0.18278000  0.84574000  0.85071000  1.0
  C  C80  1  0.91245000  0.29170000  0.24601000  1.0
  C  C81  1  0.08755000  0.70830000  0.75399000  1.0
  C  C82  1  0.06325000  0.31787000  0.30166000  1.0
  C  C83  1  0.93675000  0.68213000  0.69834000  1.0
  N  N84  1  0.39421000  0.61355000  0.54050000  1.0
  N  N85  1  0.60580000  0.38645000  0.45950000  1.0
  N  N86  1  0.31506000  0.47500000  0.44991000  1.0
  N  N87  1  0.68495000  0.52500000  0.55009000  1.0
  N  N88  1  0.59733000  0.98763000  0.82169000  1.0
  N  N89  1  0.40267000  0.01237000  0.17831000  1.0
  N  N90  1  0.64310000  0.92177000  0.72538000  1.0
  N  N91  1  0.35690000  0.07823000  0.27462000  1.0
  N  N92  1  0.71050000  0.81837000  0.51493000  1.0
  N  N93  1  0.28949000  0.18163000  0.48506000  1.0
  N  N94  1  0.11738000  0.21150000  0.26392000  1.0
  N  N95  1  0.88262000  0.78850000  0.73608000  1.0
  O  O96  1  0.56658000  0.63421000  0.77099000  1.0
  O  O97  1  0.43342000  0.36579000  0.22901000  1.0
  O  O98  1  0.52278000  0.80517000  0.92443000  1.0
  O  O99  1  0.47722000  0.19483000  0.07557000  1.0
