# generated using pymatgen
data_CoH20C18(NO2)2
_symmetry_space_group_name_H-M   'P 1'
_cell_length_a   9.46190000
_cell_length_b   9.62722000
_cell_length_c   10.58720000
_cell_angle_alpha   112.20700000
_cell_angle_beta   92.47470000
_cell_angle_gamma   106.85900000
_symmetry_Int_Tables_number   1
_chemical_formula_structural   CoH20C18(NO2)2
_chemical_formula_sum   'Co2 H40 C36 N4 O8'
_cell_volume   841.69618139
_cell_formula_units_Z   2
loop_
 _symmetry_equiv_pos_site_id
 _symmetry_equiv_pos_as_xyz
  1  'x, y, z'
loop_
 _atom_site_type_symbol
 _atom_site_label
 _atom_site_symmetry_multiplicity
 _atom_site_fract_x
 _atom_site_fract_y
 _atom_site_fract_z
 _atom_site_occupancy
  Co  Co0  1  0.63801000  0.12740000  0.40480000  1.0
  Co  Co1  1  0.36199000  0.87258000  0.59519000  1.0
  H  H2  1  0.98077000  0.53338000  0.35562000  1.0
  H  H3  1  0.01922000  0.46662000  0.64439000  1.0
  H  H4  1  0.07161000  0.38960000  0.31263000  1.0
  H  H5  1  0.92839000  0.61043000  0.68738000  1.0
  H  H6  1  0.01245000  0.45997000  0.11161000  1.0
  H  H7  1  0.98754000  0.54006000  0.88841000  1.0
  H  H8  1  0.81925000  0.38459000  0.11596000  1.0
  H  H9  1  0.18074000  0.61543000  0.88405000  1.0
  H  H10  1  0.03596000  0.19290000  0.06111000  1.0
  H  H11  1  0.96404000  0.80714000  0.93890000  1.0
  H  H12  1  0.84574000  0.11653000  0.07064000  1.0
  H  H13  1  0.15427000  0.88349000  0.92937000  1.0
  H  H14  1  0.95659000  0.25194000  0.85918000  1.0
  H  H15  1  0.04340000  0.74808000  0.14082000  1.0
  H  H16  1  0.76871000  0.16926000  0.87145000  1.0
  H  H17  1  0.23129000  0.83076000  0.12856000  1.0
  H  H18  1  0.99288000  0.98698000  0.81470000  1.0
  H  H19  1  0.00712000  0.01303000  0.18531000  1.0
  H  H20  1  0.80207000  0.90759000  0.82108000  1.0
  H  H21  1  0.19792000  0.09243000  0.17894000  1.0
  H  H22  1  0.92246000  0.04273000  0.61040000  1.0
  H  H23  1  0.07754000  0.95727000  0.38961000  1.0
  H  H24  1  0.85645000  0.83976000  0.57857000  1.0
  H  H25  1  0.14356000  0.16025000  0.42145000  1.0
  H  H26  1  0.46794000  0.97791000  0.10934000  1.0
  H  H27  1  0.53206000  0.02207000  0.89066000  1.0
  H  H28  1  0.46177000  0.76384000  0.88053000  1.0
  H  H29  1  0.53823000  0.23615000  0.11946000  1.0
  H  H30  1  0.79676000  0.66293000  0.09052000  1.0
  H  H31  1  0.20324000  0.33705000  0.90947000  1.0
  H  H32  1  0.78882000  0.88257000  0.30806000  1.0
  H  H33  1  0.21116000  0.11739000  0.69194000  1.0
  H  H34  1  0.66865000  0.41315000  0.93181000  1.0
  H  H35  1  0.33134000  0.58683000  0.06818000  1.0
  H  H36  1  0.67030000  0.19984000  0.71147000  1.0
  H  H37  1  0.32969000  0.80015000  0.28852000  1.0
  H  H38  1  0.61583000  0.45500000  0.48638000  1.0
  H  H39  1  0.38417000  0.54499000  0.51361000  1.0
  H  H40  1  0.59850000  0.67830000  0.69753000  1.0
  H  H41  1  0.40151000  0.32170000  0.30247000  1.0
  C  C42  1  0.84434000  0.30601000  0.33616000  1.0
  C  C43  1  0.15567000  0.69399000  0.66384000  1.0
  C  C44  1  0.96589000  0.40820000  0.28998000  1.0
  C  C45  1  0.03411000  0.59181000  0.71002000  1.0
  C  C46  1  0.92886000  0.37152000  0.13617000  1.0
  C  C47  1  0.07114000  0.62850000  0.86384000  1.0
  C  C48  1  0.92535000  0.20440000  0.04210000  1.0
  C  C49  1  0.07465000  0.79562000  0.95790000  1.0
  C  C50  1  0.88135000  0.16190000  0.88853000  1.0
  C  C51  1  0.11865000  0.83811000  0.11148000  1.0
  C  C52  1  0.88196000  0.99656000  0.79448000  1.0
  C  C53  1  0.11804000  0.00345000  0.20554000  1.0
  C  C54  1  0.84391000  0.95572000  0.64009000  1.0
  C  C55  1  0.15609000  0.04429000  0.35993000  1.0
  C  C56  1  0.68624000  0.94727000  0.59390000  1.0
  C  C57  1  0.31377000  0.05273000  0.40610000  1.0
  C  C58  1  0.54054000  0.90615000  0.09901000  1.0
  C  C59  1  0.45946000  0.09384000  0.90098000  1.0
  C  C60  1  0.53828000  0.78735000  0.97212000  1.0
  C  C61  1  0.46172000  0.21264000  0.02787000  1.0
  C  C62  1  0.63078000  0.69485000  0.96542000  1.0
  C  C63  1  0.36923000  0.30515000  0.03457000  1.0
  C  C64  1  0.72118000  0.72897000  0.08921000  1.0
  C  C65  1  0.27883000  0.27101000  0.91077000  1.0
  C  C66  1  0.71837000  0.85155000  0.21083000  1.0
  C  C67  1  0.28163000  0.14842000  0.78917000  1.0
  C  C68  1  0.63362000  0.56625000  0.83506000  1.0
  C  C69  1  0.36638000  0.43375000  0.16493000  1.0
  C  C70  1  0.65681000  0.42923000  0.83593000  1.0
  C  C71  1  0.34319000  0.57076000  0.16406000  1.0
  C  C72  1  0.65848000  0.30893000  0.71253000  1.0
  C  C73  1  0.34152000  0.69106000  0.28746000  1.0
  C  C74  1  0.62354000  0.45014000  0.58753000  1.0
  C  C75  1  0.37647000  0.54985000  0.41246000  1.0
  C  C76  1  0.61529000  0.57442000  0.70589000  1.0
  C  C77  1  0.38471000  0.42557000  0.29410000  1.0
  N  N78  1  0.64348000  0.31743000  0.58902000  1.0
  N  N79  1  0.35653000  0.68257000  0.41097000  1.0
  N  N80  1  0.62905000  0.93962000  0.21713000  1.0
  N  N81  1  0.37094000  0.06036000  0.78287000  1.0
  O  O82  1  0.70628000  0.28442000  0.29806000  1.0
  O  O83  1  0.29372000  0.71555000  0.70192000  1.0
  O  O84  1  0.87728000  0.24037000  0.41258000  1.0
  O  O85  1  0.12272000  0.75963000  0.58742000  1.0
  O  O86  1  0.58213000  0.89926000  0.65587000  1.0
  O  O87  1  0.41787000  0.10074000  0.34412000  1.0
  O  O88  1  0.66355000  0.98716000  0.49527000  1.0
  O  O89  1  0.33645000  0.01283000  0.50473000  1.0
