# generated using pymatgen
data_CuH8C5N3ClO6
_symmetry_space_group_name_H-M   'P 1'
_cell_length_a   7.13645000
_cell_length_b   8.56632000
_cell_length_c   16.81130000
_cell_angle_alpha   89.99270000
_cell_angle_beta   89.99610000
_cell_angle_gamma   75.83900000
_symmetry_Int_Tables_number   1
_chemical_formula_structural   CuH8C5N3ClO6
_chemical_formula_sum   'Cu4 H32 C20 N12 Cl4 O24'
_cell_volume   996.49664834
_cell_formula_units_Z   4
loop_
 _symmetry_equiv_pos_site_id
 _symmetry_equiv_pos_as_xyz
  1  'x, y, z'
loop_
 _atom_site_type_symbol
 _atom_site_label
 _atom_site_symmetry_multiplicity
 _atom_site_fract_x
 _atom_site_fract_y
 _atom_site_fract_z
 _atom_site_occupancy
  Cu  Cu0  1  0.76471000  0.87818000  0.79705000  1.0
  Cu  Cu1  1  0.73520000  0.62129000  0.29723000  1.0
  Cu  Cu2  1  0.23519000  0.12130000  0.20277000  1.0
  Cu  Cu3  1  0.26470000  0.37817000  0.70294000  1.0
  H  H4  1  0.34136000  0.98747000  0.83678000  1.0
  H  H5  1  0.15873000  0.51214000  0.33698000  1.0
  H  H6  1  0.65873000  0.01216000  0.16302000  1.0
  H  H7  1  0.84134000  0.48751000  0.66324000  1.0
  H  H8  1  0.03515000  0.87077000  0.69476000  1.0
  H  H9  1  0.46456000  0.62787000  0.19514000  1.0
  H  H10  1  0.96456000  0.12785000  0.30489000  1.0
  H  H11  1  0.53516000  0.37073000  0.80520000  1.0
  H  H12  1  0.85692000  0.79316000  0.66266000  1.0
  H  H13  1  0.64140000  0.70731000  0.16327000  1.0
  H  H14  1  0.14141000  0.20726000  0.33674000  1.0
  H  H15  1  0.35698000  0.29309000  0.83734000  1.0
  H  H16  1  0.77983000  0.02637000  0.58647000  1.0
  H  H17  1  0.72181000  0.47532000  0.08643000  1.0
  H  H18  1  0.22181000  0.97524000  0.41358000  1.0
  H  H19  1  0.27986000  0.52629000  0.91351000  1.0
  H  H20  1  0.88940000  0.12581000  0.65910000  1.0
  H  H21  1  0.61154000  0.37414000  0.15805000  1.0
  H  H22  1  0.11152000  0.87410000  0.34197000  1.0
  H  H23  1  0.38942000  0.62575000  0.84087000  1.0
  H  H24  1  0.16502000  0.92853000  0.96021000  1.0
  H  H25  1  0.33487000  0.57157000  0.46033000  1.0
  H  H26  1  0.83489000  0.07164000  0.03968000  1.0
  H  H27  1  0.66498000  0.42861000  0.53983000  1.0
  H  H28  1  0.44125000  0.73237000  0.05340000  1.0
  H  H29  1  0.05850000  0.76833000  0.55325000  1.0
  H  H30  1  0.55857000  0.26839000  0.94673000  1.0
  H  H31  1  0.94120000  0.23241000  0.44664000  1.0
  H  H32  1  0.78003000  0.69948000  0.96589000  1.0
  H  H33  1  0.71990000  0.80088000  0.46567000  1.0
  H  H34  1  0.21992000  0.30092000  0.03430000  1.0
  H  H35  1  0.27997000  0.19947000  0.53415000  1.0
  C  C36  1  0.31886000  0.88338000  0.95083000  1.0
  C  C37  1  0.18105000  0.61670000  0.45088000  1.0
  C  C38  1  0.68108000  0.11677000  0.04911000  1.0
  C  C39  1  0.81881000  0.38344000  0.54919000  1.0
  C  C40  1  0.46216000  0.78348000  0.99629000  1.0
  C  C41  1  0.03768000  0.71690000  0.49621000  1.0
  C  C42  1  0.53774000  0.21696000  0.00377000  1.0
  C  C43  1  0.96210000  0.28353000  0.50375000  1.0
  C  C44  1  0.63336000  0.76519000  0.95236000  1.0
  C  C45  1  0.86655000  0.73503000  0.45226000  1.0
  C  C46  1  0.36658000  0.23507000  0.04772000  1.0
  C  C47  1  0.13331000  0.26521000  0.54768000  1.0
  C  C48  1  0.60322000  0.11716000  0.68805000  1.0
  C  C49  1  0.89702000  0.38289000  0.18805000  1.0
  C  C50  1  0.39701000  0.88285000  0.31195000  1.0
  C  C51  1  0.10321000  0.61711000  0.81193000  1.0
  C  C52  1  0.79760000  0.04135000  0.65059000  1.0
  C  C53  1  0.70305000  0.45909000  0.15040000  1.0
  C  C54  1  0.20305000  0.95905000  0.34961000  1.0
  C  C55  1  0.29761000  0.54130000  0.84939000  1.0
  N  N56  1  0.59606000  0.84873000  0.88403000  1.0
  N  N57  1  0.90395000  0.65115000  0.38405000  1.0
  N  N58  1  0.40397000  0.15118000  0.11593000  1.0
  N  N59  1  0.09605000  0.34874000  0.61600000  1.0
  N  N60  1  0.40461000  0.91950000  0.88422000  1.0
  N  N61  1  0.09535000  0.58031000  0.38433000  1.0
  N  N62  1  0.59537000  0.08035000  0.11567000  1.0
  N  N63  1  0.90458000  0.41953000  0.61580000  1.0
  N  N64  1  0.88735000  0.88952000  0.69118000  1.0
  N  N65  1  0.61226000  0.61004000  0.19143000  1.0
  N  N66  1  0.11225000  0.11001000  0.30858000  1.0
  N  N67  1  0.38738000  0.38947000  0.80880000  1.0
  Cl  Cl68  1  0.95745000  0.22815000  0.84343000  1.0
  Cl  Cl69  1  0.54240000  0.27155000  0.34325000  1.0
  Cl  Cl70  1  0.04243000  0.77159000  0.15675000  1.0
  Cl  Cl71  1  0.45750000  0.72823000  0.65656000  1.0
  O  O72  1  0.49470000  0.23612000  0.65273000  1.0
  O  O73  1  0.00550000  0.26397000  0.15271000  1.0
  O  O74  1  0.50548000  0.76392000  0.34729000  1.0
  O  O75  1  0.99469000  0.73603000  0.84725000  1.0
  O  O76  1  0.56229000  0.06132000  0.75454000  1.0
  O  O77  1  0.93775000  0.43837000  0.25466000  1.0
  O  O78  1  0.43774000  0.93835000  0.24534000  1.0
  O  O79  1  0.06234000  0.56128000  0.74543000  1.0
  O  O80  1  0.11669000  0.15256000  0.78939000  1.0
  O  O81  1  0.38219000  0.34721000  0.28967000  1.0
  O  O82  1  0.88221000  0.84718000  0.21033000  1.0
  O  O83  1  0.61669000  0.65260000  0.71062000  1.0
  O  O84  1  0.80424000  0.33169000  0.79606000  1.0
  O  O85  1  0.69505000  0.16861000  0.29538000  1.0
  O  O86  1  0.19509000  0.66862000  0.20460000  1.0
  O  O87  1  0.30426000  0.83177000  0.70392000  1.0
  O  O88  1  0.02826000  0.32373000  0.90275000  1.0
  O  O89  1  0.47291000  0.17540000  0.40269000  1.0
  O  O90  1  0.97297000  0.67548000  0.09729000  1.0
  O  O91  1  0.52837000  0.82384000  0.59725000  1.0
  O  O92  1  0.88434000  0.10259000  0.88240000  1.0
  O  O93  1  0.61572000  0.39709000  0.38211000  1.0
  O  O94  1  0.11574000  0.89717000  0.11790000  1.0
  O  O95  1  0.38441000  0.60272000  0.61759000  1.0
