# generated using pymatgen
data_FeH18C26(SN5)2
_symmetry_space_group_name_H-M   'P 1'
_cell_length_a   8.62037000
_cell_length_b   8.68479000
_cell_length_c   17.57360000
_cell_angle_alpha   97.06290000
_cell_angle_beta   103.83900000
_cell_angle_gamma   94.46940000
_symmetry_Int_Tables_number   1
_chemical_formula_structural   FeH18C26(SN5)2
_chemical_formula_sum   'Fe2 H36 C52 S4 N20'
_cell_volume   1259.89159779
_cell_formula_units_Z   2
loop_
 _symmetry_equiv_pos_site_id
 _symmetry_equiv_pos_as_xyz
  1  'x, y, z'
loop_
 _atom_site_type_symbol
 _atom_site_label
 _atom_site_symmetry_multiplicity
 _atom_site_fract_x
 _atom_site_fract_y
 _atom_site_fract_z
 _atom_site_occupancy
  Fe  Fe0  1  0.99128000  0.47881000  0.50074000  1.0
  Fe  Fe1  1  0.50938000  0.02247000  0.00301000  1.0
  H  H2  1  0.23026000  0.77644000  0.72982000  1.0
  H  H3  1  0.76617000  0.22200000  0.27098000  1.0
  H  H4  1  0.17386000  0.53903000  0.79630000  1.0
  H  H5  1  0.83556000  0.45091000  0.20958000  1.0
  H  H6  1  0.24101000  0.04875000  0.65378000  1.0
  H  H7  1  0.76527000  0.94979000  0.34277000  1.0
  H  H8  1  0.50056000  0.89201000  0.52320000  1.0
  H  H9  1  0.49181000  0.11855000  0.48054000  1.0
  H  H10  1  0.73823000  0.70571000  0.53512000  1.0
  H  H11  1  0.25540000  0.30293000  0.47381000  1.0
  H  H12  1  0.12890000  0.99641000  0.98073000  1.0
  H  H13  1  0.84921000  0.01054000  0.00842000  1.0
  H  H14  1  0.87477000  0.82336000  0.90677000  1.0
  H  H15  1  0.11130000  0.16015000  0.08700000  1.0
  H  H16  1  0.89806000  0.58681000  0.81706000  1.0
  H  H17  1  0.10667000  0.39080000  0.18490000  1.0
  H  H18  1  0.52815000  0.81619000  0.38352000  1.0
  H  H19  1  0.47347000  0.20500000  0.62121000  1.0
  H  H20  1  0.89333000  0.60022000  0.09930000  1.0
  H  H21  1  0.11138000  0.38076000  0.89508000  1.0
  H  H22  1  0.59390000  0.46655000  0.86082000  1.0
  H  H23  1  0.38741000  0.53139000  0.13677000  1.0
  H  H24  1  0.72531000  0.97032000  0.60643000  1.0
  H  H25  1  0.28016000  0.04800000  0.39850000  1.0
  H  H26  1  0.32923000  0.61081000  0.29346000  1.0
  H  H27  1  0.68526000  0.40466000  0.70719000  1.0
  H  H28  1  0.98424000  0.14627000  0.66643000  1.0
  H  H29  1  0.02882000  0.86426000  0.33222000  1.0
  H  H30  1  0.81256000  0.40803000  0.97146000  1.0
  H  H31  1  0.16966000  0.57605000  0.02194000  1.0
  H  H32  1  0.77263000  0.72717000  0.70736000  1.0
  H  H33  1  0.22347000  0.27055000  0.29271000  1.0
  H  H34  1  0.74435000  0.83341000  0.10962000  1.0
  H  H35  1  0.28056000  0.16350000  0.88940000  1.0
  H  H36  1  0.11071000  0.48262000  0.34653000  1.0
  H  H37  1  0.90554000  0.51480000  0.65100000  1.0
  C  C38  1  0.35169000  0.76376000  0.72495000  1.0
  C  C39  1  0.64485000  0.23524000  0.27578000  1.0
  C  C40  1  0.12467000  0.82390000  0.58987000  1.0
  C  C41  1  0.87134000  0.17313000  0.41092000  1.0
  C  C42  1  0.28802000  0.74728000  0.87497000  1.0
  C  C43  1  0.70871000  0.25612000  0.12571000  1.0
  C  C44  1  0.56470000  0.68593000  0.92556000  1.0
  C  C45  1  0.43632000  0.31748000  0.07542000  1.0
  C  C46  1  0.39138000  0.76073000  0.65230000  1.0
  C  C47  1  0.60359000  0.23351000  0.34774000  1.0
  C  C48  1  0.15496000  0.64093000  0.83471000  1.0
  C  C49  1  0.84810000  0.35109000  0.16800000  1.0
  C  C50  1  0.29625000  0.72308000  0.50675000  1.0
  C  C51  1  0.70289000  0.27436000  0.49318000  1.0
  C  C52  1  0.12750000  0.97533000  0.62816000  1.0
  C  C53  1  0.87628000  0.02595000  0.37045000  1.0
  C  C54  1  0.21711000  0.39528000  0.65107000  1.0
  C  C55  1  0.78114000  0.58874000  0.35247000  1.0
  C  C56  1  0.41945000  0.80055000  0.48190000  1.0
  C  C57  1  0.57801000  0.20783000  0.52055000  1.0
  C  C58  1  0.84677000  0.78529000  0.56247000  1.0
  C  C59  1  0.14987000  0.22190000  0.44352000  1.0
  C  C60  1  0.47241000  0.73666000  0.78920000  1.0
  C  C61  1  0.52583000  0.26825000  0.21241000  1.0
  C  C62  1  0.13081000  0.89519000  0.93797000  1.0
  C  C63  1  0.85400000  0.10614000  0.05520000  1.0
  C  C64  1  0.99174000  0.79824000  0.89841000  1.0
  C  C65  1  0.99769000  0.19141000  0.09762000  1.0
  C  C66  1  0.00472000  0.66764000  0.84646000  1.0
  C  C67  1  0.99518000  0.31838000  0.15414000  1.0
  C  C68  1  0.43337000  0.75904000  0.40507000  1.0
  C  C69  1  0.56881000  0.25494000  0.59760000  1.0
  C  C70  1  0.79860000  0.61900000  0.04920000  1.0
  C  C71  1  0.20482000  0.36892000  0.94718000  1.0
  C  C72  1  0.63379000  0.54643000  0.91632000  1.0
  C  C73  1  0.35588000  0.45007000  0.08166000  1.0
  C  C74  1  0.84020000  0.93336000  0.60106000  1.0
  C  C75  1  0.16236000  0.07821000  0.40266000  1.0
  C  C76  1  0.32197000  0.64327000  0.35424000  1.0
  C  C77  1  0.68743000  0.36745000  0.64605000  1.0
  C  C78  1  0.98338000  0.02984000  0.63503000  1.0
  C  C79  1  0.02363000  0.97783000  0.36501000  1.0
  C  C80  1  0.75473000  0.51437000  0.97857000  1.0
  C  C81  1  0.23579000  0.47471000  0.01719000  1.0
  C  C82  1  0.64870000  0.73153000  0.71182000  1.0
  C  C83  1  0.34771000  0.26740000  0.28862000  1.0
  C  C84  1  0.71872000  0.75096000  0.05503000  1.0
  C  C85  1  0.29558000  0.24481000  0.94355000  1.0
  C  C86  1  0.20269000  0.57231000  0.38323000  1.0
  C  C87  1  0.80879000  0.42870000  0.61559000  1.0
  C  C88  1  0.65703000  0.10963000  0.86894000  1.0
  C  C89  1  0.35069000  0.90742000  0.12905000  1.0
  S  S90  1  0.32077000  0.33712000  0.73029000  1.0
  S  S91  1  0.68662000  0.65888000  0.27488000  1.0
  S  S92  1  0.76123000  0.16535000  0.80975000  1.0
  S  S93  1  0.24249000  0.83677000  0.18323000  1.0
  N  N94  1  0.98695000  0.72996000  0.55889000  1.0
  N  N95  1  0.00576000  0.27257000  0.44660000  1.0
  N  N96  1  0.44294000  0.72487000  0.86265000  1.0
  N  N97  1  0.55782000  0.28612000  0.13990000  1.0
  N  N98  1  0.19243000  0.60865000  0.45849000  1.0
  N  N99  1  0.81667000  0.38633000  0.53946000  1.0
  N  N100  1  0.27250000  0.76771000  0.58345000  1.0
  N  N101  1  0.72101000  0.22155000  0.41663000  1.0
  N  N102  1  0.27583000  0.87163000  0.92553000  1.0
  N  N103  1  0.70910000  0.13545000  0.06873000  1.0
  N  N104  1  0.60761000  0.78638000  0.99343000  1.0
  N  N105  1  0.40667000  0.21456000  0.00759000  1.0
  N  N106  1  0.62400000  0.72306000  0.78308000  1.0
  N  N107  1  0.37433000  0.28211000  0.21828000  1.0
  N  N108  1  0.14190000  0.43883000  0.59324000  1.0
  N  N109  1  0.85006000  0.53624000  0.40877000  1.0
  N  N110  1  0.54135000  0.74497000  0.64492000  1.0
  N  N111  1  0.45369000  0.24876000  0.35499000  1.0
  N  N112  1  0.58029000  0.06682000  0.91193000  1.0
  N  N113  1  0.42952000  0.95970000  0.08930000  1.0
