# generated using pymatgen
data_ZnH16C20(NO2)2
_symmetry_space_group_name_H-M   'P 1'
_cell_length_a   8.29977000
_cell_length_b   9.68808000
_cell_length_c   11.58310000
_cell_angle_alpha   66.65450000
_cell_angle_beta   76.68980000
_cell_angle_gamma   88.63230000
_symmetry_Int_Tables_number   1
_chemical_formula_structural   ZnH16C20(NO2)2
_chemical_formula_sum   'Zn2 H32 C40 N4 O8'
_cell_volume   829.79385275
_cell_formula_units_Z   2
loop_
 _symmetry_equiv_pos_site_id
 _symmetry_equiv_pos_as_xyz
  1  'x, y, z'
loop_
 _atom_site_type_symbol
 _atom_site_label
 _atom_site_symmetry_multiplicity
 _atom_site_fract_x
 _atom_site_fract_y
 _atom_site_fract_z
 _atom_site_occupancy
  Zn  Zn0  1  0.72920000  0.22406000  0.06797000  1.0
  Zn  Zn1  1  0.27080000  0.77594000  0.93203000  1.0
  H  H2  1  0.76352000  0.67711000  0.07096000  1.0
  H  H3  1  0.23649000  0.32289000  0.92903000  1.0
  H  H4  1  0.96693000  0.38558000  0.38254000  1.0
  H  H5  1  0.03308000  0.61442000  0.61746000  1.0
  H  H6  1  0.05420000  0.60937000  0.41684000  1.0
  H  H7  1  0.94581000  0.39063000  0.58316000  1.0
  H  H8  1  0.98664000  0.86630000  0.27914000  1.0
  H  H9  1  0.01336000  0.13370000  0.72086000  1.0
  H  H10  1  0.37955000  0.24977000  0.04877000  1.0
  H  H11  1  0.62044000  0.75023000  0.95123000  1.0
  H  H12  1  0.09396000  0.15443000  0.18980000  1.0
  H  H13  1  0.90604000  0.84556000  0.81020000  1.0
  H  H14  1  0.32302000  0.90281000  0.50252000  1.0
  H  H15  1  0.67697000  0.09719000  0.49749000  1.0
  H  H16  1  0.60142000  0.01446000  0.34737000  1.0
  H  H17  1  0.39858000  0.98554000  0.65264000  1.0
  H  H18  1  0.01117000  0.84318000  0.49837000  1.0
  H  H19  1  0.98883000  0.15682000  0.50164000  1.0
  H  H20  1  0.92235000  0.99781000  0.39277000  1.0
  H  H21  1  0.07765000  0.00219000  0.60723000  1.0
  H  H22  1  0.72006000  0.53807000  0.88387000  1.0
  H  H23  1  0.27994000  0.46193000  0.11613000  1.0
  H  H24  1  0.63885000  0.67551000  0.67481000  1.0
  H  H25  1  0.36116000  0.32449000  0.32519000  1.0
  H  H26  1  0.53787000  0.24125000  0.67316000  1.0
  H  H27  1  0.46213000  0.75876000  0.32683000  1.0
  H  H28  1  0.62418000  0.12340000  0.88106000  1.0
  H  H29  1  0.37581000  0.87660000  0.11894000  1.0
  H  H30  1  0.63471000  0.62851000  0.45799000  1.0
  H  H31  1  0.36529000  0.37150000  0.54201000  1.0
  H  H32  1  0.42943000  0.62287000  0.54633000  1.0
  H  H33  1  0.57057000  0.37713000  0.45367000  1.0
  C  C34  1  0.82666000  0.66227000  0.14693000  1.0
  C  C35  1  0.17335000  0.33773000  0.85307000  1.0
  C  C36  1  0.86261000  0.51767000  0.22314000  1.0
  C  C37  1  0.13740000  0.48233000  0.77686000  1.0
  C  C38  1  0.94050000  0.49898000  0.32317000  1.0
  C  C39  1  0.05950000  0.50102000  0.67682000  1.0
  C  C40  1  0.98696000  0.62367000  0.34292000  1.0
  C  C41  1  0.01304000  0.37632000  0.65708000  1.0
  C  C42  1  0.95076000  0.76742000  0.26606000  1.0
  C  C43  1  0.04924000  0.23258000  0.73394000  1.0
  C  C44  1  0.86661000  0.78738000  0.16952000  1.0
  C  C45  1  0.13340000  0.21262000  0.83048000  1.0
  C  C46  1  0.80831000  0.93873000  0.09834000  1.0
  C  C47  1  0.19170000  0.06127000  0.90165000  1.0
  C  C48  1  0.81565000  0.38172000  0.20237000  1.0
  C  C49  1  0.18435000  0.61828000  0.79763000  1.0
  C  C50  1  0.36108000  0.17550000  0.15052000  1.0
  C  C51  1  0.63892000  0.82450000  0.84948000  1.0
  C  C52  1  0.20290000  0.12215000  0.22931000  1.0
  C  C53  1  0.79710000  0.87785000  0.77069000  1.0
  C  C54  1  0.18608000  0.02379000  0.35870000  1.0
  C  C55  1  0.81392000  0.97621000  0.64130000  1.0
  C  C56  1  0.33160000  0.98245000  0.40278000  1.0
  C  C57  1  0.66840000  0.01755000  0.59723000  1.0
  C  C58  1  0.48493000  0.04181000  0.31796000  1.0
  C  C59  1  0.51507000  0.95819000  0.68205000  1.0
  C  C60  1  0.01781000  0.96676000  0.44839000  1.0
  C  C61  1  0.98219000  0.03324000  0.55160000  1.0
  C  C62  1  0.67803000  0.47795000  0.83295000  1.0
  C  C63  1  0.32198000  0.52205000  0.16705000  1.0
  C  C64  1  0.63308000  0.55269000  0.71662000  1.0
  C  C65  1  0.36692000  0.44731000  0.28338000  1.0
  C  C66  1  0.58050000  0.47024000  0.65408000  1.0
  C  C67  1  0.41950000  0.52976000  0.34592000  1.0
  C  C68  1  0.57813000  0.31340000  0.71452000  1.0
  C  C69  1  0.42187000  0.68661000  0.28548000  1.0
  C  C70  1  0.62521000  0.24526000  0.83106000  1.0
  C  C71  1  0.37479000  0.75475000  0.16894000  1.0
  C  C72  1  0.52895000  0.55094000  0.52865000  1.0
  C  C73  1  0.47105000  0.44906000  0.47135000  1.0
  N  N74  1  0.67392000  0.32601000  0.89029000  1.0
  N  N75  1  0.32608000  0.67399000  0.10971000  1.0
  N  N76  1  0.49972000  0.13791000  0.19340000  1.0
  N  N77  1  0.50028000  0.86208000  0.80660000  1.0
  O  O78  1  0.79414000  0.40752000  0.08830000  1.0
  O  O79  1  0.20586000  0.59248000  0.91170000  1.0
  O  O80  1  0.79993000  0.25372000  0.29346000  1.0
  O  O81  1  0.20006000  0.74628000  0.70654000  1.0
  O  O82  1  0.70423000  0.94908000  0.03321000  1.0
  O  O83  1  0.29578000  0.05092000  0.96679000  1.0
  O  O84  1  0.86548000  0.05118000  0.11616000  1.0
  O  O85  1  0.13452000  0.94882000  0.88384000  1.0
