# generated using pymatgen
data_Zn3H4C18(ClO3)4
_symmetry_space_group_name_H-M   'P 1'
_cell_length_a   19.16190000
_cell_length_b   19.16230000
_cell_length_c   19.60840000
_cell_angle_alpha   109.35200000
_cell_angle_beta   109.35100000
_cell_angle_gamma   103.66900000
_symmetry_Int_Tables_number   1
_chemical_formula_structural   Zn3H4C18(ClO3)4
_chemical_formula_sum   'Zn6 H8 C36 Cl8 O24'
_cell_volume   5905.08218824
_cell_formula_units_Z   2
loop_
 _symmetry_equiv_pos_site_id
 _symmetry_equiv_pos_as_xyz
  1  'x, y, z'
loop_
 _atom_site_type_symbol
 _atom_site_label
 _atom_site_symmetry_multiplicity
 _atom_site_fract_x
 _atom_site_fract_y
 _atom_site_fract_z
 _atom_site_occupancy
  Zn  Zn0  1  0.94496000  0.50250000  0.94130000  1.0
  Zn  Zn1  1  0.94944000  0.94944000  0.50792000  1.0
  Zn  Zn2  1  0.05056000  0.05056000  0.49208000  1.0
  Zn  Zn3  1  0.05505000  0.49750000  0.05871000  1.0
  Zn  Zn4  1  0.49750000  0.05504000  0.05870000  1.0
  Zn  Zn5  1  0.50250000  0.94496000  0.94129000  1.0
  H  H6  1  0.97455000  0.16282000  0.71647000  1.0
  H  H7  1  0.04191000  0.65027000  0.26719000  1.0
  H  H8  1  0.65026000  0.04190000  0.26719000  1.0
  H  H9  1  0.34974000  0.95810000  0.73281000  1.0
  H  H10  1  0.95810000  0.34973000  0.73282000  1.0
  H  H11  1  0.02543000  0.83717000  0.28353000  1.0
  H  H12  1  0.83718000  0.02544000  0.28352000  1.0
  H  H13  1  0.16283000  0.97457000  0.71647000  1.0
  C  C14  1  0.01188000  0.39327000  0.88720000  1.0
  C  C15  1  0.89162000  0.38831000  0.99817000  1.0
  C  C16  1  0.38830000  0.89163000  0.99817000  1.0
  C  C17  1  0.61169000  0.10837000  0.00182000  1.0
  C  C18  1  0.10836000  0.61170000  0.00181000  1.0
  C  C19  1  0.16868000  0.67246000  0.00158000  1.0
  C  C20  1  0.83130000  0.32754000  0.99841000  1.0
  C  C21  1  0.32753000  0.83130000  0.99840000  1.0
  C  C22  1  0.98814000  0.60673000  0.11282000  1.0
  C  C23  1  0.67246000  0.16869000  0.00159000  1.0
  C  C24  1  0.21986000  0.72379000  0.00055000  1.0
  C  C25  1  0.78014000  0.27622000  0.99945000  1.0
  C  C26  1  0.27621000  0.78014000  0.99944000  1.0
  C  C27  1  0.72379000  0.21986000  0.00055000  1.0
  C  C28  1  0.60673000  0.98813000  0.11281000  1.0
  C  C29  1  0.99744000  0.25513000  0.68317000  1.0
  C  C30  1  0.00256000  0.74487000  0.31684000  1.0
  C  C31  1  0.74487000  0.00256000  0.31684000  1.0
  C  C32  1  0.25514000  0.99744000  0.68316000  1.0
  C  C33  1  0.39327000  0.01188000  0.88719000  1.0
  C  C34  1  0.98946000  0.18021000  0.67391000  1.0
  C  C35  1  0.01053000  0.81978000  0.32609000  1.0
  C  C36  1  0.81978000  0.01053000  0.32609000  1.0
  C  C37  1  0.18022000  0.98947000  0.67390000  1.0
  C  C38  1  0.99072000  0.31324000  0.74828000  1.0
  C  C39  1  0.00929000  0.68676000  0.25174000  1.0
  C  C40  1  0.68676000  0.00928000  0.25173000  1.0
  C  C41  1  0.31324000  0.99071000  0.74827000  1.0
  C  C42  1  0.02366000  0.33009000  0.82736000  1.0
  C  C43  1  0.97635000  0.66991000  0.17266000  1.0
  C  C44  1  0.66991000  0.97634000  0.17265000  1.0
  C  C45  1  0.33009000  0.02366000  0.82735000  1.0
  C  C46  1  0.11546000  0.99314000  0.61009000  1.0
  C  C47  1  0.88456000  0.00688000  0.38991000  1.0
  C  C48  1  0.00687000  0.88454000  0.38991000  1.0
  C  C49  1  0.99312000  0.11545000  0.61008000  1.0
  Cl  Cl50  1  0.01175000  0.29033000  0.61617000  1.0
  Cl  Cl51  1  0.91693000  0.71446000  0.13280000  1.0
  Cl  Cl52  1  0.71447000  0.91693000  0.13280000  1.0
  Cl  Cl53  1  0.28553000  0.08308000  0.86720000  1.0
  Cl  Cl54  1  0.08308000  0.28553000  0.86721000  1.0
  Cl  Cl55  1  0.98826000  0.70967000  0.38385000  1.0
  Cl  Cl56  1  0.70967000  0.98825000  0.38384000  1.0
  Cl  Cl57  1  0.29034000  0.01174000  0.61616000  1.0
  O  O58  1  0.95941000  0.41945000  0.85818000  1.0
  O  O59  1  0.94513000  0.58439000  0.03817000  1.0
  O  O60  1  0.58439000  0.94512000  0.03816000  1.0
  O  O61  1  0.41561000  0.05488000  0.96184000  1.0
  O  O62  1  0.05489000  0.41561000  0.96185000  1.0
  O  O63  1  0.03614000  0.58982000  0.95011000  1.0
  O  O64  1  0.96385000  0.41019000  0.04988000  1.0
  O  O65  1  0.41018000  0.96385000  0.04987000  1.0
  O  O66  1  0.04061000  0.58055000  0.14184000  1.0
  O  O67  1  0.58982000  0.03614000  0.95012000  1.0
  O  O68  1  0.13294000  0.58555000  0.05356000  1.0
  O  O69  1  0.86705000  0.41446000  0.94643000  1.0
  O  O70  1  0.41445000  0.86704000  0.94642000  1.0
  O  O71  1  0.58555000  0.13295000  0.05357000  1.0
  O  O72  1  0.58054000  0.04060000  0.14183000  1.0
  O  O73  1  0.04431000  0.95046000  0.59395000  1.0
  O  O74  1  0.95570000  0.04955000  0.40604000  1.0
  O  O75  1  0.04954000  0.95569000  0.40605000  1.0
  O  O76  1  0.95045000  0.04430000  0.59396000  1.0
  O  O77  1  0.41945000  0.95941000  0.85817000  1.0
  O  O78  1  0.13383000  0.03813000  0.57788000  1.0
  O  O79  1  0.86618000  0.96190000  0.42213000  1.0
  O  O80  1  0.96188000  0.86617000  0.42213000  1.0
  O  O81  1  0.03810000  0.13382000  0.57786000  1.0
