# generated using pymatgen
data_Sn2PH5C6SO7
_symmetry_space_group_name_H-M   'P 1'
_cell_length_a   6.91060000
_cell_length_b   8.39876000
_cell_length_c   9.96747000
_cell_angle_alpha   82.34540000
_cell_angle_beta   87.90980000
_cell_angle_gamma   75.35420000
_symmetry_Int_Tables_number   1
_chemical_formula_structural   Sn2PH5C6SO7
_chemical_formula_sum   'Sn4 P2 H10 C12 S2 O14'
_cell_volume   554.72914258
_cell_formula_units_Z   2
loop_
 _symmetry_equiv_pos_site_id
 _symmetry_equiv_pos_as_xyz
  1  'x, y, z'
loop_
 _atom_site_type_symbol
 _atom_site_label
 _atom_site_symmetry_multiplicity
 _atom_site_fract_x
 _atom_site_fract_y
 _atom_site_fract_z
 _atom_site_occupancy
  Sn  Sn0  1  0.81472000  0.84369000  0.58018000  1.0
  Sn  Sn1  1  0.18530000  0.15630000  0.41983000  1.0
  Sn  Sn2  1  0.63217000  0.61722000  0.35139000  1.0
  Sn  Sn3  1  0.36782000  0.38281000  0.64860000  1.0
  P  P4  1  0.12432000  0.57460000  0.34488000  1.0
  P  P5  1  0.87567000  0.42540000  0.65512000  1.0
  H  H6  1  0.44030000  0.80738000  0.54912000  1.0
  H  H7  1  0.55972000  0.19262000  0.45089000  1.0
  H  H8  1  0.23766000  0.45929000  0.08311000  1.0
  H  H9  1  0.76235000  0.54070000  0.91689000  1.0
  H  H10  1  0.33127000  0.60253000  0.86410000  1.0
  H  H11  1  0.66873000  0.39747000  0.13591000  1.0
  H  H12  1  0.23393000  0.05840000  0.03997000  1.0
  H  H13  1  0.76607000  0.94159000  0.96003000  1.0
  H  H14  1  0.12974000  0.91816000  0.25617000  1.0
  H  H15  1  0.87025000  0.08184000  0.74383000  1.0
  C  C16  1  0.18239000  0.67900000  0.18437000  1.0
  C  C17  1  0.81761000  0.32100000  0.81563000  1.0
  C  C18  1  0.23589000  0.59048000  0.07289000  1.0
  C  C19  1  0.76412000  0.40951000  0.92711000  1.0
  C  C20  1  0.28891000  0.67048000  0.95089000  1.0
  C  C21  1  0.71109000  0.32951000  0.04911000  1.0
  C  C22  1  0.29020000  0.83778000  0.94096000  1.0
  C  C23  1  0.70980000  0.16221000  0.05905000  1.0
  C  C24  1  0.23303000  0.92808000  0.04980000  1.0
  C  C25  1  0.76697000  0.07192000  0.95020000  1.0
  C  C26  1  0.17789000  0.84805000  0.17112000  1.0
  C  C27  1  0.82210000  0.15195000  0.82888000  1.0
  S  S28  1  0.37325000  0.93550000  0.78806000  1.0
  S  S29  1  0.62675000  0.06450000  0.21194000  1.0
  O  O30  1  0.92549000  0.68089000  0.39849000  1.0
  O  O31  1  0.07450000  0.31911000  0.60150000  1.0
  O  O32  1  0.09414000  0.40759000  0.31537000  1.0
  O  O33  1  0.90585000  0.59241000  0.68463000  1.0
  O  O34  1  0.29593000  0.56248000  0.44485000  1.0
  O  O35  1  0.70406000  0.43753000  0.55516000  1.0
  O  O36  1  0.25611000  0.90612000  0.67662000  1.0
  O  O37  1  0.74388000  0.09388000  0.32338000  1.0
  O  O38  1  0.58789000  0.84743000  0.77664000  1.0
  O  O39  1  0.41211000  0.15258000  0.22336000  1.0
  O  O40  1  0.34320000  0.11004000  0.80698000  1.0
  O  O41  1  0.65678000  0.88996000  0.19302000  1.0
  O  O42  1  0.55348000  0.80374000  0.48516000  1.0
  O  O43  1  0.44652000  0.19628000  0.51484000  1.0
