# generated using pymatgen
data_Ag2H13C15(NO2)3
_symmetry_space_group_name_H-M   'P 1'
_cell_length_a   7.21492000
_cell_length_b   7.94556000
_cell_length_c   14.12250000
_cell_angle_alpha   76.01670000
_cell_angle_beta   83.54640000
_cell_angle_gamma   86.52030000
_symmetry_Int_Tables_number   1
_chemical_formula_structural   Ag2H13C15(NO2)3
_chemical_formula_sum   'Ag4 H26 C30 N6 O12'
_cell_volume   780.15277869
_cell_formula_units_Z   2
loop_
 _symmetry_equiv_pos_site_id
 _symmetry_equiv_pos_as_xyz
  1  'x, y, z'
loop_
 _atom_site_type_symbol
 _atom_site_label
 _atom_site_symmetry_multiplicity
 _atom_site_fract_x
 _atom_site_fract_y
 _atom_site_fract_z
 _atom_site_occupancy
  Ag  Ag0  1  0.34018000  0.27930000  0.34324000  1.0
  Ag  Ag1  1  0.65982000  0.72070000  0.65676000  1.0
  Ag  Ag2  1  0.77135000  0.45459000  0.54578000  1.0
  Ag  Ag3  1  0.22864000  0.54541000  0.45422000  1.0
  H  H4  1  0.99213000  0.13943000  0.47270000  1.0
  H  H5  1  0.00787000  0.86057000  0.52731000  1.0
  H  H6  1  0.64306000  0.14079000  0.47171000  1.0
  H  H7  1  0.35694000  0.85921000  0.52829000  1.0
  H  H8  1  0.98795000  0.66588000  0.15820000  1.0
  H  H9  1  0.01205000  0.33412000  0.84180000  1.0
  H  H10  1  0.17229000  0.59124000  0.23113000  1.0
  H  H11  1  0.82771000  0.40876000  0.76887000  1.0
  H  H12  1  0.73473000  0.61804000  0.12611000  1.0
  H  H13  1  0.26527000  0.38195000  0.87389000  1.0
  H  H14  1  0.62601000  0.42246000  0.12886000  1.0
  H  H15  1  0.37399000  0.57754000  0.87114000  1.0
  H  H16  1  0.52022000  0.56580000  0.20037000  1.0
  H  H17  1  0.47978000  0.43420000  0.79963000  1.0
  H  H18  1  0.07338000  0.43136000  0.06513000  1.0
  H  H19  1  0.92661000  0.56865000  0.93487000  1.0
  H  H20  1  0.26905000  0.56033000  0.06161000  1.0
  H  H21  1  0.73095000  0.43967000  0.93839000  1.0
  H  H22  1  0.25295000  0.35215000  0.14219000  1.0
  H  H23  1  0.74705000  0.64784000  0.85781000  1.0
  H  H24  1  0.94236000  0.89257000  0.89437000  1.0
  H  H25  1  0.05764000  0.10743000  0.10563000  1.0
  H  H26  1  0.24150000  0.84845000  0.97324000  1.0
  H  H27  1  0.75850000  0.15154000  0.02676000  1.0
  H  H28  1  0.93791000  0.06667000  0.72244000  1.0
  H  H29  1  0.06208000  0.93334000  0.27756000  1.0
  C  C30  1  0.75216000  0.41560000  0.25938000  1.0
  C  C31  1  0.24784000  0.58439000  0.74062000  1.0
  C  C32  1  0.92265000  0.22013000  0.41227000  1.0
  C  C33  1  0.07735000  0.77986000  0.58774000  1.0
  C  C34  1  0.73000000  0.22022000  0.41156000  1.0
  C  C35  1  0.27000000  0.77977000  0.58844000  1.0
  C  C36  1  0.94627000  0.42515000  0.26423000  1.0
  C  C37  1  0.05373000  0.57485000  0.73577000  1.0
  C  C38  1  0.06946000  0.54918000  0.19038000  1.0
  C  C39  1  0.93054000  0.45082000  0.80962000  1.0
  C  C40  1  0.65420000  0.51207000  0.17368000  1.0
  C  C41  1  0.34580000  0.48792000  0.82632000  1.0
  C  C42  1  0.17124000  0.46894000  0.10992000  1.0
  C  C43  1  0.82875000  0.53106000  0.89008000  1.0
  C  C44  1  0.07147000  0.94202000  0.85235000  1.0
  C  C45  1  0.92853000  0.05798000  0.14765000  1.0
  C  C46  1  0.58007000  0.14372000  0.68155000  1.0
  C  C47  1  0.41992000  0.85628000  0.31845000  1.0
  C  C48  1  0.40310000  0.07808000  0.74359000  1.0
  C  C49  1  0.59690000  0.92192000  0.25641000  1.0
  C  C50  1  0.23275000  0.10888000  0.70175000  1.0
  C  C51  1  0.76724000  0.89112000  0.29825000  1.0
  C  C52  1  0.23676000  0.91481000  0.89644000  1.0
  C  C53  1  0.76324000  0.08519000  0.10356000  1.0
  C  C54  1  0.39903000  0.98521000  0.84159000  1.0
  C  C55  1  0.60097000  0.01479000  0.15841000  1.0
  C  C56  1  0.06861000  0.04157000  0.75613000  1.0
  C  C57  1  0.93139000  0.95844000  0.24387000  1.0
  C  C58  1  0.23205000  0.21565000  0.59771000  1.0
  C  C59  1  0.76795000  0.78435000  0.40229000  1.0
  N  N60  1  0.02972000  0.32017000  0.33877000  1.0
  N  N61  1  0.97028000  0.67983000  0.66123000  1.0
  N  N62  1  0.64683000  0.31319000  0.33393000  1.0
  N  N63  1  0.35317000  0.68681000  0.66607000  1.0
  N  N64  1  0.56613000  0.97124000  0.89208000  1.0
  N  N65  1  0.43387000  0.02876000  0.10792000  1.0
  O  O66  1  0.12830000  0.35539000  0.58634000  1.0
  O  O67  1  0.87170000  0.64461000  0.41366000  1.0
  O  O68  1  0.33309000  0.16323000  0.53158000  1.0
  O  O69  1  0.66691000  0.83677000  0.46842000  1.0
  O  O70  1  0.67641000  0.09205000  0.86568000  1.0
  O  O71  1  0.32359000  0.90794000  0.13432000  1.0
  O  O72  1  0.58855000  0.84150000  0.96046000  1.0
  O  O73  1  0.41144000  0.15849000  0.03954000  1.0
  O  O74  1  0.58609000  0.30923000  0.65932000  1.0
  O  O75  1  0.41391000  0.69078000  0.34068000  1.0
  O  O76  1  0.69874000  0.03754000  0.65504000  1.0
  O  O77  1  0.30126000  0.96246000  0.34496000  1.0
