# generated using pymatgen
data_CuH6C5BrN2
_symmetry_space_group_name_H-M   'P 1'
_cell_length_a   4.01873000
_cell_length_b   12.44820000
_cell_length_c   12.83570000
_cell_angle_alpha   89.99990000
_cell_angle_beta   89.99810000
_cell_angle_gamma   81.06900000
_symmetry_Int_Tables_number   1
_chemical_formula_structural   CuH6C5BrN2
_chemical_formula_sum   'Cu4 H24 C20 Br4 N8'
_cell_volume   634.33311657
_cell_formula_units_Z   4
loop_
 _symmetry_equiv_pos_site_id
 _symmetry_equiv_pos_as_xyz
  1  'x, y, z'
loop_
 _atom_site_type_symbol
 _atom_site_label
 _atom_site_symmetry_multiplicity
 _atom_site_fract_x
 _atom_site_fract_y
 _atom_site_fract_z
 _atom_site_occupancy
  Cu  Cu0  1  0.54233000  0.66957000  0.69474000  1.0
  Cu  Cu1  1  0.54232000  0.16958000  0.80525000  1.0
  Cu  Cu2  1  0.45764000  0.33043000  0.30526000  1.0
  Cu  Cu3  1  0.45767000  0.83042000  0.19475000  1.0
  H  H4  1  0.27307000  0.63818000  0.31368000  1.0
  H  H5  1  0.27304000  0.13818000  0.18632000  1.0
  H  H6  1  0.72694000  0.36183000  0.68632000  1.0
  H  H7  1  0.72695000  0.86182000  0.81368000  1.0
  H  H8  1  0.27082000  0.58882000  0.50093000  1.0
  H  H9  1  0.27080000  0.08883000  0.99907000  1.0
  H  H10  1  0.72917000  0.41119000  0.49906000  1.0
  H  H11  1  0.72922000  0.91117000  0.00094000  1.0
  H  H12  1  0.73713000  0.90564000  0.38569000  1.0
  H  H13  1  0.73710000  0.40565000  0.11431000  1.0
  H  H14  1  0.26289000  0.09436000  0.61431000  1.0
  H  H15  1  0.26290000  0.59435000  0.88570000  1.0
  H  H16  1  0.85684000  0.94647000  0.56426000  1.0
  H  H17  1  0.85683000  0.44647000  0.93574000  1.0
  H  H18  1  0.14318000  0.05354000  0.43574000  1.0
  H  H19  1  0.14318000  0.55353000  0.06426000  1.0
  H  H20  1  0.95149000  0.82976000  0.64558000  1.0
  H  H21  1  0.95151000  0.32976000  0.85442000  1.0
  H  H22  1  0.04850000  0.17023000  0.35442000  1.0
  H  H23  1  0.04849000  0.67023000  0.14558000  1.0
  H  H24  1  0.55017000  0.91207000  0.65304000  1.0
  H  H25  1  0.55019000  0.41207000  0.84696000  1.0
  H  H26  1  0.44982000  0.08793000  0.34696000  1.0
  H  H27  1  0.44981000  0.58793000  0.15304000  1.0
  C  C28  1  0.37710000  0.68810000  0.37094000  1.0
  C  C29  1  0.37708000  0.18811000  0.12907000  1.0
  C  C30  1  0.62289000  0.31190000  0.62906000  1.0
  C  C31  1  0.62292000  0.81190000  0.87093000  1.0
  C  C32  1  0.37443000  0.66033000  0.47545000  1.0
  C  C33  1  0.37441000  0.16034000  0.02455000  1.0
  C  C34  1  0.62556000  0.33967000  0.52455000  1.0
  C  C35  1  0.62559000  0.83965000  0.97546000  1.0
  C  C36  1  0.62351000  0.80972000  0.51814000  1.0
  C  C37  1  0.62350000  0.30973000  0.98186000  1.0
  C  C38  1  0.37648000  0.19028000  0.48186000  1.0
  C  C39  1  0.37650000  0.69027000  0.01814000  1.0
  C  C40  1  0.62871000  0.83558000  0.41283000  1.0
  C  C41  1  0.62870000  0.33559000  0.08717000  1.0
  C  C42  1  0.37128000  0.16442000  0.58717000  1.0
  C  C43  1  0.37130000  0.66441000  0.91283000  1.0
  C  C44  1  0.75289000  0.87842000  0.59900000  1.0
  C  C45  1  0.75288000  0.37843000  0.90099000  1.0
  C  C46  1  0.24712000  0.12158000  0.40100000  1.0
  C  C47  1  0.24712000  0.62157000  0.09901000  1.0
  Br  Br48  1  0.07597000  0.53815000  0.69607000  1.0
  Br  Br49  1  0.07597000  0.03815000  0.80393000  1.0
  Br  Br50  1  0.92403000  0.46185000  0.30393000  1.0
  Br  Br51  1  0.92405000  0.96185000  0.19606000  1.0
  N  N52  1  0.50524000  0.77627000  0.33784000  1.0
  N  N53  1  0.50523000  0.27628000  0.16216000  1.0
  N  N54  1  0.49475000  0.22373000  0.66216000  1.0
  N  N55  1  0.49476000  0.72372000  0.83785000  1.0
  N  N56  1  0.49645000  0.71980000  0.55021000  1.0
  N  N57  1  0.49644000  0.21981000  0.94979000  1.0
  N  N58  1  0.50353000  0.28019000  0.44979000  1.0
  N  N59  1  0.50356000  0.78018000  0.05021000  1.0
