# generated using pymatgen
data_NaBH18C7N2O3
_symmetry_space_group_name_H-M   'P 1'
_cell_length_a   7.31852000
_cell_length_b   10.34640000
_cell_length_c   15.12320000
_cell_angle_alpha   90.00000000
_cell_angle_beta   90.00000000
_cell_angle_gamma   105.38100000
_symmetry_Int_Tables_number   1
_chemical_formula_structural   NaBH18C7N2O3
_chemical_formula_sum   'Na4 B4 H72 C28 N8 O12'
_cell_volume   1104.11899171
_cell_formula_units_Z   4
loop_
 _symmetry_equiv_pos_site_id
 _symmetry_equiv_pos_as_xyz
  1  'x, y, z'
loop_
 _atom_site_type_symbol
 _atom_site_label
 _atom_site_symmetry_multiplicity
 _atom_site_fract_x
 _atom_site_fract_y
 _atom_site_fract_z
 _atom_site_occupancy
  Na  Na0  1  0.74730000  0.53017000  0.50905000  1.0
  Na  Na1  1  0.74730000  0.03017000  0.99095000  1.0
  Na  Na2  1  0.25270000  0.46983000  0.49095000  1.0
  Na  Na3  1  0.25270000  0.96983000  0.00905000  1.0
  B  B4  1  0.60902000  0.38783000  0.83210000  1.0
  B  B5  1  0.60902000  0.88784000  0.66791000  1.0
  B  B6  1  0.39098000  0.61216000  0.16790000  1.0
  B  B7  1  0.39098000  0.11217000  0.33210000  1.0
  H  H8  1  0.54151000  0.45268000  0.88421000  1.0
  H  H9  1  0.54151000  0.95268000  0.61579000  1.0
  H  H10  1  0.45849000  0.54732000  0.11579000  1.0
  H  H11  1  0.45849000  0.04732000  0.38421000  1.0
  H  H12  1  0.50518000  0.72880000  0.38265000  1.0
  H  H13  1  0.50519000  0.22881000  0.11735000  1.0
  H  H14  1  0.49481000  0.27119000  0.61735000  1.0
  H  H15  1  0.49482000  0.77119000  0.88265000  1.0
  H  H16  1  0.82425000  0.88866000  0.50118000  1.0
  H  H17  1  0.82425000  0.38866000  0.99882000  1.0
  H  H18  1  0.17575000  0.11134000  0.49882000  1.0
  H  H19  1  0.17575000  0.61134000  0.00118000  1.0
  H  H20  1  0.48843000  0.85354000  0.46069000  1.0
  H  H21  1  0.48843000  0.35354000  0.03931000  1.0
  H  H22  1  0.51157000  0.14646000  0.53931000  1.0
  H  H23  1  0.51157000  0.64646000  0.96069000  1.0
  H  H24  1  0.16810000  0.74903000  0.39985000  1.0
  H  H25  1  0.16810000  0.24903000  0.10015000  1.0
  H  H26  1  0.83189000  0.25097000  0.60015000  1.0
  H  H27  1  0.83189000  0.75098000  0.89985000  1.0
  H  H28  1  0.03244000  0.57932000  0.30952000  1.0
  H  H29  1  0.03243000  0.07931000  0.19048000  1.0
  H  H30  1  0.96756000  0.42068000  0.69049000  1.0
  H  H31  1  0.96757000  0.92069000  0.80952000  1.0
  H  H32  1  0.72999000  0.73413000  0.29123000  1.0
  H  H33  1  0.72999000  0.23413000  0.20877000  1.0
  H  H34  1  0.27001000  0.26586000  0.70877000  1.0
  H  H35  1  0.27001000  0.76587000  0.79123000  1.0
  H  H36  1  0.01429000  0.81902000  0.57659000  1.0
  H  H37  1  0.01429000  0.31901000  0.92341000  1.0
  H  H38  1  0.98571000  0.18099000  0.42341000  1.0
  H  H39  1  0.98570000  0.68099000  0.07659000  1.0
  H  H40  1  0.25561000  0.82584000  0.55564000  1.0
  H  H41  1  0.25561000  0.32584000  0.94436000  1.0
  H  H42  1  0.74438000  0.17416000  0.44436000  1.0
  H  H43  1  0.74438000  0.67416000  0.05564000  1.0
  H  H44  1  0.14166000  0.91035000  0.42325000  1.0
  H  H45  1  0.14167000  0.41035000  0.07675000  1.0
  H  H46  1  0.85833000  0.08965000  0.57675000  1.0
  H  H47  1  0.85833000  0.58965000  0.92325000  1.0
  H  H48  1  0.76520000  0.38098000  0.85661000  1.0
  H  H49  1  0.76520000  0.88099000  0.64339000  1.0
  H  H50  1  0.23480000  0.61901000  0.14339000  1.0
  H  H51  1  0.23480000  0.11901000  0.35661000  1.0
  H  H52  1  0.79173000  0.93151000  0.38992000  1.0
  H  H53  1  0.79173000  0.43151000  0.11007000  1.0
  H  H54  1  0.20826000  0.06849000  0.61007000  1.0
  H  H55  1  0.20826000  0.56849000  0.88993000  1.0
  H  H56  1  0.97579000  0.80353000  0.27621000  1.0
  H  H57  1  0.97579000  0.30353000  0.22379000  1.0
  H  H58  1  0.02420000  0.19647000  0.72379000  1.0
  H  H59  1  0.02421000  0.69647000  0.77621000  1.0
  H  H60  1  0.87991000  0.57593000  0.21814000  1.0
  H  H61  1  0.87991000  0.07593000  0.28185000  1.0
  H  H62  1  0.12009000  0.42407000  0.78186000  1.0
  H  H63  1  0.12009000  0.92407000  0.71815000  1.0
  H  H64  1  0.54307000  0.71513000  0.56921000  1.0
  H  H65  1  0.54307000  0.21513000  0.93079000  1.0
  H  H66  1  0.45693000  0.28487000  0.43079000  1.0
  H  H67  1  0.45693000  0.78487000  0.06921000  1.0
  H  H68  1  0.50344000  0.27476000  0.82245000  1.0
  H  H69  1  0.50344000  0.77476000  0.67755000  1.0
  H  H70  1  0.49656000  0.72524000  0.17755000  1.0
  H  H71  1  0.49656000  0.22524000  0.32245000  1.0
  H  H72  1  0.13511000  0.61526000  0.60206000  1.0
  H  H73  1  0.13511000  0.11526000  0.89794000  1.0
  H  H74  1  0.86489000  0.38474000  0.39794000  1.0
  H  H75  1  0.86489000  0.88474000  0.10206000  1.0
  H  H76  1  0.62740000  0.48270000  0.32095000  1.0
  H  H77  1  0.62739000  0.98270000  0.17905000  1.0
  H  H78  1  0.37260000  0.51730000  0.67904000  1.0
  H  H79  1  0.37261000  0.01730000  0.82095000  1.0
  C  C80  1  0.77354000  0.84598000  0.43639000  1.0
  C  C81  1  0.77354000  0.34599000  0.06361000  1.0
  C  C82  1  0.22646000  0.15401000  0.56361000  1.0
  C  C83  1  0.22646000  0.65402000  0.93639000  1.0
  C  C84  1  0.63220000  0.45790000  0.74025000  1.0
  C  C85  1  0.63220000  0.95791000  0.75975000  1.0
  C  C86  1  0.36781000  0.54209000  0.25975000  1.0
  C  C87  1  0.36781000  0.04209000  0.24025000  1.0
  C  C88  1  0.08322000  0.80249000  0.43803000  1.0
  C  C89  1  0.08322000  0.30249000  0.06197000  1.0
  C  C90  1  0.91678000  0.19751000  0.56197000  1.0
  C  C91  1  0.91678000  0.69751000  0.93803000  1.0
  C  C92  1  0.56348000  0.77745000  0.44471000  1.0
  C  C93  1  0.56348000  0.27746000  0.05529000  1.0
  C  C94  1  0.43652000  0.22254000  0.55529000  1.0
  C  C95  1  0.43652000  0.72254000  0.94471000  1.0
  C  C96  1  0.86954000  0.72728000  0.31420000  1.0
  C  C97  1  0.86954000  0.22728000  0.18580000  1.0
  C  C98  1  0.13046000  0.27272000  0.68580000  1.0
  C  C99  1  0.13047000  0.77273000  0.81420000  1.0
  C  C100  1  0.89225000  0.58965000  0.29040000  1.0
  C  C101  1  0.89224000  0.08965000  0.20960000  1.0
  C  C102  1  0.10776000  0.41035000  0.70960000  1.0
  C  C103  1  0.10776000  0.91035000  0.79039000  1.0
  C  C104  1  0.10910000  0.77680000  0.53538000  1.0
  C  C105  1  0.10911000  0.27680000  0.96461000  1.0
  C  C106  1  0.89089000  0.22320000  0.46462000  1.0
  C  C107  1  0.89089000  0.72321000  0.03538000  1.0
  N  N108  1  0.88470000  0.75395000  0.40962000  1.0
  N  N109  1  0.88471000  0.25395000  0.09037000  1.0
  N  N110  1  0.11529000  0.24605000  0.59038000  1.0
  N  N111  1  0.11529000  0.74605000  0.90963000  1.0
  N  N112  1  0.64674000  0.50755000  0.66980000  1.0
  N  N113  1  0.64675000  0.00756000  0.83020000  1.0
  N  N114  1  0.35326000  0.49244000  0.33020000  1.0
  N  N115  1  0.35326000  0.99244000  0.16980000  1.0
  O  O116  1  0.75867000  0.48245000  0.33512000  1.0
  O  O117  1  0.75866000  0.98245000  0.16487000  1.0
  O  O118  1  0.24134000  0.51755000  0.66487000  1.0
  O  O119  1  0.24134000  0.01755000  0.83513000  1.0
  O  O120  1  0.52457000  0.67252000  0.51044000  1.0
  O  O121  1  0.52457000  0.17253000  0.98956000  1.0
  O  O122  1  0.47543000  0.32747000  0.48956000  1.0
  O  O123  1  0.47543000  0.82747000  0.01044000  1.0
  O  O124  1  0.06687000  0.63465000  0.54925000  1.0
  O  O125  1  0.06687000  0.13465000  0.95075000  1.0
  O  O126  1  0.93313000  0.36535000  0.45075000  1.0
  O  O127  1  0.93313000  0.86535000  0.04925000  1.0
