# generated using pymatgen
data_CuH14C14N4ClO2
_symmetry_space_group_name_H-M   'P 1'
_cell_length_a   8.36026000
_cell_length_b   9.04470000
_cell_length_c   9.92415000
_cell_angle_alpha   91.28680000
_cell_angle_beta   92.75290000
_cell_angle_gamma   106.76500000
_symmetry_Int_Tables_number   1
_chemical_formula_structural   CuH14C14N4ClO2
_chemical_formula_sum   'Cu2 H28 C28 N8 Cl2 O4'
_cell_volume   717.18214212
_cell_formula_units_Z   2
loop_
 _symmetry_equiv_pos_site_id
 _symmetry_equiv_pos_as_xyz
  1  'x, y, z'
loop_
 _atom_site_type_symbol
 _atom_site_label
 _atom_site_symmetry_multiplicity
 _atom_site_fract_x
 _atom_site_fract_y
 _atom_site_fract_z
 _atom_site_occupancy
  Cu  Cu0  1  0.01089000  0.06797000  0.85771000  1.0
  Cu  Cu1  1  0.98911000  0.93203000  0.14229000  1.0
  H  H2  1  0.27525000  0.13797000  0.74749000  1.0
  H  H3  1  0.72475000  0.86203000  0.25252000  1.0
  H  H4  1  0.75499000  0.10492000  0.77196000  1.0
  H  H5  1  0.24501000  0.89507000  0.22804000  1.0
  H  H6  1  0.29268000  0.81793000  0.51589000  1.0
  H  H7  1  0.70732000  0.18207000  0.48411000  1.0
  H  H8  1  0.02705000  0.62061000  0.42873000  1.0
  H  H9  1  0.97295000  0.37939000  0.57127000  1.0
  H  H10  1  0.75975000  0.83842000  0.69130000  1.0
  H  H11  1  0.24025000  0.16158000  0.30870000  1.0
  H  H12  1  0.60362000  0.62170000  0.55548000  1.0
  H  H13  1  0.39638000  0.37830000  0.44452000  1.0
  H  H14  1  0.70998000  0.48269000  0.51972000  1.0
  H  H15  1  0.29002000  0.51732000  0.48028000  1.0
  H  H16  1  0.68061000  0.60904000  0.39337000  1.0
  H  H17  1  0.31939000  0.39096000  0.60663000  1.0
  H  H18  1  0.76611000  0.51959000  0.80574000  1.0
  H  H19  1  0.23389000  0.48041000  0.19426000  1.0
  H  H20  1  0.04008000  0.72208000  0.85217000  1.0
  H  H21  1  0.95992000  0.27792000  0.14783000  1.0
  H  H22  1  0.27293000  0.35742000  0.88881000  1.0
  H  H23  1  0.72707000  0.64258000  0.11119000  1.0
  H  H24  1  0.43734000  0.63080000  0.94885000  1.0
  H  H25  1  0.56266000  0.36920000  0.05114000  1.0
  H  H26  1  0.34323000  0.78293000  0.92851000  1.0
  H  H27  1  0.65677000  0.21707000  0.07149000  1.0
  H  H28  1  0.40957000  0.70032000  0.78683000  1.0
  H  H29  1  0.59043000  0.29968000  0.21317000  1.0
  C  C30  1  0.46566000  0.05631000  0.69699000  1.0
  C  C31  1  0.53434000  0.94369000  0.30300000  1.0
  C  C32  1  0.57568000  0.21381000  0.75633000  1.0
  C  C33  1  0.42432000  0.78619000  0.24367000  1.0
  C  C34  1  0.16271000  0.93103000  0.64588000  1.0
  C  C35  1  0.83729000  0.06897000  0.35412000  1.0
  C  C36  1  0.17147000  0.81786000  0.55042000  1.0
  C  C37  1  0.82853000  0.18214000  0.44958000  1.0
  C  C38  1  0.02376000  0.71013000  0.50304000  1.0
  C  C39  1  0.97624000  0.28987000  0.49696000  1.0
  C  C40  1  0.86997000  0.71575000  0.55007000  1.0
  C  C41  1  0.13003000  0.28425000  0.44993000  1.0
  C  C42  1  0.87420000  0.83038000  0.64735000  1.0
  C  C43  1  0.12580000  0.16962000  0.35266000  1.0
  C  C44  1  0.70764000  0.60168000  0.50208000  1.0
  C  C45  1  0.29235000  0.39832000  0.49793000  1.0
  C  C46  1  0.87837000  0.33347000  0.81664000  1.0
  C  C47  1  0.12163000  0.66652000  0.18336000  1.0
  C  C48  1  0.88204000  0.48910000  0.82071000  1.0
  C  C49  1  0.11796000  0.51090000  0.17929000  1.0
  C  C50  1  0.03541000  0.60048000  0.84513000  1.0
  C  C51  1  0.96459000  0.39951000  0.15487000  1.0
  C  C52  1  0.18276000  0.55738000  0.86419000  1.0
  C  C53  1  0.81724000  0.44262000  0.13580000  1.0
  C  C54  1  0.16498000  0.39922000  0.86598000  1.0
  C  C55  1  0.83502000  0.60078000  0.13402000  1.0
  C  C56  1  0.35169000  0.67340000  0.88396000  1.0
  C  C57  1  0.64831000  0.32660000  0.11604000  1.0
  N  N58  1  0.30129000  0.04973000  0.69453000  1.0
  N  N59  1  0.69871000  0.95027000  0.30547000  1.0
  N  N60  1  0.73591000  0.21212000  0.78049000  1.0
  N  N61  1  0.26409000  0.78788000  0.21951000  1.0
  N  N62  1  0.01664000  0.93496000  0.69692000  1.0
  N  N63  1  0.98336000  0.06504000  0.30308000  1.0
  N  N64  1  0.01752000  0.28873000  0.84379000  1.0
  N  N65  1  0.98248000  0.71127000  0.15621000  1.0
  Cl  Cl66  1  0.77309000  0.92581000  0.97408000  1.0
  Cl  Cl67  1  0.22691000  0.07419000  0.02592000  1.0
  O  O68  1  0.52586000  0.95505000  0.65557000  1.0
  O  O69  1  0.47414000  0.04495000  0.34442000  1.0
  O  O70  1  0.51926000  0.32496000  0.77343000  1.0
  O  O71  1  0.48074000  0.67504000  0.22657000  1.0
