# generated using pymatgen
data_LiH7C7N2O5
_symmetry_space_group_name_H-M   'P 1'
_cell_length_a   4.86268000
_cell_length_b   6.30591000
_cell_length_c   28.44660000
_cell_angle_alpha   89.99990000
_cell_angle_beta   89.99980000
_cell_angle_gamma   105.90400000
_symmetry_Int_Tables_number   1
_chemical_formula_structural   LiH7C7N2O5
_chemical_formula_sum   'Li4 H28 C28 N8 O20'
_cell_volume   838.88698700
_cell_formula_units_Z   4
loop_
 _symmetry_equiv_pos_site_id
 _symmetry_equiv_pos_as_xyz
  1  'x, y, z'
loop_
 _atom_site_type_symbol
 _atom_site_label
 _atom_site_symmetry_multiplicity
 _atom_site_fract_x
 _atom_site_fract_y
 _atom_site_fract_z
 _atom_site_occupancy
  Li  Li0  1  0.11907000  0.50903000  0.75887000  1.0
  Li  Li1  1  0.88092000  0.99097000  0.25887000  1.0
  Li  Li2  1  0.88092000  0.49097000  0.24113000  1.0
  Li  Li3  1  0.11907000  0.00902000  0.74113000  1.0
  H  H4  1  0.51529000  0.82601000  0.51697000  1.0
  H  H5  1  0.48471000  0.67399000  0.01696000  1.0
  H  H6  1  0.48470000  0.17399000  0.48303000  1.0
  H  H7  1  0.51531000  0.32603000  0.98303000  1.0
  H  H8  1  0.78842000  0.54857000  0.51666000  1.0
  H  H9  1  0.21157000  0.95142000  0.01666000  1.0
  H  H10  1  0.21157000  0.45143000  0.48334000  1.0
  H  H11  1  0.78845000  0.04859000  0.98334000  1.0
  H  H12  1  0.68257000  0.48183000  0.66736000  1.0
  H  H13  1  0.31744000  0.01817000  0.16736000  1.0
  H  H14  1  0.31743000  0.51817000  0.33264000  1.0
  H  H15  1  0.68256000  0.98182000  0.83264000  1.0
  H  H16  1  0.22997000  0.01103000  0.62334000  1.0
  H  H17  1  0.77002000  0.48897000  0.12334000  1.0
  H  H18  1  0.77002000  0.98897000  0.37666000  1.0
  H  H19  1  0.22998000  0.51103000  0.87666000  1.0
  H  H20  1  0.24321000  0.03049000  0.56198000  1.0
  H  H21  1  0.75679000  0.46950000  0.06198000  1.0
  H  H22  1  0.75679000  0.96951000  0.43802000  1.0
  H  H23  1  0.24322000  0.53050000  0.93802000  1.0
  H  H24  1  0.69966000  0.19088000  0.74517000  1.0
  H  H25  1  0.30034000  0.30911000  0.24517000  1.0
  H  H26  1  0.30034000  0.80911000  0.25483000  1.0
  H  H27  1  0.69965000  0.69088000  0.75483000  1.0
  H  H28  1  0.85591000  0.23076000  0.69468000  1.0
  H  H29  1  0.14408000  0.26924000  0.19468000  1.0
  H  H30  1  0.14408000  0.76924000  0.30532000  1.0
  H  H31  1  0.85591000  0.73076000  0.80532000  1.0
  C  C32  1  0.50379000  0.71783000  0.63568000  1.0
  C  C33  1  0.49621000  0.78217000  0.13568000  1.0
  C  C34  1  0.49621000  0.28217000  0.36432000  1.0
  C  C35  1  0.50379000  0.21783000  0.86432000  1.0
  C  C36  1  0.45106000  0.81858000  0.59244000  1.0
  C  C37  1  0.54894000  0.68142000  0.09244000  1.0
  C  C38  1  0.54894000  0.18143000  0.40756000  1.0
  C  C39  1  0.45107000  0.31858000  0.90756000  1.0
  C  C40  1  0.55713000  0.75133000  0.54982000  1.0
  C  C41  1  0.44288000  0.74868000  0.04982000  1.0
  C  C42  1  0.44287000  0.24868000  0.45018000  1.0
  C  C43  1  0.55714000  0.25133000  0.95018000  1.0
  C  C44  1  0.70600000  0.59542000  0.54943000  1.0
  C  C45  1  0.29400000  0.90458000  0.04943000  1.0
  C  C46  1  0.29400000  0.40458000  0.45057000  1.0
  C  C47  1  0.70602000  0.09543000  0.95057000  1.0
  C  C48  1  0.75278000  0.49653000  0.59211000  1.0
  C  C49  1  0.24722000  0.00347000  0.09211000  1.0
  C  C50  1  0.24722000  0.50348000  0.40789000  1.0
  C  C51  1  0.75279000  0.99653000  0.90789000  1.0
  C  C52  1  0.65161000  0.55904000  0.63441000  1.0
  C  C53  1  0.34839000  0.94097000  0.13441000  1.0
  C  C54  1  0.34839000  0.44097000  0.36560000  1.0
  C  C55  1  0.65161000  0.05903000  0.86560000  1.0
  C  C56  1  0.39391000  0.77021000  0.68213000  1.0
  C  C57  1  0.60609000  0.72978000  0.18213000  1.0
  C  C58  1  0.60608000  0.22978000  0.31787000  1.0
  C  C59  1  0.39391000  0.27021000  0.81787000  1.0
  N  N60  1  0.30597000  0.97023000  0.59196000  1.0
  N  N61  1  0.69403000  0.52977000  0.09196000  1.0
  N  N62  1  0.69403000  0.02977000  0.40804000  1.0
  N  N63  1  0.30598000  0.47023000  0.90804000  1.0
  N  N64  1  0.89771000  0.32956000  0.59191000  1.0
  N  N65  1  0.10229000  0.17044000  0.09191000  1.0
  N  N66  1  0.10229000  0.67044000  0.40809000  1.0
  N  N67  1  0.89771000  0.82956000  0.90809000  1.0
  O  O68  1  0.42423000  0.65300000  0.71761000  1.0
  O  O69  1  0.57576000  0.84700000  0.21761000  1.0
  O  O70  1  0.57576000  0.34700000  0.28239000  1.0
  O  O71  1  0.42423000  0.15299000  0.78239000  1.0
  O  O72  1  0.27090000  0.92394000  0.68435000  1.0
  O  O73  1  0.72909000  0.57606000  0.18435000  1.0
  O  O74  1  0.72908000  0.07606000  0.31565000  1.0
  O  O75  1  0.27091000  0.42394000  0.81565000  1.0
  O  O76  1  0.88886000  0.22500000  0.72871000  1.0
  O  O77  1  0.11114000  0.27500000  0.22871000  1.0
  O  O78  1  0.11113000  0.77500000  0.27129000  1.0
  O  O79  1  0.88885000  0.72500000  0.77129000  1.0
  O  O80  1  0.94477000  0.24432000  0.63014000  1.0
  O  O81  1  0.05523000  0.25568000  0.13014000  1.0
  O  O82  1  0.05522000  0.75568000  0.36986000  1.0
  O  O83  1  0.94478000  0.74432000  0.86986000  1.0
  O  O84  1  0.97602000  0.26872000  0.55321000  1.0
  O  O85  1  0.02397000  0.23128000  0.05321000  1.0
  O  O86  1  0.02398000  0.73128000  0.44679000  1.0
  O  O87  1  0.97603000  0.76872000  0.94679000  1.0
