# generated using pymatgen
data_ZnH10C16N2O5
_symmetry_space_group_name_H-M   'P 1'
_cell_length_a   7.92388000
_cell_length_b   7.98959000
_cell_length_c   13.17092678
_cell_angle_alpha   72.53864478
_cell_angle_beta   73.03289702
_cell_angle_gamma   81.08390000
_symmetry_Int_Tables_number   1
_chemical_formula_structural   ZnH10C16N2O5
_chemical_formula_sum   'Zn2 H20 C32 N4 O10'
_cell_volume   758.70669978
_cell_formula_units_Z   2
loop_
 _symmetry_equiv_pos_site_id
 _symmetry_equiv_pos_as_xyz
  1  'x, y, z'
loop_
 _atom_site_type_symbol
 _atom_site_label
 _atom_site_symmetry_multiplicity
 _atom_site_fract_x
 _atom_site_fract_y
 _atom_site_fract_z
 _atom_site_occupancy
  Zn  Zn0  1  0.23990000  0.53916000  0.82632000  1.0
  Zn  Zn1  1  0.76010000  0.46084000  0.17368000  1.0
  H  H2  1  0.04497000  0.51429000  0.65472000  1.0
  H  H3  1  0.95502000  0.48572000  0.34528000  1.0
  H  H4  1  0.10806000  0.60383000  0.44732000  1.0
  H  H5  1  0.89193000  0.39618000  0.55268000  1.0
  H  H6  1  0.38884000  0.75132000  0.33477000  1.0
  H  H7  1  0.61116000  0.24869000  0.66522000  1.0
  H  H8  1  0.66424000  0.87394000  0.33210000  1.0
  H  H9  1  0.33576000  0.12606000  0.66790000  1.0
  H  H10  1  0.85145000  0.93639000  0.43340000  1.0
  H  H11  1  0.14854000  0.06362000  0.56660000  1.0
  H  H12  1  0.90843000  0.91615000  0.62055000  1.0
  H  H13  1  0.09157000  0.08385000  0.37945000  1.0
  H  H14  1  0.80743000  0.81518000  0.82564000  1.0
  H  H15  1  0.19258000  0.18481000  0.17436000  1.0
  H  H16  1  0.53490000  0.65286000  0.91462000  1.0
  H  H17  1  0.46511000  0.34713000  0.08538000  1.0
  H  H18  1  0.94837000  0.37723000  0.93312000  1.0
  H  H19  1  0.05163000  0.62277000  0.06688000  1.0
  H  H20  1  0.05531000  0.28912000  0.84051000  1.0
  H  H21  1  0.94468000  0.71088000  0.15949000  1.0
  C  C22  1  0.46648000  0.06277000  0.97118000  1.0
  C  C23  1  0.53353000  0.93723000  0.02881000  1.0
  C  C24  1  0.38767000  0.21383000  0.90264000  1.0
  C  C25  1  0.61234000  0.78617000  0.09736000  1.0
  C  C26  1  0.16411000  0.57877000  0.60246000  1.0
  C  C27  1  0.83588000  0.42124000  0.39754000  1.0
  C  C28  1  0.20054000  0.62961000  0.48687000  1.0
  C  C29  1  0.79945000  0.37039000  0.51313000  1.0
  C  C30  1  0.35368000  0.71147000  0.42472000  1.0
  C  C31  1  0.64632000  0.28853000  0.57528000  1.0
  C  C32  1  0.46970000  0.74430000  0.47908000  1.0
  C  C33  1  0.53030000  0.25570000  0.52092000  1.0
  C  C34  1  0.62867000  0.83256000  0.42187000  1.0
  C  C35  1  0.37133000  0.16743000  0.57813000  1.0
  C  C36  1  0.73304000  0.86599000  0.47890000  1.0
  C  C37  1  0.26696000  0.13401000  0.52110000  1.0
  C  C38  1  0.68873000  0.81279000  0.59690000  1.0
  C  C39  1  0.31127000  0.18720000  0.40310000  1.0
  C  C40  1  0.78848000  0.84639000  0.66096000  1.0
  C  C41  1  0.21152000  0.15362000  0.33903000  1.0
  C  C42  1  0.73353000  0.79060000  0.77459000  1.0
  C  C43  1  0.26646000  0.20939000  0.22541000  1.0
  C  C44  1  0.57927000  0.69947000  0.82508000  1.0
  C  C45  1  0.42073000  0.30051000  0.17492000  1.0
  C  C46  1  0.53374000  0.72249000  0.65535000  1.0
  C  C47  1  0.46626000  0.27751000  0.34465000  1.0
  C  C48  1  0.42197000  0.68932000  0.59589000  1.0
  C  C49  1  0.57803000  0.31068000  0.40411000  1.0
  C  C50  1  0.08463000  0.85891000  0.88405000  1.0
  C  C51  1  0.91538000  0.14109000  0.11596000  1.0
  C  C52  1  0.02515000  0.96032000  0.96479000  1.0
  C  C53  1  0.97487000  0.03968000  0.03521000  1.0
  N  N54  1  0.48280000  0.66682000  0.76675000  1.0
  N  N55  1  0.51720000  0.33318000  0.23325000  1.0
  N  N56  1  0.27194000  0.60764000  0.65534000  1.0
  N  N57  1  0.72805000  0.39237000  0.34466000  1.0
  O  O58  1  0.32773000  0.34463000  0.94456000  1.0
  O  O59  1  0.67227000  0.65537000  0.05544000  1.0
  O  O60  1  0.38179000  0.21010000  0.80897000  1.0
  O  O61  1  0.61820000  0.78991000  0.19103000  1.0
  O  O62  1  0.11721000  0.69182000  0.92745000  1.0
  O  O63  1  0.88280000  0.30818000  0.07255000  1.0
  O  O64  1  0.09863000  0.93254000  0.78459000  1.0
  O  O65  1  0.90138000  0.06746000  0.21542000  1.0
  O  O66  1  0.00730000  0.40453000  0.85183000  1.0
  O  O67  1  0.99270000  0.59546000  0.14818000  1.0
