# generated using pymatgen
data_ZnPH7C2NO3
_symmetry_space_group_name_H-M   'P 1'
_cell_length_a   7.96820000
_cell_length_b   8.21016000
_cell_length_c   8.38475000
_cell_angle_alpha   90.00000000
_cell_angle_beta   95.15000000
_cell_angle_gamma   90.00000000
_symmetry_Int_Tables_number   1
_chemical_formula_structural   ZnPH7C2NO3
_chemical_formula_sum   'Zn4 P4 H28 C8 N4 O12'
_cell_volume   546.31763341
_cell_formula_units_Z   4
loop_
 _symmetry_equiv_pos_site_id
 _symmetry_equiv_pos_as_xyz
  1  'x, y, z'
loop_
 _atom_site_type_symbol
 _atom_site_label
 _atom_site_symmetry_multiplicity
 _atom_site_fract_x
 _atom_site_fract_y
 _atom_site_fract_z
 _atom_site_occupancy
  Zn  Zn0  1  0.78519000  0.53276000  0.10234000  1.0
  Zn  Zn1  1  0.28519000  0.96724000  0.10234000  1.0
  Zn  Zn2  1  0.21481000  0.46724000  0.89766000  1.0
  Zn  Zn3  1  0.71481000  0.03276000  0.89766000  1.0
  P  P4  1  0.41589000  0.60934000  0.19814000  1.0
  P  P5  1  0.91588000  0.89066000  0.19814000  1.0
  P  P6  1  0.58412000  0.39066000  0.80186000  1.0
  P  P7  1  0.08412000  0.10934000  0.80186000  1.0
  H  H8  1  0.36623000  0.65105000  0.35009000  1.0
  H  H9  1  0.86623000  0.84895000  0.35010000  1.0
  H  H10  1  0.63377000  0.34895000  0.64991000  1.0
  H  H11  1  0.13377000  0.15105000  0.64991000  1.0
  H  H12  1  0.93623000  0.26086000  0.13649000  1.0
  H  H13  1  0.43623000  0.23914000  0.13649000  1.0
  H  H14  1  0.06377000  0.73914000  0.86352000  1.0
  H  H15  1  0.56377000  0.76086000  0.86351000  1.0
  H  H16  1  0.06431000  0.40520000  0.20417000  1.0
  H  H17  1  0.56431000  0.09480000  0.20417000  1.0
  H  H18  1  0.93569000  0.59480000  0.79583000  1.0
  H  H19  1  0.43569000  0.90520000  0.79583000  1.0
  H  H20  1  0.00011000  0.21950000  0.41469000  1.0
  H  H21  1  0.50011000  0.28050000  0.41469000  1.0
  H  H22  1  0.99989000  0.78050000  0.58531000  1.0
  H  H23  1  0.49989000  0.71950000  0.58531000  1.0
  H  H24  1  0.78392000  0.25873000  0.36395000  1.0
  H  H25  1  0.28392000  0.24127000  0.36394000  1.0
  H  H26  1  0.21608000  0.74127000  0.63606000  1.0
  H  H27  1  0.71608000  0.75873000  0.63605000  1.0
  H  H28  1  0.88392000  0.40671000  0.60462000  1.0
  H  H29  1  0.38392000  0.09329000  0.60462000  1.0
  H  H30  1  0.11608000  0.59329000  0.39538000  1.0
  H  H31  1  0.61608000  0.90671000  0.39538000  1.0
  H  H32  1  0.81415000  0.54346000  0.45035000  1.0
  H  H33  1  0.31415000  0.95654000  0.45035000  1.0
  H  H34  1  0.18585000  0.45654000  0.54965000  1.0
  H  H35  1  0.68585000  0.04346000  0.54965000  1.0
  C  C36  1  0.90940000  0.31451000  0.37200000  1.0
  C  C37  1  0.40940000  0.18549000  0.37200000  1.0
  C  C38  1  0.09060000  0.68549000  0.62800000  1.0
  C  C39  1  0.59060000  0.81451000  0.62800000  1.0
  C  C40  1  0.91511000  0.45654000  0.48910000  1.0
  C  C41  1  0.41511000  0.04346000  0.48909000  1.0
  C  C42  1  0.08489000  0.54346000  0.51091000  1.0
  C  C43  1  0.58489000  0.95654000  0.51091000  1.0
  N  N44  1  0.94267000  0.36300000  0.20726000  1.0
  N  N45  1  0.44268000  0.13700000  0.20726000  1.0
  N  N46  1  0.05732000  0.63700000  0.79274000  1.0
  N  N47  1  0.55733000  0.86300000  0.79274000  1.0
  O  O48  1  0.59179000  0.53415000  0.23049000  1.0
  O  O49  1  0.09179000  0.96585000  0.23049000  1.0
  O  O50  1  0.40821000  0.46585000  0.76951000  1.0
  O  O51  1  0.90821000  0.03415000  0.76951000  1.0
  O  O52  1  0.28380000  0.48352000  0.12960000  1.0
  O  O53  1  0.78380000  0.01648000  0.12960000  1.0
  O  O54  1  0.71620000  0.51648000  0.87040000  1.0
  O  O55  1  0.21620000  0.98352000  0.87040000  1.0
  O  O56  1  0.41708000  0.76460000  0.09660000  1.0
  O  O57  1  0.91708000  0.73540000  0.09660000  1.0
  O  O58  1  0.58292000  0.23540000  0.90340000  1.0
  O  O59  1  0.08292000  0.26460000  0.90340000  1.0
