# generated using pymatgen
data_MnH10C12(N4O)2
_symmetry_space_group_name_H-M   'P 1'
_cell_length_a   11.23640000
_cell_length_b   13.05646066
_cell_length_c   13.05930000
_cell_angle_alpha   79.31482396
_cell_angle_beta   64.52260000
_cell_angle_gamma   64.52207108
_symmetry_Int_Tables_number   1
_chemical_formula_structural   MnH10C12(N4O)2
_chemical_formula_sum   'Mn4 H40 C48 N32 O8'
_cell_volume   1561.38653054
_cell_formula_units_Z   4
loop_
 _symmetry_equiv_pos_site_id
 _symmetry_equiv_pos_as_xyz
  1  'x, y, z'
loop_
 _atom_site_type_symbol
 _atom_site_label
 _atom_site_symmetry_multiplicity
 _atom_site_fract_x
 _atom_site_fract_y
 _atom_site_fract_z
 _atom_site_occupancy
  Mn  Mn0  1  0.99998000  0.50000000  0.50013000  1.0
  Mn  Mn1  1  0.00012000  0.00014000  0.99980000  1.0
  Mn  Mn2  1  0.99968000  0.00012000  0.50016000  1.0
  Mn  Mn3  1  0.50000000  0.49986000  0.99989000  1.0
  H  H4  1  0.28773000  0.53438000  0.31696000  1.0
  H  H5  1  0.18401000  0.37420000  0.93349000  1.0
  H  H6  1  0.95787000  0.26331000  0.17764000  1.0
  H  H7  1  0.01516000  0.28707000  0.02818000  1.0
  H  H8  1  0.86280000  0.39323000  0.12561000  1.0
  H  H9  1  0.13899000  0.96560000  0.18316000  1.0
  H  H10  1  0.49175000  0.12577000  0.56637000  1.0
  H  H11  1  0.39909000  0.23656000  0.32208000  1.0
  H  H12  1  0.33058000  0.21301000  0.47161000  1.0
  H  H13  1  0.38174000  0.10670000  0.37432000  1.0
  H  H14  1  0.10450000  0.18309000  0.53476000  1.0
  H  H15  1  0.61777000  0.56664000  0.37420000  1.0
  H  H16  1  0.63583000  0.32235000  0.26340000  1.0
  H  H17  1  0.54343000  0.47181000  0.28715000  1.0
  H  H18  1  0.48885000  0.37414000  0.39335000  1.0
  H  H19  1  0.82226000  0.31710000  0.96537000  1.0
  H  H20  1  0.55883000  0.93329000  0.12567000  1.0
  H  H21  1  0.22175000  0.17763000  0.23646000  1.0
  H  H22  1  0.30251000  0.02814000  0.21284000  1.0
  H  H23  1  0.25654000  0.12571000  0.10656000  1.0
  H  H24  1  0.71237000  0.46554000  0.68314000  1.0
  H  H25  1  0.81589000  0.62574000  0.06668000  1.0
  H  H26  1  0.04206000  0.73667000  0.82238000  1.0
  H  H27  1  0.98495000  0.71296000  0.97179000  1.0
  H  H28  1  0.13715000  0.60678000  0.87433000  1.0
  H  H29  1  0.86115000  0.03433000  0.81673000  1.0
  H  H30  1  0.50829000  0.87434000  0.43344000  1.0
  H  H31  1  0.60074000  0.76356000  0.67801000  1.0
  H  H32  1  0.66959000  0.78697000  0.52851000  1.0
  H  H33  1  0.61809000  0.89338000  0.62582000  1.0
  H  H34  1  0.89551000  0.81695000  0.46516000  1.0
  H  H35  1  0.38205000  0.43347000  0.62603000  1.0
  H  H36  1  0.36418000  0.67770000  0.73664000  1.0
  H  H37  1  0.45654000  0.52819000  0.71285000  1.0
  H  H38  1  0.51121000  0.62584000  0.60667000  1.0
  H  H39  1  0.17766000  0.68287000  0.03466000  1.0
  H  H40  1  0.44136000  0.06656000  0.87418000  1.0
  H  H41  1  0.77831000  0.82239000  0.76349000  1.0
  H  H42  1  0.69732000  0.97192000  0.78717000  1.0
  H  H43  1  0.74350000  0.87440000  0.89340000  1.0
  C  C44  1  0.24949000  0.50702000  0.26798000  1.0
  C  C45  1  0.12874000  0.44422000  0.22436000  1.0
  C  C46  1  0.06542000  0.37749000  0.11563000  1.0
  C  C47  1  0.16966000  0.39680000  0.01534000  1.0
  C  C48  1  0.26317000  0.44092000  0.01774000  1.0
  C  C49  1  0.97072000  0.32705000  0.11059000  1.0
  C  C50  1  0.02443000  0.99297000  0.23206000  1.0
  C  C51  1  0.79737000  0.05574000  0.27561000  1.0
  C  C52  1  0.55861000  0.12247000  0.38428000  1.0
  C  C53  1  0.58188000  0.10313000  0.48457000  1.0
  C  C54  1  0.72185000  0.05899000  0.48221000  1.0
  C  C55  1  0.40852000  0.17291000  0.38924000  1.0
  C  C56  1  0.01737000  0.23204000  0.50730000  1.0
  C  C57  1  0.85318000  0.27571000  0.44432000  1.0
  C  C58  1  0.68123000  0.38450000  0.37748000  1.0
  C  C59  1  0.68520000  0.48477000  0.39686000  1.0
  C  C60  1  0.78096000  0.48232000  0.44115000  1.0
  C  C61  1  0.58155000  0.38939000  0.32712000  1.0
  C  C62  1  0.75667000  0.26809000  0.99279000  1.0
  C  C63  1  0.57322000  0.22434000  0.05575000  1.0
  C  C64  1  0.44334000  0.11548000  0.12245000  1.0
  C  C65  1  0.56697000  0.01521000  0.10303000  1.0
  C  C66  1  0.70453000  0.01770000  0.05873000  1.0
  C  C67  1  0.29822000  0.11052000  0.17282000  1.0
  C  C68  1  0.75058000  0.49294000  0.73211000  1.0
  C  C69  1  0.87121000  0.55581000  0.77577000  1.0
  C  C70  1  0.93445000  0.62256000  0.88453000  1.0
  C  C71  1  0.83025000  0.60317000  0.98482000  1.0
  C  C72  1  0.73684000  0.55897000  0.98237000  1.0
  C  C73  1  0.02922000  0.67295000  0.88944000  1.0
  C  C74  1  0.97569000  0.00698000  0.76783000  1.0
  C  C75  1  0.20275000  0.94421000  0.72424000  1.0
  C  C76  1  0.44146000  0.87753000  0.61555000  1.0
  C  C77  1  0.41816000  0.89691000  0.51527000  1.0
  C  C78  1  0.27816000  0.94106000  0.51765000  1.0
  C  C79  1  0.59145000  0.82714000  0.61079000  1.0
  C  C80  1  0.98263000  0.76799000  0.49264000  1.0
  C  C81  1  0.14681000  0.72435000  0.55563000  1.0
  C  C82  1  0.31874000  0.61560000  0.62253000  1.0
  C  C83  1  0.31469000  0.51533000  0.60327000  1.0
  C  C84  1  0.21894000  0.51773000  0.55901000  1.0
  C  C85  1  0.41846000  0.61065000  0.67292000  1.0
  C  C86  1  0.24326000  0.73188000  0.00723000  1.0
  C  C87  1  0.42675000  0.77559000  0.94434000  1.0
  C  C88  1  0.55672000  0.88441000  0.87759000  1.0
  C  C89  1  0.43315000  0.98467000  0.89689000  1.0
  C  C90  1  0.29559000  0.98223000  0.94110000  1.0
  C  C91  1  0.70182000  0.88946000  0.82716000  1.0
  N  N92  1  0.30987000  0.50453000  0.15510000  1.0
  N  N93  1  0.13915000  0.47298000  0.31494000  1.0
  N  N94  1  0.04366000  0.40045000  0.22106000  1.0
  N  N95  1  0.23108000  0.46641000  0.12809000  1.0
  N  N96  1  0.96946000  0.99538000  0.34492000  1.0
  N  N97  1  0.92709000  0.02705000  0.18505000  1.0
  N  N98  1  0.66523000  0.09952000  0.27886000  1.0
  N  N99  1  0.82560000  0.03353000  0.37188000  1.0
  N  N100  1  0.96486000  0.34493000  0.50487000  1.0
  N  N101  1  0.95413000  0.18510000  0.47310000  1.0
  N  N102  1  0.76489000  0.27902000  0.40045000  1.0
  N  N103  1  0.85918000  0.37195000  0.46664000  1.0
  N  N104  1  0.81465000  0.15519000  0.99507000  1.0
  N  N105  1  0.61232000  0.31497000  0.02707000  1.0
  N  N106  1  0.44441000  0.22097000  0.09962000  1.0
  N  N107  1  0.69780000  0.12810000  0.03331000  1.0
  N  N108  1  0.69021000  0.49538000  0.84498000  1.0
  N  N109  1  0.86084000  0.52707000  0.68517000  1.0
  N  N110  1  0.95621000  0.59965000  0.77907000  1.0
  N  N111  1  0.76895000  0.53353000  0.87200000  1.0
  N  N112  1  0.03062000  0.00459000  0.65498000  1.0
  N  N113  1  0.07305000  0.97288000  0.81481000  1.0
  N  N114  1  0.33485000  0.90043000  0.72098000  1.0
  N  N115  1  0.17448000  0.96646000  0.62798000  1.0
  N  N116  1  0.03512000  0.65509000  0.49512000  1.0
  N  N117  1  0.04586000  0.81495000  0.52681000  1.0
  N  N118  1  0.23514000  0.72105000  0.59946000  1.0
  N  N119  1  0.14078000  0.62808000  0.53339000  1.0
  N  N120  1  0.18533000  0.84479000  0.00484000  1.0
  N  N121  1  0.38760000  0.68497000  0.97304000  1.0
  N  N122  1  0.55558000  0.77894000  0.90051000  1.0
  N  N123  1  0.30219000  0.87185000  0.96663000  1.0
  O  O124  1  0.36654000  0.45993000  0.93757000  1.0
  O  O125  1  0.76409000  0.03986000  0.56238000  1.0
  O  O126  1  0.80417000  0.56238000  0.46036000  1.0
  O  O127  1  0.82700000  0.93765000  0.03949000  1.0
  O  O128  1  0.63349000  0.53985000  0.06242000  1.0
  O  O129  1  0.23574000  0.96024000  0.43760000  1.0
  O  O130  1  0.19576000  0.43760000  0.53990000  1.0
  O  O131  1  0.17321000  0.06239000  0.96018000  1.0
