# generated using pymatgen
data_AlH6C24N3(OF)6
_symmetry_space_group_name_H-M   'P 1'
_cell_length_a   3.96569000
_cell_length_b   15.80480000
_cell_length_c   15.83060000
_cell_angle_alpha   60.16120000
_cell_angle_beta   84.99520000
_cell_angle_gamma   85.32920000
_symmetry_Int_Tables_number   1
_chemical_formula_structural   AlH6C24N3(OF)6
_chemical_formula_sum   'Al1 H6 C24 N3 O6 F6'
_cell_volume   856.56262138
_cell_formula_units_Z   1
loop_
 _symmetry_equiv_pos_site_id
 _symmetry_equiv_pos_as_xyz
  1  'x, y, z'
loop_
 _atom_site_type_symbol
 _atom_site_label
 _atom_site_symmetry_multiplicity
 _atom_site_fract_x
 _atom_site_fract_y
 _atom_site_fract_z
 _atom_site_occupancy
  Al  Al0  1  0.00004000  0.49946000  0.50019000  1.0
  H  H1  1  0.60349000  0.40925000  0.13535000  1.0
  H  H2  1  0.60410000  0.13646000  0.40861000  1.0
  H  H3  1  0.55856000  0.41016000  0.94983000  1.0
  H  H4  1  0.50822000  0.13684000  0.95126000  1.0
  H  H5  1  0.50851000  0.95016000  0.13735000  1.0
  H  H6  1  0.56998000  0.95093000  0.40861000  1.0
  C  C7  1  0.48105000  0.64903000  0.42696000  1.0
  C  C8  1  0.54871000  0.42593000  0.42317000  1.0
  C  C9  1  0.47653000  0.42363000  0.64975000  1.0
  C  C10  1  0.56215000  0.21346000  0.06932000  1.0
  C  C11  1  0.59912000  0.21293000  0.21214000  1.0
  C  C12  1  0.56553000  0.06984000  0.21255000  1.0
  C  C13  1  0.59252000  0.41851000  0.26662000  1.0
  C  C14  1  0.60299000  0.36915000  0.21456000  1.0
  C  C15  1  0.60589000  0.26688000  0.26595000  1.0
  C  C16  1  0.60035000  0.21582000  0.36816000  1.0
  C  C17  1  0.58392000  0.26851000  0.41696000  1.0
  C  C18  1  0.57922000  0.37074000  0.36867000  1.0
  C  C19  1  0.53669000  0.36984000  0.91155000  1.0
  C  C20  1  0.50632000  0.41882000  0.81149000  1.0
  C  C21  1  0.48265000  0.37037000  0.75864000  1.0
  C  C22  1  0.48522000  0.26834000  0.81225000  1.0
  C  C23  1  0.51005000  0.21612000  0.91235000  1.0
  C  C24  1  0.53797000  0.26753000  0.96232000  1.0
  C  C25  1  0.51104000  0.91173000  0.21650000  1.0
  C  C26  1  0.48173000  0.81141000  0.26937000  1.0
  C  C27  1  0.49071000  0.75773000  0.37132000  1.0
  C  C28  1  0.52495000  0.81169000  0.41839000  1.0
  C  C29  1  0.54890000  0.91208000  0.36885000  1.0
  C  C30  1  0.54397000  0.96243000  0.26685000  1.0
  N  N31  1  0.58887000  0.26533000  0.11453000  1.0
  N  N32  1  0.59265000  0.11506000  0.26439000  1.0
  N  N33  1  0.54824000  0.11566000  0.11516000  1.0
  O  O34  1  0.72750000  0.40500000  0.60503000  1.0
  O  O35  1  0.70273000  0.60413000  0.48997000  1.0
  O  O36  1  0.77208000  0.48689000  0.40454000  1.0
  O  O37  1  0.22759000  0.48257000  0.61066000  1.0
  O  O38  1  0.29696000  0.40733000  0.48429000  1.0
  O  O39  1  0.25683000  0.60898000  0.40782000  1.0
  F  F40  1  0.57761000  0.21925000  0.51565000  1.0
  F  F41  1  0.58223000  0.51737000  0.21697000  1.0
  F  F42  1  0.50756000  0.51761000  0.76207000  1.0
  F  F43  1  0.45715000  0.21913000  0.76357000  1.0
  F  F44  1  0.45416000  0.76299000  0.22005000  1.0
  F  F45  1  0.52599000  0.76392000  0.51689000  1.0
