# generated using pymatgen
data_Cu3H4(CO)10
_symmetry_space_group_name_H-M   'P 1'
_cell_length_a   5.03034000
_cell_length_b   5.86271000
_cell_length_c   9.69884000
_cell_angle_alpha   98.36830000
_cell_angle_beta   91.28490000
_cell_angle_gamma   95.40400000
_symmetry_Int_Tables_number   1
_chemical_formula_structural   Cu3H4(CO)10
_chemical_formula_sum   'Cu3 H4 C10 O10'
_cell_volume   281.53984733
_cell_formula_units_Z   1
loop_
 _symmetry_equiv_pos_site_id
 _symmetry_equiv_pos_as_xyz
  1  'x, y, z'
loop_
 _atom_site_type_symbol
 _atom_site_label
 _atom_site_symmetry_multiplicity
 _atom_site_fract_x
 _atom_site_fract_y
 _atom_site_fract_z
 _atom_site_occupancy
  Cu  Cu0  1  0.00000000  0.50000000  0.00000000  1.0
  Cu  Cu1  1  0.18570000  0.04113000  0.12543000  1.0
  Cu  Cu2  1  0.81430000  0.95887000  0.87457000  1.0
  H  H3  1  0.22178000  0.83018000  0.54848000  1.0
  H  H4  1  0.77822000  0.16982000  0.45152000  1.0
  H  H5  1  0.71679000  0.79138000  0.09362000  1.0
  H  H6  1  0.28321000  0.20861000  0.90638000  1.0
  C  C7  1  0.35299000  0.74665000  0.27728000  1.0
  C  C8  1  0.64701000  0.25336000  0.72272000  1.0
  C  C9  1  0.67623000  0.35647000  0.22040000  1.0
  C  C10  1  0.32376000  0.64353000  0.77959000  1.0
  C  C11  1  0.42590000  0.62002000  0.39283000  1.0
  C  C12  1  0.57410000  0.37997000  0.60717000  1.0
  C  C13  1  0.58154000  0.43225000  0.36412000  1.0
  C  C14  1  0.41845000  0.56775000  0.63588000  1.0
  C  C15  1  0.34437000  0.68588000  0.52848000  1.0
  C  C16  1  0.65563000  0.31412000  0.47152000  1.0
  O  O17  1  0.21514000  0.92084000  0.30349000  1.0
  O  O18  1  0.78486000  0.07916000  0.69652000  1.0
  O  O19  1  0.43214000  0.67862000  0.15611000  1.0
  O  O20  1  0.56787000  0.32139000  0.84389000  1.0
  O  O21  1  0.90687000  0.44625000  0.19255000  1.0
  O  O22  1  0.09313000  0.55375000  0.80745000  1.0
  O  O23  1  0.54799000  0.19358000  0.13763000  1.0
  O  O24  1  0.45201000  0.80642000  0.86236000  1.0
  O  O25  1  0.88521000  0.81286000  0.04185000  1.0
  O  O26  1  0.11479000  0.18714000  0.95815000  1.0
