# generated using pymatgen
data_Fe3Cu2TeH10C21N2O9
_symmetry_space_group_name_H-M   'P 1'
_cell_length_a   10.04910000
_cell_length_b   11.09860000
_cell_length_c   11.97310000
_cell_angle_alpha   75.17710000
_cell_angle_beta   75.94800000
_cell_angle_gamma   76.70700000
_symmetry_Int_Tables_number   1
_chemical_formula_structural   Fe3Cu2TeH10C21N2O9
_chemical_formula_sum   'Fe6 Cu4 Te2 H20 C42 N4 O18'
_cell_volume   1232.08794203
_cell_formula_units_Z   2
loop_
 _symmetry_equiv_pos_site_id
 _symmetry_equiv_pos_as_xyz
  1  'x, y, z'
loop_
 _atom_site_type_symbol
 _atom_site_label
 _atom_site_symmetry_multiplicity
 _atom_site_fract_x
 _atom_site_fract_y
 _atom_site_fract_z
 _atom_site_occupancy
  Fe  Fe0  1  0.64975000  0.17559000  0.24371000  1.0
  Fe  Fe1  1  0.35025000  0.82441000  0.75629000  1.0
  Fe  Fe2  1  0.90368000  0.20266000  0.26742000  1.0
  Fe  Fe3  1  0.09632000  0.79734000  0.73258000  1.0
  Fe  Fe4  1  0.68250000  0.24001000  0.43717000  1.0
  Fe  Fe5  1  0.31750000  0.75999000  0.56284000  1.0
  Cu  Cu6  1  0.82477000  0.25657000  0.07294000  1.0
  Cu  Cu7  1  0.17523000  0.74343000  0.92706000  1.0
  Cu  Cu8  1  0.70008000  0.38991000  0.24200000  1.0
  Cu  Cu9  1  0.29992000  0.61009000  0.75800000  1.0
  Te  Te10  1  0.77983000  0.02818000  0.39272000  1.0
  Te  Te11  1  0.22017000  0.97182000  0.60729000  1.0
  H  H12  1  0.08197000  0.20358000  0.90430000  1.0
  H  H13  1  0.91803000  0.79642000  0.09570000  1.0
  H  H14  1  0.17175000  0.28034000  0.69177000  1.0
  H  H15  1  0.82824000  0.71966000  0.30823000  1.0
  H  H16  1  0.76576000  0.51487000  0.67152000  1.0
  H  H17  1  0.23423000  0.48513000  0.32849000  1.0
  H  H18  1  0.69294000  0.42988000  0.88353000  1.0
  H  H19  1  0.30707000  0.57012000  0.11647000  1.0
  H  H20  1  0.13787000  0.40441000  0.50518000  1.0
  H  H21  1  0.86212000  0.59558000  0.49481000  1.0
  H  H22  1  0.80913000  0.54919000  0.01432000  1.0
  H  H23  1  0.19088000  0.45081000  0.98568000  1.0
  H  H24  1  0.74991000  0.76813000  0.90388000  1.0
  H  H25  1  0.25009000  0.23187000  0.09612000  1.0
  H  H26  1  0.41688000  0.83340000  0.20001000  1.0
  H  H27  1  0.58312000  0.16660000  0.79999000  1.0
  H  H28  1  0.49006000  0.61245000  0.29859000  1.0
  H  H29  1  0.50994000  0.38755000  0.70141000  1.0
  H  H30  1  0.61282000  0.97534000  0.89119000  1.0
  H  H31  1  0.38718000  0.02466000  0.10881000  1.0
  C  C32  1  0.49383000  0.11694000  0.29550000  1.0
  C  C33  1  0.50617000  0.88306000  0.70450000  1.0
  C  C34  1  0.72547000  0.07561000  0.14340000  1.0
  C  C35  1  0.27454000  0.92439000  0.85660000  1.0
  C  C36  1  0.56533000  0.31859000  0.16191000  1.0
  C  C37  1  0.43466000  0.68141000  0.83810000  1.0
  C  C38  1  0.02476000  0.09465000  0.19131000  1.0
  C  C39  1  0.97524000  0.90534000  0.80868000  1.0
  C  C40  1  0.93737000  0.35177000  0.18033000  1.0
  C  C41  1  0.06263000  0.64822000  0.81968000  1.0
  C  C42  1  0.00402000  0.20913000  0.36537000  1.0
  C  C43  1  0.99599000  0.79087000  0.63463000  1.0
  C  C44  1  0.67098000  0.40542000  0.42325000  1.0
  C  C45  1  0.32903000  0.59459000  0.57674000  1.0
  C  C46  1  0.75145000  0.20067000  0.56527000  1.0
  C  C47  1  0.24855000  0.79933000  0.43473000  1.0
  C  C48  1  0.50982000  0.22574000  0.50399000  1.0
  C  C49  1  0.49018000  0.77428000  0.49601000  1.0
  C  C50  1  0.01529000  0.27292000  0.84987000  1.0
  C  C51  1  0.98471000  0.72708000  0.15012000  1.0
  C  C52  1  0.06462000  0.31595000  0.73086000  1.0
  C  C53  1  0.93537000  0.68405000  0.26913000  1.0
  C  C54  1  0.97785000  0.40652000  0.66131000  1.0
  C  C55  1  0.02215000  0.59348000  0.33869000  1.0
  C  C56  1  0.84066000  0.44666000  0.71896000  1.0
  C  C57  1  0.15933000  0.55334000  0.28104000  1.0
  C  C58  1  0.79837000  0.39900000  0.83806000  1.0
  C  C59  1  0.20162000  0.60100000  0.16195000  1.0
  C  C60  1  0.03320000  0.45257000  0.53718000  1.0
  C  C61  1  0.96678000  0.54743000  0.46282000  1.0
  C  C62  1  0.72313000  0.61478000  0.05308000  1.0
  C  C63  1  0.27688000  0.38522000  0.94691000  1.0
  C  C64  1  0.68992000  0.73825000  0.99180000  1.0
  C  C65  1  0.31008000  0.26175000  0.00820000  1.0
  C  C66  1  0.57974000  0.82347000  0.04261000  1.0
  C  C67  1  0.42026000  0.17653000  0.95738000  1.0
  C  C68  1  0.50583000  0.77505000  0.15531000  1.0
  C  C69  1  0.49417000  0.22495000  0.84469000  1.0
  C  C70  1  0.54538000  0.65057000  0.21101000  1.0
  C  C71  1  0.45462000  0.34943000  0.78899000  1.0
  C  C72  1  0.54860000  0.95373000  0.97894000  1.0
  C  C73  1  0.45140000  0.04627000  0.02105000  1.0
  N  N74  1  0.88390000  0.31364000  0.90456000  1.0
  N  N75  1  0.11609000  0.68636000  0.09545000  1.0
  N  N76  1  0.65375000  0.57011000  0.16212000  1.0
  N  N77  1  0.34626000  0.42989000  0.83787000  1.0
  O  O78  1  0.38911000  0.07830000  0.32148000  1.0
  O  O79  1  0.61089000  0.92170000  0.67851000  1.0
  O  O80  1  0.77112000  0.99648000  0.08853000  1.0
  O  O81  1  0.22888000  0.00352000  0.91148000  1.0
  O  O82  1  0.49111000  0.39374000  0.10439000  1.0
  O  O83  1  0.50889000  0.60626000  0.89561000  1.0
  O  O84  1  0.10849000  0.02087000  0.14579000  1.0
  O  O85  1  0.89150000  0.97912000  0.85421000  1.0
  O  O86  1  0.98986000  0.44050000  0.12869000  1.0
  O  O87  1  0.01016000  0.55950000  0.87130000  1.0
  O  O88  1  0.07664000  0.21791000  0.42458000  1.0
  O  O89  1  0.92336000  0.78209000  0.57541000  1.0
  O  O90  1  0.66326000  0.50507000  0.44511000  1.0
  O  O91  1  0.33676000  0.49493000  0.55488000  1.0
  O  O92  1  0.79445000  0.17728000  0.65228000  1.0
  O  O93  1  0.20556000  0.82273000  0.34772000  1.0
  O  O94  1  0.39575000  0.21505000  0.55249000  1.0
  O  O95  1  0.60425000  0.78496000  0.44751000  1.0
