# generated using pymatgen
data_CeH16C9O8
_symmetry_space_group_name_H-M   'P 1'
_cell_length_a   8.92029000
_cell_length_b   9.23093293
_cell_length_c   10.32820000
_cell_angle_alpha   102.12402954
_cell_angle_beta   100.50350000
_cell_angle_gamma   114.92802907
_symmetry_Int_Tables_number   1
_chemical_formula_structural   CeH16C9O8
_chemical_formula_sum   'Ce2 H32 C18 O16'
_cell_volume   717.98236258
_cell_formula_units_Z   2
loop_
 _symmetry_equiv_pos_site_id
 _symmetry_equiv_pos_as_xyz
  1  'x, y, z'
loop_
 _atom_site_type_symbol
 _atom_site_label
 _atom_site_symmetry_multiplicity
 _atom_site_fract_x
 _atom_site_fract_y
 _atom_site_fract_z
 _atom_site_occupancy
  Ce  Ce0  1  0.23161000  0.95447000  0.98576000  1.0
  Ce  Ce1  1  0.77078000  0.04647000  0.01444000  1.0
  H  H2  1  0.45082000  0.57174000  0.14727000  1.0
  H  H3  1  0.48301000  0.53400000  0.30891000  1.0
  H  H4  1  0.72977000  0.58819000  0.12893000  1.0
  H  H5  1  0.76941000  0.54650000  0.28698000  1.0
  H  H6  1  0.71991000  0.84723000  0.25218000  1.0
  H  H7  1  0.76144000  0.80786000  0.41075000  1.0
  H  H8  1  0.05136000  0.84144000  0.39446000  1.0
  H  H9  1  0.02776000  0.02295000  0.39202000  1.0
  H  H10  1  0.54000000  0.84457000  0.64551000  1.0
  H  H11  1  0.32202000  0.73811000  0.53030000  1.0
  H  H12  1  0.55402000  0.12310000  0.64652000  1.0
  H  H13  1  0.34223000  0.01407000  0.52555000  1.0
  H  H14  1  0.97579000  0.67445000  0.75168000  1.0
  H  H15  1  0.84454000  0.71939000  0.81426000  1.0
  H  H16  1  0.20545000  0.65261000  0.06183000  1.0
  H  H17  1  0.35784000  0.68977000  0.99042000  1.0
  H  H18  1  0.54846000  0.42795000  0.85239000  1.0
  H  H19  1  0.51652000  0.46574000  0.69075000  1.0
  H  H20  1  0.26937000  0.41112000  0.87038000  1.0
  H  H21  1  0.22996000  0.45314000  0.71243000  1.0
  H  H22  1  0.28008000  0.15274000  0.74701000  1.0
  H  H23  1  0.23822000  0.19214000  0.58844000  1.0
  H  H24  1  0.94797000  0.15744000  0.60483000  1.0
  H  H25  1  0.97225000  0.97632000  0.60751000  1.0
  H  H26  1  0.46104000  0.15639000  0.35592000  1.0
  H  H27  1  0.67903000  0.26209000  0.47092000  1.0
  H  H28  1  0.44629000  0.87728000  0.35419000  1.0
  H  H29  1  0.65804000  0.98584000  0.47508000  1.0
  H  H30  1  0.02349000  0.32493000  0.24990000  1.0
  H  H31  1  0.15496000  0.28105000  0.18643000  1.0
  H  H32  1  0.79311000  0.34687000  0.93633000  1.0
  H  H33  1  0.64246000  0.31021000  0.00931000  1.0
  C  C34  1  0.41980000  0.32862000  0.13186000  1.0
  C  C35  1  0.51060000  0.51515000  0.20903000  1.0
  C  C36  1  0.70593000  0.60447000  0.23034000  1.0
  C  C37  1  0.78567000  0.79178000  0.30924000  1.0
  C  C38  1  0.98086000  0.88987000  0.33321000  1.0
  C  C39  1  0.03101000  0.89174000  0.20121000  1.0
  C  C40  1  0.35531000  0.87870000  0.73606000  1.0
  C  C41  1  0.42146000  0.85461000  0.61326000  1.0
  C  C42  1  0.46194000  0.00645000  0.56013000  1.0
  C  C43  1  0.57947000  0.67106000  0.86780000  1.0
  C  C44  1  0.48874000  0.48452000  0.79054000  1.0
  C  C45  1  0.29337000  0.39510000  0.76901000  1.0
  C  C46  1  0.21402000  0.20793000  0.68995000  1.0
  C  C47  1  0.01896000  0.10942000  0.66612000  1.0
  C  C48  1  0.96973000  0.10805000  0.79851000  1.0
  C  C49  1  0.64526000  0.12224000  0.26475000  1.0
  C  C50  1  0.57934000  0.14580000  0.38785000  1.0
  C  C51  1  0.53849000  0.99373000  0.44067000  1.0
  O  O52  1  0.30937000  0.22671000  0.17717000  1.0
  O  O53  1  0.44896000  0.27075000  0.02089000  1.0
  O  O54  1  0.15338000  0.85980000  0.18546000  1.0
  O  O55  1  0.95353000  0.93160000  0.10896000  1.0
  O  O56  1  0.19473000  0.83067000  0.71881000  1.0
  O  O57  1  0.46417000  0.95714000  0.85967000  1.0
  O  O58  1  0.94029000  0.69038000  0.83544000  1.0
  O  O59  1  0.24176000  0.68370000  0.98388000  1.0
  O  O60  1  0.68959000  0.77292000  0.82226000  1.0
  O  O61  1  0.55051000  0.72878000  0.97888000  1.0
  O  O62  1  0.84655000  0.13890000  0.81424000  1.0
  O  O63  1  0.04858000  0.06990000  0.89119000  1.0
  O  O64  1  0.80569000  0.16992000  0.28166000  1.0
  O  O65  1  0.53618000  0.04452000  0.14130000  1.0
  O  O66  1  0.05933000  0.31045000  0.16612000  1.0
  O  O67  1  0.75837000  0.31639000  0.01496000  1.0
