# generated using pymatgen
data_Co2H18C8Cl4O3
_symmetry_space_group_name_H-M   'P 1'
_cell_length_a   8.41512000
_cell_length_b   10.60080000
_cell_length_c   11.73610000
_cell_angle_alpha   76.33830000
_cell_angle_beta   78.11730000
_cell_angle_gamma   68.60280000
_symmetry_Int_Tables_number   1
_chemical_formula_structural   Co2H18C8Cl4O3
_chemical_formula_sum   'Co4 H36 C16 Cl8 O6'
_cell_volume   938.86887089
_cell_formula_units_Z   2
loop_
 _symmetry_equiv_pos_site_id
 _symmetry_equiv_pos_as_xyz
  1  'x, y, z'
loop_
 _atom_site_type_symbol
 _atom_site_label
 _atom_site_symmetry_multiplicity
 _atom_site_fract_x
 _atom_site_fract_y
 _atom_site_fract_z
 _atom_site_occupancy
  Co  Co0  1  0.00000000  0.00000000  0.00000000  1.0
  Co  Co1  1  0.90955000  0.21931000  0.76555000  1.0
  Co  Co2  1  0.09045000  0.78069000  0.23445000  1.0
  Co  Co3  1  0.00000000  0.50000000  0.50000000  1.0
  H  H4  1  0.32772000  0.34879000  0.44251000  1.0
  H  H5  1  0.67228000  0.65121000  0.55749000  1.0
  H  H6  1  0.30192000  0.49951000  0.36501000  1.0
  H  H7  1  0.69808000  0.50049000  0.63498000  1.0
  H  H8  1  0.38438000  0.94254000  0.03989000  1.0
  H  H9  1  0.61563000  0.05746000  0.96011000  1.0
  H  H10  1  0.39190000  0.02138000  0.88669000  1.0
  H  H11  1  0.60810000  0.97862000  0.11331000  1.0
  H  H12  1  0.58194000  0.72381000  0.99629000  1.0
  H  H13  1  0.41806000  0.27619000  0.00371000  1.0
  H  H14  1  0.66509000  0.83314000  0.87836000  1.0
  H  H15  1  0.33491000  0.16686000  0.12163000  1.0
  H  H16  1  0.55702000  0.64346000  0.82318000  1.0
  H  H17  1  0.44297000  0.35654000  0.17682000  1.0
  H  H18  1  0.48703000  0.81629000  0.74319000  1.0
  H  H19  1  0.51296000  0.18371000  0.25681000  1.0
  H  H20  1  0.20875000  0.78984000  0.82533000  1.0
  H  H21  1  0.79124000  0.21017000  0.17467000  1.0
  H  H22  1  0.28994000  0.68240000  0.95841000  1.0
  H  H23  1  0.71005000  0.31760000  0.04159000  1.0
  H  H24  1  0.77305000  0.65351000  0.28633000  1.0
  H  H25  1  0.22695000  0.34648000  0.71367000  1.0
  H  H26  1  0.68355000  0.52045000  0.35625000  1.0
  H  H27  1  0.31645000  0.47954000  0.64375000  1.0
  H  H28  1  0.73196000  0.44008000  0.17875000  1.0
  H  H29  1  0.26804000  0.55992000  0.82126000  1.0
  H  H30  1  0.79073000  0.58558000  0.10348000  1.0
  H  H31  1  0.20926000  0.41442000  0.89652000  1.0
  H  H32  1  0.03024000  0.32342000  0.11160000  1.0
  H  H33  1  0.96976000  0.67658000  0.88840000  1.0
  H  H34  1  0.09037000  0.46685000  0.11667000  1.0
  H  H35  1  0.90963000  0.53316000  0.88333000  1.0
  H  H36  1  0.99180000  0.26469000  0.33039000  1.0
  H  H37  1  0.00820000  0.73530000  0.66961000  1.0
  H  H38  1  0.17784000  0.31710000  0.30153000  1.0
  H  H39  1  0.82216000  0.68289000  0.69847000  1.0
  C  C40  1  0.39714000  0.92533000  0.94957000  1.0
  C  C41  1  0.60286000  0.07468000  0.05043000  1.0
  C  C42  1  0.55112000  0.80314000  0.91726000  1.0
  C  C43  1  0.44888000  0.19686000  0.08274000  1.0
  C  C44  1  0.48435000  0.75119000  0.83144000  1.0
  C  C45  1  0.51564000  0.24881000  0.16856000  1.0
  C  C46  1  0.29964000  0.76924000  0.88766000  1.0
  C  C47  1  0.70036000  0.23076000  0.11234000  1.0
  C  C48  1  0.79031000  0.54435000  0.29484000  1.0
  C  C49  1  0.20969000  0.45565000  0.70517000  1.0
  C  C50  1  0.81798000  0.49756000  0.17611000  1.0
  C  C51  1  0.18202000  0.50245000  0.82389000  1.0
  C  C52  1  0.00767000  0.40510000  0.16154000  1.0
  C  C53  1  0.99232000  0.59490000  0.83846000  1.0
  C  C54  1  0.04257000  0.34944000  0.28865000  1.0
  C  C55  1  0.95743000  0.65056000  0.71135000  1.0
  Cl  Cl56  1  0.05573000  0.21326000  0.90950000  1.0
  Cl  Cl57  1  0.94427000  0.78675000  0.09050000  1.0
  Cl  Cl58  1  0.90809000  0.00061000  0.81014000  1.0
  Cl  Cl59  1  0.09191000  0.99939000  0.18986000  1.0
  Cl  Cl60  1  0.64606000  0.37596000  0.78611000  1.0
  Cl  Cl61  1  0.35394000  0.62404000  0.21388000  1.0
  Cl  Cl62  1  0.05306000  0.25618000  0.58331000  1.0
  Cl  Cl63  1  0.94695000  0.74381000  0.41669000  1.0
  O  O64  1  0.26536000  0.44622000  0.44213000  1.0
  O  O65  1  0.73465000  0.55377000  0.55787000  1.0
  O  O66  1  0.24630000  0.89137000  0.94220000  1.0
  O  O67  1  0.75369000  0.10864000  0.05780000  1.0
  O  O68  1  0.95007000  0.46725000  0.34729000  1.0
  O  O69  1  0.04993000  0.53274000  0.65271000  1.0
