# generated using pymatgen
data_ZnH5C6N5O
_symmetry_space_group_name_H-M   'P 1'
_cell_length_a   6.54010000
_cell_length_b   14.55840000
_cell_length_c   16.33920000
_cell_angle_alpha   90.00010000
_cell_angle_beta   90.00000000
_cell_angle_gamma   90.00000000
_symmetry_Int_Tables_number   1
_chemical_formula_structural   ZnH5C6N5O
_chemical_formula_sum   'Zn8 H40 C48 N40 O8'
_cell_volume   1555.71065195
_cell_formula_units_Z   8
loop_
 _symmetry_equiv_pos_site_id
 _symmetry_equiv_pos_as_xyz
  1  'x, y, z'
loop_
 _atom_site_type_symbol
 _atom_site_label
 _atom_site_symmetry_multiplicity
 _atom_site_fract_x
 _atom_site_fract_y
 _atom_site_fract_z
 _atom_site_occupancy
  Zn  Zn0  1  0.22963000  0.77791000  0.78859000  1.0
  Zn  Zn1  1  0.22963000  0.27791000  0.71141000  1.0
  Zn  Zn2  1  0.27037000  0.77791000  0.28859000  1.0
  Zn  Zn3  1  0.72963000  0.72209000  0.78859000  1.0
  Zn  Zn4  1  0.77037000  0.22209000  0.21141000  1.0
  Zn  Zn5  1  0.77037000  0.72209000  0.28859000  1.0
  Zn  Zn6  1  0.72963000  0.22209000  0.71141000  1.0
  Zn  Zn7  1  0.27037000  0.27791000  0.21141000  1.0
  H  H8  1  0.12083000  0.21605000  0.90437000  1.0
  H  H9  1  0.12083000  0.71605000  0.59563000  1.0
  H  H10  1  0.37917000  0.21605000  0.40437000  1.0
  H  H11  1  0.62083000  0.28395000  0.90437000  1.0
  H  H12  1  0.87917000  0.78395000  0.09563000  1.0
  H  H13  1  0.87917000  0.28395000  0.40437000  1.0
  H  H14  1  0.62083000  0.78395000  0.59563000  1.0
  H  H15  1  0.37917000  0.71605000  0.09563000  1.0
  H  H16  1  0.16149000  0.31057000  0.03114000  1.0
  H  H17  1  0.16149000  0.81057000  0.46886000  1.0
  H  H18  1  0.33851000  0.31057000  0.53114000  1.0
  H  H19  1  0.66149000  0.18943000  0.03114000  1.0
  H  H20  1  0.83851000  0.68943000  0.96886000  1.0
  H  H21  1  0.83850000  0.18943000  0.53114000  1.0
  H  H22  1  0.66149000  0.68943000  0.46886000  1.0
  H  H23  1  0.33850000  0.81057000  0.96886000  1.0
  H  H24  1  0.32915000  0.08263000  0.16827000  1.0
  H  H25  1  0.32915000  0.58262000  0.33173000  1.0
  H  H26  1  0.17085000  0.08263000  0.66827000  1.0
  H  H27  1  0.82915000  0.41737000  0.16827000  1.0
  H  H28  1  0.67085000  0.91738000  0.83173000  1.0
  H  H29  1  0.67085000  0.41738000  0.66827000  1.0
  H  H30  1  0.82915000  0.91737000  0.33173000  1.0
  H  H31  1  0.17085000  0.58262000  0.83173000  1.0
  H  H32  1  0.30086000  0.97976000  0.04820000  1.0
  H  H33  1  0.30086000  0.47976000  0.45180000  1.0
  H  H34  1  0.19914000  0.97976000  0.54820000  1.0
  H  H35  1  0.80086000  0.52024000  0.04820000  1.0
  H  H36  1  0.69914000  0.02024000  0.95180000  1.0
  H  H37  1  0.69915000  0.52024000  0.54820000  1.0
  H  H38  1  0.80086000  0.02024000  0.45180000  1.0
  H  H39  1  0.19914000  0.47976000  0.95180000  1.0
  H  H40  1  0.52695000  0.83682000  0.71354000  1.0
  H  H41  1  0.52695000  0.33682000  0.78646000  1.0
  H  H42  1  0.97305000  0.83682000  0.21354000  1.0
  H  H43  1  0.02695000  0.66318000  0.71354000  1.0
  H  H44  1  0.47305000  0.16318000  0.28646000  1.0
  H  H45  1  0.47305000  0.66318000  0.21354000  1.0
  H  H46  1  0.02695000  0.16318000  0.78646000  1.0
  H  H47  1  0.97305000  0.33682000  0.28646000  1.0
  C  C48  1  0.20714000  0.08909000  0.96600000  1.0
  C  C49  1  0.20714000  0.58909000  0.53400000  1.0
  C  C50  1  0.29286000  0.08910000  0.46600000  1.0
  C  C51  1  0.70714000  0.41091000  0.96600000  1.0
  C  C52  1  0.79286000  0.91090000  0.03400000  1.0
  C  C53  1  0.79286000  0.41090000  0.46600000  1.0
  C  C54  1  0.70714000  0.91091000  0.53400000  1.0
  C  C55  1  0.29286000  0.58910000  0.03400000  1.0
  C  C56  1  0.18293000  0.02885000  0.89549000  1.0
  C  C57  1  0.18292000  0.52885000  0.60451000  1.0
  C  C58  1  0.31707000  0.02885000  0.39549000  1.0
  C  C59  1  0.68293000  0.47115000  0.89549000  1.0
  C  C60  1  0.81707000  0.97115000  0.10451000  1.0
  C  C61  1  0.81707000  0.47115000  0.39549000  1.0
  C  C62  1  0.68293000  0.97115000  0.60451000  1.0
  C  C63  1  0.31707000  0.52885000  0.10451000  1.0
  C  C64  1  0.16765000  0.18375000  0.96161000  1.0
  C  C65  1  0.16765000  0.68375000  0.53839000  1.0
  C  C66  1  0.33235000  0.18375000  0.46161000  1.0
  C  C67  1  0.66765000  0.31625000  0.96161000  1.0
  C  C68  1  0.83235000  0.81625000  0.03839000  1.0
  C  C69  1  0.83235000  0.31625000  0.46161000  1.0
  C  C70  1  0.66765000  0.81625000  0.53839000  1.0
  C  C71  1  0.33235000  0.68375000  0.03839000  1.0
  C  C72  1  0.18750000  0.23662000  0.03183000  1.0
  C  C73  1  0.18750000  0.73662000  0.46817000  1.0
  C  C74  1  0.31250000  0.23662000  0.53183000  1.0
  C  C75  1  0.68750000  0.26338000  0.03183000  1.0
  C  C76  1  0.81250000  0.76338000  0.96817000  1.0
  C  C77  1  0.81250000  0.26338000  0.53183000  1.0
  C  C78  1  0.68750000  0.76338000  0.46817000  1.0
  C  C79  1  0.31250000  0.73662000  0.96817000  1.0
  C  C80  1  0.28387000  0.11008000  0.10899000  1.0
  C  C81  1  0.28387000  0.61008000  0.39101000  1.0
  C  C82  1  0.21613000  0.11008000  0.60899000  1.0
  C  C83  1  0.78387000  0.38992000  0.10899000  1.0
  C  C84  1  0.71613000  0.88992000  0.89101000  1.0
  C  C85  1  0.71613000  0.38993000  0.60899000  1.0
  C  C86  1  0.78388000  0.88992000  0.39101000  1.0
  C  C87  1  0.21613000  0.61008000  0.89101000  1.0
  C  C88  1  0.26791000  0.05265000  0.04170000  1.0
  C  C89  1  0.26791000  0.55265000  0.45830000  1.0
  C  C90  1  0.23209000  0.05265000  0.54170000  1.0
  C  C91  1  0.76791000  0.44735000  0.04170000  1.0
  C  C92  1  0.73209000  0.94735000  0.95830000  1.0
  C  C93  1  0.73209000  0.44735000  0.54171000  1.0
  C  C94  1  0.76791000  0.94735000  0.45830000  1.0
  C  C95  1  0.23209000  0.55265000  0.95830000  1.0
  N  N96  1  0.22963000  0.93898000  0.89655000  1.0
  N  N97  1  0.22963000  0.43898000  0.60345000  1.0
  N  N98  1  0.27037000  0.93898000  0.39655000  1.0
  N  N99  1  0.72963000  0.56102000  0.89655000  1.0
  N  N100  1  0.77037000  0.06102000  0.10345000  1.0
  N  N101  1  0.77037000  0.56102000  0.39655000  1.0
  N  N102  1  0.72963000  0.06102000  0.60345000  1.0
  N  N103  1  0.27037000  0.43898000  0.10345000  1.0
  N  N104  1  0.17852000  0.90964000  0.82194000  1.0
  N  N105  1  0.17853000  0.40964000  0.67806000  1.0
  N  N106  1  0.32147000  0.90964000  0.32194000  1.0
  N  N107  1  0.67852000  0.59036000  0.82194000  1.0
  N  N108  1  0.82147000  0.09036000  0.17806000  1.0
  N  N109  1  0.82148000  0.59035000  0.32194000  1.0
  N  N110  1  0.67852000  0.09036000  0.67806000  1.0
  N  N111  1  0.32148000  0.40964000  0.17806000  1.0
  N  N112  1  0.10302000  0.97767000  0.77631000  1.0
  N  N113  1  0.10302000  0.47767000  0.72369000  1.0
  N  N114  1  0.39698000  0.97767000  0.27631000  1.0
  N  N115  1  0.60302000  0.52233000  0.77631000  1.0
  N  N116  1  0.89698000  0.02233000  0.22369000  1.0
  N  N117  1  0.89698000  0.52233000  0.27631000  1.0
  N  N118  1  0.60302000  0.02233000  0.72369000  1.0
  N  N119  1  0.39698000  0.47767000  0.22369000  1.0
  N  N120  1  0.10476000  0.05330000  0.82182000  1.0
  N  N121  1  0.10476000  0.55330000  0.67818000  1.0
  N  N122  1  0.39524000  0.05330000  0.32182000  1.0
  N  N123  1  0.60476000  0.44670000  0.82182000  1.0
  N  N124  1  0.89524000  0.94670000  0.17818000  1.0
  N  N125  1  0.89524000  0.44670000  0.32182000  1.0
  N  N126  1  0.60476000  0.94670000  0.67818000  1.0
  N  N127  1  0.39524000  0.55330000  0.17818000  1.0
  N  N128  1  0.24340000  0.20089000  0.10479000  1.0
  N  N129  1  0.24340000  0.70089000  0.39521000  1.0
  N  N130  1  0.25660000  0.20089000  0.60479000  1.0
  N  N131  1  0.74340000  0.29911000  0.10479000  1.0
  N  N132  1  0.75660000  0.79911000  0.89521000  1.0
  N  N133  1  0.75660000  0.29911000  0.60479000  1.0
  N  N134  1  0.74340000  0.79911000  0.39521000  1.0
  N  N135  1  0.25660000  0.70089000  0.89521000  1.0
  O  O136  1  0.49302000  0.77330000  0.73233000  1.0
  O  O137  1  0.49302000  0.27330000  0.76767000  1.0
  O  O138  1  0.00698000  0.77330000  0.23233000  1.0
  O  O139  1  0.99302000  0.72670000  0.73233000  1.0
  O  O140  1  0.50698000  0.22670000  0.26767000  1.0
  O  O141  1  0.50698000  0.72670000  0.23233000  1.0
  O  O142  1  0.99302000  0.22670000  0.76767000  1.0
  O  O143  1  0.00698000  0.27330000  0.26767000  1.0
