# generated using pymatgen
data_Ni3H14(C4O7)2
_symmetry_space_group_name_H-M   'P 1'
_cell_length_a   6.30228000
_cell_length_b   8.00688000
_cell_length_c   15.58020000
_cell_angle_alpha   90.00000000
_cell_angle_beta   94.28340000
_cell_angle_gamma   89.99990000
_symmetry_Int_Tables_number   1
_chemical_formula_structural   Ni3H14(C4O7)2
_chemical_formula_sum   'Ni6 H28 C16 O28'
_cell_volume   784.00580820
_cell_formula_units_Z   2
loop_
 _symmetry_equiv_pos_site_id
 _symmetry_equiv_pos_as_xyz
  1  'x, y, z'
loop_
 _atom_site_type_symbol
 _atom_site_label
 _atom_site_symmetry_multiplicity
 _atom_site_fract_x
 _atom_site_fract_y
 _atom_site_fract_z
 _atom_site_occupancy
  Ni  Ni0  1  0.48631000  0.81173000  0.47699000  1.0
  Ni  Ni1  1  0.48631000  0.68827000  0.97699000  1.0
  Ni  Ni2  1  0.51369000  0.18827000  0.52301000  1.0
  Ni  Ni3  1  0.51369000  0.31173000  0.02301000  1.0
  Ni  Ni4  1  0.00000000  0.00000000  0.50000000  1.0
  Ni  Ni5  1  0.00000000  0.50000000  0.00000000  1.0
  H  H6  1  0.75556000  0.63740000  0.74393000  1.0
  H  H7  1  0.75556000  0.86260000  0.24393000  1.0
  H  H8  1  0.24445000  0.36260000  0.25607000  1.0
  H  H9  1  0.24444000  0.13740000  0.75607000  1.0
  H  H10  1  0.20817000  0.73869000  0.69967000  1.0
  H  H11  1  0.20817000  0.76130000  0.19967000  1.0
  H  H12  1  0.79183000  0.26131000  0.30033000  1.0
  H  H13  1  0.79183000  0.23869000  0.80033000  1.0
  H  H14  1  0.67366000  0.04440000  0.40242000  1.0
  H  H15  1  0.67366000  0.45560000  0.90242000  1.0
  H  H16  1  0.32634000  0.95560000  0.59758000  1.0
  H  H17  1  0.32634000  0.54440000  0.09758000  1.0
  H  H18  1  0.14390000  0.66761000  0.51468000  1.0
  H  H19  1  0.14390000  0.83239000  0.01468000  1.0
  H  H20  1  0.85610000  0.33239000  0.48532000  1.0
  H  H21  1  0.85610000  0.16761000  0.98531000  1.0
  H  H22  1  0.31005000  0.52580000  0.52835000  1.0
  H  H23  1  0.31005000  0.97420000  0.02835000  1.0
  H  H24  1  0.68995000  0.47420000  0.47165000  1.0
  H  H25  1  0.68995000  0.02580000  0.97165000  1.0
  H  H26  1  0.80738000  0.72196000  0.39109000  1.0
  H  H27  1  0.80738000  0.77804000  0.89109000  1.0
  H  H28  1  0.19262000  0.27804000  0.60891000  1.0
  H  H29  1  0.19262000  0.22196000  0.10891000  1.0
  H  H30  1  0.58889000  0.65137000  0.34828000  1.0
  H  H31  1  0.58888000  0.84863000  0.84829000  1.0
  H  H32  1  0.41111000  0.34863000  0.65172000  1.0
  H  H33  1  0.41111000  0.15137000  0.15171000  1.0
  C  C34  1  0.81673000  0.73511000  0.61607000  1.0
  C  C35  1  0.81672000  0.76489000  0.11607000  1.0
  C  C36  1  0.18327000  0.26490000  0.38393000  1.0
  C  C37  1  0.18327000  0.23511000  0.88393000  1.0
  C  C38  1  0.88179000  0.68254000  0.70557000  1.0
  C  C39  1  0.88179000  0.81746000  0.20557000  1.0
  C  C40  1  0.11822000  0.31746000  0.29443000  1.0
  C  C41  1  0.11821000  0.18254000  0.79443000  1.0
  C  C42  1  0.14961000  0.65812000  0.83076000  1.0
  C  C43  1  0.14961000  0.84187000  0.33076000  1.0
  C  C44  1  0.85039000  0.34188000  0.16924000  1.0
  C  C45  1  0.85039000  0.15812000  0.66924000  1.0
  C  C46  1  0.08312000  0.69746000  0.73963000  1.0
  C  C47  1  0.08312000  0.80254000  0.23963000  1.0
  C  C48  1  0.91688000  0.30254000  0.26037000  1.0
  C  C49  1  0.91688000  0.19746000  0.76037000  1.0
  O  O50  1  0.96302000  0.77532000  0.56710000  1.0
  O  O51  1  0.96301000  0.72468000  0.06710000  1.0
  O  O52  1  0.03699000  0.22468000  0.43290000  1.0
  O  O53  1  0.03698000  0.27532000  0.93290000  1.0
  O  O54  1  0.61765000  0.74144000  0.59584000  1.0
  O  O55  1  0.61764000  0.75857000  0.09584000  1.0
  O  O56  1  0.38235000  0.25857000  0.40416000  1.0
  O  O57  1  0.38236000  0.24144000  0.90416000  1.0
  O  O58  1  0.34852000  0.64527000  0.85056000  1.0
  O  O59  1  0.34852000  0.85473000  0.35056000  1.0
  O  O60  1  0.65148000  0.35473000  0.14944000  1.0
  O  O61  1  0.65148000  0.14527000  0.64944000  1.0
  O  O62  1  0.00334000  0.64056000  0.88308000  1.0
  O  O63  1  0.00335000  0.85944000  0.38308000  1.0
  O  O64  1  0.99666000  0.35944000  0.11692000  1.0
  O  O65  1  0.99666000  0.14056000  0.61692000  1.0
  O  O66  1  0.68576000  0.01455000  0.46325000  1.0
  O  O67  1  0.68576000  0.48545000  0.96325000  1.0
  O  O68  1  0.31424000  0.98545000  0.53675000  1.0
  O  O69  1  0.31424000  0.51455000  0.03675000  1.0
  O  O70  1  0.26510000  0.61544000  0.48726000  1.0
  O  O71  1  0.26509000  0.88456000  0.98726000  1.0
  O  O72  1  0.73491000  0.38456000  0.51274000  1.0
  O  O73  1  0.73491000  0.11544000  0.01274000  1.0
  O  O74  1  0.68039000  0.65041000  0.40166000  1.0
  O  O75  1  0.68039000  0.84959000  0.90166000  1.0
  O  O76  1  0.31961000  0.34959000  0.59834000  1.0
  O  O77  1  0.31961000  0.15041000  0.09834000  1.0
