# generated using pymatgen
data_CdH14(C3O)2
_symmetry_space_group_name_H-M   'P 1'
_cell_length_a   4.24976000
_cell_length_b   13.01850000
_cell_length_c   14.80420000
_cell_angle_alpha   90.00000000
_cell_angle_beta   89.99990000
_cell_angle_gamma   89.99980000
_symmetry_Int_Tables_number   1
_chemical_formula_structural   CdH14(C3O)2
_chemical_formula_sum   'Cd4 H56 C24 O8'
_cell_volume   819.04977538
_cell_formula_units_Z   4
loop_
 _symmetry_equiv_pos_site_id
 _symmetry_equiv_pos_as_xyz
  1  'x, y, z'
loop_
 _atom_site_type_symbol
 _atom_site_label
 _atom_site_symmetry_multiplicity
 _atom_site_fract_x
 _atom_site_fract_y
 _atom_site_fract_z
 _atom_site_occupancy
  Cd  Cd0  1  0.95230000  0.75000000  0.62450000  1.0
  Cd  Cd1  1  0.04770000  0.25000000  0.37550000  1.0
  Cd  Cd2  1  0.95230000  0.25000000  0.87550000  1.0
  Cd  Cd3  1  0.04770000  0.75000000  0.12450000  1.0
  H  H4  1  0.17742000  0.84464000  0.81830000  1.0
  H  H5  1  0.82258000  0.34464000  0.18170000  1.0
  H  H6  1  0.17742000  0.15536000  0.68170000  1.0
  H  H7  1  0.82259000  0.65536000  0.31830000  1.0
  H  H8  1  0.82258000  0.15536000  0.18170000  1.0
  H  H9  1  0.17742000  0.65536000  0.81830000  1.0
  H  H10  1  0.82259000  0.84464000  0.31830000  1.0
  H  H11  1  0.17742000  0.34464000  0.68170000  1.0
  H  H12  1  0.54165000  0.90628000  0.79099000  1.0
  H  H13  1  0.45835000  0.40628000  0.20901000  1.0
  H  H14  1  0.54165000  0.09372000  0.70901000  1.0
  H  H15  1  0.45836000  0.59372000  0.29099000  1.0
  H  H16  1  0.45835000  0.09372000  0.20901000  1.0
  H  H17  1  0.54165000  0.59372000  0.79099000  1.0
  H  H18  1  0.45835000  0.90629000  0.29099000  1.0
  H  H19  1  0.54165000  0.40628000  0.70901000  1.0
  H  H20  1  0.42359000  0.90674000  0.96003000  1.0
  H  H21  1  0.57641000  0.40674000  0.03997000  1.0
  H  H22  1  0.42359000  0.09326000  0.53997000  1.0
  H  H23  1  0.57641000  0.59327000  0.46003000  1.0
  H  H24  1  0.57641000  0.09326000  0.03997000  1.0
  H  H25  1  0.42359000  0.59326000  0.96003000  1.0
  H  H26  1  0.57640000  0.90674000  0.46003000  1.0
  H  H27  1  0.42359000  0.40674000  0.53997000  1.0
  H  H28  1  0.78502000  0.84361000  0.93214000  1.0
  H  H29  1  0.21498000  0.34361000  0.06786000  1.0
  H  H30  1  0.78502000  0.15639000  0.56786000  1.0
  H  H31  1  0.21498000  0.65639000  0.43214000  1.0
  H  H32  1  0.21498000  0.15639000  0.06786000  1.0
  H  H33  1  0.78502000  0.65639000  0.93214000  1.0
  H  H34  1  0.21497000  0.84362000  0.43214000  1.0
  H  H35  1  0.78502000  0.34361000  0.56786000  1.0
  H  H36  1  0.96744000  0.94551000  0.55624000  1.0
  H  H37  1  0.03256000  0.44551000  0.44376000  1.0
  H  H38  1  0.96744000  0.05448000  0.94376000  1.0
  H  H39  1  0.03256000  0.55448000  0.05624000  1.0
  H  H40  1  0.03256000  0.05449000  0.44376000  1.0
  H  H41  1  0.96744000  0.55448000  0.55624000  1.0
  H  H42  1  0.03256000  0.94552000  0.05624000  1.0
  H  H43  1  0.96744000  0.44552000  0.94376000  1.0
  H  H44  1  0.18929000  0.94162000  0.65801000  1.0
  H  H45  1  0.81071000  0.44162000  0.34199000  1.0
  H  H46  1  0.18928000  0.05838000  0.84199000  1.0
  H  H47  1  0.81071000  0.55838000  0.15801000  1.0
  H  H48  1  0.81071000  0.05838000  0.34199000  1.0
  H  H49  1  0.18929000  0.55838000  0.65801000  1.0
  H  H50  1  0.81071000  0.94162000  0.15801000  1.0
  H  H51  1  0.18929000  0.44162000  0.84199000  1.0
  H  H52  1  0.77138000  0.94646000  0.66222000  1.0
  H  H53  1  0.22862000  0.44646000  0.33778000  1.0
  H  H54  1  0.77138000  0.05354000  0.83777000  1.0
  H  H55  1  0.22862000  0.55354000  0.16223000  1.0
  H  H56  1  0.22862000  0.05354000  0.33778000  1.0
  H  H57  1  0.77138000  0.55354000  0.66223000  1.0
  H  H58  1  0.22862000  0.94646000  0.16222000  1.0
  H  H59  1  0.77138000  0.44646000  0.83777000  1.0
  C  C60  1  0.43555000  0.84054000  0.82592000  1.0
  C  C61  1  0.56445000  0.34054000  0.17408000  1.0
  C  C62  1  0.43555000  0.15946000  0.67408000  1.0
  C  C63  1  0.56446000  0.65946000  0.32592000  1.0
  C  C64  1  0.56445000  0.15946000  0.17408000  1.0
  C  C65  1  0.43555000  0.65946000  0.82592000  1.0
  C  C66  1  0.56445000  0.84054000  0.32592000  1.0
  C  C67  1  0.43555000  0.34054000  0.67408000  1.0
  C  C68  1  0.52673000  0.84059000  0.92491000  1.0
  C  C69  1  0.47327000  0.34059000  0.07509000  1.0
  C  C70  1  0.52673000  0.15941000  0.57509000  1.0
  C  C71  1  0.47327000  0.65941000  0.42491000  1.0
  C  C72  1  0.47327000  0.15941000  0.07509000  1.0
  C  C73  1  0.52673000  0.65941000  0.92491000  1.0
  C  C74  1  0.47327000  0.84059000  0.42491000  1.0
  C  C75  1  0.52673000  0.34059000  0.57509000  1.0
  C  C76  1  0.97301000  0.91478000  0.62525000  1.0
  C  C77  1  0.02699000  0.41478000  0.37475000  1.0
  C  C78  1  0.97301000  0.08522000  0.87475000  1.0
  C  C79  1  0.02700000  0.58522000  0.12525000  1.0
  C  C80  1  0.02699000  0.08522000  0.37475000  1.0
  C  C81  1  0.97300000  0.58522000  0.62525000  1.0
  C  C82  1  0.02699000  0.91478000  0.12525000  1.0
  C  C83  1  0.97301000  0.41478000  0.87475000  1.0
  O  O84  1  0.55162000  0.75000000  0.78124000  1.0
  O  O85  1  0.44838000  0.25000000  0.21876000  1.0
  O  O86  1  0.55162000  0.25000000  0.71876000  1.0
  O  O87  1  0.44838000  0.75000000  0.28124000  1.0
  O  O88  1  0.59038000  0.75000000  0.46942000  1.0
  O  O89  1  0.40962000  0.25000000  0.53058000  1.0
  O  O90  1  0.59038000  0.25000000  0.03058000  1.0
  O  O91  1  0.40962000  0.75000000  0.96942000  1.0
