# generated using pymatgen
data_CdH10C16S2(NO)4
_symmetry_space_group_name_H-M   'P 1'
_cell_length_a   9.84871000
_cell_length_b   9.84871000
_cell_length_c   12.93210000
_cell_angle_alpha   92.68400000
_cell_angle_beta   92.68410000
_cell_angle_gamma   91.23320000
_symmetry_Int_Tables_number   1
_chemical_formula_structural   CdH10C16S2(NO)4
_chemical_formula_sum   'Cd2 H20 C32 S4 N8 O8'
_cell_volume   1251.27178728
_cell_formula_units_Z   2
loop_
 _symmetry_equiv_pos_site_id
 _symmetry_equiv_pos_as_xyz
  1  'x, y, z'
loop_
 _atom_site_type_symbol
 _atom_site_label
 _atom_site_symmetry_multiplicity
 _atom_site_fract_x
 _atom_site_fract_y
 _atom_site_fract_z
 _atom_site_occupancy
  Cd  Cd0  1  0.50559000  0.49442000  0.25000000  1.0
  Cd  Cd1  1  0.49442000  0.50559000  0.75000000  1.0
  H  H2  1  0.42540000  0.35135000  0.04042000  1.0
  H  H3  1  0.64865000  0.57460000  0.45958000  1.0
  H  H4  1  0.57460000  0.64865000  0.95958000  1.0
  H  H5  1  0.35135000  0.42540000  0.54042000  1.0
  H  H6  1  0.49616000  0.28075000  0.92661000  1.0
  H  H7  1  0.71925000  0.50384000  0.57339000  1.0
  H  H8  1  0.50384000  0.71925000  0.07339000  1.0
  H  H9  1  0.28075000  0.49616000  0.42661000  1.0
  H  H10  1  0.79241000  0.55576000  0.30062000  1.0
  H  H11  1  0.44424000  0.20759000  0.19938000  1.0
  H  H12  1  0.20759000  0.44424000  0.69938000  1.0
  H  H13  1  0.55576000  0.79241000  0.80062000  1.0
  H  H14  1  0.08571000  0.32790000  0.04051000  1.0
  H  H15  1  0.67210000  0.91429000  0.45949000  1.0
  H  H16  1  0.91429000  0.67210000  0.95949000  1.0
  H  H17  1  0.32790000  0.08571000  0.54051000  1.0
  H  H18  1  0.04460000  0.56065000  0.32693000  1.0
  H  H19  1  0.43935000  0.95540000  0.17307000  1.0
  H  H20  1  0.95540000  0.43935000  0.67307000  1.0
  H  H21  1  0.56065000  0.04460000  0.82693000  1.0
  C  C22  1  0.63196000  0.34819000  0.04324000  1.0
  C  C23  1  0.65181000  0.36804000  0.45676000  1.0
  C  C24  1  0.36804000  0.65181000  0.95676000  1.0
  C  C25  1  0.34819000  0.63196000  0.54324000  1.0
  C  C26  1  0.79557000  0.43375000  0.15675000  1.0
  C  C27  1  0.56625000  0.20443000  0.34325000  1.0
  C  C28  1  0.20443000  0.56625000  0.84325000  1.0
  C  C29  1  0.43375000  0.79557000  0.65675000  1.0
  C  C30  1  0.85539000  0.50388000  0.24474000  1.0
  C  C31  1  0.49611000  0.14461000  0.25526000  1.0
  C  C32  1  0.14461000  0.49612000  0.75526000  1.0
  C  C33  1  0.50388000  0.85539000  0.74474000  1.0
  C  C34  1  0.87937000  0.37041000  0.08328000  1.0
  C  C35  1  0.62959000  0.12063000  0.41672000  1.0
  C  C36  1  0.12063000  0.62959000  0.91672000  1.0
  C  C37  1  0.37041000  0.87937000  0.58328000  1.0
  C  C38  1  0.02020000  0.37512000  0.09674000  1.0
  C  C39  1  0.62488000  0.97981000  0.40326000  1.0
  C  C40  1  0.97981000  0.62488000  0.90326000  1.0
  C  C41  1  0.37512000  0.02020000  0.59674000  1.0
  C  C42  1  0.99602000  0.50705000  0.25895000  1.0
  C  C43  1  0.49295000  0.00398000  0.24105000  1.0
  C  C44  1  0.00398000  0.49295000  0.74105000  1.0
  C  C45  1  0.50705000  0.99602000  0.75895000  1.0
  C  C46  1  0.22887000  0.44904000  0.20449000  1.0
  C  C47  1  0.55096000  0.77113000  0.29551000  1.0
  C  C48  1  0.77113000  0.55096000  0.79551000  1.0
  C  C49  1  0.44904000  0.22887000  0.70449000  1.0
  C  C50  1  0.07891000  0.44303000  0.18638000  1.0
  C  C51  1  0.55697000  0.92109000  0.31362000  1.0
  C  C52  1  0.92109000  0.55697000  0.81362000  1.0
  C  C53  1  0.44303000  0.07891000  0.68638000  1.0
  S  S54  1  0.77810000  0.29289000  0.98197000  1.0
  S  S55  1  0.70711000  0.22190000  0.51803000  1.0
  S  S56  1  0.22191000  0.70711000  0.01803000  1.0
  S  S57  1  0.29289000  0.77810000  0.48197000  1.0
  N  N58  1  0.50798000  0.31639000  0.00265000  1.0
  N  N59  1  0.68361000  0.49202000  0.49735000  1.0
  N  N60  1  0.49202000  0.68361000  0.99735000  1.0
  N  N61  1  0.31639000  0.50798000  0.50265000  1.0
  N  N62  1  0.65772000  0.41977000  0.13237000  1.0
  N  N63  1  0.58023000  0.34228000  0.36763000  1.0
  N  N64  1  0.34228000  0.58024000  0.86763000  1.0
  N  N65  1  0.41976000  0.65772000  0.63237000  1.0
  O  O66  1  0.30623000  0.40170000  0.13589000  1.0
  O  O67  1  0.59830000  0.69377000  0.36411000  1.0
  O  O68  1  0.69377000  0.59830000  0.86411000  1.0
  O  O69  1  0.40170000  0.30623000  0.63589000  1.0
  O  O70  1  0.27886000  0.50454000  0.29052000  1.0
  O  O71  1  0.49546000  0.72114000  0.20948000  1.0
  O  O72  1  0.72114000  0.49546000  0.70948000  1.0
  O  O73  1  0.50454000  0.27886000  0.79052000  1.0
