# generated using pymatgen
data_ZnH8C8NO5
_symmetry_space_group_name_H-M   'P 1'
_cell_length_a   7.16390000
_cell_length_b   15.04540000
_cell_length_c   19.65100000
_cell_angle_alpha   90.00020000
_cell_angle_beta   89.99970000
_cell_angle_gamma   89.99990000
_symmetry_Int_Tables_number   1
_chemical_formula_structural   ZnH8C8NO5
_chemical_formula_sum   'Zn8 H64 C64 N8 O40'
_cell_volume   2118.05829552
_cell_formula_units_Z   8
loop_
 _symmetry_equiv_pos_site_id
 _symmetry_equiv_pos_as_xyz
  1  'x, y, z'
loop_
 _atom_site_type_symbol
 _atom_site_label
 _atom_site_symmetry_multiplicity
 _atom_site_fract_x
 _atom_site_fract_y
 _atom_site_fract_z
 _atom_site_occupancy
  Zn  Zn0  1  0.75040000  0.11909000  0.87715000  1.0
  Zn  Zn1  1  0.24960000  0.88091000  0.37715000  1.0
  Zn  Zn2  1  0.74960000  0.61909000  0.87715000  1.0
  Zn  Zn3  1  0.25039000  0.38091000  0.37715000  1.0
  Zn  Zn4  1  0.23859000  0.36918000  0.95631000  1.0
  Zn  Zn5  1  0.76140000  0.63082000  0.45631000  1.0
  Zn  Zn6  1  0.26141000  0.86918000  0.95631000  1.0
  Zn  Zn7  1  0.73860000  0.13082000  0.45631000  1.0
  H  H8  1  0.64289000  0.98885000  0.94395000  1.0
  H  H9  1  0.35712000  0.01115000  0.44395000  1.0
  H  H10  1  0.85712000  0.48885000  0.94395000  1.0
  H  H11  1  0.14288000  0.51115000  0.44395000  1.0
  H  H12  1  0.86564000  0.98984000  0.94552000  1.0
  H  H13  1  0.13437000  0.01017000  0.44552000  1.0
  H  H14  1  0.63437000  0.48984000  0.94552000  1.0
  H  H15  1  0.36563000  0.51017000  0.44552000  1.0
  H  H16  1  0.13069000  0.23865000  0.88946000  1.0
  H  H17  1  0.86931000  0.76135000  0.38946000  1.0
  H  H18  1  0.36932000  0.73865000  0.88946000  1.0
  H  H19  1  0.63069000  0.26136000  0.38946000  1.0
  H  H20  1  0.35344000  0.24008000  0.88825000  1.0
  H  H21  1  0.64656000  0.75992000  0.38825000  1.0
  H  H22  1  0.14656000  0.74008000  0.88825000  1.0
  H  H23  1  0.85344000  0.25992000  0.38825000  1.0
  H  H24  1  0.73929000  0.25362000  0.07465000  1.0
  H  H25  1  0.26071000  0.74638000  0.57465000  1.0
  H  H26  1  0.76072000  0.75362000  0.07465000  1.0
  H  H27  1  0.23929000  0.24638000  0.57466000  1.0
  H  H28  1  0.73867000  0.14507000  0.03450000  1.0
  H  H29  1  0.26132000  0.85494000  0.53451000  1.0
  H  H30  1  0.76133000  0.64506000  0.03451000  1.0
  H  H31  1  0.23867000  0.35493000  0.53451000  1.0
  H  H32  1  0.24787000  0.50366000  0.75876000  1.0
  H  H33  1  0.75213000  0.49634000  0.25876000  1.0
  H  H34  1  0.25213000  0.00365000  0.75876000  1.0
  H  H35  1  0.74787000  0.99634000  0.25876000  1.0
  H  H36  1  0.24231000  0.39512000  0.79889000  1.0
  H  H37  1  0.75769000  0.60488000  0.29890000  1.0
  H  H38  1  0.25770000  0.89511000  0.79890000  1.0
  H  H39  1  0.74231000  0.10489000  0.29890000  1.0
  H  H40  1  0.87914000  0.12341000  0.72997000  1.0
  H  H41  1  0.12086000  0.87658000  0.22997000  1.0
  H  H42  1  0.62084000  0.62342000  0.72998000  1.0
  H  H43  1  0.37915000  0.37658000  0.22998000  1.0
  H  H44  1  0.90212000  0.23099000  0.63331000  1.0
  H  H45  1  0.09788000  0.76900000  0.13332000  1.0
  H  H46  1  0.59785000  0.73100000  0.63331000  1.0
  H  H47  1  0.40213000  0.26901000  0.13332000  1.0
  H  H48  1  0.70828000  0.43426000  0.77249000  1.0
  H  H49  1  0.29173000  0.56573000  0.27249000  1.0
  H  H50  1  0.79173000  0.93427000  0.77249000  1.0
  H  H51  1  0.20828000  0.06573000  0.27249000  1.0
  H  H52  1  0.68680000  0.31775000  0.86136000  1.0
  H  H53  1  0.31320000  0.68225000  0.36136000  1.0
  H  H54  1  0.81319000  0.81776000  0.86136000  1.0
  H  H55  1  0.18679000  0.18225000  0.36136000  1.0
  H  H56  1  0.88966000  0.52088000  0.70187000  1.0
  H  H57  1  0.11033000  0.47911000  0.20187000  1.0
  H  H58  1  0.61032000  0.02088000  0.70187000  1.0
  H  H59  1  0.38966000  0.97911000  0.20187000  1.0
  H  H60  1  0.86708000  0.62818000  0.60515000  1.0
  H  H61  1  0.13291000  0.37181000  0.10515000  1.0
  H  H62  1  0.63290000  0.12818000  0.60515000  1.0
  H  H63  1  0.36709000  0.87182000  0.10515000  1.0
  H  H64  1  0.70026000  0.43119000  0.47143000  1.0
  H  H65  1  0.29974000  0.56880000  0.97143000  1.0
  H  H66  1  0.79974000  0.93120000  0.47143000  1.0
  H  H67  1  0.20029000  0.06881000  0.97143000  1.0
  H  H68  1  0.71921000  0.31513000  0.56064000  1.0
  H  H69  1  0.28080000  0.68487000  0.06065000  1.0
  H  H70  1  0.78078000  0.81513000  0.56064000  1.0
  H  H71  1  0.21923000  0.18488000  0.06065000  1.0
  C  C72  1  0.56640000  0.24088000  0.98513000  1.0
  C  C73  1  0.43359000  0.75912000  0.48514000  1.0
  C  C74  1  0.93361000  0.74088000  0.98513000  1.0
  C  C75  1  0.06640000  0.25912000  0.48514000  1.0
  C  C76  1  0.73997000  0.21745000  0.02641000  1.0
  C  C77  1  0.26002000  0.78255000  0.52641000  1.0
  C  C78  1  0.76002000  0.71745000  0.02641000  1.0
  C  C79  1  0.23997000  0.28255000  0.52641000  1.0
  C  C80  1  0.91658000  0.23978000  0.98662000  1.0
  C  C81  1  0.08342000  0.76022000  0.48662000  1.0
  C  C82  1  0.58343000  0.73978000  0.98662000  1.0
  C  C83  1  0.41658000  0.26022000  0.48662000  1.0
  C  C84  1  0.41813000  0.48933000  0.84857000  1.0
  C  C85  1  0.58187000  0.51068000  0.34857000  1.0
  C  C86  1  0.08187000  0.98932000  0.84857000  1.0
  C  C87  1  0.91813000  0.01068000  0.34857000  1.0
  C  C88  1  0.24402000  0.46754000  0.80700000  1.0
  C  C89  1  0.75598000  0.53247000  0.30701000  1.0
  C  C90  1  0.25599000  0.96753000  0.80700000  1.0
  C  C91  1  0.74402000  0.03247000  0.30701000  1.0
  C  C92  1  0.06809000  0.49139000  0.84659000  1.0
  C  C93  1  0.93191000  0.50862000  0.34660000  1.0
  C  C94  1  0.43191000  0.99138000  0.84659000  1.0
  C  C95  1  0.56809000  0.00862000  0.34660000  1.0
  C  C96  1  0.83907000  0.19269000  0.73628000  1.0
  C  C97  1  0.16093000  0.80730000  0.23628000  1.0
  C  C98  1  0.66091000  0.69270000  0.73628000  1.0
  C  C99  1  0.33908000  0.30730000  0.23628000  1.0
  C  C100  1  0.85305000  0.25318000  0.68309000  1.0
  C  C101  1  0.14695000  0.74681000  0.18309000  1.0
  C  C102  1  0.64693000  0.75319000  0.68309000  1.0
  C  C103  1  0.35306000  0.24681000  0.18309000  1.0
  C  C104  1  0.80392000  0.34216000  0.69469000  1.0
  C  C105  1  0.19608000  0.65783000  0.19469000  1.0
  C  C106  1  0.69607000  0.84216000  0.69469000  1.0
  C  C107  1  0.30393000  0.15784000  0.19469000  1.0
  C  C108  1  0.74717000  0.36611000  0.76042000  1.0
  C  C109  1  0.25283000  0.63389000  0.26042000  1.0
  C  C110  1  0.75282000  0.86611000  0.76042000  1.0
  C  C111  1  0.24717000  0.13389000  0.26042000  1.0
  C  C112  1  0.73499000  0.30116000  0.81040000  1.0
  C  C113  1  0.26502000  0.69884000  0.31041000  1.0
  C  C114  1  0.76500000  0.80117000  0.81040000  1.0
  C  C115  1  0.23498000  0.19884000  0.31041000  1.0
  C  C116  1  0.80357000  0.40837000  0.63943000  1.0
  C  C117  1  0.19643000  0.59162000  0.13944000  1.0
  C  C118  1  0.69642000  0.90838000  0.63943000  1.0
  C  C119  1  0.30359000  0.09162000  0.13944000  1.0
  C  C120  1  0.84572000  0.49803000  0.65162000  1.0
  C  C121  1  0.15428000  0.50196000  0.15162000  1.0
  C  C122  1  0.65427000  0.99804000  0.65162000  1.0
  C  C123  1  0.34573000  0.00196000  0.15163000  1.0
  C  C124  1  0.83254000  0.55832000  0.59830000  1.0
  C  C125  1  0.16745000  0.44167000  0.09830000  1.0
  C  C126  1  0.66744000  0.05833000  0.59829000  1.0
  C  C127  1  0.33255000  0.94167000  0.09830000  1.0
  C  C128  1  0.74230000  0.44850000  0.52295000  1.0
  C  C129  1  0.25770000  0.55150000  0.02296000  1.0
  C  C130  1  0.75769000  0.94850000  0.52295000  1.0
  C  C131  1  0.24232000  0.05151000  0.02296000  1.0
  C  C132  1  0.75331000  0.38374000  0.57314000  1.0
  C  C133  1  0.24670000  0.61626000  0.07314000  1.0
  C  C134  1  0.74668000  0.88374000  0.57314000  1.0
  C  C135  1  0.25332000  0.11626000  0.07314000  1.0
  N  N136  1  0.77788000  0.21548000  0.79866000  1.0
  N  N137  1  0.22211000  0.78451000  0.29867000  1.0
  N  N138  1  0.72210000  0.71549000  0.79867000  1.0
  N  N139  1  0.27789000  0.28451000  0.29867000  1.0
  N  N140  1  0.77943000  0.53466000  0.53513000  1.0
  N  N141  1  0.22057000  0.46534000  0.03513000  1.0
  N  N142  1  0.72056000  0.03466000  0.53513000  1.0
  N  N143  1  0.27945000  0.96535000  0.03513000  1.0
  O  O144  1  0.75321000  0.02558000  0.95821000  1.0
  O  O145  1  0.24679000  0.97442000  0.45821000  1.0
  O  O146  1  0.74679000  0.52558000  0.95820000  1.0
  O  O147  1  0.25321000  0.47442000  0.45821000  1.0
  O  O148  1  0.24047000  0.27559000  0.87533000  1.0
  O  O149  1  0.75953000  0.72441000  0.37534000  1.0
  O  O150  1  0.25953000  0.77560000  0.87533000  1.0
  O  O151  1  0.74047000  0.22441000  0.37534000  1.0
  O  O152  1  0.54229000  0.20059000  0.92823000  1.0
  O  O153  1  0.45770000  0.79941000  0.42823000  1.0
  O  O154  1  0.95771000  0.70059000  0.92823000  1.0
  O  O155  1  0.04229000  0.29941000  0.42823000  1.0
  O  O156  1  0.45667000  0.29890000  0.00923000  1.0
  O  O157  1  0.54332000  0.70110000  0.50922000  1.0
  O  O158  1  0.04333000  0.79890000  0.00923000  1.0
  O  O159  1  0.95667000  0.20110000  0.50922000  1.0
  O  O160  1  0.95037000  0.19613000  0.93202000  1.0
  O  O161  1  0.04962000  0.80387000  0.43202000  1.0
  O  O162  1  0.54963000  0.69613000  0.93202000  1.0
  O  O163  1  0.45037000  0.30387000  0.43202000  1.0
  O  O164  1  0.02117000  0.30047000  0.00969000  1.0
  O  O165  1  0.97883000  0.69953000  0.50969000  1.0
  O  O166  1  0.47884000  0.80047000  0.00969000  1.0
  O  O167  1  0.52117000  0.19954000  0.50969000  1.0
  O  O168  1  0.44422000  0.44790000  0.90487000  1.0
  O  O169  1  0.55578000  0.55210000  0.40487000  1.0
  O  O170  1  0.05579000  0.94790000  0.90488000  1.0
  O  O171  1  0.94423000  0.05211000  0.40487000  1.0
  O  O172  1  0.52848000  0.54731000  0.82513000  1.0
  O  O173  1  0.47152000  0.45269000  0.32513000  1.0
  O  O174  1  0.97153000  0.04731000  0.82513000  1.0
  O  O175  1  0.02848000  0.95269000  0.32513000  1.0
  O  O176  1  0.03692000  0.44916000  0.90200000  1.0
  O  O177  1  0.96307000  0.55084000  0.40200000  1.0
  O  O178  1  0.46309000  0.94916000  0.90200000  1.0
  O  O179  1  0.53693000  0.05084000  0.40200000  1.0
  O  O180  1  0.96339000  0.55180000  0.82270000  1.0
  O  O181  1  0.03661000  0.44821000  0.32271000  1.0
  O  O182  1  0.53661000  0.05179000  0.82270000  1.0
  O  O183  1  0.46339000  0.94821000  0.32271000  1.0
