# generated using pymatgen
data_KDyH4C20(OF3)8
_symmetry_space_group_name_H-M   'P 1'
_cell_length_a   11.87300000
_cell_length_b   12.17990000
_cell_length_c   13.33570000
_cell_angle_alpha   73.82740000
_cell_angle_beta   65.02880000
_cell_angle_gamma   63.84190000
_symmetry_Int_Tables_number   1
_chemical_formula_structural   KDyH4C20(OF3)8
_chemical_formula_sum   'K2 Dy2 H8 C40 O16 F48'
_cell_volume   1559.01865889
_cell_formula_units_Z   2
loop_
 _symmetry_equiv_pos_site_id
 _symmetry_equiv_pos_as_xyz
  1  'x, y, z'
loop_
 _atom_site_type_symbol
 _atom_site_label
 _atom_site_symmetry_multiplicity
 _atom_site_fract_x
 _atom_site_fract_y
 _atom_site_fract_z
 _atom_site_occupancy
  K  K0  1  0.00000000  0.50001000  0.50000000  1.0
  K  K1  1  0.00000000  0.00000000  0.00000000  1.0
  Dy  Dy2  1  0.91793000  0.72475000  0.23459000  1.0
  Dy  Dy3  1  0.08207000  0.27525000  0.76541000  1.0
  H  H4  1  0.47738000  0.70170000  0.45126000  1.0
  H  H5  1  0.52262000  0.29830000  0.54874000  1.0
  H  H6  1  0.75067000  0.69583000  0.97292000  1.0
  H  H7  1  0.24933000  0.30417000  0.02707000  1.0
  H  H8  1  0.84277000  0.02872000  0.45254000  1.0
  H  H9  1  0.15723000  0.97128000  0.54746000  1.0
  H  H10  1  0.40643000  0.52427000  0.12695000  1.0
  H  H11  1  0.59357000  0.47573000  0.87306000  1.0
  C  C12  1  0.65840000  0.51731000  0.52760000  1.0
  C  C13  1  0.34160000  0.48270000  0.47241000  1.0
  C  C14  1  0.68365000  0.62542000  0.43898000  1.0
  C  C15  1  0.31635000  0.37458000  0.56102000  1.0
  C  C16  1  0.57401000  0.71089000  0.40843000  1.0
  C  C17  1  0.42600000  0.28911000  0.59157000  1.0
  C  C18  1  0.58604000  0.81015000  0.32631000  1.0
  C  C19  1  0.41396000  0.18985000  0.67369000  1.0
  C  C20  1  0.45944000  0.90887000  0.30327000  1.0
  C  C21  1  0.54056000  0.09113000  0.69673000  1.0
  C  C22  1  0.76151000  0.50207000  0.12808000  1.0
  C  C23  1  0.23848000  0.49793000  0.87192000  1.0
  C  C24  1  0.81411000  0.60322000  0.11382000  1.0
  C  C25  1  0.18589000  0.39678000  0.88618000  1.0
  C  C26  1  0.79921000  0.69657000  0.02577000  1.0
  C  C27  1  0.20079000  0.30343000  0.97422000  1.0
  C  C28  1  0.85750000  0.78385000  0.99752000  1.0
  C  C29  1  0.14250000  0.21616000  0.00247000  1.0
  C  C30  1  0.86520000  0.85847000  0.88169000  1.0
  C  C31  1  0.13480000  0.14154000  0.11831000  1.0
  C  C32  1  0.99581000  0.81095000  0.52215000  1.0
  C  C33  1  0.00420000  0.18905000  0.47784000  1.0
  C  C34  1  0.93943000  0.83702000  0.42879000  1.0
  C  C35  1  0.06058000  0.16298000  0.57120000  1.0
  C  C36  1  0.86807000  0.96083000  0.40073000  1.0
  C  C37  1  0.13193000  0.03917000  0.59927000  1.0
  C  C38  1  0.83603000  0.00018000  0.30392000  1.0
  C  C39  1  0.16397000  0.99981000  0.69608000  1.0
  C  C40  1  0.75256000  0.13771000  0.28248000  1.0
  C  C41  1  0.24743000  0.86229000  0.71753000  1.0
  C  C42  1  0.29167000  0.36282000  0.25300000  1.0
  C  C43  1  0.70833000  0.63718000  0.74700000  1.0
  C  C44  1  0.21914000  0.50002000  0.21698000  1.0
  C  C45  1  0.78086000  0.49998000  0.78302000  1.0
  C  C46  1  0.29861000  0.56805000  0.14863000  1.0
  C  C47  1  0.70139000  0.43195000  0.85138000  1.0
  C  C48  1  0.24270000  0.69265000  0.11075000  1.0
  C  C49  1  0.75730000  0.30735000  0.88926000  1.0
  C  C50  1  0.34044000  0.76151000  0.04851000  1.0
  C  C51  1  0.65956000  0.23849000  0.95150000  1.0
  O  O52  1  0.80194000  0.62378000  0.40112000  1.0
  O  O53  1  0.19806000  0.37621000  0.59888000  1.0
  O  O54  1  0.69165000  0.83134000  0.26756000  1.0
  O  O55  1  0.30835000  0.16866000  0.73244000  1.0
  O  O56  1  0.87128000  0.58890000  0.18038000  1.0
  O  O57  1  0.12872000  0.41110000  0.81962000  1.0
  O  O58  1  0.91120000  0.80354000  0.05181000  1.0
  O  O59  1  0.08880000  0.19646000  0.94819000  1.0
  O  O60  1  0.86650000  0.93562000  0.22977000  1.0
  O  O61  1  0.13350000  0.06438000  0.77022000  1.0
  O  O62  1  0.96807000  0.74476000  0.38363000  1.0
  O  O63  1  0.03193000  0.25524000  0.61636000  1.0
  O  O64  1  0.12064000  0.75734000  0.12538000  1.0
  O  O65  1  0.87936000  0.24266000  0.87462000  1.0
  O  O66  1  0.09226000  0.53672000  0.25453000  1.0
  O  O67  1  0.90774000  0.46327000  0.74547000  1.0
  F  F68  1  0.75094000  0.46383000  0.57953000  1.0
  F  F69  1  0.24906000  0.53616000  0.42047000  1.0
  F  F70  1  0.53591000  0.55210000  0.60808000  1.0
  F  F71  1  0.46410000  0.44790000  0.39193000  1.0
  F  F72  1  0.66822000  0.42797000  0.47818000  1.0
  F  F73  1  0.33177000  0.57204000  0.52182000  1.0
  F  F74  1  0.35403000  0.87135000  0.34677000  1.0
  F  F75  1  0.64597000  0.12864000  0.65323000  1.0
  F  F76  1  0.42035000  0.01287000  0.34926000  1.0
  F  F77  1  0.57965000  0.98712000  0.65074000  1.0
  F  F78  1  0.48473000  0.93993000  0.19237000  1.0
  F  F79  1  0.51528000  0.06006000  0.80763000  1.0
  F  F80  1  0.74453000  0.43885000  0.23016000  1.0
  F  F81  1  0.25546000  0.56115000  0.76984000  1.0
  F  F82  1  0.84986000  0.42016000  0.05135000  1.0
  F  F83  1  0.15013000  0.57985000  0.94865000  1.0
  F  F84  1  0.64206000  0.55030000  0.11123000  1.0
  F  F85  1  0.35794000  0.44971000  0.88878000  1.0
  F  F86  1  0.89772000  0.95782000  0.86761000  1.0
  F  F87  1  0.10227000  0.04219000  0.13239000  1.0
  F  F88  1  0.96234000  0.78569000  0.80101000  1.0
  F  F89  1  0.03766000  0.21432000  0.19899000  1.0
  F  F90  1  0.74822000  0.90104000  0.86374000  1.0
  F  F91  1  0.25178000  0.09897000  0.13626000  1.0
  F  F92  1  0.01078000  0.69627000  0.57786000  1.0
  F  F93  1  0.98922000  0.30373000  0.42214000  1.0
  F  F94  1  0.91705000  0.89331000  0.59779000  1.0
  F  F95  1  0.08296000  0.10670000  0.40220000  1.0
  F  F96  1  0.11930000  0.81876000  0.47627000  1.0
  F  F97  1  0.88071000  0.18124000  0.52373000  1.0
  F  F98  1  0.62545000  0.15103000  0.30158000  1.0
  F  F99  1  0.37454000  0.84897000  0.69842000  1.0
  F  F100  1  0.74584000  0.20890000  0.34845000  1.0
  F  F101  1  0.25416000  0.79109000  0.65155000  1.0
  F  F102  1  0.80373000  0.18289000  0.17416000  1.0
  F  F103  1  0.19626000  0.81711000  0.82584000  1.0
  F  F104  1  0.23184000  0.33206000  0.36433000  1.0
  F  F105  1  0.76816000  0.66794000  0.63567000  1.0
  F  F106  1  0.28508000  0.28911000  0.19717000  1.0
  F  F107  1  0.71491000  0.71089000  0.80284000  1.0
  F  F108  1  0.42159000  0.33401000  0.23581000  1.0
  F  F109  1  0.57841000  0.66598000  0.76419000  1.0
  F  F110  1  0.46411000  0.68672000  0.98983000  1.0
  F  F111  1  0.53589000  0.31328000  0.01017000  1.0
  F  F112  1  0.35448000  0.80701000  0.12321000  1.0
  F  F113  1  0.64552000  0.19299000  0.87680000  1.0
  F  F114  1  0.29505000  0.85791000  0.97613000  1.0
  F  F115  1  0.70495000  0.14209000  0.02388000  1.0
