# generated using pymatgen
data_Al2H31C34Br3(N4O5)2
_symmetry_space_group_name_H-M   'P 1'
_cell_length_a   6.83504000
_cell_length_b   22.38800000
_cell_length_c   26.51260000
_cell_angle_alpha   78.87600000
_cell_angle_beta   89.99970000
_cell_angle_gamma   89.99930000
_symmetry_Int_Tables_number   1
_chemical_formula_structural   Al2H31C34Br3(N4O5)2
_chemical_formula_sum   'Al4 H62 C68 Br6 N16 O20'
_cell_volume   3980.81046320
_cell_formula_units_Z   2
loop_
 _symmetry_equiv_pos_site_id
 _symmetry_equiv_pos_as_xyz
  1  'x, y, z'
loop_
 _atom_site_type_symbol
 _atom_site_label
 _atom_site_symmetry_multiplicity
 _atom_site_fract_x
 _atom_site_fract_y
 _atom_site_fract_z
 _atom_site_occupancy
  Al  Al0  1  0.17567000  0.50086000  0.50044000  1.0
  Al  Al1  1  0.67567000  0.49914000  0.49955000  1.0
  Al  Al2  1  0.66232000  0.99928000  0.00151000  1.0
  Al  Al3  1  0.16232000  0.00072000  0.99849000  1.0
  H  H4  1  0.14106000  0.16529000  0.76660000  1.0
  H  H5  1  0.64105000  0.83472000  0.23339000  1.0
  H  H6  1  0.20121000  0.24966000  0.70390000  1.0
  H  H7  1  0.70122000  0.75034000  0.29610000  1.0
  H  H8  1  0.89179000  0.35391000  0.76464000  1.0
  H  H9  1  0.39180000  0.64609000  0.23535000  1.0
  H  H10  1  0.18094000  0.25323000  0.80503000  1.0
  H  H11  1  0.68093000  0.74678000  0.19496000  1.0
  H  H12  1  0.98628000  0.28124000  0.83807000  1.0
  H  H13  1  0.48627000  0.71876000  0.16192000  1.0
  H  H14  1  0.66478000  0.24274000  0.69633000  1.0
  H  H15  1  0.16479000  0.75726000  0.30367000  1.0
  H  H16  1  0.60619000  0.31157000  0.71707000  1.0
  H  H17  1  0.10620000  0.68842000  0.28293000  1.0
  H  H18  1  0.00913000  0.22330000  0.66885000  1.0
  H  H19  1  0.50914000  0.77670000  0.33115000  1.0
  H  H20  1  0.65345000  0.26729000  0.80490000  1.0
  H  H21  1  0.15344000  0.73271000  0.19510000  1.0
  H  H22  1  0.60586000  0.08113000  0.11987000  1.0
  H  H23  1  0.10588000  0.91887000  0.88013000  1.0
  H  H24  1  0.61830000  0.36075000  0.30699000  1.0
  H  H25  1  0.11832000  0.63924000  0.69301000  1.0
  H  H26  1  0.64678000  0.42693000  0.37241000  1.0
  H  H27  1  0.14680000  0.57307000  0.62759000  1.0
  H  H28  1  0.18472000  0.28490000  0.35261000  1.0
  H  H29  1  0.68474000  0.71510000  0.64740000  1.0
  H  H30  1  0.81211000  0.11243000  0.76523000  1.0
  H  H31  1  0.12208000  0.07690000  0.73011000  1.0
  H  H32  1  0.05136000  0.12427000  0.67110000  1.0
  H  H33  1  0.89992000  0.06224000  0.69849000  1.0
  H  H34  1  0.31211000  0.88758000  0.23477000  1.0
  H  H35  1  0.62209000  0.92310000  0.26988000  1.0
  H  H36  1  0.55137000  0.87573000  0.32890000  1.0
  H  H37  1  0.39993000  0.93776000  0.30151000  1.0
  H  H38  1  0.51828000  0.18298000  0.20564000  1.0
  H  H39  1  0.37531000  0.09808000  0.25925000  1.0
  H  H40  1  0.63347000  0.09783000  0.27118000  1.0
  H  H41  1  0.53331000  0.04887000  0.23228000  1.0
  H  H42  1  0.01829000  0.81702000  0.79435000  1.0
  H  H43  1  0.87534000  0.90192000  0.74075000  1.0
  H  H44  1  0.13350000  0.90217000  0.72882000  1.0
  H  H45  1  0.03335000  0.95113000  0.76772000  1.0
  H  H46  1  0.32941000  0.19751000  0.12590000  1.0
  H  H47  1  0.26356000  0.27190000  0.19254000  1.0
  H  H48  1  0.06271000  0.29109000  0.14948000  1.0
  H  H49  1  0.30780000  0.29965000  0.12573000  1.0
  H  H50  1  0.82943000  0.80249000  0.87410000  1.0
  H  H51  1  0.76357000  0.72809000  0.80747000  1.0
  H  H52  1  0.56269000  0.70891000  0.85053000  1.0
  H  H53  1  0.80780000  0.70034000  0.87428000  1.0
  H  H54  1  0.36549000  0.11162000  0.15334000  1.0
  H  H55  1  0.41215000  0.01080000  0.16533000  1.0
  H  H56  1  0.36843000  0.01829000  0.09812000  1.0
  H  H57  1  0.17133000  0.99958000  0.14223000  1.0
  H  H58  1  0.86551000  0.88838000  0.84666000  1.0
  H  H59  1  0.91217000  0.98920000  0.83467000  1.0
  H  H60  1  0.86844000  0.98171000  0.90188000  1.0
  H  H61  1  0.67134000  0.00042000  0.85776000  1.0
  H  H62  1  0.41962000  0.42413000  0.49241000  1.0
  H  H63  1  0.91961000  0.57587000  0.50761000  1.0
  H  H64  1  0.41411000  0.07977000  0.99572000  1.0
  H  H65  1  0.91411000  0.92023000  0.00428000  1.0
  C  C66  1  0.42882000  0.56472000  0.56248000  1.0
  C  C67  1  0.92880000  0.43527000  0.43751000  1.0
  C  C68  1  0.42606000  0.57969000  0.42509000  1.0
  C  C69  1  0.92605000  0.42031000  0.57490000  1.0
  C  C70  1  0.04527000  0.23745000  0.70511000  1.0
  C  C71  1  0.54527000  0.76255000  0.29489000  1.0
  C  C72  1  0.99606000  0.32001000  0.75617000  1.0
  C  C73  1  0.49607000  0.67999000  0.24382000  1.0
  C  C74  1  0.02714000  0.26752000  0.80193000  1.0
  C  C75  1  0.52714000  0.73248000  0.19806000  1.0
  C  C76  1  0.90456000  0.13138000  0.88293000  1.0
  C  C77  1  0.40454000  0.86862000  0.11706000  1.0
  C  C78  1  0.92176000  0.29404000  0.70960000  1.0
  C  C79  1  0.42177000  0.70596000  0.29040000  1.0
  C  C80  1  0.00046000  0.18468000  0.75061000  1.0
  C  C81  1  0.50045000  0.81532000  0.24938000  1.0
  C  C82  1  0.90217000  0.21138000  0.79450000  1.0
  C  C83  1  0.40216000  0.78862000  0.20550000  1.0
  C  C84  1  0.69825000  0.23784000  0.77836000  1.0
  C  C85  1  0.19825000  0.76216000  0.22164000  1.0
  C  C86  1  0.70639000  0.27260000  0.72285000  1.0
  C  C87  1  0.20640000  0.72740000  0.27714000  1.0
  C  C88  1  0.90085000  0.16734000  0.84229000  1.0
  C  C89  1  0.40083000  0.83266000  0.15770000  1.0
  C  C90  1  0.92503000  0.33878000  0.66222000  1.0
  C  C91  1  0.42505000  0.66123000  0.33778000  1.0
  C  C92  1  0.92528000  0.37577000  0.62218000  1.0
  C  C93  1  0.42530000  0.62423000  0.37781000  1.0
  C  C94  1  0.73179000  0.10395000  0.13207000  1.0
  C  C95  1  0.23180000  0.89605000  0.86792000  1.0
  C  C96  1  0.71556000  0.14147000  0.16728000  1.0
  C  C97  1  0.21559000  0.85853000  0.83272000  1.0
  C  C98  1  0.88258000  0.17682000  0.17698000  1.0
  C  C99  1  0.38259000  0.82318000  0.82302000  1.0
  C  C100  1  0.05933000  0.16938000  0.15077000  1.0
  C  C101  1  0.55934000  0.83062000  0.84924000  1.0
  C  C102  1  0.08470000  0.11390000  0.13045000  1.0
  C  C103  1  0.58471000  0.88609000  0.86956000  1.0
  C  C104  1  0.91429000  0.08957000  0.11201000  1.0
  C  C105  1  0.41431000  0.91043000  0.88798000  1.0
  C  C106  1  0.88821000  0.27810000  0.28811000  1.0
  C  C107  1  0.38822000  0.72189000  0.71190000  1.0
  C  C108  1  0.88040000  0.21229000  0.21719000  1.0
  C  C109  1  0.38043000  0.78770000  0.78282000  1.0
  C  C110  1  0.74865000  0.35918000  0.33081000  1.0
  C  C111  1  0.24867000  0.64081000  0.66920000  1.0
  C  C112  1  0.76451000  0.39589000  0.36718000  1.0
  C  C113  1  0.26453000  0.60411000  0.63282000  1.0
  C  C114  1  0.92964000  0.39425000  0.39915000  1.0
  C  C115  1  0.42965000  0.60575000  0.60085000  1.0
  C  C116  1  0.08125000  0.35363000  0.39298000  1.0
  C  C117  1  0.58127000  0.64637000  0.60702000  1.0
  C  C118  1  0.06767000  0.31662000  0.35656000  1.0
  C  C119  1  0.56768000  0.68338000  0.64345000  1.0
  C  C120  1  0.90095000  0.31878000  0.32531000  1.0
  C  C121  1  0.40098000  0.68121000  0.67470000  1.0
  C  C122  1  0.40925000  0.91442000  0.07061000  1.0
  C  C123  1  0.90926000  0.08558000  0.92938000  1.0
  C  C124  1  0.41406000  0.94482000  0.93024000  1.0
  C  C125  1  0.91406000  0.05518000  0.06976000  1.0
  C  C126  1  0.99465000  0.09829000  0.70763000  1.0
  C  C127  1  0.49465000  0.90171000  0.29237000  1.0
  C  C128  1  0.52021000  0.09404000  0.24224000  1.0
  C  C129  1  0.02024000  0.90596000  0.75776000  1.0
  C  C130  1  0.21057000  0.27128000  0.15340000  1.0
  C  C131  1  0.71056000  0.72872000  0.84661000  1.0
  C  C132  1  0.30654000  0.02624000  0.13428000  1.0
  C  C133  1  0.80656000  0.97376000  0.86572000  1.0
  Br  Br134  1  0.31032000  0.34087000  0.43504000  1.0
  Br  Br135  1  0.81033000  0.65914000  0.56496000  1.0
  Br  Br136  1  0.23996000  0.36798000  0.74185000  1.0
  Br  Br137  1  0.73998000  0.63203000  0.25814000  1.0
  Br  Br138  1  0.48956000  0.17576000  0.78901000  1.0
  Br  Br139  1  0.98956000  0.82424000  0.21100000  1.0
  N  N140  1  0.04218000  0.20891000  0.24829000  1.0
  N  N141  1  0.54221000  0.79108000  0.75171000  1.0
  N  N142  1  0.04585000  0.24271000  0.28342000  1.0
  N  N143  1  0.54587000  0.75728000  0.71659000  1.0
  N  N144  1  0.71747000  0.27470000  0.26293000  1.0
  N  N145  1  0.21748000  0.72529000  0.73707000  1.0
  N  N146  1  0.71337000  0.24173000  0.22682000  1.0
  N  N147  1  0.21339000  0.75827000  0.77319000  1.0
  N  N148  1  0.88063000  0.13794000  0.73417000  1.0
  N  N149  1  0.38063000  0.86206000  0.26583000  1.0
  N  N150  1  0.53726000  0.14146000  0.19546000  1.0
  N  N151  1  0.03728000  0.85854000  0.80453000  1.0
  N  N152  1  0.20650000  0.21085000  0.14202000  1.0
  N  N153  1  0.70651000  0.78915000  0.85798000  1.0
  N  N154  1  0.26730000  0.09052000  0.13225000  1.0
  N  N155  1  0.76732000  0.90948000  0.86775000  1.0
  O  O156  1  0.59355000  0.56169000  0.44291000  1.0
  O  O157  1  0.09357000  0.43832000  0.55710000  1.0
  O  O158  1  0.26057000  0.54995000  0.54805000  1.0
  O  O159  1  0.76056000  0.45006000  0.45195000  1.0
  O  O160  1  0.25875000  0.56352000  0.44414000  1.0
  O  O161  1  0.75877000  0.43648000  0.55585000  1.0
  O  O162  1  0.09273000  0.45219000  0.45231000  1.0
  O  O163  1  0.59273000  0.54780000  0.54770000  1.0
  O  O164  1  0.42465000  0.46384000  0.50201000  1.0
  O  O165  1  0.92464000  0.53616000  0.49799000  1.0
  O  O166  1  0.24607000  0.96007000  0.94539000  1.0
  O  O167  1  0.74605000  0.03993000  0.05460000  1.0
  O  O168  1  0.57849000  0.93281000  0.05466000  1.0
  O  O169  1  0.07850000  0.06719000  0.94533000  1.0
  O  O170  1  0.57731000  0.95391000  0.95136000  1.0
  O  O171  1  0.07731000  0.04610000  0.04864000  1.0
  O  O172  1  0.74435000  0.06755000  0.94909000  1.0
  O  O173  1  0.24434000  0.93246000  0.05090000  1.0
  O  O174  1  0.41289000  0.03573000  0.00100000  1.0
  O  O175  1  0.91289000  0.96427000  0.99900000  1.0
