# generated using pymatgen
data_CoH9C11(NO)4
_symmetry_space_group_name_H-M   'P 1'
_cell_length_a   7.82790000
_cell_length_b   9.60470000
_cell_length_c   9.72902000
_cell_angle_alpha   117.37200000
_cell_angle_beta   96.36160000
_cell_angle_gamma   102.47700000
_symmetry_Int_Tables_number   1
_chemical_formula_structural   CoH9C11(NO)4
_chemical_formula_sum   'Co2 H18 C22 N8 O8'
_cell_volume   615.32865588
_cell_formula_units_Z   2
loop_
 _symmetry_equiv_pos_site_id
 _symmetry_equiv_pos_as_xyz
  1  'x, y, z'
loop_
 _atom_site_type_symbol
 _atom_site_label
 _atom_site_symmetry_multiplicity
 _atom_site_fract_x
 _atom_site_fract_y
 _atom_site_fract_z
 _atom_site_occupancy
  Co  Co0  1  0.19910000  0.74142000  0.36261000  1.0
  Co  Co1  1  0.80090000  0.25858000  0.63739000  1.0
  H  H2  1  0.19361000  0.80350000  0.90706000  1.0
  H  H3  1  0.80639000  0.19650000  0.09294000  1.0
  H  H4  1  0.22115000  0.45852000  0.45465000  1.0
  H  H5  1  0.77885000  0.54148000  0.54535000  1.0
  H  H6  1  0.16771000  0.14000000  0.96403000  1.0
  H  H7  1  0.83229000  0.86000000  0.03597000  1.0
  H  H8  1  0.16097000  0.44814000  0.01283000  1.0
  H  H9  1  0.83903000  0.55186000  0.98718000  1.0
  H  H10  1  0.84571000  0.47900000  0.29184000  1.0
  H  H11  1  0.15429000  0.52100000  0.70816000  1.0
  H  H12  1  0.50957000  0.52525000  0.24384000  1.0
  H  H13  1  0.49044000  0.47475000  0.75616000  1.0
  H  H14  1  0.91930000  0.95230000  0.34660000  1.0
  H  H15  1  0.08069000  0.04770000  0.65340000  1.0
  H  H16  1  0.57518000  0.81294000  0.28492000  1.0
  H  H17  1  0.42482000  0.18706000  0.71507000  1.0
  H  H18  1  0.20851000  0.16776000  0.24327000  1.0
  H  H19  1  0.79149000  0.83224000  0.75673000  1.0
  C  C20  1  0.31776000  0.93440000  0.21965000  1.0
  C  C21  1  0.68224000  0.06559000  0.78035000  1.0
  C  C22  1  0.41874000  0.96938000  0.11003000  1.0
  C  C23  1  0.58126000  0.03062000  0.88997000  1.0
  C  C24  1  0.32899000  0.88975000  0.94938000  1.0
  C  C25  1  0.67101000  0.11026000  0.05062000  1.0
  C  C26  1  0.59286000  0.08129000  0.16138000  1.0
  C  C27  1  0.40715000  0.91871000  0.83862000  1.0
  C  C28  1  0.70061000  0.17122000  0.33068000  1.0
  C  C29  1  0.29939000  0.82878000  0.66932000  1.0
  C  C30  1  0.21002000  0.41666000  0.32910000  1.0
  C  C31  1  0.78998000  0.58334000  0.67090000  1.0
  C  C32  1  0.17832000  0.25221000  0.07180000  1.0
  C  C33  1  0.82167000  0.74779000  0.92820000  1.0
  C  C34  1  0.17398000  0.40441000  0.09707000  1.0
  C  C35  1  0.82602000  0.59559000  0.90294000  1.0
  C  C36  1  0.81066000  0.58318000  0.29409000  1.0
  C  C37  1  0.18935000  0.41682000  0.70591000  1.0
  C  C38  1  0.64438000  0.60508000  0.27234000  1.0
  C  C39  1  0.35562000  0.39492000  0.72766000  1.0
  C  C40  1  0.85452000  0.83015000  0.32533000  1.0
  C  C41  1  0.14548000  0.16984000  0.67467000  1.0
  N  N42  1  0.19466000  0.50667000  0.25910000  1.0
  N  N43  1  0.80534000  0.49333000  0.74091000  1.0
  N  N44  1  0.20164000  0.26303000  0.21928000  1.0
  N  N45  1  0.79835000  0.73697000  0.78072000  1.0
  N  N46  1  0.94118000  0.72464000  0.32653000  1.0
  N  N47  1  0.05882000  0.27536000  0.67347000  1.0
  N  N48  1  0.67514000  0.76090000  0.29302000  1.0
  N  N49  1  0.32486000  0.23910000  0.70698000  1.0
  O  O50  1  0.33302000  0.80894000  0.23158000  1.0
  O  O51  1  0.66699000  0.19106000  0.76842000  1.0
  O  O52  1  0.21616000  0.01750000  0.28191000  1.0
  O  O53  1  0.78384000  0.98250000  0.71808000  1.0
  O  O54  1  0.64301000  0.11738000  0.42306000  1.0
  O  O55  1  0.35699000  0.88262000  0.57694000  1.0
  O  O56  1  0.83922000  0.29041000  0.37802000  1.0
  O  O57  1  0.16078000  0.70959000  0.62197000  1.0
