# generated using pymatgen
data_CoH4C6(NO)4
_symmetry_space_group_name_H-M   'P 1'
_cell_length_a   6.85424000
_cell_length_b   7.46533000
_cell_length_c   9.14178000
_cell_angle_alpha   113.00600000
_cell_angle_beta   109.87200000
_cell_angle_gamma   90.25770000
_symmetry_Int_Tables_number   1
_chemical_formula_structural   CoH4C6(NO)4
_chemical_formula_sum   'Co2 H8 C12 N8 O8'
_cell_volume   399.80397228
_cell_formula_units_Z   2
loop_
 _symmetry_equiv_pos_site_id
 _symmetry_equiv_pos_as_xyz
  1  'x, y, z'
loop_
 _atom_site_type_symbol
 _atom_site_label
 _atom_site_symmetry_multiplicity
 _atom_site_fract_x
 _atom_site_fract_y
 _atom_site_fract_z
 _atom_site_occupancy
  Co  Co0  1  0.25498000  0.67758000  0.35601000  1.0
  Co  Co1  1  0.74162000  0.32515000  0.63991000  1.0
  H  H2  1  0.63397000  0.61428000  0.44175000  1.0
  H  H3  1  0.63410000  0.83603000  0.44631000  1.0
  H  H4  1  0.34400000  0.38915000  0.54275000  1.0
  H  H5  1  0.34239000  0.17209000  0.54892000  1.0
  H  H6  1  0.87385000  0.50793000  0.23427000  1.0
  H  H7  1  0.87155000  0.73290000  0.23896000  1.0
  H  H8  1  0.14575000  0.49484000  0.76590000  1.0
  H  H9  1  0.14242000  0.27579000  0.77296000  1.0
  C  C10  1  0.25379000  0.74779000  0.67897000  1.0
  C  C11  1  0.25177000  0.94706000  0.68270000  1.0
  C  C12  1  0.74922000  0.25908000  0.31699000  1.0
  C  C13  1  0.74832000  0.06156000  0.32015000  1.0
  C  C14  1  0.25021000  0.87395000  0.95543000  1.0
  C  C15  1  0.24888000  0.06372000  0.95913000  1.0
  C  C16  1  0.75861000  0.11573000  0.04481000  1.0
  C  C17  1  0.75866000  0.92984000  0.04756000  1.0
  C  C18  1  0.25095000  0.82805000  0.09295000  1.0
  C  C19  1  0.24976000  0.23612000  0.10078000  1.0
  C  C20  1  0.75183000  0.14931000  0.90154000  1.0
  C  C21  1  0.75293000  0.75561000  0.90646000  1.0
  N  N22  1  0.25173000  0.71772000  0.81305000  1.0
  N  N23  1  0.24851000  0.09743000  0.82285000  1.0
  N  N24  1  0.75919000  0.27964000  0.18077000  1.0
  N  N25  1  0.75847000  0.90517000  0.18734000  1.0
  N  N26  1  0.25088000  0.76945000  0.19487000  1.0
  N  N27  1  0.25042000  0.38919000  0.20606000  1.0
  N  N28  1  0.74366000  0.19987000  0.79428000  1.0
  N  N29  1  0.74631000  0.60373000  0.79769000  1.0
  O  O30  1  0.25868000  0.60471000  0.54356000  1.0
  O  O31  1  0.25378000  0.96953000  0.55193000  1.0
  O  O32  1  0.73977000  0.40677000  0.44537000  1.0
  O  O33  1  0.73667000  0.04511000  0.45119000  1.0
  O  O34  1  0.56216000  0.73296000  0.46357000  1.0
  O  O35  1  0.41941000  0.27459000  0.53473000  1.0
  O  O36  1  0.95360000  0.64682000  0.29244000  1.0
  O  O37  1  0.05719000  0.36373000  0.72508000  1.0
