# generated using pymatgen
data_CuH20C28(NO2)2
_symmetry_space_group_name_H-M   'P 1'
_cell_length_a   8.73037000
_cell_length_b   13.12210000
_cell_length_c   13.83880000
_cell_angle_alpha   61.73340000
_cell_angle_beta   85.30560000
_cell_angle_gamma   80.02390000
_symmetry_Int_Tables_number   1
_chemical_formula_structural   CuH20C28(NO2)2
_chemical_formula_sum   'Cu2 H40 C56 N4 O8'
_cell_volume   1375.22002983
_cell_formula_units_Z   2
loop_
 _symmetry_equiv_pos_site_id
 _symmetry_equiv_pos_as_xyz
  1  'x, y, z'
loop_
 _atom_site_type_symbol
 _atom_site_label
 _atom_site_symmetry_multiplicity
 _atom_site_fract_x
 _atom_site_fract_y
 _atom_site_fract_z
 _atom_site_occupancy
  Cu  Cu0  1  0.54280000  0.06315000  0.20266000  1.0
  Cu  Cu1  1  0.04258000  0.26542000  0.79753000  1.0
  H  H2  1  0.66686000  0.54537000  0.50332000  1.0
  H  H3  1  0.16699000  0.04907000  0.49662000  1.0
  H  H4  1  0.45222000  0.66713000  0.46858000  1.0
  H  H5  1  0.95212000  0.13591000  0.53127000  1.0
  H  H6  1  0.92068000  0.43044000  0.58995000  1.0
  H  H7  1  0.42090000  0.02104000  0.41003000  1.0
  H  H8  1  0.33215000  0.83779000  0.89096000  1.0
  H  H9  1  0.83273000  0.72850000  0.10927000  1.0
  H  H10  1  0.35425000  0.62636000  0.12237000  1.0
  H  H11  1  0.85443000  0.74863000  0.87771000  1.0
  H  H12  1  0.42833000  0.12503000  0.98605000  1.0
  H  H13  1  0.92778000  0.11096000  0.01423000  1.0
  H  H14  1  0.04939000  0.92883000  0.23631000  1.0
  H  H15  1  0.54924000  0.16501000  0.76362000  1.0
  H  H16  1  0.34947000  0.02239000  0.89204000  1.0
  H  H17  1  0.84960000  0.91419000  0.10824000  1.0
  H  H18  1  0.30287000  0.81187000  0.32184000  1.0
  H  H19  1  0.80274000  0.13381000  0.67804000  1.0
  H  H20  1  0.28351000  0.48676000  0.66346000  1.0
  H  H21  1  0.78361000  0.14982000  0.33645000  1.0
  H  H22  1  0.49999000  0.69493000  0.18177000  1.0
  H  H23  1  0.00046000  0.87636000  0.81850000  1.0
  H  H24  1  0.18164000  0.60320000  0.75708000  1.0
  H  H25  1  0.68246000  0.36029000  0.24286000  1.0
  H  H26  1  0.71230000  0.25523000  0.89316000  1.0
  H  H27  1  0.21257000  0.14827000  0.10682000  1.0
  H  H28  1  0.13585000  0.34570000  0.09252000  1.0
  H  H29  1  0.63458000  0.43870000  0.90735000  1.0
  H  H30  1  0.28725000  0.72703000  0.81753000  1.0
  H  H31  1  0.78840000  0.54436000  0.18244000  1.0
  H  H32  1  0.06180000  0.59146000  0.61229000  1.0
  H  H33  1  0.56173000  0.20397000  0.38738000  1.0
  H  H34  1  0.24549000  0.46738000  0.15508000  1.0
  H  H35  1  0.74478000  0.62262000  0.84484000  1.0
  H  H36  1  0.56972000  0.81373000  0.26376000  1.0
  H  H37  1  0.06966000  0.07720000  0.73656000  1.0
  H  H38  1  0.45089000  0.35836000  0.81901000  1.0
  H  H39  1  0.95107000  0.17707000  0.18091000  1.0
  H  H40  1  0.81089000  0.71513000  0.52766000  1.0
  H  H41  1  0.31077000  0.24266000  0.47212000  1.0
  C  C42  1  0.67096000  0.48267000  0.59030000  1.0
  C  C43  1  0.17108000  0.07320000  0.40966000  1.0
  C  C44  1  0.35332000  0.62734000  0.51727000  1.0
  C  C45  1  0.85328000  0.14462000  0.48259000  1.0
  C  C46  1  0.15218000  0.46610000  0.92140000  1.0
  C  C47  1  0.65189000  0.38778000  0.07849000  1.0
  C  C48  1  0.81307000  0.41968000  0.63731000  1.0
  C  C49  1  0.31325000  0.05738000  0.36267000  1.0
  C  C50  1  0.35935000  0.78595000  0.97833000  1.0
  C  C51  1  0.85983000  0.76401000  0.02189000  1.0
  C  C52  1  0.91487000  0.82941000  0.37720000  1.0
  C  C53  1  0.41470000  0.20635000  0.62269000  1.0
  C  C54  1  0.33310000  0.67364000  0.03388000  1.0
  C  C55  1  0.83341000  0.70737000  0.96620000  1.0
  C  C56  1  0.44082000  0.02966000  0.02640000  1.0
  C  C57  1  0.94054000  0.05589000  0.97389000  1.0
  C  C58  1  0.05370000  0.85531000  0.31862000  1.0
  C  C59  1  0.55356000  0.17384000  0.68127000  1.0
  C  C60  1  0.76259000  0.90312000  0.32948000  1.0
  C  C61  1  0.26227000  0.23186000  0.67053000  1.0
  C  C62  1  0.39804000  0.97064000  0.97448000  1.0
  C  C63  1  0.89810000  0.94491000  0.02579000  1.0
  C  C64  1  0.19481000  0.78930000  0.36646000  1.0
  C  C65  1  0.69470000  0.15581000  0.63340000  1.0
  C  C66  1  0.38054000  0.52593000  0.61184000  1.0
  C  C67  1  0.88055000  0.13759000  0.38808000  1.0
  C  C68  1  0.47962000  0.79014000  0.13533000  1.0
  C  C69  1  0.97987000  0.92516000  0.86494000  1.0
  C  C70  1  0.09650000  0.38585000  0.88792000  1.0
  C  C71  1  0.59620000  0.27409000  0.11196000  1.0
  C  C72  1  0.41335000  0.84762000  0.02948000  1.0
  C  C73  1  0.91369000  0.87683000  0.97078000  1.0
  C  C74  1  0.19406000  0.57458000  0.84429000  1.0
  C  C75  1  0.69442000  0.41895000  0.15565000  1.0
  C  C76  1  0.53430000  0.46363000  0.65423000  1.0
  C  C77  1  0.03440000  0.11781000  0.34572000  1.0
  C  C78  1  0.69812000  0.31916000  0.80672000  1.0
  C  C79  1  0.19833000  0.12586000  0.19324000  1.0
  C  C80  1  0.16939000  0.42930000  0.03335000  1.0
  C  C81  1  0.66865000  0.46298000  0.96653000  1.0
  C  C82  1  0.25278000  0.64404000  0.87868000  1.0
  C  C83  1  0.75337000  0.52265000  0.12130000  1.0
  C  C84  1  0.06069000  0.66571000  0.53009000  1.0
  C  C85  1  0.56063000  0.19590000  0.46964000  1.0
  C  C86  1  0.20157000  0.69311000  0.47254000  1.0
  C  C87  1  0.70148000  0.16570000  0.52727000  1.0
  C  C88  1  0.22979000  0.49780000  0.06765000  1.0
  C  C89  1  0.72932000  0.56563000  0.93225000  1.0
  C  C90  1  0.52013000  0.85485000  0.18158000  1.0
  C  C91  1  0.02008000  0.03616000  0.81871000  1.0
  C  C92  1  0.27231000  0.60665000  0.99135000  1.0
  C  C93  1  0.77252000  0.59796000  0.00863000  1.0
  C  C94  1  0.55153000  0.37822000  0.76495000  1.0
  C  C95  1  0.05169000  0.14304000  0.23499000  1.0
  C  C96  1  0.92006000  0.73387000  0.48319000  1.0
  C  C97  1  0.41997000  0.21696000  0.51660000  1.0
  N  N98  1  0.82695000  0.33942000  0.74438000  1.0
  N  N99  1  0.32716000  0.08403000  0.25562000  1.0
  N  N100  1  0.49925000  0.97297000  0.12899000  1.0
  N  N101  1  0.99892000  0.10174000  0.87130000  1.0
  O  O102  1  0.09312000  0.41721000  0.78392000  1.0
  O  O103  1  0.59302000  0.20157000  0.21596000  1.0
  O  O104  1  0.76631000  0.98793000  0.22976000  1.0
  O  O105  1  0.26596000  0.21715000  0.77023000  1.0
  O  O106  1  0.05933000  0.28937000  0.95967000  1.0
  O  O107  1  0.55896000  0.24929000  0.04022000  1.0
  O  O108  1  0.63886000  0.88176000  0.38405000  1.0
  O  O109  1  0.13850000  0.26454000  0.61605000  1.0
