# generated using pymatgen
data_ZnP2H28C34(NO4)2
_symmetry_space_group_name_H-M   'P 1'
_cell_length_a   10.34080000
_cell_length_b   18.13000000
_cell_length_c   18.13000000
_cell_angle_alpha   103.03800000
_cell_angle_beta   97.46290000
_cell_angle_gamma   97.46280000
_symmetry_Int_Tables_number   1
_chemical_formula_structural   ZnP2H28C34(NO4)2
_chemical_formula_sum   'Zn4 P8 H112 C136 N8 O32'
_cell_volume   3238.42675355
_cell_formula_units_Z   4
loop_
 _symmetry_equiv_pos_site_id
 _symmetry_equiv_pos_as_xyz
  1  'x, y, z'
loop_
 _atom_site_type_symbol
 _atom_site_label
 _atom_site_symmetry_multiplicity
 _atom_site_fract_x
 _atom_site_fract_y
 _atom_site_fract_z
 _atom_site_occupancy
  Zn  Zn0  1  0.24918000  0.50660000  0.99254000  1.0
  Zn  Zn1  1  0.25082000  0.00746000  0.49340000  1.0
  Zn  Zn2  1  0.75082000  0.49340000  0.00746000  1.0
  Zn  Zn3  1  0.74918000  0.99254000  0.50660000  1.0
  P  P4  1  0.48887000  0.42984000  0.08993000  1.0
  P  P5  1  0.01112000  0.91007000  0.57016000  1.0
  P  P6  1  0.51113000  0.57016000  0.91007000  1.0
  P  P7  1  0.98887000  0.08993000  0.42984000  1.0
  P  P8  1  0.00619000  0.59152000  0.93630000  1.0
  P  P9  1  0.49382000  0.06370000  0.40848000  1.0
  P  P10  1  0.99381000  0.40848000  0.06370000  1.0
  P  P11  1  0.50619000  0.93630000  0.59152000  1.0
  H  H12  1  0.19875000  0.52861000  0.15456000  1.0
  H  H13  1  0.30125000  0.84544000  0.47139000  1.0
  H  H14  1  0.80125000  0.47139000  0.84544000  1.0
  H  H15  1  0.69875000  0.15456000  0.52861000  1.0
  H  H16  1  0.19132000  0.63436000  0.26789000  1.0
  H  H17  1  0.30868000  0.73211000  0.36564000  1.0
  H  H18  1  0.80868000  0.36564000  0.73211000  1.0
  H  H19  1  0.69132000  0.26789000  0.63436000  1.0
  H  H20  1  0.32097000  0.79433000  0.13718000  1.0
  H  H21  1  0.17903000  0.86282000  0.20567000  1.0
  H  H22  1  0.67903000  0.20567000  0.86282000  1.0
  H  H23  1  0.82097000  0.13718000  0.79433000  1.0
  H  H24  1  0.31846000  0.68054000  0.02825000  1.0
  H  H25  1  0.18154000  0.97175000  0.31946000  1.0
  H  H26  1  0.68154000  0.31946000  0.97175000  1.0
  H  H27  1  0.81846000  0.02825000  0.68054000  1.0
  H  H28  1  0.45174000  0.40850000  0.93271000  1.0
  H  H29  1  0.04826000  0.06729000  0.59150000  1.0
  H  H30  1  0.54826000  0.59150000  0.06729000  1.0
  H  H31  1  0.95174000  0.93272000  0.40850000  1.0
  H  H32  1  0.45627000  0.29643000  0.82599000  1.0
  H  H33  1  0.04373000  0.17401000  0.70357000  1.0
  H  H34  1  0.54373000  0.70357000  0.17401000  1.0
  H  H35  1  0.95627000  0.82599000  0.29643000  1.0
  H  H36  1  0.04491000  0.30050000  0.74640000  1.0
  H  H37  1  0.45509000  0.25360000  0.69950000  1.0
  H  H38  1  0.95509000  0.69950000  0.25360000  1.0
  H  H39  1  0.54491000  0.74640000  0.30050000  1.0
  H  H40  1  0.05637000  0.41050000  0.86027000  1.0
  H  H41  1  0.44363000  0.13973000  0.58950000  1.0
  H  H42  1  0.94363000  0.58950000  0.13972000  1.0
  H  H43  1  0.55637000  0.86027000  0.41050000  1.0
  H  H44  1  0.19325000  0.81857000  0.00897000  1.0
  H  H45  1  0.30675000  0.99103000  0.18143000  1.0
  H  H46  1  0.80675000  0.18143000  0.99103000  1.0
  H  H47  1  0.69325000  0.00897000  0.81857000  1.0
  H  H48  1  0.10863000  0.93541000  0.07541000  1.0
  H  H49  1  0.39137000  0.92459000  0.06459000  1.0
  H  H50  1  0.89137000  0.06459000  0.92459000  1.0
  H  H51  1  0.60863000  0.07541000  0.93541000  1.0
  H  H52  1  0.88022000  0.92315000  0.10510000  1.0
  H  H53  1  0.61978000  0.89490000  0.07685000  1.0
  H  H54  1  0.11978000  0.07685000  0.89490000  1.0
  H  H55  1  0.38022000  0.10510000  0.92315000  1.0
  H  H56  1  0.73520000  0.79407000  0.06666000  1.0
  H  H57  1  0.76480000  0.93334000  0.20593000  1.0
  H  H58  1  0.26480000  0.20593000  0.93334000  1.0
  H  H59  1  0.23520000  0.06666000  0.79407000  1.0
  H  H60  1  0.81849000  0.67945000  0.99954000  1.0
  H  H61  1  0.68151000  0.00046000  0.32055000  1.0
  H  H62  1  0.18151000  0.32055000  0.00046000  1.0
  H  H63  1  0.31849000  0.99954000  0.67945000  1.0
  H  H64  1  0.84736000  0.69803000  0.79429000  1.0
  H  H65  1  0.65264000  0.20571000  0.30197000  1.0
  H  H66  1  0.15264000  0.30197000  0.20571000  1.0
  H  H67  1  0.34736000  0.79429000  0.69803000  1.0
  H  H68  1  0.92227000  0.72958000  0.67805000  1.0
  H  H69  1  0.57773000  0.32196000  0.27042000  1.0
  H  H70  1  0.07773000  0.27042000  0.32196000  1.0
  H  H71  1  0.42226000  0.67805000  0.72958000  1.0
  H  H72  1  0.08274000  0.65697000  0.61356000  1.0
  H  H73  1  0.41726000  0.38644000  0.34303000  1.0
  H  H74  1  0.91726000  0.34303000  0.38644000  1.0
  H  H75  1  0.58274000  0.61356000  0.65697000  1.0
  H  H76  1  0.16794000  0.55369000  0.66562000  1.0
  H  H77  1  0.33206000  0.33438000  0.44631000  1.0
  H  H78  1  0.83206000  0.44631000  0.33438000  1.0
  H  H79  1  0.66794000  0.66563000  0.55369000  1.0
  H  H80  1  0.09092000  0.52183000  0.78179000  1.0
  H  H81  1  0.40908000  0.21821000  0.47817000  1.0
  H  H82  1  0.90909000  0.47817000  0.21821000  1.0
  H  H83  1  0.59092000  0.78179000  0.52183000  1.0
  H  H84  1  0.32390000  0.20839000  0.08441000  1.0
  H  H85  1  0.17610000  0.91559000  0.79161000  1.0
  H  H86  1  0.67610000  0.79161000  0.91559000  1.0
  H  H87  1  0.82390000  0.08441000  0.20839000  1.0
  H  H88  1  0.43693000  0.09723000  0.10131000  1.0
  H  H89  1  0.06307000  0.89869000  0.90277000  1.0
  H  H90  1  0.56307000  0.90277000  0.89869000  1.0
  H  H91  1  0.93693000  0.10131000  0.09723000  1.0
  H  H92  1  0.68203000  0.11606000  0.13079000  1.0
  H  H93  1  0.81797000  0.86921000  0.88394000  1.0
  H  H94  1  0.31797000  0.88394000  0.86921000  1.0
  H  H95  1  0.18203000  0.13079000  0.11606000  1.0
  H  H96  1  0.81413000  0.24586000  0.14521000  1.0
  H  H97  1  0.68587000  0.85479000  0.75414000  1.0
  H  H98  1  0.18587000  0.75414000  0.85479000  1.0
  H  H99  1  0.31413000  0.14521000  0.24586000  1.0
  H  H100  1  0.70241000  0.35455000  0.12703000  1.0
  H  H101  1  0.79759000  0.87297000  0.64545000  1.0
  H  H102  1  0.29759000  0.64545000  0.87297000  1.0
  H  H103  1  0.20241000  0.12703000  0.35455000  1.0
  H  H104  1  0.69509000  0.57762000  0.28961000  1.0
  H  H105  1  0.80491000  0.71039000  0.42238000  1.0
  H  H106  1  0.30491000  0.42238000  0.71039000  1.0
  H  H107  1  0.19509000  0.28961000  0.57762000  1.0
  H  H108  1  0.61009000  0.63326000  0.41002000  1.0
  H  H109  1  0.88991000  0.58998000  0.36674000  1.0
  H  H110  1  0.38991000  0.36674000  0.58998000  1.0
  H  H111  1  0.11009000  0.41002000  0.63326000  1.0
  H  H112  1  0.37976000  0.58786000  0.42472000  1.0
  H  H113  1  0.12024000  0.57528000  0.41214000  1.0
  H  H114  1  0.62023000  0.41215000  0.57528000  1.0
  H  H115  1  0.87976000  0.42472000  0.58786000  1.0
  H  H116  1  0.23516000  0.48525000  0.31912000  1.0
  H  H117  1  0.26484000  0.68088000  0.51474000  1.0
  H  H118  1  0.76484000  0.51475000  0.68088000  1.0
  H  H119  1  0.73516000  0.31912000  0.48526000  1.0
  H  H120  1  0.32076000  0.42982000  0.20116000  1.0
  H  H121  1  0.17924000  0.79884000  0.57018000  1.0
  H  H122  1  0.67923000  0.57018000  0.79885000  1.0
  H  H123  1  0.82076000  0.20116000  0.42982000  1.0
  C  C124  1  0.22270000  0.58837000  0.15295000  1.0
  C  C125  1  0.27730000  0.84705000  0.41163000  1.0
  C  C126  1  0.77731000  0.41163000  0.84705000  1.0
  C  C127  1  0.72269000  0.15295000  0.58837000  1.0
  C  C128  1  0.22007000  0.64774000  0.21604000  1.0
  C  C129  1  0.27993000  0.78396000  0.35226000  1.0
  C  C130  1  0.77993000  0.35226000  0.78396000  1.0
  C  C131  1  0.72007000  0.21604000  0.64774000  1.0
  C  C132  1  0.25237000  0.72390000  0.21128000  1.0
  C  C133  1  0.24763000  0.78872000  0.27610000  1.0
  C  C134  1  0.74763000  0.27610000  0.78872000  1.0
  C  C135  1  0.75237000  0.21128000  0.72390000  1.0
  C  C136  1  0.29006000  0.73638000  0.14291000  1.0
  C  C137  1  0.20994000  0.85709000  0.26362000  1.0
  C  C138  1  0.70994000  0.26362000  0.85709000  1.0
  C  C139  1  0.79006000  0.14291000  0.73637000  1.0
  C  C140  1  0.28993000  0.67370000  0.08234000  1.0
  C  C141  1  0.21007000  0.91766000  0.32630000  1.0
  C  C142  1  0.71007000  0.32630000  0.91766000  1.0
  C  C143  1  0.78993000  0.08234000  0.67370000  1.0
  C  C144  1  0.36334000  0.38268000  0.89044000  1.0
  C  C145  1  0.13666000  0.10956000  0.61732000  1.0
  C  C146  1  0.63666000  0.61732000  0.10956000  1.0
  C  C147  1  0.86334000  0.89044000  0.38268000  1.0
  C  C148  1  0.36547000  0.32036000  0.83020000  1.0
  C  C149  1  0.13453000  0.16980000  0.67964000  1.0
  C  C150  1  0.63453000  0.67964000  0.16980000  1.0
  C  C151  1  0.86547000  0.83020000  0.32036000  1.0
  C  C152  1  0.25038000  0.28862000  0.77663000  1.0
  C  C153  1  0.24962000  0.22336000  0.71138000  1.0
  C  C154  1  0.74962000  0.71138000  0.22337000  1.0
  C  C155  1  0.75038000  0.77663000  0.28862000  1.0
  C  C156  1  0.13659000  0.32168000  0.78708000  1.0
  C  C157  1  0.36341000  0.21292000  0.67832000  1.0
  C  C158  1  0.86341000  0.67832000  0.21292000  1.0
  C  C159  1  0.63659000  0.78708000  0.32168000  1.0
  C  C160  1  0.14221000  0.38337000  0.84941000  1.0
  C  C161  1  0.35779000  0.15059000  0.61663000  1.0
  C  C162  1  0.85779000  0.61663000  0.15059000  1.0
  C  C163  1  0.64221000  0.84941000  0.38337000  1.0
  C  C164  1  0.01190000  0.74275000  0.00214000  1.0
  C  C165  1  0.48810000  0.99786000  0.25725000  1.0
  C  C166  1  0.98810000  0.25725000  0.99786000  1.0
  C  C167  1  0.51190000  0.00214000  0.74275000  1.0
  C  C168  1  0.09363000  0.81464000  0.02302000  1.0
  C  C169  1  0.40637000  0.97698000  0.18536000  1.0
  C  C170  1  0.90637000  0.18536000  0.97698000  1.0
  C  C171  1  0.59363000  0.02302000  0.81464000  1.0
  C  C172  1  0.04564000  0.87923000  0.05978000  1.0
  C  C173  1  0.45436000  0.94022000  0.12077000  1.0
  C  C174  1  0.95436000  0.12077000  0.94022000  1.0
  C  C175  1  0.54564000  0.05978000  0.87923000  1.0
  C  C176  1  0.91676000  0.87239000  0.07624000  1.0
  C  C177  1  0.58325000  0.92376000  0.12761000  1.0
  C  C178  1  0.08325000  0.12761000  0.92376000  1.0
  C  C179  1  0.41675000  0.07624000  0.87239000  1.0
  C  C180  1  0.83618000  0.80040000  0.05465000  1.0
  C  C181  1  0.66382000  0.94535000  0.19960000  1.0
  C  C182  1  0.16382000  0.19960000  0.94535000  1.0
  C  C183  1  0.33618000  0.05465000  0.80040000  1.0
  C  C184  1  0.88213000  0.73520000  0.01701000  1.0
  C  C185  1  0.61787000  0.98299000  0.26480000  1.0
  C  C186  1  0.11787000  0.26480000  0.98299000  1.0
  C  C187  1  0.38213000  0.01701000  0.73520000  1.0
  C  C188  1  0.96449000  0.60798000  0.79329000  1.0
  C  C189  1  0.53551000  0.20671000  0.39202000  1.0
  C  C190  1  0.03551000  0.39202000  0.20671000  1.0
  C  C191  1  0.46449000  0.79329000  0.60798000  1.0
  C  C192  1  0.91690000  0.66666667  0.76521000  1.0
  C  C193  1  0.58310000  0.23479000  0.33338000  1.0
  C  C194  1  0.08310000  0.33338000  0.23479000  1.0
  C  C195  1  0.41690000  0.76521000  0.66666667  1.0
  C  C196  1  0.95936000  0.68378000  0.70004000  1.0
  C  C197  1  0.54064000  0.29996000  0.31622000  1.0
  C  C198  1  0.04064000  0.31622000  0.29996000  1.0
  C  C199  1  0.45936000  0.70004000  0.68378000  1.0
  C  C200  1  0.04923000  0.64310000  0.66402000  1.0
  C  C201  1  0.45077000  0.33598000  0.35690000  1.0
  C  C202  1  0.95077000  0.35690000  0.33598000  1.0
  C  C203  1  0.54922000  0.66402000  0.64310000  1.0
  C  C204  1  0.09642000  0.58481000  0.69314000  1.0
  C  C205  1  0.40358000  0.30686000  0.41519000  1.0
  C  C206  1  0.90358000  0.41519000  0.30686000  1.0
  C  C207  1  0.59642000  0.69314000  0.58481000  1.0
  C  C208  1  0.05374000  0.56630000  0.75769000  1.0
  C  C209  1  0.44626000  0.24231000  0.43370000  1.0
  C  C210  1  0.94626000  0.43370000  0.24231000  1.0
  C  C211  1  0.55374000  0.75769000  0.56630000  1.0
  C  C212  1  0.50586000  0.28678000  0.10488000  1.0
  C  C213  1  0.99414000  0.89512000  0.71322000  1.0
  C  C214  1  0.49414000  0.71322000  0.89512000  1.0
  C  C215  1  0.00586000  0.10488000  0.28678000  1.0
  C  C216  1  0.43118000  0.21467000  0.09731000  1.0
  C  C217  1  0.06882000  0.90269000  0.78533000  1.0
  C  C218  1  0.56882000  0.78533000  0.90269000  1.0
  C  C219  1  0.93118000  0.09731000  0.21467000  1.0
  C  C220  1  0.49488000  0.15342000  0.10647000  1.0
  C  C221  1  0.00513000  0.89353000  0.84659000  1.0
  C  C222  1  0.50512000  0.84658000  0.89353000  1.0
  C  C223  1  0.99488000  0.10647000  0.15341000  1.0
  C  C224  1  0.63291000  0.16413000  0.12337000  1.0
  C  C225  1  0.86709000  0.87663000  0.83587000  1.0
  C  C226  1  0.36709000  0.83587000  0.87663000  1.0
  C  C227  1  0.13291000  0.12337000  0.16413000  1.0
  C  C228  1  0.70651000  0.23656000  0.13121000  1.0
  C  C229  1  0.79349000  0.86879000  0.76344000  1.0
  C  C230  1  0.29349000  0.76344000  0.86880000  1.0
  C  C231  1  0.20651000  0.13121000  0.23656000  1.0
  C  C232  1  0.64396000  0.29856000  0.12171000  1.0
  C  C233  1  0.85605000  0.87829000  0.70144000  1.0
  C  C234  1  0.35604000  0.70144000  0.87829000  1.0
  C  C235  1  0.14396000  0.12171000  0.29856000  1.0
  C  C236  1  0.51338000  0.50074000  0.23917000  1.0
  C  C237  1  0.98661000  0.76082000  0.49926000  1.0
  C  C238  1  0.48661000  0.49926000  0.76082000  1.0
  C  C239  1  0.01339000  0.23918000  0.50074000  1.0
  C  C240  1  0.59486000  0.55809000  0.29759000  1.0
  C  C241  1  0.90514000  0.70241000  0.44191000  1.0
  C  C242  1  0.40514000  0.44191000  0.70241000  1.0
  C  C243  1  0.09486000  0.29759000  0.55809000  1.0
  C  C244  1  0.54625000  0.58918000  0.36407000  1.0
  C  C245  1  0.95375000  0.63593000  0.41082000  1.0
  C  C246  1  0.45375000  0.41082000  0.63593000  1.0
  C  C247  1  0.04625000  0.36407000  0.58918000  1.0
  C  C248  1  0.41655000  0.56377000  0.37229000  1.0
  C  C249  1  0.08345000  0.62771000  0.43623000  1.0
  C  C250  1  0.58345000  0.43623000  0.62771000  1.0
  C  C251  1  0.91655000  0.37229000  0.56377000  1.0
  C  C252  1  0.33612000  0.50657000  0.31344000  1.0
  C  C253  1  0.16388000  0.68656000  0.49343000  1.0
  C  C254  1  0.66388000  0.49343000  0.68656000  1.0
  C  C255  1  0.83611000  0.31344000  0.50657000  1.0
  C  C256  1  0.38381000  0.47443000  0.24677000  1.0
  C  C257  1  0.11619000  0.75323000  0.52557000  1.0
  C  C258  1  0.61619000  0.52557000  0.75323000  1.0
  C  C259  1  0.88381000  0.24677000  0.47443000  1.0
  N  N260  1  0.25515000  0.60099000  0.08693000  1.0
  N  N261  1  0.24485000  0.91307000  0.39901000  1.0
  N  N262  1  0.74485000  0.39901000  0.91307000  1.0
  N  N263  1  0.75515000  0.08693000  0.60098000  1.0
  N  N264  1  0.25360000  0.41356000  0.90004000  1.0
  N  N265  1  0.24640000  0.09996000  0.58644000  1.0
  N  N266  1  0.74640000  0.58644000  0.09996000  1.0
  N  N267  1  0.75360000  0.90004000  0.41356000  1.0
  O  O268  1  0.36876000  0.46480000  0.07368000  1.0
  O  O269  1  0.13123000  0.92632000  0.53520000  1.0
  O  O270  1  0.63124000  0.53520000  0.92632000  1.0
  O  O271  1  0.86877000  0.07368000  0.46480000  1.0
  O  O272  1  0.12220000  0.55248000  0.91976000  1.0
  O  O273  1  0.37780000  0.08025000  0.44752000  1.0
  O  O274  1  0.87780000  0.44752000  0.08025000  1.0
  O  O275  1  0.62220000  0.91976000  0.55248000  1.0
  O  O276  1  0.91605000  0.56633000  0.98683000  1.0
  O  O277  1  0.58395000  0.01317000  0.43367000  1.0
  O  O278  1  0.08396000  0.43367000  0.01317000  1.0
  O  O279  1  0.41604000  0.98683000  0.56633000  1.0
  O  O280  1  0.06981000  0.68229000  0.96760000  1.0
  O  O281  1  0.43019000  0.03240000  0.31771000  1.0
  O  O282  1  0.93019000  0.31771000  0.03240000  1.0
  O  O283  1  0.56981000  0.96760000  0.68229000  1.0
  O  O284  1  0.91351000  0.58982000  0.85599000  1.0
  O  O285  1  0.58649000  0.14401000  0.41018000  1.0
  O  O286  1  0.08650000  0.41018000  0.14401000  1.0
  O  O287  1  0.41351000  0.85599000  0.58982000  1.0
  O  O288  1  0.58992000  0.42615000  0.03778000  1.0
  O  O289  1  0.91008000  0.96222000  0.57385000  1.0
  O  O290  1  0.41008000  0.57385000  0.96222000  1.0
  O  O291  1  0.08992000  0.03778000  0.42615000  1.0
  O  O292  1  0.43222000  0.34392000  0.09598000  1.0
  O  O293  1  0.06778000  0.90402000  0.65608000  1.0
  O  O294  1  0.56778000  0.65608000  0.90402000  1.0
  O  O295  1  0.93222000  0.09598000  0.34392000  1.0
  O  O296  1  0.56994000  0.47201000  0.17569000  1.0
  O  O297  1  0.93006000  0.82431000  0.52799000  1.0
  O  O298  1  0.43006000  0.52798000  0.82431000  1.0
  O  O299  1  0.06994000  0.17569000  0.47202000  1.0
