# generated using pymatgen
data_MnH14C10(N3Cl)2
_symmetry_space_group_name_H-M   'P 1'
_cell_length_a   3.70697000
_cell_length_b   11.67375271
_cell_length_c   15.77743784
_cell_angle_alpha   80.56648927
_cell_angle_beta   83.29492411
_cell_angle_gamma   81.13750932
_symmetry_Int_Tables_number   1
_chemical_formula_structural   MnH14C10(N3Cl)2
_chemical_formula_sum   'Mn2 H28 C20 N12 Cl4'
_cell_volume   662.54303234
_cell_formula_units_Z   2
loop_
 _symmetry_equiv_pos_site_id
 _symmetry_equiv_pos_as_xyz
  1  'x, y, z'
loop_
 _atom_site_type_symbol
 _atom_site_label
 _atom_site_symmetry_multiplicity
 _atom_site_fract_x
 _atom_site_fract_y
 _atom_site_fract_z
 _atom_site_occupancy
  Mn  Mn0  1  0.89766000  0.75027000  0.25015000  1.0
  Mn  Mn1  1  0.10233000  0.24973000  0.74985000  1.0
  H  H2  1  0.66699000  0.02533000  0.42797000  1.0
  H  H3  1  0.11948000  0.47524000  0.07214000  1.0
  H  H4  1  0.33304000  0.97467000  0.57203000  1.0
  H  H5  1  0.88049000  0.52476000  0.92786000  1.0
  H  H6  1  0.90943000  0.95908000  0.33932000  1.0
  H  H7  1  0.20529000  0.54185000  0.16097000  1.0
  H  H8  1  0.09060000  0.04092000  0.66068000  1.0
  H  H9  1  0.79468000  0.45815000  0.83904000  1.0
  H  H10  1  0.59370000  0.54668000  0.56452000  1.0
  H  H11  1  0.69648000  0.95308000  0.93628000  1.0
  H  H12  1  0.40633000  0.45331000  0.43547000  1.0
  H  H13  1  0.30355000  0.04692000  0.06371000  1.0
  H  H14  1  0.87518000  0.57141000  0.40997000  1.0
  H  H15  1  0.84887000  0.92894000  0.09069000  1.0
  H  H16  1  0.12483000  0.42859000  0.59003000  1.0
  H  H17  1  0.15112000  0.07106000  0.90931000  1.0
  H  H18  1  0.20069000  0.64368000  0.67607000  1.0
  H  H19  1  0.52134000  0.85521000  0.82387000  1.0
  H  H20  1  0.79931000  0.35632000  0.32393000  1.0
  H  H21  1  0.47865000  0.14479000  0.17613000  1.0
  H  H22  1  0.00226000  0.79301000  0.64491000  1.0
  H  H23  1  0.44153000  0.70535000  0.85490000  1.0
  H  H24  1  0.99775000  0.20699000  0.35509000  1.0
  H  H25  1  0.55846000  0.29465000  0.14510000  1.0
  H  H26  1  0.41908000  0.76231000  0.69325000  1.0
  H  H27  1  0.87579000  0.73752000  0.80690000  1.0
  H  H28  1  0.58094000  0.23768000  0.30675000  1.0
  H  H29  1  0.12420000  0.26247000  0.19310000  1.0
  C  C30  1  0.68413000  0.84748000  0.43632000  1.0
  C  C31  1  0.96714000  0.65288000  0.06378000  1.0
  C  C32  1  0.31589000  0.15253000  0.56368000  1.0
  C  C33  1  0.03284000  0.34712000  0.93622000  1.0
  C  C34  1  0.46483000  0.73526000  0.56128000  1.0
  C  C35  1  0.76036000  0.76440000  0.93887000  1.0
  C  C36  1  0.53520000  0.26474000  0.43872000  1.0
  C  C37  1  0.23962000  0.23560000  0.06113000  1.0
  C  C38  1  0.61278000  0.63282000  0.52714000  1.0
  C  C39  1  0.76715000  0.86708000  0.97341000  1.0
  C  C40  1  0.38722000  0.36719000  0.47286000  1.0
  C  C41  1  0.23285000  0.13292000  0.02659000  1.0
  C  C42  1  0.77087000  0.64686000  0.44267000  1.0
  C  C43  1  0.85494000  0.85338000  0.05783000  1.0
  C  C44  1  0.22915000  0.35315000  0.55732000  1.0
  C  C45  1  0.14505000  0.14662000  0.94217000  1.0
  C  C46  1  0.25877000  0.73224000  0.64890000  1.0
  C  C47  1  0.64065000  0.76690000  0.85109000  1.0
  C  C48  1  0.74125000  0.26776000  0.35109000  1.0
  C  C49  1  0.35935000  0.23309000  0.14891000  1.0
  N  N50  1  0.79849000  0.75204000  0.39483000  1.0
  N  N51  1  0.94272000  0.74838000  0.10541000  1.0
  N  N52  1  0.20152000  0.24796000  0.60517000  1.0
  N  N53  1  0.05728000  0.25162000  0.89458000  1.0
  N  N54  1  0.50450000  0.84102000  0.51679000  1.0
  N  N55  1  0.86364000  0.65891000  0.98313000  1.0
  N  N56  1  0.49552000  0.15898000  0.48321000  1.0
  N  N57  1  0.13634000  0.34109000  0.01687000  1.0
  N  N58  1  0.74783000  0.95329000  0.39632000  1.0
  N  N59  1  0.09616000  0.54733000  0.10382000  1.0
  N  N60  1  0.25219000  0.04671000  0.60368000  1.0
  N  N61  1  0.90382000  0.45267000  0.89618000  1.0
  Cl  Cl62  1  0.44829000  0.59579000  0.27218000  1.0
  Cl  Cl63  1  0.31865000  0.90483000  0.22825000  1.0
  Cl  Cl64  1  0.55170000  0.40421000  0.72782000  1.0
  Cl  Cl65  1  0.68134000  0.09518000  0.77175000  1.0
