# generated using pymatgen
data_GaH4C8O5
_symmetry_space_group_name_H-M   'P 1'
_cell_length_a   6.72557000
_cell_length_b   11.35392245
_cell_length_c   11.35956352
_cell_angle_alpha   67.88036471
_cell_angle_beta   72.81483785
_cell_angle_gamma   72.78319066
_symmetry_Int_Tables_number   1
_chemical_formula_structural   GaH4C8O5
_chemical_formula_sum   'Ga2 H8 C16 O10'
_cell_volume   750.80426088
_cell_formula_units_Z   2
loop_
 _symmetry_equiv_pos_site_id
 _symmetry_equiv_pos_as_xyz
  1  'x, y, z'
loop_
 _atom_site_type_symbol
 _atom_site_label
 _atom_site_symmetry_multiplicity
 _atom_site_fract_x
 _atom_site_fract_y
 _atom_site_fract_z
 _atom_site_occupancy
  Ga  Ga0  1  0.49981000  0.50002000  0.49998000  1.0
  Ga  Ga1  1  0.00019000  0.50002000  0.49998000  1.0
  H  H2  1  0.62001000  0.50814000  0.11349000  1.0
  H  H3  1  0.88005000  0.88649000  0.49190000  1.0
  H  H4  1  0.74152000  0.49180000  0.88650000  1.0
  H  H5  1  0.75839000  0.11356000  0.50816000  1.0
  H  H6  1  0.37997000  0.49193000  0.88652000  1.0
  H  H7  1  0.11996000  0.11348000  0.50805000  1.0
  H  H8  1  0.25845000  0.50827000  0.11352000  1.0
  H  H9  1  0.24163000  0.88641000  0.49179000  1.0
  C  C10  1  0.78561000  0.50451000  0.06252000  1.0
  C  C11  1  0.71442000  0.93746000  0.49552000  1.0
  C  C12  1  0.85255000  0.49548000  0.93750000  1.0
  C  C13  1  0.64741000  0.06253000  0.50451000  1.0
  C  C14  1  0.21436000  0.49556000  0.93750000  1.0
  C  C15  1  0.28560000  0.06251000  0.50443000  1.0
  C  C16  1  0.14744000  0.50459000  0.06251000  1.0
  C  C17  1  0.35260000  0.93744000  0.49545000  1.0
  C  C18  1  0.93304000  0.50873000  0.12542000  1.0
  C  C19  1  0.86207000  0.51493000  0.26158000  1.0
  C  C20  1  0.56702000  0.87455000  0.49133000  1.0
  C  C21  1  0.63801000  0.73838000  0.48516000  1.0
  C  C22  1  0.06695000  0.49132000  0.87460000  1.0
  C  C23  1  0.13791000  0.48506000  0.73848000  1.0
  C  C24  1  0.43299000  0.12541000  0.50865000  1.0
  C  C25  1  0.36200000  0.26155000  0.51487000  1.0
  O  O26  1  0.66597000  0.51726000  0.31358000  1.0
  O  O27  1  0.83416000  0.68640000  0.48281000  1.0
  O  O28  1  0.99588000  0.48275000  0.68659000  1.0
  O  O29  1  0.50401000  0.31347000  0.51715000  1.0
  O  O30  1  0.33404000  0.48270000  0.68645000  1.0
  O  O31  1  0.16583000  0.31356000  0.51724000  1.0
  O  O32  1  0.00414000  0.51722000  0.31344000  1.0
  O  O33  1  0.49597000  0.68649000  0.48290000  1.0
  O  O34  1  0.75000000  0.43496000  0.56501000  1.0
  O  O35  1  0.25001000  0.56508000  0.43492000  1.0
