# generated using pymatgen
data_MnH16C18S3(NO)4
_symmetry_space_group_name_H-M   'P 1'
_cell_length_a   9.13423000
_cell_length_b   10.15790000
_cell_length_c   11.53550000
_cell_angle_alpha   100.81000000
_cell_angle_beta   92.54090000
_cell_angle_gamma   101.28900000
_symmetry_Int_Tables_number   1
_chemical_formula_structural   MnH16C18S3(NO)4
_chemical_formula_sum   'Mn2 H32 C36 S6 N8 O8'
_cell_volume   1027.32680343
_cell_formula_units_Z   2
loop_
 _symmetry_equiv_pos_site_id
 _symmetry_equiv_pos_as_xyz
  1  'x, y, z'
loop_
 _atom_site_type_symbol
 _atom_site_label
 _atom_site_symmetry_multiplicity
 _atom_site_fract_x
 _atom_site_fract_y
 _atom_site_fract_z
 _atom_site_occupancy
  Mn  Mn0  1  0.36107000  0.37930000  0.11775000  1.0
  Mn  Mn1  1  0.63894000  0.62071000  0.88225000  1.0
  H  H2  1  0.02670000  0.01880000  0.21372000  1.0
  H  H3  1  0.97331000  0.98120000  0.78628000  1.0
  H  H4  1  0.96186000  0.15361000  0.30013000  1.0
  H  H5  1  0.03814000  0.84638000  0.69987000  1.0
  H  H6  1  0.10320000  0.64872000  0.92329000  1.0
  H  H7  1  0.89681000  0.35128000  0.07670000  1.0
  H  H8  1  0.05860000  0.46701000  0.88897000  1.0
  H  H9  1  0.94140000  0.53300000  0.11102000  1.0
  H  H10  1  0.45190000  0.33398000  0.86512000  1.0
  H  H11  1  0.54809000  0.66602000  0.13488000  1.0
  H  H12  1  0.48579000  0.15151000  0.69961000  1.0
  H  H13  1  0.51421000  0.84850000  0.30039000  1.0
  H  H14  1  0.30090000  0.85577000  0.90597000  1.0
  H  H15  1  0.69911000  0.14423000  0.09404000  1.0
  H  H16  1  0.27595000  0.05130000  0.06488000  1.0
  H  H17  1  0.72405000  0.94870000  0.93512000  1.0
  H  H18  1  0.53583000  0.88613000  0.67556000  1.0
  H  H19  1  0.46418000  0.11387000  0.32444000  1.0
  H  H20  1  0.38553000  0.77401000  0.71880000  1.0
  H  H21  1  0.61447000  0.22599000  0.28121000  1.0
  H  H22  1  0.35646000  0.96695000  0.54634000  1.0
  H  H23  1  0.64355000  0.03305000  0.45366000  1.0
  H  H24  1  0.20479000  0.86033000  0.59013000  1.0
  H  H25  1  0.79521000  0.13967000  0.40988000  1.0
  H  H26  1  0.53094000  0.69488000  0.54796000  1.0
  H  H27  1  0.46905000  0.30511000  0.45205000  1.0
  H  H28  1  0.54029000  0.51684000  0.36885000  1.0
  H  H29  1  0.45970000  0.48316000  0.63116000  1.0
  H  H30  1  0.17669000  0.60438000  0.19534000  1.0
  H  H31  1  0.82330000  0.39563000  0.80466000  1.0
  H  H32  1  0.14675000  0.78273000  0.36804000  1.0
  H  H33  1  0.85325000  0.21727000  0.63196000  1.0
  C  C34  1  0.16706000  0.21693000  0.21962000  1.0
  C  C35  1  0.83294000  0.78308000  0.78039000  1.0
  C  C36  1  0.06399000  0.11588000  0.27821000  1.0
  C  C37  1  0.93602000  0.88412000  0.72179000  1.0
  C  C38  1  0.14654000  0.20689000  0.51760000  1.0
  C  C39  1  0.85345000  0.79311000  0.48240000  1.0
  C  C40  1  0.13869000  0.41483000  0.65284000  1.0
  C  C41  1  0.86130000  0.58517000  0.34716000  1.0
  C  C42  1  0.13663000  0.55747000  0.87324000  1.0
  C  C43  1  0.86337000  0.44254000  0.12675000  1.0
  C  C44  1  0.29540000  0.55090000  0.91570000  1.0
  C  C45  1  0.70461000  0.44910000  0.08429000  1.0
  C  C46  1  0.41909000  0.22669000  0.87098000  1.0
  C  C47  1  0.58090000  0.77331000  0.12903000  1.0
  C  C48  1  0.43802000  0.12376000  0.77872000  1.0
  C  C49  1  0.56198000  0.87624000  0.22128000  1.0
  C  C50  1  0.39562000  0.98630000  0.78806000  1.0
  C  C51  1  0.60439000  0.01370000  0.21194000  1.0
  C  C52  1  0.33445000  0.96054000  0.89278000  1.0
  C  C53  1  0.66556000  0.03946000  0.10722000  1.0
  C  C54  1  0.31998000  0.06930000  0.98166000  1.0
  C  C55  1  0.68001000  0.93070000  0.01834000  1.0
  C  C56  1  0.41606000  0.87248000  0.69047000  1.0
  C  C57  1  0.58394000  0.12752000  0.30953000  1.0
  C  C58  1  0.32416000  0.86843000  0.57522000  1.0
  C  C59  1  0.67584000  0.13157000  0.42479000  1.0
  C  C60  1  0.33731000  0.75570000  0.47351000  1.0
  C  C61  1  0.66268000  0.24430000  0.52649000  1.0
  C  C62  1  0.44879000  0.67827000  0.47226000  1.0
  C  C63  1  0.55120000  0.32172000  0.52775000  1.0
  C  C64  1  0.45469000  0.57844000  0.37246000  1.0
  C  C65  1  0.54530000  0.42157000  0.62754000  1.0
  C  C66  1  0.25122000  0.62647000  0.27613000  1.0
  C  C67  1  0.74877000  0.37353000  0.72387000  1.0
  C  C68  1  0.23650000  0.72673000  0.37221000  1.0
  C  C69  1  0.76350000  0.27328000  0.62779000  1.0
  S  S70  1  0.14669000  0.06780000  0.40490000  1.0
  S  S71  1  0.85331000  0.93220000  0.59510000  1.0
  S  S72  1  0.13199000  0.37146000  0.49897000  1.0
  S  S73  1  0.86800000  0.62853000  0.50103000  1.0
  S  S74  1  0.11085000  0.57361000  0.72144000  1.0
  S  S75  1  0.88915000  0.42639000  0.27855000  1.0
  N  N76  1  0.15910000  0.19601000  0.62927000  1.0
  N  N77  1  0.84090000  0.80400000  0.37073000  1.0
  N  N78  1  0.15617000  0.31464000  0.70674000  1.0
  N  N79  1  0.84383000  0.68537000  0.29325000  1.0
  N  N80  1  0.36164000  0.20118000  0.97206000  1.0
  N  N81  1  0.63835000  0.79882000  0.02795000  1.0
  N  N82  1  0.35846000  0.55237000  0.27523000  1.0
  N  N83  1  0.64153000  0.44763000  0.72477000  1.0
  O  O84  1  0.10754000  0.26341000  0.13900000  1.0
  O  O85  1  0.89246000  0.73660000  0.86101000  1.0
  O  O86  1  0.30718000  0.24720000  0.25087000  1.0
  O  O87  1  0.69283000  0.75280000  0.74914000  1.0
  O  O88  1  0.30609000  0.51188000  0.01337000  1.0
  O  O89  1  0.69391000  0.48812000  0.98661000  1.0
  O  O90  1  0.40238000  0.58763000  0.85485000  1.0
  O  O91  1  0.59763000  0.41237000  0.14513000  1.0
