# generated using pymatgen
data_U3H16C20(NO3)6
_symmetry_space_group_name_H-M   'P 1'
_cell_length_a   6.12838000
_cell_length_b   12.90050000
_cell_length_c   18.34780000
_cell_angle_alpha   98.45210000
_cell_angle_beta   90.00000000
_cell_angle_gamma   90.00000000
_symmetry_Int_Tables_number   1
_chemical_formula_structural   U3H16C20(NO3)6
_chemical_formula_sum   'U6 H32 C40 N12 O36'
_cell_volume   1434.80734609
_cell_formula_units_Z   2
loop_
 _symmetry_equiv_pos_site_id
 _symmetry_equiv_pos_as_xyz
  1  'x, y, z'
loop_
 _atom_site_type_symbol
 _atom_site_label
 _atom_site_symmetry_multiplicity
 _atom_site_fract_x
 _atom_site_fract_y
 _atom_site_fract_z
 _atom_site_occupancy
  U  U0  1  0.58366000  0.37790000  0.93466000  1.0
  U  U1  1  0.08366000  0.12210000  0.56535000  1.0
  U  U2  1  0.41633000  0.62209000  0.06535000  1.0
  U  U3  1  0.91634000  0.87790000  0.43465000  1.0
  U  U4  1  0.50001000  0.50000000  0.50000000  1.0
  U  U5  1  0.00000000  0.00000000  0.00000000  1.0
  H  H6  1  0.15212000  0.07256000  0.78227000  1.0
  H  H7  1  0.65212000  0.42745000  0.71773000  1.0
  H  H8  1  0.84789000  0.92745000  0.21773000  1.0
  H  H9  1  0.34788000  0.57256000  0.28227000  1.0
  H  H10  1  0.03539000  0.89281000  0.76952000  1.0
  H  H11  1  0.53539000  0.60719000  0.73048000  1.0
  H  H12  1  0.96461000  0.10719000  0.23048000  1.0
  H  H13  1  0.46461000  0.39281000  0.26952000  1.0
  H  H14  1  0.45358000  0.03103000  0.69232000  1.0
  H  H15  1  0.95359000  0.46897000  0.80767000  1.0
  H  H16  1  0.54641000  0.96897000  0.30768000  1.0
  H  H17  1  0.04642000  0.53103000  0.19232000  1.0
  H  H18  1  0.36615000  0.86335000  0.61309000  1.0
  H  H19  1  0.86615000  0.63665000  0.88691000  1.0
  H  H20  1  0.63385000  0.13665000  0.38691000  1.0
  H  H21  1  0.13385000  0.36335000  0.11309000  1.0
  H  H22  1  0.94590000  0.72387000  0.68971000  1.0
  H  H23  1  0.44590000  0.77613000  0.81029000  1.0
  H  H24  1  0.05410000  0.27613000  0.31029000  1.0
  H  H25  1  0.55410000  0.22387000  0.18971000  1.0
  H  H26  1  0.87386000  0.34127000  0.52074000  1.0
  H  H27  1  0.37386000  0.15873000  0.97926000  1.0
  H  H28  1  0.12614000  0.65873000  0.47926000  1.0
  H  H29  1  0.62614000  0.84127000  0.02074000  1.0
  H  H30  1  0.95508000  0.44664000  0.56588000  1.0
  H  H31  1  0.45509000  0.05336000  0.93412000  1.0
  H  H32  1  0.04491000  0.55336000  0.43412000  1.0
  H  H33  1  0.54491000  0.94664000  0.06588000  1.0
  H  H34  1  0.84250000  0.55305000  0.02946000  1.0
  H  H35  1  0.34250000  0.94695000  0.47054000  1.0
  H  H36  1  0.15750000  0.44695000  0.97054000  1.0
  H  H37  1  0.65749000  0.05306000  0.52946000  1.0
  C  C38  1  0.94985000  0.20544000  0.84009000  1.0
  C  C39  1  0.44985000  0.29457000  0.65991000  1.0
  C  C40  1  0.05015000  0.79456000  0.15991000  1.0
  C  C41  1  0.55015000  0.70544000  0.34009000  1.0
  C  C42  1  0.99851000  0.11069000  0.79781000  1.0
  C  C43  1  0.49851000  0.38931000  0.70218000  1.0
  C  C44  1  0.00149000  0.88931000  0.20219000  1.0
  C  C45  1  0.50149000  0.61069000  0.29781000  1.0
  C  C46  1  0.08117000  0.28847000  0.88183000  1.0
  C  C47  1  0.58117000  0.21153000  0.61817000  1.0
  C  C48  1  0.91883000  0.71153000  0.11817000  1.0
  C  C49  1  0.41883000  0.78847000  0.38183000  1.0
  C  C50  1  0.89030000  0.88590000  0.73485000  1.0
  C  C51  1  0.39030000  0.61410000  0.76515000  1.0
  C  C52  1  0.10970000  0.11410000  0.26515000  1.0
  C  C53  1  0.60970000  0.38590000  0.23485000  1.0
  C  C54  1  0.75035000  0.97138000  0.73425000  1.0
  C  C55  1  0.25035000  0.52863000  0.76575000  1.0
  C  C56  1  0.24965000  0.02863000  0.26575000  1.0
  C  C57  1  0.74965000  0.47138000  0.23425000  1.0
  C  C58  1  0.56048000  0.96385000  0.69182000  1.0
  C  C59  1  0.06048000  0.53615000  0.80818000  1.0
  C  C60  1  0.43952000  0.03615000  0.30818000  1.0
  C  C61  1  0.93952000  0.46385000  0.19182000  1.0
  C  C62  1  0.60280000  0.68572000  0.59670000  1.0
  C  C63  1  0.10280000  0.81428000  0.90330000  1.0
  C  C64  1  0.39720000  0.31428000  0.40331000  1.0
  C  C65  1  0.89720000  0.18572000  0.09670000  1.0
  C  C66  1  0.65232000  0.78404000  0.64628000  1.0
  C  C67  1  0.15231000  0.71596000  0.85372000  1.0
  C  C68  1  0.34769000  0.21596000  0.35372000  1.0
  C  C69  1  0.84769000  0.28404000  0.14628000  1.0
  C  C70  1  0.51196000  0.87001000  0.64747000  1.0
  C  C71  1  0.01196000  0.62999000  0.85253000  1.0
  C  C72  1  0.48804000  0.12999000  0.35254000  1.0
  C  C73  1  0.98804000  0.37001000  0.14747000  1.0
  C  C74  1  0.83956000  0.79183000  0.69071000  1.0
  C  C75  1  0.33956000  0.70817000  0.80929000  1.0
  C  C76  1  0.16044000  0.20817000  0.30929000  1.0
  C  C77  1  0.66044000  0.29183000  0.19071000  1.0
  N  N78  1  0.63521000  0.13432000  0.80476000  1.0
  N  N79  1  0.13521000  0.36568000  0.69524000  1.0
  N  N80  1  0.36479000  0.86568000  0.19524000  1.0
  N  N81  1  0.86479000  0.63432000  0.30475000  1.0
  N  N82  1  0.80064000  0.06932000  0.77729000  1.0
  N  N83  1  0.30064000  0.43068000  0.72271000  1.0
  N  N84  1  0.19936000  0.93068000  0.22271000  1.0
  N  N85  1  0.69936000  0.56932000  0.27729000  1.0
  N  N86  1  0.72775000  0.21566000  0.84296000  1.0
  N  N87  1  0.22775000  0.28434000  0.65704000  1.0
  N  N88  1  0.27225000  0.78434000  0.15704000  1.0
  N  N89  1  0.77225000  0.71566000  0.34297000  1.0
  O  O90  1  0.97636000  0.35286000  0.92950000  1.0
  O  O91  1  0.47636000  0.14714000  0.57050000  1.0
  O  O92  1  0.02364000  0.64714000  0.07050000  1.0
  O  O93  1  0.52363000  0.85287000  0.42950000  1.0
  O  O94  1  0.70337000  0.51354000  0.02013000  1.0
  O  O95  1  0.20337000  0.98646000  0.47987000  1.0
  O  O96  1  0.29662000  0.48646000  0.97987000  1.0
  O  O97  1  0.79662000  0.01355000  0.52013000  1.0
  O  O98  1  0.62570000  0.45348000  0.85995000  1.0
  O  O99  1  0.12569000  0.04652000  0.64004000  1.0
  O  O100  1  0.37431000  0.54652000  0.14004000  1.0
  O  O101  1  0.87431000  0.95348000  0.35996000  1.0
  O  O102  1  0.28304000  0.29492000  0.86920000  1.0
  O  O103  1  0.78304000  0.20508000  0.63079000  1.0
  O  O104  1  0.71695000  0.70508000  0.13080000  1.0
  O  O105  1  0.21695000  0.79492000  0.36920000  1.0
  O  O106  1  0.53933000  0.28804000  0.00124000  1.0
  O  O107  1  0.03932000  0.21197000  0.49875000  1.0
  O  O108  1  0.46067000  0.71197000  0.99875000  1.0
  O  O109  1  0.96068000  0.78803000  0.50124000  1.0
  O  O110  1  0.29956000  0.46513000  0.56532000  1.0
  O  O111  1  0.79958000  0.03486000  0.93469000  1.0
  O  O112  1  0.70042000  0.53486000  0.43469000  1.0
  O  O113  1  0.20043000  0.96513000  0.06531000  1.0
  O  O114  1  0.70290000  0.60011000  0.60309000  1.0
  O  O115  1  0.20290000  0.89989000  0.89691000  1.0
  O  O116  1  0.29710000  0.39989000  0.39691000  1.0
  O  O117  1  0.79710000  0.10011000  0.10309000  1.0
  O  O118  1  0.45670000  0.68487000  0.54660000  1.0
  O  O119  1  0.95670000  0.81512000  0.95340000  1.0
  O  O120  1  0.54330000  0.31512000  0.45340000  1.0
  O  O121  1  0.04330000  0.18487000  0.04660000  1.0
  O  O122  1  0.82282000  0.40798000  0.54854000  1.0
  O  O123  1  0.32282000  0.09202000  0.95146000  1.0
  O  O124  1  0.17719000  0.59202000  0.45146000  1.0
  O  O125  1  0.67718000  0.90797000  0.04854000  1.0
