# generated using pymatgen
data_H14Pb2C10N2O9
_symmetry_space_group_name_H-M   'P 1'
_cell_length_a   8.45403000
_cell_length_b   8.46055000
_cell_length_c   11.00440000
_cell_angle_alpha   71.29030000
_cell_angle_beta   89.02280000
_cell_angle_gamma   76.64310000
_symmetry_Int_Tables_number   1
_chemical_formula_structural   H14Pb2C10N2O9
_chemical_formula_sum   'H28 Pb4 C20 N4 O18'
_cell_volume   723.94728771
_cell_formula_units_Z   2
loop_
 _symmetry_equiv_pos_site_id
 _symmetry_equiv_pos_as_xyz
  1  'x, y, z'
loop_
 _atom_site_type_symbol
 _atom_site_label
 _atom_site_symmetry_multiplicity
 _atom_site_fract_x
 _atom_site_fract_y
 _atom_site_fract_z
 _atom_site_occupancy
  H  H0  1  0.65849000  0.02569000  0.84935000  1.0
  H  H1  1  0.34151000  0.97431000  0.15065000  1.0
  H  H2  1  0.76071000  0.02201000  0.98964000  1.0
  H  H3  1  0.23930000  0.97799000  0.01036000  1.0
  H  H4  1  0.90057000  0.44727000  0.98757000  1.0
  H  H5  1  0.09943000  0.55273000  0.01243000  1.0
  H  H6  1  0.95762000  0.29556000  0.90651000  1.0
  H  H7  1  0.04238000  0.70444000  0.09349000  1.0
  H  H8  1  0.07632000  0.44134000  0.74372000  1.0
  H  H9  1  0.92368000  0.55866000  0.25628000  1.0
  H  H10  1  0.05892000  0.62349000  0.79671000  1.0
  H  H11  1  0.94108000  0.37651000  0.20329000  1.0
  H  H12  1  0.72094000  0.25749000  0.04859000  1.0
  H  H13  1  0.27907000  0.74251000  0.95141000  1.0
  H  H14  1  0.60755000  0.46031000  0.95030000  1.0
  H  H15  1  0.39245000  0.53969000  0.04971000  1.0
  H  H16  1  0.77377000  0.81428000  0.72350000  1.0
  H  H17  1  0.22622000  0.18572000  0.27650000  1.0
  H  H18  1  0.75766000  0.71788000  0.88975000  1.0
  H  H19  1  0.24234000  0.28211000  0.11025000  1.0
  H  H20  1  0.40783000  0.41587000  0.86229000  1.0
  H  H21  1  0.59216000  0.58412000  0.13771000  1.0
  H  H22  1  0.44320000  0.19897000  0.96607000  1.0
  H  H23  1  0.55680000  0.80103000  0.03393000  1.0
  H  H24  1  0.40372000  0.88476000  0.41363000  1.0
  H  H25  1  0.59628000  0.11524000  0.58638000  1.0
  H  H26  1  0.23029000  0.87272000  0.46348000  1.0
  H  H27  1  0.76970000  0.12728000  0.53652000  1.0
  Pb  Pb28  1  0.69088000  0.45677000  0.62454000  1.0
  Pb  Pb29  1  0.30913000  0.54324000  0.37545000  1.0
  Pb  Pb30  1  0.18855000  0.03246000  0.65946000  1.0
  Pb  Pb31  1  0.81145000  0.96754000  0.34054000  1.0
  C  C32  1  0.98259000  0.68460000  0.59929000  1.0
  C  C33  1  0.01741000  0.31540000  0.40071000  1.0
  C  C34  1  0.73500000  0.09188000  0.88590000  1.0
  C  C35  1  0.26500000  0.90812000  0.11410000  1.0
  C  C36  1  0.86032000  0.40359000  0.91149000  1.0
  C  C37  1  0.13968000  0.59641000  0.08851000  1.0
  C  C38  1  0.89260000  0.06987000  0.81771000  1.0
  C  C39  1  0.10740000  0.93013000  0.18229000  1.0
  C  C40  1  0.99842000  0.56744000  0.73854000  1.0
  C  C41  1  0.00158000  0.43256000  0.26146000  1.0
  C  C42  1  0.70345000  0.34816000  0.94981000  1.0
  C  C43  1  0.29655000  0.65183000  0.05019000  1.0
  C  C44  1  0.73764000  0.70566000  0.79482000  1.0
  C  C45  1  0.26236000  0.29434000  0.20518000  1.0
  C  C46  1  0.39103000  0.24034000  0.76535000  1.0
  C  C47  1  0.60897000  0.75966000  0.23465000  1.0
  C  C48  1  0.55501000  0.74131000  0.76344000  1.0
  C  C49  1  0.44499000  0.25869000  0.23656000  1.0
  C  C50  1  0.46906000  0.28223000  0.87183000  1.0
  C  C51  1  0.53094000  0.71777000  0.12817000  1.0
  N  N52  1  0.64445000  0.27182000  0.86112000  1.0
  N  N53  1  0.35555000  0.72818000  0.13888000  1.0
  N  N54  1  0.83927000  0.54288000  0.78665000  1.0
  N  N55  1  0.16073000  0.45712000  0.21335000  1.0
  O  O56  1  0.07871000  0.78251000  0.56416000  1.0
  O  O57  1  0.92129000  0.21749000  0.43584000  1.0
  O  O58  1  0.91484000  0.19656000  0.72170000  1.0
  O  O59  1  0.08515000  0.80344000  0.27829000  1.0
  O  O60  1  0.87169000  0.67633000  0.52495000  1.0
  O  O61  1  0.12831000  0.32368000  0.47506000  1.0
  O  O62  1  0.45573000  0.26038000  0.65812000  1.0
  O  O63  1  0.54428000  0.73961000  0.34188000  1.0
  O  O64  1  0.50008000  0.65728000  0.70286000  1.0
  O  O65  1  0.49991000  0.34272000  0.29715000  1.0
  O  O66  1  0.25879000  0.19261000  0.79254000  1.0
  O  O67  1  0.74122000  0.80739000  0.20746000  1.0
  O  O68  1  0.99349000  0.92608000  0.85410000  1.0
  O  O69  1  0.00651000  0.07393000  0.14590000  1.0
  O  O70  1  0.46810000  0.86209000  0.79669000  1.0
  O  O71  1  0.53190000  0.13791000  0.20331000  1.0
  O  O72  1  0.30328000  0.95145000  0.43687000  1.0
  O  O73  1  0.69672000  0.04855000  0.56313000  1.0
