# generated using pymatgen
data_Zn2H24C30SN2O13
_symmetry_space_group_name_H-M   'P 1'
_cell_length_a   8.12167000
_cell_length_b   10.28260000
_cell_length_c   17.49400000
_cell_angle_alpha   83.40430000
_cell_angle_beta   77.47680000
_cell_angle_gamma   84.69630000
_symmetry_Int_Tables_number   1
_chemical_formula_structural   Zn2H24C30SN2O13
_chemical_formula_sum   'Zn4 H48 C60 S2 N4 O26'
_cell_volume   1413.31961656
_cell_formula_units_Z   2
loop_
 _symmetry_equiv_pos_site_id
 _symmetry_equiv_pos_as_xyz
  1  'x, y, z'
loop_
 _atom_site_type_symbol
 _atom_site_label
 _atom_site_symmetry_multiplicity
 _atom_site_fract_x
 _atom_site_fract_y
 _atom_site_fract_z
 _atom_site_occupancy
  Zn  Zn0  1  0.40548000  0.43749000  0.61974000  1.0
  Zn  Zn1  1  0.59452000  0.56252000  0.38026000  1.0
  Zn  Zn2  1  0.01565000  0.58452000  0.07572000  1.0
  Zn  Zn3  1  0.98435000  0.41548000  0.92428000  1.0
  H  H4  1  0.40777000  0.91456000  0.64353000  1.0
  H  H5  1  0.59223000  0.08545000  0.35647000  1.0
  H  H6  1  0.23643000  0.77881000  0.45297000  1.0
  H  H7  1  0.76357000  0.22119000  0.54703000  1.0
  H  H8  1  0.22623000  0.19428000  0.47425000  1.0
  H  H9  1  0.77378000  0.80572000  0.52575000  1.0
  H  H10  1  0.97663000  0.83908000  0.26584000  1.0
  H  H11  1  0.02337000  0.16092000  0.73417000  1.0
  H  H12  1  0.87969000  0.07420000  0.05955000  1.0
  H  H13  1  0.12031000  0.92579000  0.94045000  1.0
  H  H14  1  0.06400000  0.25189000  0.23239000  1.0
  H  H15  1  0.93601000  0.74811000  0.76761000  1.0
  H  H16  1  0.36601000  0.64506000  0.22141000  1.0
  H  H17  1  0.63399000  0.35494000  0.77858000  1.0
  H  H18  1  0.45136000  0.85911000  0.24384000  1.0
  H  H19  1  0.54864000  0.14088000  0.75615000  1.0
  H  H20  1  0.31964000  0.01578000  0.02092000  1.0
  H  H21  1  0.68036000  0.98422000  0.97908000  1.0
  H  H22  1  0.24082000  0.79196000  0.00948000  1.0
  H  H23  1  0.75918000  0.20804000  0.99052000  1.0
  H  H24  1  0.56321000  0.02717000  0.24371000  1.0
  H  H25  1  0.43679000  0.97283000  0.75629000  1.0
  H  H26  1  0.64090000  0.25196000  0.25565000  1.0
  H  H27  1  0.35910000  0.74803000  0.74435000  1.0
  H  H28  1  0.33127000  0.19979000  0.05089000  1.0
  H  H29  1  0.66874000  0.80021000  0.94911000  1.0
  H  H30  1  0.41799000  0.41607000  0.07207000  1.0
  H  H31  1  0.58201000  0.58393000  0.92793000  1.0
  H  H32  1  0.97380000  0.34581000  0.65517000  1.0
  H  H33  1  0.02620000  0.65419000  0.34483000  1.0
  H  H34  1  0.07753000  0.46226000  0.57893000  1.0
  H  H35  1  0.92247000  0.53774000  0.42108000  1.0
  H  H36  1  0.97563000  0.33102000  0.55335000  1.0
  H  H37  1  0.02437000  0.66898000  0.44665000  1.0
  H  H38  1  0.69928000  0.66603000  0.69057000  1.0
  H  H39  1  0.30072000  0.33398000  0.30943000  1.0
  H  H40  1  0.92493000  0.64347000  0.65796000  1.0
  H  H41  1  0.07507000  0.35653000  0.34204000  1.0
  H  H42  1  0.81707000  0.52860000  0.73397000  1.0
  H  H43  1  0.18293000  0.47141000  0.26603000  1.0
  H  H44  1  0.31449000  0.50570000  0.76135000  1.0
  H  H45  1  0.68551000  0.49430000  0.23866000  1.0
  H  H46  1  0.20390000  0.38502000  0.76222000  1.0
  H  H47  1  0.79610000  0.61498000  0.23778000  1.0
  H  H48  1  0.74048000  0.69230000  0.06259000  1.0
  H  H49  1  0.25952000  0.30770000  0.93741000  1.0
  H  H50  1  0.68735000  0.54408000  0.09179000  1.0
  H  H51  1  0.31264000  0.45592000  0.90821000  1.0
  C  C52  1  0.35066000  0.93518000  0.59238000  1.0
  C  C53  1  0.64934000  0.06482000  0.40762000  1.0
  C  C54  1  0.32126000  0.83135000  0.55286000  1.0
  C  C55  1  0.67874000  0.16865000  0.44714000  1.0
  C  C56  1  0.25333000  0.85869000  0.48563000  1.0
  C  C57  1  0.74667000  0.14132000  0.51437000  1.0
  C  C58  1  0.21679000  0.98955000  0.45690000  1.0
  C  C59  1  0.78321000  0.01046000  0.54310000  1.0
  C  C60  1  0.24878000  0.09262000  0.49699000  1.0
  C  C61  1  0.75122000  0.90738000  0.50301000  1.0
  C  C62  1  0.31418000  0.06552000  0.56516000  1.0
  C  C63  1  0.68582000  0.93448000  0.43484000  1.0
  C  C64  1  0.15067000  0.01444000  0.38768000  1.0
  C  C65  1  0.84934000  0.98556000  0.61233000  1.0
  C  C66  1  0.09176000  0.02974000  0.32851000  1.0
  C  C67  1  0.90823000  0.97026000  0.67148000  1.0
  C  C68  1  0.02807000  0.04364000  0.25864000  1.0
  C  C69  1  0.97193000  0.95635000  0.74136000  1.0
  C  C70  1  0.97404000  0.93411000  0.23163000  1.0
  C  C71  1  0.02596000  0.06589000  0.76837000  1.0
  C  C72  1  0.91869000  0.94597000  0.16085000  1.0
  C  C73  1  0.08130000  0.05403000  0.83915000  1.0
  C  C74  1  0.91883000  0.06699000  0.11552000  1.0
  C  C75  1  0.08117000  0.93301000  0.88448000  1.0
  C  C76  1  0.97051000  0.17676000  0.14175000  1.0
  C  C77  1  0.02949000  0.82324000  0.85825000  1.0
  C  C78  1  0.02352000  0.16544000  0.21319000  1.0
  C  C79  1  0.97648000  0.83456000  0.78681000  1.0
  C  C80  1  0.35189000  0.17451000  0.60822000  1.0
  C  C81  1  0.64812000  0.82549000  0.39178000  1.0
  C  C82  1  0.37141000  0.69351000  0.58160000  1.0
  C  C83  1  0.62859000  0.30649000  0.41840000  1.0
  C  C84  1  0.86483000  0.82932000  0.13098000  1.0
  C  C85  1  0.13517000  0.17067000  0.86902000  1.0
  C  C86  1  0.96977000  0.30677000  0.09402000  1.0
  C  C87  1  0.03023000  0.69323000  0.90599000  1.0
  C  C88  1  0.35839000  0.73134000  0.17992000  1.0
  C  C89  1  0.64161000  0.26866000  0.82008000  1.0
  C  C90  1  0.40527000  0.85251000  0.19043000  1.0
  C  C91  1  0.59473000  0.14749000  0.80956000  1.0
  C  C92  1  0.39274000  0.96115000  0.13454000  1.0
  C  C93  1  0.60726000  0.03885000  0.86546000  1.0
  C  C94  1  0.33315000  0.93881000  0.06792000  1.0
  C  C95  1  0.66684000  0.06119000  0.93208000  1.0
  C  C96  1  0.28864000  0.81604000  0.05915000  1.0
  C  C97  1  0.71135000  0.18396000  0.94085000  1.0
  C  C98  1  0.44093000  0.09092000  0.14473000  1.0
  C  C99  1  0.55906000  0.90908000  0.85527000  1.0
  C  C100  1  0.52798000  0.10899000  0.20348000  1.0
  C  C101  1  0.47202000  0.89100000  0.79652000  1.0
  C  C102  1  0.57565000  0.23151000  0.21087000  1.0
  C  C103  1  0.42435000  0.76848000  0.78913000  1.0
  C  C104  1  0.40247000  0.20384000  0.09639000  1.0
  C  C105  1  0.59753000  0.79616000  0.90360000  1.0
  C  C106  1  0.45029000  0.32531000  0.10571000  1.0
  C  C107  1  0.54971000  0.67469000  0.89429000  1.0
  C  C108  1  0.97114000  0.39935000  0.59745000  1.0
  C  C109  1  0.02886000  0.60065000  0.40255000  1.0
  C  C110  1  0.80745000  0.59381000  0.68058000  1.0
  C  C111  1  0.19255000  0.40620000  0.31942000  1.0
  S  S112  1  0.77877000  0.50176000  0.60354000  1.0
  S  S113  1  0.22123000  0.49824000  0.39645000  1.0
  N  N114  1  0.29873000  0.71399000  0.11507000  1.0
  N  N115  1  0.70127000  0.28601000  0.88493000  1.0
  N  N116  1  0.53818000  0.33800000  0.16223000  1.0
  N  N117  1  0.46181000  0.66200000  0.83777000  1.0
  O  O118  1  0.34270000  0.29137000  0.57143000  1.0
  O  O119  1  0.65730000  0.70863000  0.42857000  1.0
  O  O120  1  0.38821000  0.14937000  0.67452000  1.0
  O  O121  1  0.61179000  0.85063000  0.32548000  1.0
  O  O122  1  0.46249000  0.67504000  0.63221000  1.0
  O  O123  1  0.53751000  0.32496000  0.36779000  1.0
  O  O124  1  0.31863000  0.59653000  0.55425000  1.0
  O  O125  1  0.68137000  0.40348000  0.44575000  1.0
  O  O126  1  0.91947000  0.71499000  0.15952000  1.0
  O  O127  1  0.08053000  0.28501000  0.84048000  1.0
  O  O128  1  0.77644000  0.84646000  0.07932000  1.0
  O  O129  1  0.22355000  0.15353000  0.92069000  1.0
  O  O130  1  0.91487000  0.31416000  0.03054000  1.0
  O  O131  1  0.08513000  0.68583000  0.96947000  1.0
  O  O132  1  0.02274000  0.40102000  0.12105000  1.0
  O  O133  1  0.97726000  0.59898000  0.87895000  1.0
  O  O134  1  0.25094000  0.59752000  0.10705000  1.0
  O  O135  1  0.74906000  0.40248000  0.89295000  1.0
  O  O136  1  0.58498000  0.45453000  0.17056000  1.0
  O  O137  1  0.41501000  0.54547000  0.82944000  1.0
  O  O138  1  0.25650000  0.46016000  0.72794000  1.0
  O  O139  1  0.74350000  0.53984000  0.27206000  1.0
  O  O140  1  0.76334000  0.59869000  0.05003000  1.0
  O  O141  1  0.23666000  0.40131000  0.94997000  1.0
  O  O142  1  0.64161000  0.40543000  0.64090000  1.0
  O  O143  1  0.35839000  0.59458000  0.35910000  1.0
