# generated using pymatgen
data_CdH15C23N2O3
_symmetry_space_group_name_H-M   'P 1'
_cell_length_a   18.83463405
_cell_length_b   18.83440000
_cell_length_c   18.83450000
_cell_angle_alpha   108.40400000
_cell_angle_beta   111.62827698
_cell_angle_gamma   108.40285531
_symmetry_Int_Tables_number   1
_chemical_formula_structural   CdH15C23N2O3
_chemical_formula_sum   'Cd8 H120 C184 N16 O24'
_cell_volume   5137.82056371
_cell_formula_units_Z   8
loop_
 _symmetry_equiv_pos_site_id
 _symmetry_equiv_pos_as_xyz
  1  'x, y, z'
loop_
 _atom_site_type_symbol
 _atom_site_label
 _atom_site_symmetry_multiplicity
 _atom_site_fract_x
 _atom_site_fract_y
 _atom_site_fract_z
 _atom_site_occupancy
  Cd  Cd0  1  0.27219000  0.01465000  0.87854000  1.0
  Cd  Cd1  1  0.86389000  0.98535000  0.25754000  1.0
  Cd  Cd2  1  0.74246000  0.60635000  0.72780000  1.0
  Cd  Cd3  1  0.12145000  0.39365000  0.13611000  1.0
  Cd  Cd4  1  0.97781000  0.10635000  0.49246000  1.0
  Cd  Cd5  1  0.38611000  0.89365000  0.87146000  1.0
  Cd  Cd6  1  0.50753000  0.48535000  0.61388000  1.0
  Cd  Cd7  1  0.12854000  0.51465000  0.02219000  1.0
  H  H8  1  0.28440000  0.80844000  0.64992000  1.0
  H  H9  1  0.16637000  0.73499000  0.49342000  1.0
  H  H10  1  0.03988000  0.76163000  0.44901000  1.0
  H  H11  1  0.96972000  0.84848000  0.49339000  1.0
  H  H12  1  0.97495000  0.96124000  0.60995000  1.0
  H  H13  1  0.16382000  0.07445000  0.85013000  1.0
  H  H14  1  0.97857000  0.04103000  0.73338000  1.0
  H  H15  1  0.92603000  0.11406000  0.81456000  1.0
  H  H16  1  0.95594000  0.23033000  0.94846000  1.0
  H  H17  1  0.21886000  0.29916000  0.07893000  1.0
  H  H18  1  0.20114000  0.18621000  0.95322000  1.0
  H  H19  1  0.42474000  0.25381000  0.85571000  1.0
  H  H20  1  0.51457000  0.40827000  0.90492000  1.0
  H  H21  1  0.48971000  0.47890000  0.13251000  1.0
  H  H22  1  0.39803000  0.32440000  0.08076000  1.0
  H  H23  1  0.84148000  0.19155000  0.47596000  1.0
  H  H24  1  0.75843000  0.26501000  0.43138000  1.0
  H  H25  1  0.68738000  0.23838000  0.27825000  1.0
  H  H26  1  0.64491000  0.15152000  0.12124000  1.0
  H  H27  1  0.64872000  0.03877000  0.01371000  1.0
  H  H28  1  0.77568000  0.92555000  0.08937000  1.0
  H  H29  1  0.69235000  0.95897000  0.93754000  1.0
  H  H30  1  0.70050000  0.88595000  0.81198000  1.0
  H  H31  1  0.71814000  0.76968000  0.72562000  1.0
  H  H32  1  0.77977000  0.70084000  0.91970000  1.0
  H  H33  1  0.76701000  0.81379000  0.01493000  1.0
  H  H34  1  0.60190000  0.74620000  0.17094000  1.0
  H  H35  1  0.49666000  0.59173000  0.10631000  1.0
  H  H36  1  0.65361000  0.52109000  0.01082000  1.0
  H  H37  1  0.75635000  0.67559000  0.07363000  1.0
  H  H38  1  0.52404000  0.36552000  0.71559000  1.0
  H  H39  1  0.56863000  0.32705000  0.83363000  1.0
  H  H40  1  0.72176000  0.40913000  0.96013000  1.0
  H  H41  1  0.87876000  0.52367000  0.03029000  1.0
  H  H42  1  0.98628000  0.63500000  0.02504000  1.0
  H  H43  1  0.91063000  0.68631000  0.83618000  1.0
  H  H44  1  0.06246000  0.75482000  0.02144000  1.0
  H  H45  1  0.18802000  0.88852000  0.07397000  1.0
  H  H46  1  0.27438000  0.99252000  0.04407000  1.0
  H  H47  1  0.08030000  0.86008000  0.78114000  1.0
  H  H48  1  0.98507000  0.75210000  0.79887000  1.0
  H  H49  1  0.82906000  0.43096000  0.57525000  1.0
  H  H50  1  0.89369000  0.39036000  0.48542000  1.0
  H  H51  1  0.98918000  0.64280000  0.51028000  1.0
  H  H52  1  0.92637000  0.68273000  0.60197000  1.0
  H  H53  1  0.35007000  0.63448000  0.15852000  1.0
  H  H54  1  0.50657000  0.67294000  0.24156000  1.0
  H  H55  1  0.55099000  0.59086000  0.31261000  1.0
  H  H56  1  0.50662000  0.47634000  0.35509000  1.0
  H  H57  1  0.39005000  0.36500000  0.35129000  1.0
  H  H58  1  0.14987000  0.31370000  0.22432000  1.0
  H  H59  1  0.26662000  0.24519000  0.30765000  1.0
  H  H60  1  0.18545000  0.11147000  0.29949000  1.0
  H  H61  1  0.05155000  0.00748000  0.28186000  1.0
  H  H62  1  0.92107000  0.13993000  0.22023000  1.0
  H  H63  1  0.04678000  0.24792000  0.23298000  1.0
  H  H64  1  0.14429000  0.56903000  0.39810000  1.0
  H  H65  1  0.09507000  0.60965000  0.50334000  1.0
  H  H66  1  0.86748000  0.35720000  0.34638000  1.0
  H  H67  1  0.91924000  0.31727000  0.24364000  1.0
  H  H68  1  0.96561000  0.86553000  0.27406000  1.0
  H  H69  1  0.08365000  0.82707000  0.31864000  1.0
  H  H70  1  0.21015000  0.90915000  0.47176000  1.0
  H  H71  1  0.28030000  0.02368000  0.62877000  1.0
  H  H72  1  0.27505000  0.13501000  0.73630000  1.0
  H  H73  1  0.08617000  0.18630000  0.66064000  1.0
  H  H74  1  0.27142000  0.25480000  0.81247000  1.0
  H  H75  1  0.32397000  0.38852000  0.93803000  1.0
  H  H76  1  0.29406000  0.49253000  0.02439000  1.0
  H  H77  1  0.03113000  0.36007000  0.83029000  1.0
  H  H78  1  0.04885000  0.25208000  0.73505000  1.0
  H  H79  1  0.82526000  0.93097000  0.57906000  1.0
  H  H80  1  0.73544000  0.89035000  0.64370000  1.0
  H  H81  1  0.76028000  0.14280000  0.73919000  1.0
  H  H82  1  0.85197000  0.18273000  0.67638000  1.0
  H  H83  1  0.40853000  0.13448000  0.10008000  1.0
  H  H84  1  0.49157000  0.17294000  0.25658000  1.0
  H  H85  1  0.56262000  0.09086000  0.30101000  1.0
  H  H86  1  0.60509000  0.97632000  0.25662000  1.0
  H  H87  1  0.60129000  0.86500000  0.14005000  1.0
  H  H88  1  0.47434000  0.81370000  0.89987000  1.0
  H  H89  1  0.55767000  0.74520000  0.01662000  1.0
  H  H90  1  0.54953000  0.61149000  0.93546000  1.0
  H  H91  1  0.53187000  0.50749000  0.80154000  1.0
  H  H92  1  0.47022000  0.63993000  0.67105000  1.0
  H  H93  1  0.48298000  0.74793000  0.79678000  1.0
  H  H94  1  0.64810000  0.06903000  0.89430000  1.0
  H  H95  1  0.75336000  0.10964000  0.84509000  1.0
  H  H96  1  0.59639000  0.85720000  0.61749000  1.0
  H  H97  1  0.49365000  0.81726000  0.66925000  1.0
  H  H98  1  0.72595000  0.69155000  0.59147000  1.0
  H  H99  1  0.68137000  0.76502000  0.50844000  1.0
  H  H100  1  0.52824000  0.73839000  0.43738000  1.0
  H  H101  1  0.37123000  0.65153000  0.39491000  1.0
  H  H102  1  0.26371000  0.53876000  0.39872000  1.0
  H  H103  1  0.33936000  0.42553000  0.52566000  1.0
  H  H104  1  0.18753000  0.45895000  0.44233000  1.0
  H  H105  1  0.06196000  0.38593000  0.45047000  1.0
  H  H106  1  0.97562000  0.26967000  0.46814000  1.0
  H  H107  1  0.16971000  0.20084000  0.52978000  1.0
  H  H108  1  0.26494000  0.31379000  0.51701000  1.0
  H  H109  1  0.42094000  0.24620000  0.35191000  1.0
  H  H110  1  0.35630000  0.09174000  0.24665000  1.0
  H  H111  1  0.26081000  0.02109000  0.40361000  1.0
  H  H112  1  0.32361000  0.17559000  0.50634000  1.0
  H  H113  1  0.89992000  0.30845000  0.03440000  1.0
  H  H114  1  0.74342000  0.23499000  0.91636000  1.0
  H  H115  1  0.69900000  0.26162000  0.78986000  1.0
  H  H116  1  0.74338000  0.34847000  0.71971000  1.0
  H  H117  1  0.85995000  0.46124000  0.72495000  1.0
  H  H118  1  0.10013000  0.57446000  0.91383000  1.0
  H  H119  1  0.98338000  0.54105000  0.72858000  1.0
  H  H120  1  0.06455000  0.61407000  0.67604000  1.0
  H  H121  1  0.19846000  0.73032000  0.70594000  1.0
  H  H122  1  0.32894000  0.79915000  0.96886000  1.0
  H  H123  1  0.20324000  0.68621000  0.95116000  1.0
  H  H124  1  0.10570000  0.75380000  0.17473000  1.0
  H  H125  1  0.15491000  0.90827000  0.26455000  1.0
  H  H126  1  0.38252000  0.97890000  0.23972000  1.0
  H  H127  1  0.33075000  0.82440000  0.14802000  1.0
  C  C128  1  0.22644000  0.87784000  0.69834000  1.0
  C  C129  1  0.22863000  0.81996000  0.63154000  1.0
  C  C130  1  0.16161000  0.77879000  0.54336000  1.0
  C  C131  1  0.09058000  0.79302000  0.51775000  1.0
  C  C132  1  0.08652000  0.85283000  0.58161000  1.0
  C  C133  1  0.15402000  0.89568000  0.67195000  1.0
  C  C134  1  0.02079000  0.87755000  0.56171000  1.0
  C  C135  1  0.02300000  0.93951000  0.62665000  1.0
  C  C136  1  0.09150000  0.97805000  0.71513000  1.0
  C  C137  1  0.10121000  0.04419000  0.78926000  1.0
  C  C138  1  0.04306000  0.07101000  0.79172000  1.0
  C  C139  1  0.06041000  0.13860000  0.87063000  1.0
  C  C140  1  0.99199000  0.15314000  0.87210000  1.0
  C  C141  1  0.00834000  0.21803000  0.94686000  1.0
  C  C142  1  0.15460000  0.25600000  0.01924000  1.0
  C  C143  1  0.14389000  0.19236000  0.94776000  1.0
  C  C144  1  0.35412000  0.18663000  0.93491000  1.0
  C  C145  1  0.40629000  0.27981000  0.96535000  1.0
  C  C146  1  0.43930000  0.30402000  0.91603000  1.0
  C  C147  1  0.48992000  0.39012000  0.94412000  1.0
  C  C148  1  0.50995000  0.45448000  0.02293000  1.0
  C  C149  1  0.47518000  0.42995000  0.07127000  1.0
  C  C150  1  0.42400000  0.34360000  0.04282000  1.0
  C  C151  1  0.82049000  0.12215000  0.34860000  1.0
  C  C152  1  0.81157000  0.18004000  0.40867000  1.0
  C  C153  1  0.76457000  0.22121000  0.38282000  1.0
  C  C154  1  0.72473000  0.20698000  0.29756000  1.0
  C  C155  1  0.72878000  0.14717000  0.23369000  1.0
  C  C156  1  0.77627000  0.10432000  0.25834000  1.0
  C  C157  1  0.68416000  0.12245000  0.14324000  1.0
  C  C158  1  0.68714000  0.06049000  0.08348000  1.0
  C  C159  1  0.73708000  0.02195000  0.11345000  1.0
  C  C160  1  0.74508000  0.95581000  0.05703000  1.0
  C  C161  1  0.72071000  0.92899000  0.97205000  1.0
  C  C162  1  0.73202000  0.86139000  0.92180000  1.0
  C  C163  1  0.71895000  0.84686000  0.83884000  1.0
  C  C164  1  0.72883000  0.78197000  0.79031000  1.0
  C  C165  1  0.76324000  0.74401000  0.89861000  1.0
  C  C166  1  0.75540000  0.80764000  0.95153000  1.0
  C  C167  1  0.74827000  0.81336000  0.16749000  1.0
  C  C168  1  0.68553000  0.72018000  0.12648000  1.0
  C  C169  1  0.61200000  0.69597000  0.13527000  1.0
  C  C170  1  0.55399000  0.60987000  0.09980000  1.0
  C  C171  1  0.56845000  0.54552000  0.05547000  1.0
  C  C172  1  0.64132000  0.57006000  0.04523000  1.0
  C  C173  1  0.69921000  0.65640000  0.08040000  1.0
  C  C174  1  0.65140000  0.47189000  0.77355000  1.0
  C  C175  1  0.59133000  0.40290000  0.77137000  1.0
  C  C176  1  0.61718000  0.38175000  0.83839000  1.0
  C  C177  1  0.70245000  0.42717000  0.90943000  1.0
  C  C178  1  0.76632000  0.49509000  0.91348000  1.0
  C  C179  1  0.74167000  0.51793000  0.84598000  1.0
  C  C180  1  0.85677000  0.54093000  0.97921000  1.0
  C  C181  1  0.91651000  0.60366000  0.97700000  1.0
  C  C182  1  0.88655000  0.62363000  0.90851000  1.0
  C  C183  1  0.94297000  0.68806000  0.89879000  1.0
  C  C184  1  0.02795000  0.74867000  0.95694000  1.0
  C  C185  1  0.07819000  0.81022000  0.93959000  1.0
  C  C186  1  0.16115000  0.88011000  0.00801000  1.0
  C  C187  1  0.20969000  0.93852000  0.99165000  1.0
  C  C188  1  0.10140000  0.86464000  0.84540000  1.0
  C  C189  1  0.04847000  0.80387000  0.85611000  1.0
  C  C190  1  0.83250000  0.58078000  0.64587000  1.0
  C  C191  1  0.87352000  0.55906000  0.59371000  1.0
  C  C192  1  0.86472000  0.47673000  0.56069000  1.0
  C  C193  1  0.90020000  0.45420000  0.51007000  1.0
  C  C194  1  0.94452000  0.51298000  0.49004000  1.0
  C  C195  1  0.95476000  0.59609000  0.52481000  1.0
  C  C196  1  0.91960000  0.61882000  0.57600000  1.0
  C  C197  1  0.30166000  0.52811000  0.17951000  1.0
  C  C198  1  0.36847000  0.59710000  0.18843000  1.0
  C  C199  1  0.45664000  0.61825000  0.23543000  1.0
  C  C200  1  0.48225000  0.57283000  0.27527000  1.0
  C  C201  1  0.41839000  0.50491000  0.27122000  1.0
  C  C202  1  0.32805000  0.48207000  0.22374000  1.0
  C  C203  1  0.43829000  0.45908000  0.31585000  1.0
  C  C204  1  0.37335000  0.39635000  0.31286000  1.0
  C  C205  1  0.28487000  0.37637000  0.26292000  1.0
  C  C206  1  0.21073000  0.31194000  0.25492000  1.0
  C  C207  1  0.20828000  0.25134000  0.27929000  1.0
  C  C208  1  0.12937000  0.18978000  0.26798000  1.0
  C  C209  1  0.12791000  0.11989000  0.28105000  1.0
  C  C210  1  0.05314000  0.06148000  0.27118000  1.0
  C  C211  1  0.98077000  0.13536000  0.23676000  1.0
  C  C212  1  0.05224000  0.19613000  0.24460000  1.0
  C  C213  1  0.06509000  0.41921000  0.25172000  1.0
  C  C214  1  0.03465000  0.44095000  0.31447000  1.0
  C  C215  1  0.08396000  0.52327000  0.38799000  1.0
  C  C216  1  0.05587000  0.54580000  0.44600000  1.0
  C  C217  1  0.97706000  0.48702000  0.43154000  1.0
  C  C218  1  0.92873000  0.40391000  0.35868000  1.0
  C  C219  1  0.95718000  0.38118000  0.30078000  1.0
  C  C220  1  0.02356000  0.97189000  0.40140000  1.0
  C  C221  1  0.02139000  0.90291000  0.34135000  1.0
  C  C222  1  0.08841000  0.88176000  0.36719000  1.0
  C  C223  1  0.15944000  0.92718000  0.45246000  1.0
  C  C224  1  0.16349000  0.99509000  0.51632000  1.0
  C  C225  1  0.09598000  0.01793000  0.49167000  1.0
  C  C226  1  0.22922000  0.04093000  0.60678000  1.0
  C  C227  1  0.22700000  0.10365000  0.66652000  1.0
  C  C228  1  0.15850000  0.12363000  0.63655000  1.0
  C  C229  1  0.14878000  0.18804000  0.69298000  1.0
  C  C230  1  0.20693000  0.24866000  0.77796000  1.0
  C  C231  1  0.18958000  0.31022000  0.82820000  1.0
  C  C232  1  0.25800000  0.38010000  0.91115000  1.0
  C  C233  1  0.24165000  0.43851000  0.95969000  1.0
  C  C234  1  0.09540000  0.36464000  0.85139000  1.0
  C  C235  1  0.10610000  0.30386000  0.79847000  1.0
  C  C236  1  0.89587000  0.08078000  0.58251000  1.0
  C  C237  1  0.84370000  0.05905000  0.62352000  1.0
  C  C238  1  0.81069000  0.97673000  0.61472000  1.0
  C  C239  1  0.76008000  0.95419000  0.65021000  1.0
  C  C240  1  0.74005000  0.01297000  0.69453000  1.0
  C  C241  1  0.77482000  0.09609000  0.70477000  1.0
  C  C242  1  0.82600000  0.11882000  0.66961000  1.0
  C  C243  1  0.42952000  0.02812000  0.05167000  1.0
  C  C244  1  0.43844000  0.09710000  0.11848000  1.0
  C  C245  1  0.48543000  0.11824000  0.20664000  1.0
  C  C246  1  0.52528000  0.07283000  0.23226000  1.0
  C  C247  1  0.52123000  0.00490000  0.16839000  1.0
  C  C248  1  0.47374000  0.98207000  0.07805000  1.0
  C  C249  1  0.56585000  0.95908000  0.18829000  1.0
  C  C250  1  0.56286000  0.89634000  0.12335000  1.0
  C  C251  1  0.51293000  0.87638000  0.03488000  1.0
  C  C252  1  0.50494000  0.81195000  0.96074000  1.0
  C  C253  1  0.52931000  0.75135000  0.95828000  1.0
  C  C254  1  0.51799000  0.68979000  0.87936000  1.0
  C  C255  1  0.53105000  0.61989000  0.87790000  1.0
  C  C256  1  0.52118000  0.56149000  0.80314000  1.0
  C  C257  1  0.48675000  0.63536000  0.73075000  1.0
  C  C258  1  0.49461000  0.69614000  0.80224000  1.0
  C  C259  1  0.50173000  0.91922000  0.81510000  1.0
  C  C260  1  0.56447000  0.94094000  0.78465000  1.0
  C  C261  1  0.63800000  0.02327000  0.83397000  1.0
  C  C262  1  0.69602000  0.04581000  0.80589000  1.0
  C  C263  1  0.68155000  0.98701000  0.72707000  1.0
  C  C264  1  0.60868000  0.90391000  0.67873000  1.0
  C  C265  1  0.55079000  0.88117000  0.70719000  1.0
  C  C266  1  0.59859000  0.62215000  0.57048000  1.0
  C  C267  1  0.65866000  0.68004000  0.56156000  1.0
  C  C268  1  0.63281000  0.72121000  0.51457000  1.0
  C  C269  1  0.54755000  0.70699000  0.47472000  1.0
  C  C270  1  0.48368000  0.64717000  0.47877000  1.0
  C  C271  1  0.50833000  0.60431000  0.52626000  1.0
  C  C272  1  0.39323000  0.62245000  0.43415000  1.0
  C  C273  1  0.33348000  0.56049000  0.43714000  1.0
  C  C274  1  0.36345000  0.52195000  0.48707000  1.0
  C  C275  1  0.30701000  0.45580000  0.49505000  1.0
  C  C276  1  0.22204000  0.42897000  0.47069000  1.0
  C  C277  1  0.17180000  0.36138000  0.48201000  1.0
  C  C278  1  0.08884000  0.34684000  0.46894000  1.0
  C  C279  1  0.04030000  0.28195000  0.47881000  1.0
  C  C280  1  0.14861000  0.24400000  0.51324000  1.0
  C  C281  1  0.20153000  0.30763000  0.50539000  1.0
  C  C282  1  0.41750000  0.31337000  0.49828000  1.0
  C  C283  1  0.37648000  0.22018000  0.43554000  1.0
  C  C284  1  0.38528000  0.19597000  0.36201000  1.0
  C  C285  1  0.34979000  0.10987000  0.30399000  1.0
  C  C286  1  0.30547000  0.04552000  0.31845000  1.0
  C  C287  1  0.29523000  0.07005000  0.39132000  1.0
  C  C288  1  0.33039000  0.15639000  0.44921000  1.0
  C  C289  1  0.94833000  0.37784000  0.97644000  1.0
  C  C290  1  0.88152000  0.31995000  0.97861000  1.0
  C  C291  1  0.79336000  0.27879000  0.91160000  1.0
  C  C292  1  0.76774000  0.29301000  0.84056000  1.0
  C  C293  1  0.83160000  0.35283000  0.83650000  1.0
  C  C294  1  0.92195000  0.39569000  0.90402000  1.0
  C  C295  1  0.81171000  0.37755000  0.77078000  1.0
  C  C296  1  0.87665000  0.43951000  0.77300000  1.0
  C  C297  1  0.96513000  0.47805000  0.84150000  1.0
  C  C298  1  0.03926000  0.54420000  0.85121000  1.0
  C  C299  1  0.04173000  0.57103000  0.79308000  1.0
  C  C300  1  0.12065000  0.63863000  0.81043000  1.0
  C  C301  1  0.12211000  0.65316000  0.74201000  1.0
  C  C302  1  0.19686000  0.71804000  0.75834000  1.0
  C  C303  1  0.26925000  0.75599000  0.90461000  1.0
  C  C304  1  0.19777000  0.69237000  0.89390000  1.0
  C  C305  1  0.18491000  0.68664000  0.10413000  1.0
  C  C306  1  0.21535000  0.77982000  0.15629000  1.0
  C  C307  1  0.16603000  0.80403000  0.18930000  1.0
  C  C308  1  0.19412000  0.89013000  0.23992000  1.0
  C  C309  1  0.27293000  0.95448000  0.25995000  1.0
  C  C310  1  0.32127000  0.92995000  0.22518000  1.0
  C  C311  1  0.29281000  0.84360000  0.17399000  1.0
  N  N312  1  0.15382000  0.95511000  0.73498000  1.0
  N  N313  1  0.08858000  0.26963000  0.01992000  1.0
  N  N314  1  0.77987000  0.04489000  0.19871000  1.0
  N  N315  1  0.75030000  0.73037000  0.81896000  1.0
  N  N316  1  0.80129000  0.58116000  0.84618000  1.0
  N  N317  1  0.18104000  0.93134000  0.91142000  1.0
  N  N318  1  0.26502000  0.41884000  0.22013000  1.0
  N  N319  1  0.98008000  0.06866000  0.24970000  1.0
  N  N320  1  0.09618000  0.08116000  0.55130000  1.0
  N  N321  1  0.16141000  0.43134000  0.93103000  1.0
  N  N322  1  0.47014000  0.91884000  0.01502000  1.0
  N  N323  1  0.49969000  0.56865000  0.73006000  1.0
  N  N324  1  0.44870000  0.54488000  0.52985000  1.0
  N  N325  1  0.06896000  0.23037000  0.50030000  1.0
  N  N326  1  0.98498000  0.45512000  0.90382000  1.0
  N  N327  1  0.26993000  0.76962000  0.83858000  1.0
  O  O328  1  0.28616000  0.91652000  0.78159000  1.0
  O  O329  1  0.32002000  0.16391000  0.97702000  1.0
  O  O330  1  0.34583000  0.13247000  0.86696000  1.0
  O  O331  1  0.86506000  0.08347000  0.36964000  1.0
  O  O332  1  0.81310000  0.83609000  0.15611000  1.0
  O  O333  1  0.73448000  0.86753000  0.21336000  1.0
  O  O334  1  0.63036000  0.49542000  0.71384000  1.0
  O  O335  1  0.84389000  0.65699000  0.67998000  1.0
  O  O336  1  0.78663000  0.52112000  0.65416000  1.0
  O  O337  1  0.21841000  0.50457000  0.13493000  1.0
  O  O338  1  0.02298000  0.34300000  0.18689000  1.0
  O  O339  1  0.13304000  0.47887000  0.26551000  1.0
  O  O340  1  0.96384000  0.99542000  0.38036000  1.0
  O  O341  1  0.92997000  0.15699000  0.59388000  1.0
  O  O342  1  0.90415000  0.02111000  0.53663000  1.0
  O  O343  1  0.38495000  0.00459000  0.96842000  1.0
  O  O344  1  0.43689000  0.84302000  0.77298000  1.0
  O  O345  1  0.51552000  0.97888000  0.88304000  1.0
  O  O346  1  0.61964000  0.58348000  0.61505000  1.0
  O  O347  1  0.40612000  0.33608000  0.56311000  1.0
  O  O348  1  0.46337000  0.36753000  0.48449000  1.0
  O  O349  1  0.03158000  0.41652000  0.03616000  1.0
  O  O350  1  0.22702000  0.66392000  0.07003000  1.0
  O  O351  1  0.11696000  0.63248000  0.09584000  1.0
