# generated using pymatgen
data_Cu3H16C24(N10Cl)2
_symmetry_space_group_name_H-M   'P 1'
_cell_length_a   12.17190000
_cell_length_b   15.37030000
_cell_length_c   15.66850000
_cell_angle_alpha   90.00000000
_cell_angle_beta   90.00000000
_cell_angle_gamma   90.00010000
_symmetry_Int_Tables_number   1
_chemical_formula_structural   Cu3H16C24(N10Cl)2
_chemical_formula_sum   'Cu6 H32 C48 N40 Cl4'
_cell_volume   2931.35314548
_cell_formula_units_Z   2
loop_
 _symmetry_equiv_pos_site_id
 _symmetry_equiv_pos_as_xyz
  1  'x, y, z'
loop_
 _atom_site_type_symbol
 _atom_site_label
 _atom_site_symmetry_multiplicity
 _atom_site_fract_x
 _atom_site_fract_y
 _atom_site_fract_z
 _atom_site_occupancy
  Cu  Cu0  1  0.00000000  0.00000000  0.00000000  1.0
  Cu  Cu1  1  0.50000000  0.50000000  0.50000000  1.0
  Cu  Cu2  1  0.84532000  0.81293000  0.00000000  1.0
  Cu  Cu3  1  0.15468000  0.18707000  0.00000000  1.0
  Cu  Cu4  1  0.65468000  0.31293000  0.50000000  1.0
  Cu  Cu5  1  0.34533000  0.68707000  0.50000000  1.0
  H  H6  1  0.23059000  0.91624000  0.28067000  1.0
  H  H7  1  0.33733000  0.85495000  0.40375000  1.0
  H  H8  1  0.15854000  0.62610000  0.40194000  1.0
  H  H9  1  0.04215000  0.67838000  0.27826000  1.0
  H  H10  1  0.76941000  0.08377000  0.28067000  1.0
  H  H11  1  0.66268000  0.14505000  0.40375000  1.0
  H  H12  1  0.84146000  0.37390000  0.40194000  1.0
  H  H13  1  0.95785000  0.32163000  0.27826000  1.0
  H  H14  1  0.26941000  0.41623000  0.21933000  1.0
  H  H15  1  0.16268000  0.35495000  0.09625000  1.0
  H  H16  1  0.34146000  0.12610000  0.09806000  1.0
  H  H17  1  0.45785000  0.17837000  0.22175000  1.0
  H  H18  1  0.73059000  0.58377000  0.21932000  1.0
  H  H19  1  0.83732000  0.64505000  0.09625000  1.0
  H  H20  1  0.65854000  0.87390000  0.09806000  1.0
  H  H21  1  0.54215000  0.82163000  0.22175000  1.0
  H  H22  1  0.76941000  0.08377000  0.71933000  1.0
  H  H23  1  0.66267000  0.14505000  0.59625000  1.0
  H  H24  1  0.84146000  0.37390000  0.59806000  1.0
  H  H25  1  0.95785000  0.32163000  0.72174000  1.0
  H  H26  1  0.23059000  0.91624000  0.71933000  1.0
  H  H27  1  0.33733000  0.85495000  0.59625000  1.0
  H  H28  1  0.15854000  0.62610000  0.59806000  1.0
  H  H29  1  0.04215000  0.67838000  0.72174000  1.0
  H  H30  1  0.73059000  0.58377000  0.78068000  1.0
  H  H31  1  0.83732000  0.64505000  0.90375000  1.0
  H  H32  1  0.65854000  0.87390000  0.90194000  1.0
  H  H33  1  0.54215000  0.82162000  0.77826000  1.0
  H  H34  1  0.26941000  0.41623000  0.78067000  1.0
  H  H35  1  0.16268000  0.35495000  0.90375000  1.0
  H  H36  1  0.34146000  0.12610000  0.90194000  1.0
  H  H37  1  0.45785000  0.17837000  0.77826000  1.0
  C  C38  1  0.06763000  0.83213000  0.19526000  1.0
  C  C39  1  0.12779000  0.80165000  0.26969000  1.0
  C  C40  1  0.21129000  0.85225000  0.30654000  1.0
  C  C41  1  0.26996000  0.81865000  0.37492000  1.0
  C  C42  1  0.16883000  0.69050000  0.37341000  1.0
  C  C43  1  0.10640000  0.71948000  0.30497000  1.0
  C  C44  1  0.93237000  0.16787000  0.19525000  1.0
  C  C45  1  0.87221000  0.19835000  0.26969000  1.0
  C  C46  1  0.78871000  0.14775000  0.30654000  1.0
  C  C47  1  0.73004000  0.18135000  0.37492000  1.0
  C  C48  1  0.83117000  0.30950000  0.37342000  1.0
  C  C49  1  0.89360000  0.28052000  0.30497000  1.0
  C  C50  1  0.43237000  0.33213000  0.30474000  1.0
  C  C51  1  0.37221000  0.30165000  0.23031000  1.0
  C  C52  1  0.28871000  0.35225000  0.19346000  1.0
  C  C53  1  0.23004000  0.31864000  0.12508000  1.0
  C  C54  1  0.33117000  0.19050000  0.12658000  1.0
  C  C55  1  0.39360000  0.21948000  0.19503000  1.0
  C  C56  1  0.56763000  0.66787000  0.30474000  1.0
  C  C57  1  0.62778000  0.69835000  0.23031000  1.0
  C  C58  1  0.71129000  0.64775000  0.19346000  1.0
  C  C59  1  0.76996000  0.68136000  0.12508000  1.0
  C  C60  1  0.66883000  0.80950000  0.12658000  1.0
  C  C61  1  0.60640000  0.78052000  0.19503000  1.0
  C  C62  1  0.93237000  0.16787000  0.80474000  1.0
  C  C63  1  0.87221000  0.19835000  0.73031000  1.0
  C  C64  1  0.78871000  0.14775000  0.69346000  1.0
  C  C65  1  0.73004000  0.18135000  0.62508000  1.0
  C  C66  1  0.83117000  0.30950000  0.62658000  1.0
  C  C67  1  0.89360000  0.28052000  0.69503000  1.0
  C  C68  1  0.06763000  0.83213000  0.80474000  1.0
  C  C69  1  0.12779000  0.80165000  0.73031000  1.0
  C  C70  1  0.21129000  0.85225000  0.69346000  1.0
  C  C71  1  0.26996000  0.81865000  0.62508000  1.0
  C  C72  1  0.16883000  0.69050000  0.62659000  1.0
  C  C73  1  0.10640000  0.71948000  0.69503000  1.0
  C  C74  1  0.56763000  0.66787000  0.69526000  1.0
  C  C75  1  0.62778000  0.69835000  0.76969000  1.0
  C  C76  1  0.71129000  0.64775000  0.80654000  1.0
  C  C77  1  0.76996000  0.68136000  0.87492000  1.0
  C  C78  1  0.66883000  0.80950000  0.87341000  1.0
  C  C79  1  0.60640000  0.78052000  0.80497000  1.0
  C  C80  1  0.43237000  0.33213000  0.69526000  1.0
  C  C81  1  0.37221000  0.30165000  0.76969000  1.0
  C  C82  1  0.28871000  0.35225000  0.80654000  1.0
  C  C83  1  0.23004000  0.31864000  0.87492000  1.0
  C  C84  1  0.33117000  0.19050000  0.87342000  1.0
  C  C85  1  0.39360000  0.21948000  0.80497000  1.0
  N  N86  1  0.01778000  0.90903000  0.09115000  1.0
  N  N87  1  0.96114000  0.83446000  0.08940000  1.0
  N  N88  1  0.99059000  0.78458000  0.15399000  1.0
  N  N89  1  0.08498000  0.90972000  0.15696000  1.0
  N  N90  1  0.24939000  0.73930000  0.40768000  1.0
  N  N91  1  0.98222000  0.09097000  0.09115000  1.0
  N  N92  1  0.03886000  0.16554000  0.08940000  1.0
  N  N93  1  0.00941000  0.21542000  0.15399000  1.0
  N  N94  1  0.91502000  0.09028000  0.15696000  1.0
  N  N95  1  0.75061000  0.26070000  0.40768000  1.0
  N  N96  1  0.48222000  0.40903000  0.40885000  1.0
  N  N97  1  0.53886000  0.33446000  0.41060000  1.0
  N  N98  1  0.50941000  0.28458000  0.34601000  1.0
  N  N99  1  0.41502000  0.40972000  0.34304000  1.0
  N  N100  1  0.25061000  0.23930000  0.09232000  1.0
  N  N101  1  0.51778000  0.59097000  0.40885000  1.0
  N  N102  1  0.46114000  0.66554000  0.41060000  1.0
  N  N103  1  0.49059000  0.71542000  0.34601000  1.0
  N  N104  1  0.58498000  0.59028000  0.34304000  1.0
  N  N105  1  0.74939000  0.76070000  0.09232000  1.0
  N  N106  1  0.98222000  0.09097000  0.90885000  1.0
  N  N107  1  0.03886000  0.16554000  0.91060000  1.0
  N  N108  1  0.00941000  0.21542000  0.84601000  1.0
  N  N109  1  0.91502000  0.09028000  0.84304000  1.0
  N  N110  1  0.75061000  0.26070000  0.59232000  1.0
  N  N111  1  0.01778000  0.90903000  0.90885000  1.0
  N  N112  1  0.96114000  0.83446000  0.91060000  1.0
  N  N113  1  0.99059000  0.78458000  0.84601000  1.0
  N  N114  1  0.08498000  0.90972000  0.84304000  1.0
  N  N115  1  0.24939000  0.73930000  0.59232000  1.0
  N  N116  1  0.51778000  0.59097000  0.59115000  1.0
  N  N117  1  0.46114000  0.66554000  0.58940000  1.0
  N  N118  1  0.49059000  0.71542000  0.65399000  1.0
  N  N119  1  0.58498000  0.59028000  0.65696000  1.0
  N  N120  1  0.74939000  0.76070000  0.90768000  1.0
  N  N121  1  0.48222000  0.40903000  0.59115000  1.0
  N  N122  1  0.53886000  0.33446000  0.58940000  1.0
  N  N123  1  0.50941000  0.28458000  0.65399000  1.0
  N  N124  1  0.41502000  0.40972000  0.65696000  1.0
  N  N125  1  0.25061000  0.23930000  0.90768000  1.0
  Cl  Cl126  1  0.77702000  0.96244000  0.00000000  1.0
  Cl  Cl127  1  0.22298000  0.03757000  0.00000000  1.0
  Cl  Cl128  1  0.72298000  0.46243000  0.50000000  1.0
  Cl  Cl129  1  0.27702000  0.53757000  0.50000000  1.0
