# generated using pymatgen
data_CdH10C9O5
_symmetry_space_group_name_H-M   'P 1'
_cell_length_a   9.00312000
_cell_length_b   9.36235000
_cell_length_c   11.65880000
_cell_angle_alpha   89.99990000
_cell_angle_beta   92.60840000
_cell_angle_gamma   89.99990000
_symmetry_Int_Tables_number   1
_chemical_formula_structural   CdH10C9O5
_chemical_formula_sum   'Cd4 H40 C36 O20'
_cell_volume   981.70626291
_cell_formula_units_Z   4
loop_
 _symmetry_equiv_pos_site_id
 _symmetry_equiv_pos_as_xyz
  1  'x, y, z'
loop_
 _atom_site_type_symbol
 _atom_site_label
 _atom_site_symmetry_multiplicity
 _atom_site_fract_x
 _atom_site_fract_y
 _atom_site_fract_z
 _atom_site_occupancy
  Cd  Cd0  1  0.02278000  0.20170000  0.46273000  1.0
  Cd  Cd1  1  0.47722000  0.70170000  0.53727000  1.0
  Cd  Cd2  1  0.97722000  0.79829000  0.53727000  1.0
  Cd  Cd3  1  0.52278000  0.29830000  0.46273000  1.0
  H  H4  1  0.83537000  0.37837000  0.59967000  1.0
  H  H5  1  0.66463000  0.87837000  0.40033000  1.0
  H  H6  1  0.16463000  0.62163000  0.40033000  1.0
  H  H7  1  0.33537000  0.12163000  0.59967000  1.0
  H  H8  1  0.99277000  0.45851000  0.60179000  1.0
  H  H9  1  0.50723000  0.95851000  0.39820000  1.0
  H  H10  1  0.00722000  0.54149000  0.39821000  1.0
  H  H11  1  0.49277000  0.04149000  0.60180000  1.0
  H  H12  1  0.92032000  0.80799000  0.09212000  1.0
  H  H13  1  0.57968000  0.30799000  0.90788000  1.0
  H  H14  1  0.07968000  0.19201000  0.90787000  1.0
  H  H15  1  0.42032000  0.69201000  0.09212000  1.0
  H  H16  1  0.67246000  0.73057000  0.19074000  1.0
  H  H17  1  0.82754000  0.23058000  0.80926000  1.0
  H  H18  1  0.32754000  0.26942000  0.80926000  1.0
  H  H19  1  0.17246000  0.76942000  0.19074000  1.0
  H  H20  1  0.47705000  0.94424000  0.16481000  1.0
  H  H21  1  0.02295000  0.44425000  0.83519000  1.0
  H  H22  1  0.52295000  0.05575000  0.83519000  1.0
  H  H23  1  0.97705000  0.55575000  0.16481000  1.0
  H  H24  1  0.60599000  0.15483000  0.05446000  1.0
  H  H25  1  0.89401000  0.65484000  0.94555000  1.0
  H  H26  1  0.39401000  0.84516000  0.94555000  1.0
  H  H27  1  0.10599000  0.34516000  0.05445000  1.0
  H  H28  1  0.84066000  0.21880000  0.16898000  1.0
  H  H29  1  0.65934000  0.71881000  0.83102000  1.0
  H  H30  1  0.15934000  0.78120000  0.83102000  1.0
  H  H31  1  0.34067000  0.28120000  0.16897000  1.0
  H  H32  1  0.00588000  0.04119000  0.17910000  1.0
  H  H33  1  0.49412000  0.54119000  0.82090000  1.0
  H  H34  1  0.99412000  0.95881000  0.82090000  1.0
  H  H35  1  0.50588000  0.45881000  0.17910000  1.0
  H  H36  1  0.87518000  0.06570000  0.99022000  1.0
  H  H37  1  0.62482000  0.56570000  0.00978000  1.0
  H  H38  1  0.12482000  0.93430000  0.00978000  1.0
  H  H39  1  0.37518000  0.43430000  0.99022000  1.0
  H  H40  1  0.73313000  0.94067000  0.94314000  1.0
  H  H41  1  0.76687000  0.44067000  0.05686000  1.0
  H  H42  1  0.26687000  0.05933000  0.05686000  1.0
  H  H43  1  0.23313000  0.55933000  0.94314000  1.0
  C  C44  1  0.83809000  0.88882000  0.11321000  1.0
  C  C45  1  0.66191000  0.38883000  0.88679000  1.0
  C  C46  1  0.16191000  0.11117000  0.88679000  1.0
  C  C47  1  0.33809000  0.61118000  0.11321000  1.0
  C  C48  1  0.68931000  0.83380000  0.15056000  1.0
  C  C49  1  0.81069000  0.33380000  0.84944000  1.0
  C  C50  1  0.31069000  0.16620000  0.84944000  1.0
  C  C51  1  0.18930000  0.66620000  0.15056000  1.0
  C  C52  1  0.59110000  0.94150000  0.13777000  1.0
  C  C53  1  0.90890000  0.44150000  0.86223000  1.0
  C  C54  1  0.40890000  0.05851000  0.86223000  1.0
  C  C55  1  0.09110000  0.55851000  0.13777000  1.0
  C  C56  1  0.67416000  0.06951000  0.09330000  1.0
  C  C57  1  0.82584000  0.56951000  0.90671000  1.0
  C  C58  1  0.32584000  0.93049000  0.90671000  1.0
  C  C59  1  0.17416000  0.43049000  0.09329000  1.0
  C  C60  1  0.78085000  0.12197000  0.19456000  1.0
  C  C61  1  0.71914000  0.62197000  0.80545000  1.0
  C  C62  1  0.21915000  0.87803000  0.80544000  1.0
  C  C63  1  0.28086000  0.37803000  0.19455000  1.0
  C  C64  1  0.89932000  0.99861000  0.20576000  1.0
  C  C65  1  0.60068000  0.49862000  0.79424000  1.0
  C  C66  1  0.10068000  0.00138000  0.79424000  1.0
  C  C67  1  0.39932000  0.50139000  0.20576000  1.0
  C  C68  1  0.78657000  0.99452000  0.01785000  1.0
  C  C69  1  0.71343000  0.49452000  0.98216000  1.0
  C  C70  1  0.21343000  0.00548000  0.98215000  1.0
  C  C71  1  0.28657000  0.50548000  0.01784000  1.0
  C  C72  1  0.70124000  0.16749000  0.30040000  1.0
  C  C73  1  0.79876000  0.66749000  0.69960000  1.0
  C  C74  1  0.29876000  0.83251000  0.69960000  1.0
  C  C75  1  0.20124000  0.33251000  0.30040000  1.0
  C  C76  1  0.92999000  0.93589000  0.32409000  1.0
  C  C77  1  0.57001000  0.43589000  0.67592000  1.0
  C  C78  1  0.07001000  0.06411000  0.67591000  1.0
  C  C79  1  0.42999000  0.56412000  0.32409000  1.0
  O  O80  1  0.77216000  0.19011000  0.39592000  1.0
  O  O81  1  0.72784000  0.69011000  0.60408000  1.0
  O  O82  1  0.22784000  0.80989000  0.60408000  1.0
  O  O83  1  0.27216000  0.30989000  0.39592000  1.0
  O  O84  1  0.56139000  0.18983000  0.28943000  1.0
  O  O85  1  0.93861000  0.68983000  0.71057000  1.0
  O  O86  1  0.43861000  0.81017000  0.71057000  1.0
  O  O87  1  0.06139000  0.31016000  0.28943000  1.0
  O  O88  1  0.05091000  0.96966000  0.37960000  1.0
  O  O89  1  0.44909000  0.46966000  0.62040000  1.0
  O  O90  1  0.94909000  0.03033000  0.62040000  1.0
  O  O91  1  0.55091000  0.53034000  0.37960000  1.0
  O  O92  1  0.83913000  0.84738000  0.36630000  1.0
  O  O93  1  0.66087000  0.34738000  0.63370000  1.0
  O  O94  1  0.16087000  0.15262000  0.63370000  1.0
  O  O95  1  0.33913000  0.65262000  0.36630000  1.0
  O  O96  1  0.92782000  0.39403000  0.55748000  1.0
  O  O97  1  0.57218000  0.89403000  0.44251000  1.0
  O  O98  1  0.07218000  0.60597000  0.44252000  1.0
  O  O99  1  0.42782000  0.10597000  0.55748000  1.0
