# generated using pymatgen
data_CdH14(C3N2)6
_symmetry_space_group_name_H-M   'P 1'
_cell_length_a   9.26942000
_cell_length_b   9.56038000
_cell_length_c   10.73980000
_cell_angle_alpha   90.00010000
_cell_angle_beta   90.00000000
_cell_angle_gamma   101.03800000
_symmetry_Int_Tables_number   1
_chemical_formula_structural   CdH14(C3N2)6
_chemical_formula_sum   'Cd2 H28 C36 N24'
_cell_volume   934.14522493
_cell_formula_units_Z   2
loop_
 _symmetry_equiv_pos_site_id
 _symmetry_equiv_pos_as_xyz
  1  'x, y, z'
loop_
 _atom_site_type_symbol
 _atom_site_label
 _atom_site_symmetry_multiplicity
 _atom_site_fract_x
 _atom_site_fract_y
 _atom_site_fract_z
 _atom_site_occupancy
  Cd  Cd0  1  0.00000000  0.00000000  0.00000000  1.0
  Cd  Cd1  1  0.50000000  0.50000000  0.50000000  1.0
  H  H2  1  0.44179000  0.70940000  0.01514000  1.0
  H  H3  1  0.05821000  0.79060000  0.51513000  1.0
  H  H4  1  0.55821000  0.29060000  0.98486000  1.0
  H  H5  1  0.94179000  0.20940000  0.48486000  1.0
  H  H6  1  0.05255000  0.71409000  0.10248000  1.0
  H  H7  1  0.44745000  0.78591000  0.60248000  1.0
  H  H8  1  0.94745000  0.28591000  0.89752000  1.0
  H  H9  1  0.55255000  0.21409000  0.39752000  1.0
  H  H10  1  0.19354000  0.62383000  0.13467000  1.0
  H  H11  1  0.30646000  0.87617000  0.63467000  1.0
  H  H12  1  0.80646000  0.37617000  0.86533000  1.0
  H  H13  1  0.69354000  0.12383000  0.36533000  1.0
  H  H14  1  0.65772000  0.86576000  0.84692000  1.0
  H  H15  1  0.84228000  0.63424000  0.34692000  1.0
  H  H16  1  0.34228000  0.13424000  0.15308000  1.0
  H  H17  1  0.15772000  0.36576000  0.65308000  1.0
  H  H18  1  0.47950000  0.19151000  0.65420000  1.0
  H  H19  1  0.02050000  0.30849000  0.15420000  1.0
  H  H20  1  0.52050000  0.80849000  0.34580000  1.0
  H  H21  1  0.97950000  0.69151000  0.84580000  1.0
  H  H22  1  0.68638000  0.07041000  0.69777000  1.0
  H  H23  1  0.81362000  0.42959000  0.19777000  1.0
  H  H24  1  0.31362000  0.92959000  0.30223000  1.0
  H  H25  1  0.18638000  0.57041000  0.80223000  1.0
  H  H26  1  0.23899000  0.11937000  0.76289000  1.0
  H  H27  1  0.26101000  0.38063000  0.26289000  1.0
  H  H28  1  0.76101000  0.88063000  0.23711000  1.0
  H  H29  1  0.73899000  0.61937000  0.73711000  1.0
  C  C30  1  0.24176000  0.79071000  0.00944000  1.0
  C  C31  1  0.25823000  0.70929000  0.50944000  1.0
  C  C32  1  0.75824000  0.20929000  0.99056000  1.0
  C  C33  1  0.74176000  0.29071000  0.49056000  1.0
  C  C34  1  0.31511000  0.95575000  0.87013000  1.0
  C  C35  1  0.18489000  0.54425000  0.37013000  1.0
  C  C36  1  0.68489000  0.04425000  0.12987000  1.0
  C  C37  1  0.81511000  0.45575000  0.62987000  1.0
  C  C38  1  0.56712000  0.92055000  0.82884000  1.0
  C  C39  1  0.93288000  0.57945000  0.32884000  1.0
  C  C40  1  0.43288000  0.07945000  0.17116000  1.0
  C  C41  1  0.06712000  0.42055000  0.67116000  1.0
  C  C42  1  0.43302000  0.88288000  0.88975000  1.0
  C  C43  1  0.06698000  0.61712000  0.38975000  1.0
  C  C44  1  0.56698000  0.11712000  0.11025000  1.0
  C  C45  1  0.93302000  0.38288000  0.61025000  1.0
  C  C46  1  0.46537000  0.10504000  0.72162000  1.0
  C  C47  1  0.03463000  0.39496000  0.22162000  1.0
  C  C48  1  0.53462000  0.89496000  0.27838000  1.0
  C  C49  1  0.96537000  0.60504000  0.77838000  1.0
  C  C50  1  0.58196000  0.03468000  0.74500000  1.0
  C  C51  1  0.91804000  0.46532000  0.24500000  1.0
  C  C52  1  0.41804000  0.96532000  0.25500000  1.0
  C  C53  1  0.08196000  0.53468000  0.75500000  1.0
  C  C54  1  0.33001000  0.06581000  0.78257000  1.0
  C  C55  1  0.16999000  0.43419000  0.28257000  1.0
  C  C56  1  0.66999000  0.93419000  0.21743000  1.0
  C  C57  1  0.83001000  0.56581000  0.71743000  1.0
  C  C58  1  0.91534000  0.94834000  0.68746000  1.0
  C  C59  1  0.58466000  0.55166000  0.18746000  1.0
  C  C60  1  0.08466000  0.05166000  0.31254000  1.0
  C  C61  1  0.41534000  0.44834000  0.81254000  1.0
  C  C62  1  0.75977000  0.80783000  0.55204000  1.0
  C  C63  1  0.74023000  0.69217000  0.05204000  1.0
  C  C64  1  0.24023000  0.19217000  0.44796000  1.0
  C  C65  1  0.25977000  0.30783000  0.94796000  1.0
  N  N66  1  0.19816000  0.89757000  0.94737000  1.0
  N  N67  1  0.30184000  0.60244000  0.44737000  1.0
  N  N68  1  0.80184000  0.10243000  0.05263000  1.0
  N  N69  1  0.69816000  0.39756000  0.55263000  1.0
  N  N70  1  0.38148000  0.77739000  0.97658000  1.0
  N  N71  1  0.11852000  0.72261000  0.47658000  1.0
  N  N72  1  0.61852000  0.22261000  0.02342000  1.0
  N  N73  1  0.88148000  0.27739000  0.52342000  1.0
  N  N74  1  0.15970000  0.70681000  0.09249000  1.0
  N  N75  1  0.34029000  0.79319000  0.59249000  1.0
  N  N76  1  0.84029000  0.29319000  0.90751000  1.0
  N  N77  1  0.65971000  0.20681000  0.40751000  1.0
  N  N78  1  0.95349000  0.00914000  0.78075000  1.0
  N  N79  1  0.54650000  0.49086000  0.28075000  1.0
  N  N80  1  0.04651000  0.99086000  0.21925000  1.0
  N  N81  1  0.45349000  0.50914000  0.71925000  1.0
  N  N82  1  0.88501000  0.88796000  0.57950000  1.0
  N  N83  1  0.61499000  0.61204000  0.07950000  1.0
  N  N84  1  0.11499000  0.11204000  0.42051000  1.0
  N  N85  1  0.38501000  0.38796000  0.92050000  1.0
  N  N86  1  0.65086000  0.73355000  0.51670000  1.0
  N  N87  1  0.84914000  0.76645000  0.01670000  1.0
  N  N88  1  0.34914000  0.26645000  0.48330000  1.0
  N  N89  1  0.15086000  0.23355000  0.98330000  1.0
