# generated using pymatgen
data_AgH4C6NO2
_symmetry_space_group_name_H-M   'P 1'
_cell_length_a   8.62080000
_cell_length_b   12.59340000
_cell_length_c   13.98850000
_cell_angle_alpha   107.93300000
_cell_angle_beta   99.37150000
_cell_angle_gamma   90.09160000
_symmetry_Int_Tables_number   1
_chemical_formula_structural   AgH4C6NO2
_chemical_formula_sum   'Ag8 H32 C48 N8 O16'
_cell_volume   1423.43188683
_cell_formula_units_Z   8
loop_
 _symmetry_equiv_pos_site_id
 _symmetry_equiv_pos_as_xyz
  1  'x, y, z'
loop_
 _atom_site_type_symbol
 _atom_site_label
 _atom_site_symmetry_multiplicity
 _atom_site_fract_x
 _atom_site_fract_y
 _atom_site_fract_z
 _atom_site_occupancy
  Ag  Ag0  1  0.88666000  0.51915000  0.61050000  1.0
  Ag  Ag1  1  0.11334000  0.48085000  0.38949000  1.0
  Ag  Ag2  1  0.12390000  0.65525000  0.75162000  1.0
  Ag  Ag3  1  0.87610000  0.34475000  0.24838000  1.0
  Ag  Ag4  1  0.99894000  0.03311000  0.24971000  1.0
  Ag  Ag5  1  0.00107000  0.96689000  0.75029000  1.0
  Ag  Ag6  1  0.00675000  0.14127000  0.10752000  1.0
  Ag  Ag7  1  0.99324000  0.85873000  0.89248000  1.0
  H  H8  1  0.64985000  0.32450000  0.59644000  1.0
  H  H9  1  0.35015000  0.67549000  0.40356000  1.0
  H  H10  1  0.41376000  0.20396000  0.48354000  1.0
  H  H11  1  0.58624000  0.79604000  0.51646000  1.0
  H  H12  1  0.43051000  0.38996000  0.27376000  1.0
  H  H13  1  0.56949000  0.61004000  0.72625000  1.0
  H  H14  1  0.67279000  0.49697000  0.39056000  1.0
  H  H15  1  0.32721000  0.50304000  0.60944000  1.0
  H  H16  1  0.56933000  0.78262000  0.09213000  1.0
  H  H17  1  0.43067000  0.21738000  0.90787000  1.0
  H  H18  1  0.33333333  0.67102000  0.97054000  1.0
  H  H19  1  0.66666667  0.32898000  0.02947000  1.0
  H  H20  1  0.36558000  0.84104000  0.76397000  1.0
  H  H21  1  0.63442000  0.15896000  0.23603000  1.0
  H  H22  1  0.61076000  0.95152000  0.87219000  1.0
  H  H23  1  0.38924000  0.04848000  0.12781000  1.0
  H  H24  1  0.80854000  0.26567000  0.77346000  1.0
  H  H25  1  0.19146000  0.73433000  0.22654000  1.0
  H  H26  1  0.81652000  0.15096000  0.89352000  1.0
  H  H27  1  0.18348000  0.84904000  0.10648000  1.0
  H  H28  1  0.19033000  0.34840000  0.09228000  1.0
  H  H29  1  0.80967000  0.65160000  0.90772000  1.0
  H  H30  1  0.20656000  0.46462000  0.97533000  1.0
  H  H31  1  0.79343000  0.53538000  0.02467000  1.0
  H  H32  1  0.23765000  0.88324000  0.56338000  1.0
  H  H33  1  0.76235000  0.11676000  0.43662000  1.0
  H  H34  1  0.22845000  0.99448000  0.43972000  1.0
  H  H35  1  0.77155000  0.00552000  0.56028000  1.0
  H  H36  1  0.80518000  0.83524000  0.27461000  1.0
  H  H37  1  0.19482000  0.16476000  0.72539000  1.0
  H  H38  1  0.80146000  0.71289000  0.38811000  1.0
  H  H39  1  0.19854000  0.28711000  0.61189000  1.0
  C  C40  1  0.59811000  0.33489000  0.52344000  1.0
  C  C41  1  0.40189000  0.66511000  0.47656000  1.0
  C  C42  1  0.46769000  0.26933000  0.46177000  1.0
  C  C43  1  0.53231000  0.73067000  0.53823000  1.0
  C  C44  1  0.40531000  0.28809000  0.36993000  1.0
  C  C45  1  0.59469000  0.71191000  0.63007000  1.0
  C  C46  1  0.47767000  0.37233000  0.34399000  1.0
  C  C47  1  0.52233000  0.62767000  0.65601000  1.0
  C  C48  1  0.61083000  0.43189000  0.40876000  1.0
  C  C49  1  0.38917000  0.56811000  0.59124000  1.0
  C  C50  1  0.26553000  0.21747000  0.30044000  1.0
  C  C51  1  0.73447000  0.78253000  0.69956000  1.0
  C  C52  1  0.74642000  0.94685000  0.05986000  1.0
  C  C53  1  0.25358000  0.05315000  0.94014000  1.0
  C  C54  1  0.60686000  0.87597000  0.99082000  1.0
  C  C55  1  0.39314000  0.12403000  0.00918000  1.0
  C  C56  1  0.52816000  0.79620000  0.01918000  1.0
  C  C57  1  0.47184000  0.20380000  0.98082000  1.0
  C  C58  1  0.39752000  0.73530000  0.95274000  1.0
  C  C59  1  0.60249000  0.26470000  0.04726000  1.0
  C  C60  1  0.41671000  0.82924000  0.83631000  1.0
  C  C61  1  0.58329000  0.17076000  0.16369000  1.0
  C  C62  1  0.55068000  0.89102000  0.89665000  1.0
  C  C63  1  0.44932000  0.10898000  0.10335000  1.0
  C  C64  1  0.00661000  0.44613000  0.79745000  1.0
  C  C65  1  0.99339000  0.55388000  0.20255000  1.0
  C  C66  1  0.00698000  0.37430000  0.86609000  1.0
  C  C67  1  0.99302000  0.62570000  0.13391000  1.0
  C  C68  1  0.89548000  0.28534000  0.84305000  1.0
  C  C69  1  0.10451000  0.71466000  0.15695000  1.0
  C  C70  1  0.89920000  0.22253000  0.90955000  1.0
  C  C71  1  0.10080000  0.77747000  0.09045000  1.0
  C  C72  1  0.10989000  0.33192000  0.01988000  1.0
  C  C73  1  0.89011000  0.66808000  0.98012000  1.0
  C  C74  1  0.11773000  0.39637000  0.95580000  1.0
  C  C75  1  0.88227000  0.60363000  0.04420000  1.0
  C  C76  1  0.01891000  0.72131000  0.55541000  1.0
  C  C77  1  0.98109000  0.27869000  0.44459000  1.0
  C  C78  1  0.01901000  0.79028000  0.48463000  1.0
  C  C79  1  0.98098000  0.20972000  0.51537000  1.0
  C  C80  1  0.14110000  0.86997000  0.49943000  1.0
  C  C81  1  0.85889000  0.13003000  0.50057000  1.0
  C  C82  1  0.13592000  0.93144000  0.43169000  1.0
  C  C83  1  0.86408000  0.06856000  0.56831000  1.0
  C  C84  1  0.89862000  0.84239000  0.33943000  1.0
  C  C85  1  0.10138000  0.15761000  0.66057000  1.0
  C  C86  1  0.89616000  0.77597000  0.40229000  1.0
  C  C87  1  0.10384000  0.22403000  0.59771000  1.0
  N  N88  1  0.66992000  0.41420000  0.49726000  1.0
  N  N89  1  0.33009000  0.58580000  0.50274000  1.0
  N  N90  1  0.34124000  0.75247000  0.86351000  1.0
  N  N91  1  0.65876000  0.24753000  0.13650000  1.0
  N  N92  1  0.00260000  0.24631000  0.99738000  1.0
  N  N93  1  0.99740000  0.75369000  0.00262000  1.0
  N  N94  1  0.01640000  0.91880000  0.35352000  1.0
  N  N95  1  0.98361000  0.08120000  0.64648000  1.0
  O  O96  1  0.23092000  0.12824000  0.31866000  1.0
  O  O97  1  0.76908000  0.87176000  0.68134000  1.0
  O  O98  1  0.19635000  0.25300000  0.22968000  1.0
  O  O99  1  0.80365000  0.74700000  0.77032000  1.0
  O  O100  1  0.77476000  0.94489000  0.15125000  1.0
  O  O101  1  0.22524000  0.05511000  0.84875000  1.0
  O  O102  1  0.82281000  0.00371000  0.01985000  1.0
  O  O103  1  0.17719000  0.99629000  0.98015000  1.0
  O  O104  1  0.12966000  0.50879000  0.81244000  1.0
  O  O105  1  0.87034000  0.49121000  0.18756000  1.0
  O  O106  1  0.88260000  0.43808000  0.73176000  1.0
  O  O107  1  0.11740000  0.56192000  0.26824000  1.0
  O  O108  1  0.92875000  0.63295000  0.52153000  1.0
  O  O109  1  0.07125000  0.36705000  0.47847000  1.0
  O  O110  1  0.10820000  0.75726000  0.64170000  1.0
  O  O111  1  0.89180000  0.24274000  0.35830000  1.0
