# generated using pymatgen
data_ZnH12C15S(NO)4
_symmetry_space_group_name_H-M   'P 1'
_cell_length_a   8.75521000
_cell_length_b   10.27120000
_cell_length_c   10.27130000
_cell_angle_alpha   76.75290000
_cell_angle_beta   72.15290000
_cell_angle_gamma   72.15340000
_symmetry_Int_Tables_number   1
_chemical_formula_structural   ZnH12C15S(NO)4
_chemical_formula_sum   'Zn2 H24 C30 S2 N8 O8'
_cell_volume   827.53329288
_cell_formula_units_Z   2
loop_
 _symmetry_equiv_pos_site_id
 _symmetry_equiv_pos_as_xyz
  1  'x, y, z'
loop_
 _atom_site_type_symbol
 _atom_site_label
 _atom_site_symmetry_multiplicity
 _atom_site_fract_x
 _atom_site_fract_y
 _atom_site_fract_z
 _atom_site_occupancy
  Zn  Zn0  1  0.50001000  0.32760000  0.67240000  1.0
  Zn  Zn1  1  0.50000000  0.67240000  0.32760000  1.0
  H  H2  1  0.45668000  0.22838000  0.00330000  1.0
  H  H3  1  0.54333000  0.99669000  0.77161000  1.0
  H  H4  1  0.54332000  0.77161000  0.99670000  1.0
  H  H5  1  0.45667000  0.00330000  0.22839000  1.0
  H  H6  1  0.12307000  0.44240000  0.65580000  1.0
  H  H7  1  0.87692000  0.34420000  0.55760000  1.0
  H  H8  1  0.87693000  0.55760000  0.34420000  1.0
  H  H9  1  0.12307000  0.65580000  0.44240000  1.0
  H  H10  1  0.81020000  0.49019000  0.73574000  1.0
  H  H11  1  0.18980000  0.26428000  0.50981000  1.0
  H  H12  1  0.18980000  0.50981000  0.26426000  1.0
  H  H13  1  0.81020000  0.73573000  0.49020000  1.0
  H  H14  1  0.67084000  0.43061000  0.97936000  1.0
  H  H15  1  0.32916000  0.02067000  0.56938000  1.0
  H  H16  1  0.32916000  0.56939000  0.02064000  1.0
  H  H17  1  0.67083000  0.97934000  0.43063000  1.0
  H  H18  1  0.82815000  0.32520000  0.15706000  1.0
  H  H19  1  0.17187000  0.84295000  0.67478000  1.0
  H  H20  1  0.17186000  0.67480000  0.84294000  1.0
  H  H21  1  0.82813000  0.15705000  0.32521000  1.0
  H  H22  1  0.26665000  0.24882000  0.24882000  1.0
  H  H23  1  0.73336000  0.75117000  0.75117000  1.0
  H  H24  1  0.04873000  0.27381000  0.27381000  1.0
  H  H25  1  0.95127000  0.72619000  0.72619000  1.0
  C  C26  1  0.33889000  0.26203000  0.97561000  1.0
  C  C27  1  0.66112000  0.02438000  0.73797000  1.0
  C  C28  1  0.66111000  0.73797000  0.02438000  1.0
  C  C29  1  0.33888000  0.97562000  0.26203000  1.0
  C  C30  1  0.06595000  0.31709000  0.00217000  1.0
  C  C31  1  0.93406000  0.99783000  0.68290000  1.0
  C  C32  1  0.93406000  0.68290000  0.99783000  1.0
  C  C33  1  0.06594000  0.00217000  0.31710000  1.0
  C  C34  1  0.14820000  0.34976000  0.86185000  1.0
  C  C35  1  0.85181000  0.13815000  0.65023000  1.0
  C  C36  1  0.85181000  0.65023000  0.13814000  1.0
  C  C37  1  0.14818000  0.86185000  0.34977000  1.0
  C  C38  1  0.05852000  0.41516000  0.76302000  1.0
  C  C39  1  0.94148000  0.23699000  0.58484000  1.0
  C  C40  1  0.94148000  0.58483000  0.23698000  1.0
  C  C41  1  0.05852000  0.76301000  0.41516000  1.0
  C  C42  1  0.88663000  0.44220000  0.80848000  1.0
  C  C43  1  0.11337000  0.19153000  0.55779000  1.0
  C  C44  1  0.11338000  0.55780000  0.19152000  1.0
  C  C45  1  0.88662000  0.80847000  0.44221000  1.0
  C  C46  1  0.80595000  0.40702000  0.94823000  1.0
  C  C47  1  0.19405000  0.05179000  0.59297000  1.0
  C  C48  1  0.19405000  0.59298000  0.05177000  1.0
  C  C49  1  0.80595000  0.94822000  0.40703000  1.0
  C  C50  1  0.89348000  0.34507000  0.04863000  1.0
  C  C51  1  0.10653000  0.95138000  0.65491000  1.0
  C  C52  1  0.10652000  0.65493000  0.95137000  1.0
  C  C53  1  0.89346000  0.04862000  0.34509000  1.0
  C  C54  1  0.17244000  0.21942000  0.21942000  1.0
  C  C55  1  0.82757000  0.78057000  0.78057000  1.0
  S  S56  1  0.50034000  0.63068000  0.63068000  1.0
  S  S57  1  0.49967000  0.36932000  0.36932000  1.0
  N  N58  1  0.31884000  0.31172000  0.84898000  1.0
  N  N59  1  0.68117000  0.15102000  0.68828000  1.0
  N  N60  1  0.68116000  0.68828000  0.15102000  1.0
  N  N61  1  0.31883000  0.84898000  0.31172000  1.0
  N  N62  1  0.19153000  0.26168000  0.07137000  1.0
  N  N63  1  0.80848000  0.92863000  0.73831000  1.0
  N  N64  1  0.80848000  0.73831000  0.92863000  1.0
  N  N65  1  0.19152000  0.07136000  0.26169000  1.0
  O  O66  1  0.52173000  0.71654000  0.71654000  1.0
  O  O67  1  0.47828000  0.28346000  0.28346000  1.0
  O  O68  1  0.32678000  0.63925000  0.63926000  1.0
  O  O69  1  0.67322000  0.36075000  0.36075000  1.0
  O  O70  1  0.58968000  0.48068000  0.67188000  1.0
  O  O71  1  0.41034000  0.32809000  0.51932000  1.0
  O  O72  1  0.41033000  0.51932000  0.32812000  1.0
  O  O73  1  0.58966000  0.67190000  0.48068000  1.0
