# generated using pymatgen
data_CuH14C26(NO)4
_symmetry_space_group_name_H-M   'P 1'
_cell_length_a   9.83096000
_cell_length_b   10.35420000
_cell_length_c   11.25780000
_cell_angle_alpha   115.05700000
_cell_angle_beta   96.05500000
_cell_angle_gamma   104.08400000
_symmetry_Int_Tables_number   1
_chemical_formula_structural   CuH14C26(NO)4
_chemical_formula_sum   'Cu2 H28 C52 N8 O8'
_cell_volume   978.12505554
_cell_formula_units_Z   2
loop_
 _symmetry_equiv_pos_site_id
 _symmetry_equiv_pos_as_xyz
  1  'x, y, z'
loop_
 _atom_site_type_symbol
 _atom_site_label
 _atom_site_symmetry_multiplicity
 _atom_site_fract_x
 _atom_site_fract_y
 _atom_site_fract_z
 _atom_site_occupancy
  Cu  Cu0  1  0.51015000  0.53364000  0.66053000  1.0
  Cu  Cu1  1  0.48985000  0.46637000  0.33947000  1.0
  H  H2  1  0.13050000  0.12750000  0.88246000  1.0
  H  H3  1  0.86950000  0.87250000  0.11755000  1.0
  H  H4  1  0.11109000  0.07129000  0.23734000  1.0
  H  H5  1  0.88891000  0.92871000  0.76267000  1.0
  H  H6  1  0.46925000  0.19071000  0.53900000  1.0
  H  H7  1  0.53075000  0.80929000  0.46100000  1.0
  H  H8  1  0.06193000  0.01707000  0.62327000  1.0
  H  H9  1  0.93807000  0.98293000  0.37673000  1.0
  H  H10  1  0.85202000  0.66405000  0.59967000  1.0
  H  H11  1  0.14798000  0.33594000  0.40032000  1.0
  H  H12  1  0.67012000  0.98580000  0.71602000  1.0
  H  H13  1  0.32988000  0.01421000  0.28398000  1.0
  H  H14  1  0.89895000  0.22529000  0.42149000  1.0
  H  H15  1  0.10106000  0.77470000  0.57850000  1.0
  H  H16  1  0.06970000  0.75275000  0.92077000  1.0
  H  H17  1  0.93030000  0.24725000  0.07923000  1.0
  H  H18  1  0.27689000  0.97044000  0.52805000  1.0
  H  H19  1  0.72311000  0.02956000  0.47195000  1.0
  H  H20  1  0.28822000  0.94110000  0.92293000  1.0
  H  H21  1  0.71178000  0.05890000  0.07707000  1.0
  H  H22  1  0.48045000  0.84869000  0.81452000  1.0
  H  H23  1  0.51955000  0.15132000  0.18548000  1.0
  H  H24  1  0.68658000  0.52508000  0.95010000  1.0
  H  H25  1  0.31342000  0.47492000  0.04990000  1.0
  H  H26  1  0.46092000  0.05323000  0.80382000  1.0
  H  H27  1  0.53907000  0.94676000  0.19619000  1.0
  H  H28  1  0.47163000  0.31821000  0.92699000  1.0
  H  H29  1  0.52836000  0.68179000  0.07301000  1.0
  C  C30  1  0.86073000  0.43815000  0.51129000  1.0
  C  C31  1  0.13927000  0.56185000  0.48870000  1.0
  C  C32  1  0.02118000  0.44646000  0.80623000  1.0
  C  C33  1  0.97882000  0.55353000  0.19377000  1.0
  C  C34  1  0.25375000  0.37007000  0.69047000  1.0
  C  C35  1  0.74625000  0.62993000  0.30953000  1.0
  C  C36  1  0.79629000  0.21755000  0.78165000  1.0
  C  C37  1  0.20371000  0.78245000  0.21836000  1.0
  C  C38  1  0.07205000  0.06986000  0.93223000  1.0
  C  C39  1  0.92795000  0.93014000  0.06777000  1.0
  C  C40  1  0.27841000  0.23259000  0.13294000  1.0
  C  C41  1  0.72159000  0.76742000  0.86707000  1.0
  C  C42  1  0.13490000  0.11106000  0.06612000  1.0
  C  C43  1  0.86511000  0.88893000  0.93388000  1.0
  C  C44  1  0.71238000  0.37161000  0.52494000  1.0
  C  C45  1  0.28763000  0.62839000  0.47505000  1.0
  C  C46  1  0.93820000  0.95941000  0.86612000  1.0
  C  C47  1  0.06181000  0.04059000  0.13389000  1.0
  C  C48  1  0.25605000  0.52453000  0.75508000  1.0
  C  C49  1  0.74395000  0.47546000  0.24493000  1.0
  C  C50  1  0.01923000  0.29236000  0.74259000  1.0
  C  C51  1  0.98077000  0.70764000  0.25741000  1.0
  C  C52  1  0.37368000  0.20368000  0.57854000  1.0
  C  C53  1  0.62632000  0.79632000  0.42146000  1.0
  C  C54  1  0.14867000  0.10807000  0.62675000  1.0
  C  C55  1  0.85133000  0.89193000  0.37325000  1.0
  C  C56  1  0.91769000  0.59338000  0.55546000  1.0
  C  C57  1  0.08232000  0.40661000  0.44453000  1.0
  C  C58  1  0.13985000  0.25481000  0.68650000  1.0
  C  C59  1  0.86015000  0.74519000  0.31349000  1.0
  C  C60  1  0.67231000  0.10256000  0.76724000  1.0
  C  C61  1  0.32769000  0.89744000  0.23276000  1.0
  C  C62  1  0.79975000  0.37229000  0.84800000  1.0
  C  C63  1  0.20025000  0.62772000  0.15200000  1.0
  C  C64  1  0.94442000  0.34573000  0.45591000  1.0
  C  C65  1  0.05558000  0.65426000  0.54407000  1.0
  C  C66  1  0.15518000  0.71797000  0.87483000  1.0
  C  C67  1  0.84482000  0.28203000  0.12517000  1.0
  C  C68  1  0.26608000  0.08264000  0.57330000  1.0
  C  C69  1  0.73392000  0.91736000  0.42670000  1.0
  C  C70  1  0.27619000  0.82168000  0.87614000  1.0
  C  C71  1  0.72381000  0.17832000  0.12386000  1.0
  C  C72  1  0.14349000  0.56484000  0.81361000  1.0
  C  C73  1  0.85651000  0.43516000  0.18639000  1.0
  C  C74  1  0.38344000  0.77210000  0.81602000  1.0
  C  C75  1  0.61656000  0.22790000  0.18398000  1.0
  C  C76  1  0.68146000  0.40732000  0.90128000  1.0
  C  C77  1  0.31854000  0.59269000  0.09873000  1.0
  C  C78  1  0.55805000  0.14072000  0.81720000  1.0
  C  C79  1  0.44195000  0.85928000  0.18280000  1.0
  C  C80  1  0.56286000  0.29329000  0.88562000  1.0
  C  C81  1  0.43713000  0.70671000  0.11439000  1.0
  N  N82  1  0.36714000  0.34393000  0.63605000  1.0
  N  N83  1  0.63287000  0.65608000  0.36395000  1.0
  N  N84  1  0.37261000  0.62670000  0.75664000  1.0
  N  N85  1  0.62739000  0.37329000  0.24337000  1.0
  N  N86  1  0.91350000  0.48444000  0.85917000  1.0
  N  N87  1  0.08650000  0.51556000  0.14083000  1.0
  N  N88  1  0.90838000  0.18100000  0.73155000  1.0
  N  N89  1  0.09162000  0.81900000  0.26844000  1.0
  O  O90  1  0.62760000  0.45336000  0.53505000  1.0
  O  O91  1  0.37241000  0.54665000  0.46495000  1.0
  O  O92  1  0.32875000  0.27355000  0.25954000  1.0
  O  O93  1  0.67124000  0.72646000  0.74047000  1.0
  O  O94  1  0.67956000  0.24675000  0.52383000  1.0
  O  O95  1  0.32044000  0.75325000  0.47616000  1.0
  O  O96  1  0.34084000  0.28794000  0.06597000  1.0
  O  O97  1  0.65916000  0.71206000  0.93404000  1.0
