# generated using pymatgen
data_CuH14C19S(NO3)2
_symmetry_space_group_name_H-M   'P 1'
_cell_length_a   9.58693000
_cell_length_b   9.91217000
_cell_length_c   10.77310000
_cell_angle_alpha   66.46590000
_cell_angle_beta   77.37640000
_cell_angle_gamma   63.52850000
_symmetry_Int_Tables_number   1
_chemical_formula_structural   CuH14C19S(NO3)2
_chemical_formula_sum   'Cu2 H28 C38 S2 N4 O12'
_cell_volume   839.15490284
_cell_formula_units_Z   2
loop_
 _symmetry_equiv_pos_site_id
 _symmetry_equiv_pos_as_xyz
  1  'x, y, z'
loop_
 _atom_site_type_symbol
 _atom_site_label
 _atom_site_symmetry_multiplicity
 _atom_site_fract_x
 _atom_site_fract_y
 _atom_site_fract_z
 _atom_site_occupancy
  Cu  Cu0  1  0.19857000  0.38530000  0.28462000  1.0
  Cu  Cu1  1  0.80143000  0.61470000  0.71538000  1.0
  H  H2  1  0.30786000  0.80294000  0.12487000  1.0
  H  H3  1  0.69214000  0.19706000  0.87513000  1.0
  H  H4  1  0.42290000  0.99854000  0.07520000  1.0
  H  H5  1  0.57710000  0.00146000  0.92480000  1.0
  H  H6  1  0.47970000  0.85250000  0.50266000  1.0
  H  H7  1  0.52030000  0.14750000  0.49734000  1.0
  H  H8  1  0.35972000  0.66015000  0.55136000  1.0
  H  H9  1  0.64028000  0.33986000  0.44864000  1.0
  H  H10  1  0.35321000  0.58498000  0.03881000  1.0
  H  H11  1  0.64679000  0.41502000  0.96119000  1.0
  H  H12  1  0.41684000  0.60196000  0.79651000  1.0
  H  H13  1  0.58316000  0.39804000  0.20349000  1.0
  H  H14  1  0.31981000  0.46046000  0.70663000  1.0
  H  H15  1  0.68019000  0.53954000  0.29337000  1.0
  H  H16  1  0.16472000  0.28940000  0.75597000  1.0
  H  H17  1  0.83528000  0.71060000  0.24403000  1.0
  H  H18  1  0.00717000  0.14884000  0.91815000  1.0
  H  H19  1  0.99283000  0.85116000  0.08185000  1.0
  H  H20  1  0.88831000  0.05979000  0.16431000  1.0
  H  H21  1  0.11169000  0.94022000  0.83569000  1.0
  H  H22  1  0.85848000  0.06156000  0.39645000  1.0
  H  H23  1  0.14152000  0.93844000  0.60355000  1.0
  H  H24  1  0.98853000  0.20134000  0.45407000  1.0
  H  H25  1  0.01147000  0.79866000  0.54594000  1.0
  H  H26  1  0.22391000  0.21007000  0.53817000  1.0
  H  H27  1  0.77609000  0.78993000  0.46183000  1.0
  H  H28  1  0.17901000  0.39936000  0.50391000  1.0
  H  H29  1  0.82099000  0.60065000  0.49609000  1.0
  C  C30  1  0.26364000  0.59279000  0.37589000  1.0
  C  C31  1  0.73636000  0.40722000  0.62411000  1.0
  C  C32  1  0.32577000  0.71836000  0.34212000  1.0
  C  C33  1  0.67423000  0.28164000  0.65788000  1.0
  C  C34  1  0.34294000  0.81481000  0.20813000  1.0
  C  C35  1  0.65706000  0.18519000  0.79187000  1.0
  C  C36  1  0.40928000  0.92451000  0.17954000  1.0
  C  C37  1  0.59072000  0.07549000  0.82046000  1.0
  C  C38  1  0.46040000  0.93621000  0.28511000  1.0
  C  C39  1  0.53960000  0.06379000  0.71489000  1.0
  C  C40  1  0.44073000  0.84319000  0.41982000  1.0
  C  C41  1  0.55927000  0.15681000  0.58018000  1.0
  C  C42  1  0.37329000  0.73531000  0.44739000  1.0
  C  C43  1  0.62671000  0.26470000  0.55261000  1.0
  C  C44  1  0.31756000  0.52154000  0.99784000  1.0
  C  C45  1  0.68244000  0.47846000  0.00216000  1.0
  C  C46  1  0.35105000  0.53113000  0.86144000  1.0
  C  C47  1  0.64895000  0.46887000  0.13856000  1.0
  C  C48  1  0.29890000  0.45290000  0.81250000  1.0
  C  C49  1  0.70110000  0.54710000  0.18751000  1.0
  C  C50  1  0.21225000  0.36472000  0.90072000  1.0
  C  C51  1  0.78775000  0.63528000  0.09928000  1.0
  C  C52  1  0.14624000  0.28473000  0.86074000  1.0
  C  C53  1  0.85376000  0.71526000  0.13926000  1.0
  C  C54  1  0.06042000  0.20466000  0.95153000  1.0
  C  C55  1  0.93958000  0.79534000  0.04847000  1.0
  C  C56  1  0.03582000  0.19480000  0.09033000  1.0
  C  C57  1  0.96419000  0.80520000  0.90967000  1.0
  C  C58  1  0.94754000  0.11639000  0.18979000  1.0
  C  C59  1  0.05246000  0.88361000  0.81021000  1.0
  C  C60  1  0.93075000  0.11686000  0.32050000  1.0
  C  C61  1  0.06925000  0.88314000  0.67950000  1.0
  C  C62  1  0.00187000  0.19451000  0.35346000  1.0
  C  C63  1  0.99813000  0.80550000  0.64654000  1.0
  C  C64  1  0.18733000  0.35879000  0.03680000  1.0
  C  C65  1  0.81267000  0.64121000  0.96320000  1.0
  C  C66  1  0.10187000  0.27123000  0.13215000  1.0
  C  C67  1  0.89813000  0.72877000  0.86785000  1.0
  S  S68  1  0.55737000  0.06578000  0.25228000  1.0
  S  S69  1  0.44263000  0.93422000  0.74772000  1.0
  N  N70  1  0.23888000  0.43662000  0.08309000  1.0
  N  N71  1  0.76112000  0.56338000  0.91691000  1.0
  N  N72  1  0.08574000  0.26906000  0.26124000  1.0
  N  N73  1  0.91426000  0.73094000  0.73877000  1.0
  O  O74  1  0.25174000  0.56017000  0.27492000  1.0
  O  O75  1  0.74826000  0.43983000  0.72508000  1.0
  O  O76  1  0.22990000  0.52584000  0.49878000  1.0
  O  O77  1  0.77010000  0.47416000  0.50122000  1.0
  O  O78  1  0.70156000  0.96337000  0.32799000  1.0
  O  O79  1  0.29844000  0.03663000  0.67201000  1.0
  O  O80  1  0.58657000  0.12832000  0.10595000  1.0
  O  O81  1  0.41343000  0.87168000  0.89404000  1.0
  O  O82  1  0.45172000  0.19165000  0.31016000  1.0
  O  O83  1  0.54828000  0.80835000  0.68984000  1.0
  O  O84  1  0.15316000  0.31983000  0.48344000  1.0
  O  O85  1  0.84683000  0.68017000  0.51656000  1.0
