# generated using pymatgen
data_KH25C14N2O7
_symmetry_space_group_name_H-M   'P 1'
_cell_length_a   8.01870000
_cell_length_b   8.15614000
_cell_length_c   13.97670000
_cell_angle_alpha   89.99980000
_cell_angle_beta   90.00000000
_cell_angle_gamma   98.16400000
_symmetry_Int_Tables_number   1
_chemical_formula_structural   KH25C14N2O7
_chemical_formula_sum   'K2 H50 C28 N4 O14'
_cell_volume   904.83530080
_cell_formula_units_Z   2
loop_
 _symmetry_equiv_pos_site_id
 _symmetry_equiv_pos_as_xyz
  1  'x, y, z'
loop_
 _atom_site_type_symbol
 _atom_site_label
 _atom_site_symmetry_multiplicity
 _atom_site_fract_x
 _atom_site_fract_y
 _atom_site_fract_z
 _atom_site_occupancy
  K  K0  1  0.40071000  0.83792000  0.75061000  1.0
  K  K1  1  0.90072000  0.83792000  0.24939000  1.0
  H  H2  1  0.35237000  0.56622000  0.53118000  1.0
  H  H3  1  0.85237000  0.56622000  0.46882000  1.0
  H  H4  1  0.15961000  0.59407000  0.47325000  1.0
  H  H5  1  0.65961000  0.59407000  0.52675000  1.0
  H  H6  1  0.01522000  0.56433000  0.63603000  1.0
  H  H7  1  0.51522000  0.56433000  0.36397000  1.0
  H  H8  1  0.09688000  0.38267000  0.59579000  1.0
  H  H9  1  0.59688000  0.38267000  0.40421000  1.0
  H  H10  1  0.10396000  0.30640000  0.76729000  1.0
  H  H11  1  0.60396000  0.30640000  0.23271000  1.0
  H  H12  1  0.04313000  0.50284000  0.80375000  1.0
  H  H13  1  0.54313000  0.50284000  0.19625000  1.0
  H  H14  1  0.21425000  0.36043000  0.92374000  1.0
  H  H15  1  0.71425000  0.36043000  0.07626000  1.0
  H  H16  1  0.38653000  0.38958000  0.84150000  1.0
  H  H17  1  0.88653000  0.38958000  0.15850000  1.0
  H  H18  1  0.56281000  0.58137000  0.93907000  1.0
  H  H19  1  0.06281000  0.58137000  0.06093000  1.0
  H  H20  1  0.40796000  0.53836000  0.03159000  1.0
  H  H21  1  0.90795000  0.53836000  0.96841000  1.0
  H  H22  1  0.36324000  0.83891000  0.02680000  1.0
  H  H23  1  0.86324000  0.83891000  0.97321000  1.0
  H  H24  1  0.56442000  0.80045000  0.06876000  1.0
  H  H25  1  0.06442000  0.80045000  0.93124000  1.0
  H  H26  1  0.65680000  0.08812000  0.02592000  1.0
  H  H27  1  0.15680000  0.08812000  0.97408000  1.0
  H  H28  1  0.46183000  0.11215000  0.96909000  1.0
  H  H29  1  0.96183000  0.11215000  0.03091000  1.0
  H  H30  1  0.70459000  0.30297000  0.90207000  1.0
  H  H31  1  0.20459000  0.30297000  0.09793000  1.0
  H  H32  1  0.80262000  0.12897000  0.86599000  1.0
  H  H33  1  0.30262000  0.12897000  0.13401000  1.0
  H  H34  1  0.76670000  0.21323000  0.69274000  1.0
  H  H35  1  0.26670000  0.21322000  0.30725000  1.0
  H  H36  1  0.67800000  0.38691000  0.73938000  1.0
  H  H37  1  0.17800000  0.38691000  0.26062000  1.0
  H  H38  1  0.56886000  0.33476000  0.58171000  1.0
  H  H39  1  0.06886000  0.33476000  0.41829000  1.0
  H  H40  1  0.40200000  0.27931000  0.66529000  1.0
  H  H41  1  0.90200000  0.27931000  0.33471000  1.0
  H  H42  1  0.40261000  0.14538000  0.46754000  1.0
  H  H43  1  0.90262000  0.14538000  0.53246000  1.0
  H  H44  1  0.24784000  0.09650000  0.55914000  1.0
  H  H45  1  0.74784000  0.09650000  0.44086000  1.0
  H  H46  1  0.25367000  0.87893000  0.43008000  1.0
  H  H47  1  0.75367000  0.87893000  0.56992000  1.0
  H  H48  1  0.45647000  0.84491000  0.47280000  1.0
  H  H49  1  0.95647000  0.84491000  0.52721000  1.0
  H  H50  1  0.91560000  0.03358000  0.72072000  1.0
  H  H51  1  0.41561000  0.03358000  0.27927000  1.0
  C  C52  1  0.22957000  0.61091000  0.54154000  1.0
  C  C53  1  0.72957000  0.61091000  0.45846000  1.0
  C  C54  1  0.13212000  0.51248000  0.62010000  1.0
  C  C55  1  0.63212000  0.51248000  0.37990000  1.0
  C  C56  1  0.14970000  0.43748000  0.78391000  1.0
  C  C57  1  0.64971000  0.43748000  0.21610000  1.0
  C  C58  1  0.27311000  0.44056000  0.86550000  1.0
  C  C59  1  0.77311000  0.44056000  0.13450000  1.0
  C  C60  1  0.44737000  0.61994000  0.96987000  1.0
  C  C61  1  0.94737000  0.61994000  0.03013000  1.0
  C  C62  1  0.48248000  0.79590000  0.00532000  1.0
  C  C63  1  0.98248000  0.79590000  0.99468000  1.0
  C  C64  1  0.58579000  0.07007000  0.95795000  1.0
  C  C65  1  0.08580000  0.07007000  0.04205000  1.0
  C  C66  1  0.67979000  0.17154000  0.87939000  1.0
  C  C67  1  0.17979000  0.17154000  0.12061000  1.0
  C  C68  1  0.64899000  0.25585000  0.71770000  1.0
  C  C69  1  0.14899000  0.25585000  0.28230000  1.0
  C  C70  1  0.52145000  0.24490000  0.63807000  1.0
  C  C71  1  0.02145000  0.24490000  0.36193000  1.0
  C  C72  1  0.36555000  0.06208000  0.52894000  1.0
  C  C73  1  0.86555000  0.06208000  0.47107000  1.0
  C  C74  1  0.33583000  0.88576000  0.49362000  1.0
  C  C75  1  0.83583000  0.88576000  0.50638000  1.0
  C  C76  1  0.00791000  0.95964000  0.75348000  1.0
  C  C77  1  0.50790000  0.95964000  0.24652000  1.0
  C  C78  1  0.80634000  0.73220000  0.73631000  1.0
  C  C79  1  0.30634000  0.73221000  0.26368000  1.0
  N  N80  1  0.95748000  0.79560000  0.76267000  1.0
  N  N81  1  0.45748000  0.79560000  0.23732000  1.0
  N  N82  1  0.67240000  0.66161000  0.71399000  1.0
  N  N83  1  0.17239000  0.66160000  0.28601000  1.0
  O  O84  1  0.25575000  0.78189000  0.56792000  1.0
  O  O85  1  0.75575000  0.78189000  0.43208000  1.0
  O  O86  1  0.23568000  0.51744000  0.70304000  1.0
  O  O87  1  0.73568000  0.51744000  0.29696000  1.0
  O  O88  1  0.31702000  0.60642000  0.89945000  1.0
  O  O89  1  0.81703000  0.60643000  0.10055000  1.0
  O  O90  1  0.56272000  0.89993000  0.93083000  1.0
  O  O91  1  0.06272000  0.89993000  0.06917000  1.0
  O  O92  1  0.57829000  0.15532000  0.79552000  1.0
  O  O93  1  0.07829000  0.15532000  0.20448000  1.0
  O  O94  1  0.49498000  0.08039000  0.59987000  1.0
  O  O95  1  0.99498000  0.08039000  0.40013000  1.0
  O  O96  1  0.14858000  0.03123000  0.77922000  1.0
  O  O97  1  0.64859000  0.03122000  0.22077000  1.0
