# generated using pymatgen
data_CdH18C26S(N2O3)2
_symmetry_space_group_name_H-M   'P 1'
_cell_length_a   13.12650000
_cell_length_b   19.08570000
_cell_length_c   25.90530000
_cell_angle_alpha   90.00000000
_cell_angle_beta   89.99990000
_cell_angle_gamma   105.31500000
_symmetry_Int_Tables_number   1
_chemical_formula_structural   CdH18C26S(N2O3)2
_chemical_formula_sum   'Cd8 H144 C208 S8 N32 O48'
_cell_volume   6259.54300207
_cell_formula_units_Z   8
loop_
 _symmetry_equiv_pos_site_id
 _symmetry_equiv_pos_as_xyz
  1  'x, y, z'
loop_
 _atom_site_type_symbol
 _atom_site_label
 _atom_site_symmetry_multiplicity
 _atom_site_fract_x
 _atom_site_fract_y
 _atom_site_fract_z
 _atom_site_occupancy
  Cd  Cd0  1  0.38742000  0.20271000  0.94989000  1.0
  Cd  Cd1  1  0.11258000  0.29729000  0.44989000  1.0
  Cd  Cd2  1  0.61258000  0.79729000  0.05011000  1.0
  Cd  Cd3  1  0.88742000  0.70271000  0.55011000  1.0
  Cd  Cd4  1  0.44592000  0.36978000  0.05411000  1.0
  Cd  Cd5  1  0.05408000  0.13022000  0.55411000  1.0
  Cd  Cd6  1  0.55408000  0.63022000  0.94589000  1.0
  Cd  Cd7  1  0.94592000  0.86978000  0.44589000  1.0
  H  H8  1  0.75137000  0.47567000  0.96237000  1.0
  H  H9  1  0.74863000  0.02433000  0.46237000  1.0
  H  H10  1  0.24862000  0.52433000  0.03763000  1.0
  H  H11  1  0.25138000  0.97567000  0.53763000  1.0
  H  H12  1  0.90678000  0.50398000  0.90214000  1.0
  H  H13  1  0.59322000  0.99602000  0.40214000  1.0
  H  H14  1  0.09322000  0.49603000  0.09786000  1.0
  H  H15  1  0.40678000  0.00398000  0.59786000  1.0
  H  H16  1  0.92128000  0.09033000  0.10228000  1.0
  H  H17  1  0.57872000  0.40967000  0.60228000  1.0
  H  H18  1  0.07872000  0.90967000  0.89772000  1.0
  H  H19  1  0.42128000  0.59033000  0.39772000  1.0
  H  H20  1  0.59682000  0.29253000  0.86885000  1.0
  H  H21  1  0.90318000  0.20747000  0.36885000  1.0
  H  H22  1  0.40319000  0.70747000  0.13115000  1.0
  H  H23  1  0.09682000  0.79253000  0.63115000  1.0
  H  H24  1  0.07249000  0.10485000  0.03982000  1.0
  H  H25  1  0.42751000  0.39514000  0.53982000  1.0
  H  H26  1  0.92751000  0.89515000  0.96018000  1.0
  H  H27  1  0.57249000  0.60486000  0.46018000  1.0
  H  H28  1  0.86116000  0.47841000  0.63683000  1.0
  H  H29  1  0.63883000  0.02159000  0.13683000  1.0
  H  H30  1  0.13883000  0.52159000  0.36317000  1.0
  H  H31  1  0.36117000  0.97841000  0.86317000  1.0
  H  H32  1  0.87456000  0.39547000  0.71053000  1.0
  H  H33  1  0.62543000  0.10453000  0.21053000  1.0
  H  H34  1  0.12544000  0.60454000  0.28947000  1.0
  H  H35  1  0.37456000  0.89547000  0.78947000  1.0
  H  H36  1  0.25815000  0.28144000  0.13088000  1.0
  H  H37  1  0.24184000  0.21856000  0.63088000  1.0
  H  H38  1  0.74185000  0.71855000  0.86912000  1.0
  H  H39  1  0.75815000  0.78145000  0.36911000  1.0
  H  H40  1  0.02686000  0.18160000  0.28375000  1.0
  H  H41  1  0.47314000  0.31840000  0.78375000  1.0
  H  H42  1  0.97314000  0.81840000  0.71625000  1.0
  H  H43  1  0.52685000  0.68160000  0.21625000  1.0
  H  H44  1  0.13901000  0.21520000  0.95089000  1.0
  H  H45  1  0.36099000  0.28481000  0.45089000  1.0
  H  H46  1  0.86100000  0.78480000  0.04911000  1.0
  H  H47  1  0.63901000  0.71520000  0.54911000  1.0
  H  H48  1  0.81001000  0.92526000  0.27114000  1.0
  H  H49  1  0.68999000  0.57474000  0.77113000  1.0
  H  H50  1  0.18999000  0.07474000  0.72886000  1.0
  H  H51  1  0.31001000  0.42526000  0.22887000  1.0
  H  H52  1  0.99410000  0.66422000  0.73189000  1.0
  H  H53  1  0.50591000  0.83578000  0.23190000  1.0
  H  H54  1  0.00591000  0.33578000  0.26811000  1.0
  H  H55  1  0.49410000  0.16422000  0.76811000  1.0
  H  H56  1  0.03863000  0.09066000  0.35248000  1.0
  H  H57  1  0.46137000  0.40934000  0.85248000  1.0
  H  H58  1  0.96137000  0.90934000  0.64752000  1.0
  H  H59  1  0.53863000  0.59066000  0.14752000  1.0
  H  H60  1  0.75259000  0.31724000  0.81005000  1.0
  H  H61  1  0.74741000  0.18275000  0.31005000  1.0
  H  H62  1  0.24741000  0.68276000  0.18995000  1.0
  H  H63  1  0.25259000  0.81724000  0.68995000  1.0
  H  H64  1  0.80171000  0.01446000  0.20079000  1.0
  H  H65  1  0.69829000  0.48554000  0.70079000  1.0
  H  H66  1  0.19829000  0.98554000  0.79921000  1.0
  H  H67  1  0.30171000  0.51446000  0.29921000  1.0
  H  H68  1  0.00203000  0.58251000  0.80678000  1.0
  H  H69  1  0.49797000  0.91749000  0.30678000  1.0
  H  H70  1  0.99797000  0.41749000  0.19323000  1.0
  H  H71  1  0.50203000  0.08251000  0.69322000  1.0
  H  H72  1  0.10818000  0.26851000  0.19258000  1.0
  H  H73  1  0.39182000  0.23149000  0.69257000  1.0
  H  H74  1  0.89182000  0.73149000  0.80743000  1.0
  H  H75  1  0.60817000  0.76851000  0.30742000  1.0
  H  H76  1  0.38399000  0.27843000  0.84689000  1.0
  H  H77  1  0.11601000  0.22157000  0.34689000  1.0
  H  H78  1  0.61601000  0.72157000  0.15310000  1.0
  H  H79  1  0.88399000  0.77843000  0.65311000  1.0
  H  H80  1  0.92894000  0.26314000  0.86598000  1.0
  H  H81  1  0.57107000  0.23686000  0.36598000  1.0
  H  H82  1  0.07107000  0.73686000  0.13402000  1.0
  H  H83  1  0.42893000  0.76314000  0.63402000  1.0
  H  H84  1  0.07806000  0.30767000  0.80570000  1.0
  H  H85  1  0.42194000  0.19233000  0.30570000  1.0
  H  H86  1  0.92194000  0.69234000  0.19430000  1.0
  H  H87  1  0.57806000  0.80766000  0.69430000  1.0
  H  H88  1  0.26853000  0.32037000  0.78212000  1.0
  H  H89  1  0.23148000  0.17963000  0.28212000  1.0
  H  H90  1  0.73148000  0.67963000  0.21788000  1.0
  H  H91  1  0.76852000  0.82037000  0.71788000  1.0
  H  H92  1  0.64047000  0.21934000  0.94337000  1.0
  H  H93  1  0.85953000  0.28066000  0.44337000  1.0
  H  H94  1  0.35953000  0.78066000  0.05663000  1.0
  H  H95  1  0.14046000  0.71934000  0.55663000  1.0
  H  H96  1  0.19039000  0.35515000  0.06323000  1.0
  H  H97  1  0.30961000  0.14485000  0.56323000  1.0
  H  H98  1  0.80961000  0.64485000  0.93677000  1.0
  H  H99  1  0.69039000  0.85515000  0.43677000  1.0
  H  H100  1  0.56411000  0.24510000  0.22499000  1.0
  H  H101  1  0.93589000  0.25490000  0.72499000  1.0
  H  H102  1  0.43589000  0.75490000  0.77501000  1.0
  H  H103  1  0.06411000  0.74510000  0.27501000  1.0
  H  H104  1  0.68901000  0.36439000  0.05965000  1.0
  H  H105  1  0.81098000  0.13561000  0.55965000  1.0
  H  H106  1  0.31099000  0.63561000  0.94035000  1.0
  H  H107  1  0.18902000  0.86439000  0.44035000  1.0
  H  H108  1  0.42011000  0.14070000  0.05827000  1.0
  H  H109  1  0.07989000  0.35930000  0.55826000  1.0
  H  H110  1  0.57989000  0.85930000  0.94173000  1.0
  H  H111  1  0.92012000  0.64070000  0.44173000  1.0
  H  H112  1  0.27749000  0.47418000  0.89426000  1.0
  H  H113  1  0.22251000  0.02581000  0.39426000  1.0
  H  H114  1  0.72251000  0.52581000  0.10574000  1.0
  H  H115  1  0.77749000  0.97419000  0.60574000  1.0
  H  H116  1  0.41247000  0.44242000  0.95011000  1.0
  H  H117  1  0.08753000  0.05758000  0.45011000  1.0
  H  H118  1  0.58753000  0.55758000  0.04989000  1.0
  H  H119  1  0.91247000  0.94242000  0.54989000  1.0
  H  H120  1  0.08935000  0.44342000  0.92422000  1.0
  H  H121  1  0.41065000  0.05658000  0.42422000  1.0
  H  H122  1  0.91065000  0.55658000  0.07579000  1.0
  H  H123  1  0.58935000  0.94342000  0.57578000  1.0
  H  H124  1  0.55825000  0.11918000  0.11828000  1.0
  H  H125  1  0.94175000  0.38082000  0.61827000  1.0
  H  H126  1  0.44175000  0.88082000  0.88172000  1.0
  H  H127  1  0.05826000  0.61918000  0.38172000  1.0
  H  H128  1  0.44297000  0.28204000  0.16100000  1.0
  H  H129  1  0.05703000  0.21797000  0.66100000  1.0
  H  H130  1  0.55703000  0.71796000  0.83900000  1.0
  H  H131  1  0.94298000  0.78204000  0.33900000  1.0
  H  H132  1  0.90415000  0.32012000  0.14370000  1.0
  H  H133  1  0.59585000  0.17988000  0.64370000  1.0
  H  H134  1  0.09585000  0.67988000  0.85630000  1.0
  H  H135  1  0.40416000  0.82012000  0.35630000  1.0
  H  H136  1  0.75743000  0.27208000  0.20376000  1.0
  H  H137  1  0.74257000  0.22791000  0.70377000  1.0
  H  H138  1  0.24257000  0.72792000  0.79624000  1.0
  H  H139  1  0.25744000  0.77208000  0.29623000  1.0
  H  H140  1  0.95642000  0.39031000  0.98715000  1.0
  H  H141  1  0.54358000  0.10969000  0.48715000  1.0
  H  H142  1  0.04358000  0.60969000  0.01285000  1.0
  H  H143  1  0.45642000  0.89031000  0.51285000  1.0
  H  H144  1  0.87656000  0.19324000  0.02271000  1.0
  H  H145  1  0.62344000  0.30676000  0.52271000  1.0
  H  H146  1  0.12344000  0.80676000  0.97729000  1.0
  H  H147  1  0.37656000  0.69324000  0.47729000  1.0
  H  H148  1  0.74627000  0.15050000  0.08827000  1.0
  H  H149  1  0.75373000  0.34950000  0.58827000  1.0
  H  H150  1  0.25373000  0.84950000  0.91173000  1.0
  H  H151  1  0.24628000  0.65050000  0.41173000  1.0
  C  C152  1  0.66491000  0.38344000  0.91899000  1.0
  C  C153  1  0.83509000  0.11655000  0.41899000  1.0
  C  C154  1  0.33509000  0.61655000  0.08101000  1.0
  C  C155  1  0.16491000  0.88345000  0.58101000  1.0
  C  C156  1  0.00791000  0.17834000  0.15069000  1.0
  C  C157  1  0.49209000  0.32166000  0.65069000  1.0
  C  C158  1  0.99209000  0.82166000  0.84931000  1.0
  C  C159  1  0.50790000  0.67834000  0.34931000  1.0
  C  C160  1  0.92492000  0.00318000  0.31553000  1.0
  C  C161  1  0.57508000  0.49682000  0.81552000  1.0
  C  C162  1  0.07508000  0.99682000  0.68447000  1.0
  C  C163  1  0.42492000  0.50318000  0.18448000  1.0
  C  C164  1  0.57126000  0.36851000  0.95495000  1.0
  C  C165  1  0.92874000  0.13148000  0.45495000  1.0
  C  C166  1  0.42874000  0.63148000  0.04505000  1.0
  C  C167  1  0.07126000  0.86852000  0.54505000  1.0
  C  C168  1  0.92699000  0.57545000  0.68013000  1.0
  C  C169  1  0.57301000  0.92455000  0.18013000  1.0
  C  C170  1  0.07301000  0.42455000  0.31987000  1.0
  C  C171  1  0.42699000  0.07545000  0.81987000  1.0
  C  C172  1  0.91930000  0.62337000  0.63508000  1.0
  C  C173  1  0.58070000  0.87663000  0.13508000  1.0
  C  C174  1  0.08070000  0.37664000  0.36492000  1.0
  C  C175  1  0.41930000  0.12337000  0.86492000  1.0
  C  C176  1  0.75247000  0.44243000  0.92841000  1.0
  C  C177  1  0.74753000  0.05757000  0.42841000  1.0
  C  C178  1  0.24753000  0.55758000  0.07159000  1.0
  C  C179  1  0.25247000  0.94243000  0.57160000  1.0
  C  C180  1  0.26250000  0.20121000  0.04405000  1.0
  C  C181  1  0.23750000  0.29879000  0.54405000  1.0
  C  C182  1  0.73750000  0.79879000  0.95595000  1.0
  C  C183  1  0.76250000  0.70121000  0.45595000  1.0
  C  C184  1  0.17395000  0.19290000  0.08219000  1.0
  C  C185  1  0.32605000  0.30710000  0.58219000  1.0
  C  C186  1  0.82605000  0.80711000  0.91781000  1.0
  C  C187  1  0.67395000  0.69289000  0.41781000  1.0
  C  C188  1  0.83896000  0.45775000  0.89517000  1.0
  C  C189  1  0.66104000  0.04224000  0.39517000  1.0
  C  C190  1  0.16104000  0.54225000  0.10483000  1.0
  C  C191  1  0.33896000  0.95775000  0.60483000  1.0
  C  C192  1  0.99554000  0.13158000  0.10821000  1.0
  C  C193  1  0.50446000  0.36841000  0.60820000  1.0
  C  C194  1  0.00446000  0.86842000  0.89180000  1.0
  C  C195  1  0.49554000  0.63158000  0.39180000  1.0
  C  C196  1  0.93887000  0.48482000  0.76226000  1.0
  C  C197  1  0.56113000  0.01518000  0.26226000  1.0
  C  C198  1  0.06114000  0.51518000  0.23774000  1.0
  C  C199  1  0.43887000  0.98482000  0.73774000  1.0
  C  C200  1  0.66458000  0.33875000  0.87601000  1.0
  C  C201  1  0.83541000  0.16125000  0.37601000  1.0
  C  C202  1  0.33541000  0.66125000  0.12399000  1.0
  C  C203  1  0.16459000  0.83875000  0.62399000  1.0
  C  C204  1  0.07910000  0.13945000  0.07379000  1.0
  C  C205  1  0.42090000  0.36055000  0.57379000  1.0
  C  C206  1  0.92090000  0.86055000  0.92621000  1.0
  C  C207  1  0.57910000  0.63945000  0.42621000  1.0
  C  C208  1  0.91456000  0.10226000  0.23896000  1.0
  C  C209  1  0.58543000  0.39774000  0.73896000  1.0
  C  C210  1  0.08543000  0.89774000  0.76104000  1.0
  C  C211  1  0.41456000  0.60226000  0.26104000  1.0
  C  C212  1  0.83772000  0.41192000  0.85284000  1.0
  C  C213  1  0.66228000  0.08808000  0.35284000  1.0
  C  C214  1  0.16228000  0.58808000  0.14716000  1.0
  C  C215  1  0.33772000  0.91192000  0.64716000  1.0
  C  C216  1  0.89347000  0.50001000  0.67403000  1.0
  C  C217  1  0.60653000  0.99999000  0.17402000  1.0
  C  C218  1  0.10653000  0.49999000  0.32598000  1.0
  C  C219  1  0.39347000  0.00001000  0.82598000  1.0
  C  C220  1  0.90008000  0.45418000  0.71491000  1.0
  C  C221  1  0.59992000  0.04582000  0.21491000  1.0
  C  C222  1  0.09992000  0.54582000  0.28509000  1.0
  C  C223  1  0.40008000  0.95418000  0.78509000  1.0
  C  C224  1  0.18516000  0.23896000  0.12516000  1.0
  C  C225  1  0.31484000  0.26104000  0.62515000  1.0
  C  C226  1  0.81485000  0.76104000  0.87485000  1.0
  C  C227  1  0.68516000  0.73896000  0.37484000  1.0
  C  C228  1  0.98299000  0.12474000  0.28058000  1.0
  C  C229  1  0.51701000  0.37526000  0.78058000  1.0
  C  C230  1  0.01701000  0.87526000  0.71942000  1.0
  C  C231  1  0.48299000  0.62474000  0.21942000  1.0
  C  C232  1  0.16493000  0.23962000  0.91350000  1.0
  C  C233  1  0.33507000  0.26038000  0.41350000  1.0
  C  C234  1  0.83506000  0.76038000  0.08650000  1.0
  C  C235  1  0.66494000  0.73962000  0.58650000  1.0
  C  C236  1  0.09384000  0.26120000  0.88035000  1.0
  C  C237  1  0.40616000  0.23880000  0.38035000  1.0
  C  C238  1  0.90616000  0.73880000  0.11965000  1.0
  C  C239  1  0.59384000  0.76120000  0.61965000  1.0
  C  C240  1  0.85882000  0.98112000  0.27278000  1.0
  C  C241  1  0.64118000  0.51888000  0.77278000  1.0
  C  C242  1  0.14118000  0.01888000  0.72722000  1.0
  C  C243  1  0.35882000  0.48112000  0.22722000  1.0
  C  C244  1  0.92499000  0.95173000  0.35944000  1.0
  C  C245  1  0.57501000  0.54827000  0.85944000  1.0
  C  C246  1  0.07501000  0.04828000  0.64056000  1.0
  C  C247  1  0.42499000  0.45173000  0.14056000  1.0
  C  C248  1  0.96639000  0.60542000  0.72788000  1.0
  C  C249  1  0.53362000  0.89458000  0.22788000  1.0
  C  C250  1  0.03362000  0.39458000  0.27212000  1.0
  C  C251  1  0.46639000  0.10542000  0.77212000  1.0
  C  C252  1  0.98859000  0.07466000  0.31867000  1.0
  C  C253  1  0.51141000  0.42534000  0.81867000  1.0
  C  C254  1  0.01141000  0.92534000  0.68133000  1.0
  C  C255  1  0.48859000  0.57466000  0.18133000  1.0
  C  C256  1  0.75135000  0.35261000  0.84293000  1.0
  C  C257  1  0.74865000  0.14739000  0.34293000  1.0
  C  C258  1  0.24865000  0.64739000  0.15707000  1.0
  C  C259  1  0.25135000  0.85261000  0.65707000  1.0
  C  C260  1  0.85399000  0.03043000  0.23379000  1.0
  C  C261  1  0.64601000  0.46957000  0.73379000  1.0
  C  C262  1  0.14601000  0.96957000  0.76621000  1.0
  C  C263  1  0.35398000  0.53043000  0.26621000  1.0
  C  C264  1  0.97141000  0.56014000  0.76946000  1.0
  C  C265  1  0.52859000  0.93986000  0.26946000  1.0
  C  C266  1  0.02859000  0.43986000  0.23054000  1.0
  C  C267  1  0.47141000  0.06014000  0.73054000  1.0
  C  C268  1  0.10168000  0.23200000  0.15966000  1.0
  C  C269  1  0.39832000  0.26800000  0.65966000  1.0
  C  C270  1  0.89833000  0.76800000  0.84034000  1.0
  C  C271  1  0.60167000  0.73200000  0.34034000  1.0
  C  C272  1  0.30139000  0.27533000  0.85455000  1.0
  C  C273  1  0.19861000  0.22467000  0.35455000  1.0
  C  C274  1  0.69861000  0.72466000  0.14545000  1.0
  C  C275  1  0.80139000  0.77533000  0.64545000  1.0
  C  C276  1  0.98408000  0.25281000  0.89514000  1.0
  C  C277  1  0.51592000  0.24719000  0.39514000  1.0
  C  C278  1  0.01592000  0.74719000  0.10486000  1.0
  C  C279  1  0.48408000  0.75281000  0.60486000  1.0
  C  C280  1  0.13127000  0.29012000  0.83200000  1.0
  C  C281  1  0.36873000  0.20988000  0.33200000  1.0
  C  C282  1  0.86873000  0.70988000  0.16800000  1.0
  C  C283  1  0.63127000  0.79012000  0.66800000  1.0
  C  C284  1  0.23658000  0.29751000  0.81914000  1.0
  C  C285  1  0.26342000  0.20250000  0.31914000  1.0
  C  C286  1  0.76342000  0.70250000  0.18086000  1.0
  C  C287  1  0.73658000  0.79750000  0.68086000  1.0
  C  C288  1  0.62550000  0.19742000  0.98233000  1.0
  C  C289  1  0.87450000  0.30258000  0.48233000  1.0
  C  C290  1  0.37450000  0.80258000  0.01767000  1.0
  C  C291  1  0.12550000  0.69742000  0.51767000  1.0
  C  C292  1  0.20632000  0.38092000  0.02547000  1.0
  C  C293  1  0.29368000  0.11908000  0.52547000  1.0
  C  C294  1  0.79368000  0.61908000  0.97454000  1.0
  C  C295  1  0.70632000  0.88092000  0.47453000  1.0
  C  C296  1  0.59483000  0.27193000  0.18892000  1.0
  C  C297  1  0.90516000  0.22807000  0.68892000  1.0
  C  C298  1  0.40516000  0.72807000  0.81108000  1.0
  C  C299  1  0.09484000  0.77194000  0.31108000  1.0
  C  C300  1  0.66453000  0.33783000  0.09658000  1.0
  C  C301  1  0.83547000  0.16217000  0.59658000  1.0
  C  C302  1  0.33547000  0.66217000  0.90342000  1.0
  C  C303  1  0.16453000  0.83783000  0.40342000  1.0
  C  C304  1  0.50271000  0.15302000  0.04681000  1.0
  C  C305  1  0.99729000  0.34698000  0.54680000  1.0
  C  C306  1  0.49729000  0.84698000  0.95320000  1.0
  C  C307  1  0.00272000  0.65302000  0.45319000  1.0
  C  C308  1  0.12472000  0.39739000  0.99669000  1.0
  C  C309  1  0.37528000  0.10261000  0.49669000  1.0
  C  C310  1  0.87528000  0.60261000  0.00331000  1.0
  C  C311  1  0.62472000  0.89739000  0.50331000  1.0
  C  C312  1  0.25429000  0.44731000  0.93115000  1.0
  C  C313  1  0.24571000  0.05268000  0.43115000  1.0
  C  C314  1  0.74571000  0.55269000  0.06885000  1.0
  C  C315  1  0.75429000  0.94731000  0.56885000  1.0
  C  C316  1  0.33030000  0.42959000  0.96228000  1.0
  C  C317  1  0.16970000  0.07041000  0.46228000  1.0
  C  C318  1  0.66970000  0.57041000  0.03772000  1.0
  C  C319  1  0.83030000  0.92959000  0.53772000  1.0
  C  C320  1  0.15027000  0.43053000  0.94820000  1.0
  C  C321  1  0.34974000  0.06947000  0.44820000  1.0
  C  C322  1  0.84974000  0.56947000  0.05180000  1.0
  C  C323  1  0.65026000  0.93053000  0.55180000  1.0
  C  C324  1  0.70852000  0.18673000  0.01302000  1.0
  C  C325  1  0.79148000  0.31327000  0.51302000  1.0
  C  C326  1  0.29148000  0.81327000  0.98698000  1.0
  C  C327  1  0.20852000  0.68673000  0.48698000  1.0
  C  C328  1  0.57987000  0.14117000  0.07983000  1.0
  C  C329  1  0.92013000  0.35883000  0.57983000  1.0
  C  C330  1  0.42013000  0.85883000  0.92017000  1.0
  C  C331  1  0.07987000  0.64117000  0.42017000  1.0
  C  C332  1  0.52726000  0.29148000  0.15354000  1.0
  C  C333  1  0.97274000  0.20853000  0.65354000  1.0
  C  C334  1  0.47274000  0.70853000  0.84646000  1.0
  C  C335  1  0.02727000  0.79148000  0.34646000  1.0
  C  C336  1  0.73851000  0.31938000  0.12966000  1.0
  C  C337  1  0.76149000  0.18062000  0.62967000  1.0
  C  C338  1  0.26149000  0.68062000  0.87034000  1.0
  C  C339  1  0.23851000  0.81938000  0.37033000  1.0
  C  C340  1  0.84926000  0.33237000  0.11516000  1.0
  C  C341  1  0.65074000  0.16762000  0.61517000  1.0
  C  C342  1  0.15074000  0.66763000  0.88484000  1.0
  C  C343  1  0.34927000  0.83237000  0.38483000  1.0
  C  C344  1  0.70201000  0.28662000  0.17711000  1.0
  C  C345  1  0.79798000  0.21338000  0.67711000  1.0
  C  C346  1  0.29799000  0.71338000  0.82289000  1.0
  C  C347  1  0.20202000  0.78663000  0.32289000  1.0
  C  C348  1  0.01628000  0.38316000  0.01498000  1.0
  C  C349  1  0.48372000  0.11684000  0.51498000  1.0
  C  C350  1  0.98372000  0.61684000  0.98502000  1.0
  C  C351  1  0.51628000  0.88315000  0.48502000  1.0
  C  C352  1  0.81738000  0.20263000  0.99533000  1.0
  C  C353  1  0.68262000  0.29737000  0.49533000  1.0
  C  C354  1  0.18262000  0.79737000  0.00467000  1.0
  C  C355  1  0.31738000  0.70263000  0.50467000  1.0
  C  C356  1  0.68403000  0.15843000  0.06287000  1.0
  C  C357  1  0.81597000  0.34157000  0.56287000  1.0
  C  C358  1  0.31596000  0.84156000  0.93713000  1.0
  C  C359  1  0.18404000  0.65843000  0.43713000  1.0
  S  S360  1  0.90070000  0.16878000  0.19391000  1.0
  S  S361  1  0.59930000  0.33122000  0.69391000  1.0
  S  S362  1  0.09930000  0.83123000  0.80609000  1.0
  S  S363  1  0.40070000  0.66877000  0.30609000  1.0
  S  S364  1  0.95188000  0.42561000  0.81309000  1.0
  S  S365  1  0.54812000  0.07439000  0.31309000  1.0
  S  S366  1  0.04811000  0.57439000  0.18691000  1.0
  S  S367  1  0.45188000  0.92561000  0.68691000  1.0
  N  N368  1  0.52551000  0.18122000  0.99914000  1.0
  N  N369  1  0.97449000  0.31878000  0.49913000  1.0
  N  N370  1  0.47449000  0.81878000  0.00087000  1.0
  N  N371  1  0.02551000  0.68122000  0.50086000  1.0
  N  N372  1  0.26571000  0.24655000  0.90074000  1.0
  N  N373  1  0.23429000  0.25345000  0.40074000  1.0
  N  N374  1  0.73429000  0.75345000  0.09926000  1.0
  N  N375  1  0.76571000  0.74655000  0.59926000  1.0
  N  N376  1  0.30626000  0.39634000  0.00835000  1.0
  N  N377  1  0.19374000  0.10366000  0.50835000  1.0
  N  N378  1  0.69374000  0.60366000  0.99165000  1.0
  N  N379  1  0.80626000  0.89634000  0.49165000  1.0
  N  N380  1  0.56195000  0.32440000  0.10834000  1.0
  N  N381  1  0.93805000  0.17560000  0.60834000  1.0
  N  N382  1  0.43805000  0.67560000  0.89166000  1.0
  N  N383  1  0.06195000  0.82441000  0.39166000  1.0
  N  N384  1  0.84583000  0.22539000  0.94909000  1.0
  N  N385  1  0.65417000  0.27461000  0.44909000  1.0
  N  N386  1  0.15417000  0.77461000  0.05092000  1.0
  N  N387  1  0.34583000  0.72539000  0.55092000  1.0
  N  N388  1  0.95303000  0.23344000  0.94168000  1.0
  N  N389  1  0.54698000  0.26656000  0.44168000  1.0
  N  N390  1  0.04698000  0.76656000  0.05832000  1.0
  N  N391  1  0.45302000  0.73344000  0.55832000  1.0
  N  N392  1  0.88129000  0.35577000  0.06951000  1.0
  N  N393  1  0.61871000  0.14423000  0.56951000  1.0
  N  N394  1  0.11871000  0.64423000  0.93049000  1.0
  N  N395  1  0.38129000  0.85577000  0.43049000  1.0
  N  N396  1  0.98881000  0.36453000  0.06215000  1.0
  N  N397  1  0.51119000  0.13547000  0.56215000  1.0
  N  N398  1  0.01119000  0.63547000  0.93785000  1.0
  N  N399  1  0.48882000  0.86453000  0.43785000  1.0
  O  O400  1  0.48592000  0.32430000  0.94065000  1.0
  O  O401  1  0.01408000  0.17569000  0.44065000  1.0
  O  O402  1  0.51408000  0.67569000  0.05935000  1.0
  O  O403  1  0.98592000  0.82431000  0.55935000  1.0
  O  O404  1  0.86013000  0.59444000  0.59748000  1.0
  O  O405  1  0.63987000  0.90556000  0.09748000  1.0
  O  O406  1  0.13987000  0.40557000  0.40252000  1.0
  O  O407  1  0.36013000  0.09444000  0.90252000  1.0
  O  O408  1  0.58383000  0.40281000  0.99791000  1.0
  O  O409  1  0.91617000  0.09719000  0.49791000  1.0
  O  O410  1  0.41617000  0.59718000  0.00209000  1.0
  O  O411  1  0.08383000  0.90282000  0.50209000  1.0
  O  O412  1  0.34845000  0.24977000  0.05162000  1.0
  O  O413  1  0.15155000  0.25023000  0.55162000  1.0
  O  O414  1  0.65155000  0.75023000  0.94838000  1.0
  O  O415  1  0.84845000  0.74977000  0.44837000  1.0
  O  O416  1  0.98871000  0.97551000  0.39677000  1.0
  O  O417  1  0.51129000  0.52450000  0.89677000  1.0
  O  O418  1  0.01129000  0.02450000  0.60323000  1.0
  O  O419  1  0.48871000  0.47550000  0.10323000  1.0
  O  O420  1  0.86270000  0.88841000  0.35809000  1.0
  O  O421  1  0.63730000  0.61159000  0.85809000  1.0
  O  O422  1  0.13731000  0.11159000  0.64191000  1.0
  O  O423  1  0.36269000  0.38841000  0.14191000  1.0
  O  O424  1  0.97083000  0.68997000  0.63648000  1.0
  O  O425  1  0.52917000  0.81003000  0.13648000  1.0
  O  O426  1  0.02917000  0.31003000  0.36353000  1.0
  O  O427  1  0.47083000  0.18997000  0.86353000  1.0
  O  O428  1  0.91494000  0.23703000  0.22164000  1.0
  O  O429  1  0.58506000  0.26297000  0.72164000  1.0
  O  O430  1  0.08506000  0.76297000  0.77836000  1.0
  O  O431  1  0.41494000  0.73703000  0.27836000  1.0
  O  O432  1  0.24733000  0.15785000  0.00574000  1.0
  O  O433  1  0.25267000  0.34215000  0.50574000  1.0
  O  O434  1  0.75267000  0.84215000  0.99426000  1.0
  O  O435  1  0.74733000  0.65785000  0.49426000  1.0
  O  O436  1  0.80392000  0.13982000  0.16495000  1.0
  O  O437  1  0.69608000  0.36018000  0.66494000  1.0
  O  O438  1  0.19608000  0.86018000  0.83505000  1.0
  O  O439  1  0.30392000  0.63982000  0.33506000  1.0
  O  O440  1  0.94859000  0.35567000  0.78946000  1.0
  O  O441  1  0.55141000  0.14433000  0.28946000  1.0
  O  O442  1  0.05141000  0.64433000  0.21054000  1.0
  O  O443  1  0.44859000  0.85567000  0.71054000  1.0
  O  O444  1  0.04268000  0.46272000  0.84394000  1.0
  O  O445  1  0.45733000  0.03728000  0.34394000  1.0
  O  O446  1  0.95733000  0.53728000  0.15607000  1.0
  O  O447  1  0.54267000  0.96272000  0.65606000  1.0
