# generated using pymatgen
data_CdH19C17N2O7
_symmetry_space_group_name_H-M   'P 1'
_cell_length_a   9.94669000
_cell_length_b   10.18754202
_cell_length_c   10.26630000
_cell_angle_alpha   119.26077479
_cell_angle_beta   102.80960000
_cell_angle_gamma   84.93397112
_symmetry_Int_Tables_number   1
_chemical_formula_structural   CdH19C17N2O7
_chemical_formula_sum   'Cd2 H38 C34 N4 O14'
_cell_volume   884.73538353
_cell_formula_units_Z   2
loop_
 _symmetry_equiv_pos_site_id
 _symmetry_equiv_pos_as_xyz
  1  'x, y, z'
loop_
 _atom_site_type_symbol
 _atom_site_label
 _atom_site_symmetry_multiplicity
 _atom_site_fract_x
 _atom_site_fract_y
 _atom_site_fract_z
 _atom_site_occupancy
  Cd  Cd0  1  0.00587000  0.20222000  0.84186000  1.0
  Cd  Cd1  1  0.99412000  0.79777000  0.15814000  1.0
  H  H2  1  0.15505000  0.49116000  0.97486000  1.0
  H  H3  1  0.84494000  0.50883000  0.02513000  1.0
  H  H4  1  0.13321000  0.47186000  0.10781000  1.0
  H  H5  1  0.86680000  0.52813000  0.89219000  1.0
  H  H6  1  0.29339000  0.84913000  0.41806000  1.0
  H  H7  1  0.70662000  0.15087000  0.58194000  1.0
  H  H8  1  0.89267000  0.92238000  0.57280000  1.0
  H  H9  1  0.10733000  0.07761000  0.42719000  1.0
  H  H10  1  0.76840000  0.95256000  0.65881000  1.0
  H  H11  1  0.23159000  0.04744000  0.34118000  1.0
  H  H12  1  0.00913000  0.21537000  0.32910000  1.0
  H  H13  1  0.99087000  0.78463000  0.67090000  1.0
  H  H14  1  0.76405000  0.51472000  0.65144000  1.0
  H  H15  1  0.23595000  0.48527000  0.34856000  1.0
  H  H16  1  0.67102000  0.62576000  0.48292000  1.0
  H  H17  1  0.32898000  0.37424000  0.51708000  1.0
  H  H18  1  0.73955000  0.52139000  0.23054000  1.0
  H  H19  1  0.26045000  0.47861000  0.76947000  1.0
  H  H20  1  0.17623000  0.04552000  0.01397000  1.0
  H  H21  1  0.82378000  0.95447000  0.98603000  1.0
  H  H22  1  0.37511000  0.87487000  0.00853000  1.0
  H  H23  1  0.62490000  0.12513000  0.99147000  1.0
  H  H24  1  0.51029000  0.79098000  0.80053000  1.0
  H  H25  1  0.48971000  0.20902000  0.19946000  1.0
  H  H26  1  0.22726000  0.03855000  0.62184000  1.0
  H  H27  1  0.77274000  0.96145000  0.37816000  1.0
  H  H28  1  0.57197000  0.82844000  0.35587000  1.0
  H  H29  1  0.42804000  0.17157000  0.64414000  1.0
  H  H30  1  0.41370000  0.85219000  0.24878000  1.0
  H  H31  1  0.58630000  0.14782000  0.75122000  1.0
  H  H32  1  0.51108000  0.56219000  0.25683000  1.0
  H  H33  1  0.48892000  0.43782000  0.74317000  1.0
  H  H34  1  0.34386000  0.58552000  0.16943000  1.0
  H  H35  1  0.65615000  0.41449000  0.83056000  1.0
  H  H36  1  0.60703000  0.62978000  0.08307000  1.0
  H  H37  1  0.39298000  0.37023000  0.91693000  1.0
  H  H38  1  0.43498000  0.64055000  0.99653000  1.0
  H  H39  1  0.56503000  0.35946000  0.00347000  1.0
  C  C40  1  0.91532000  0.29547000  0.11269000  1.0
  C  C41  1  0.08467000  0.70453000  0.88731000  1.0
  C  C42  1  0.87608000  0.36023000  0.26420000  1.0
  C  C43  1  0.12391000  0.63977000  0.73580000  1.0
  C  C44  1  0.93355000  0.30340000  0.36332000  1.0
  C  C45  1  0.06645000  0.69660000  0.63669000  1.0
  C  C46  1  0.89305000  0.35750000  0.50238000  1.0
  C  C47  1  0.10696000  0.64249000  0.49762000  1.0
  C  C48  1  0.95058000  0.29385000  0.60668000  1.0
  C  C49  1  0.04943000  0.70614000  0.39332000  1.0
  C  C50  1  0.79586000  0.47212000  0.54311000  1.0
  C  C51  1  0.20415000  0.52788000  0.45690000  1.0
  C  C52  1  0.74178000  0.53251000  0.44707000  1.0
  C  C53  1  0.25822000  0.46748000  0.55293000  1.0
  C  C54  1  0.78117000  0.47600000  0.30736000  1.0
  C  C55  1  0.21883000  0.52400000  0.69265000  1.0
  C  C56  1  0.23612000  0.00363000  0.92510000  1.0
  C  C57  1  0.76388000  0.99637000  0.07490000  1.0
  C  C58  1  0.34721000  0.90953000  0.92128000  1.0
  C  C59  1  0.65279000  0.09048000  0.07872000  1.0
  C  C60  1  0.42087000  0.86210000  0.80617000  1.0
  C  C61  1  0.57913000  0.13791000  0.19384000  1.0
  C  C62  1  0.37983000  0.90797000  0.69551000  1.0
  C  C63  1  0.62017000  0.09203000  0.30449000  1.0
  C  C64  1  0.26491000  0.99958000  0.70498000  1.0
  C  C65  1  0.73509000  0.00041000  0.29502000  1.0
  C  C66  1  0.46538000  0.86271000  0.57735000  1.0
  C  C67  1  0.53462000  0.13729000  0.42264000  1.0
  C  C68  1  0.46344000  0.79123000  0.30968000  1.0
  C  C69  1  0.53657000  0.20878000  0.69032000  1.0
  C  C70  1  0.45174000  0.62266000  0.19952000  1.0
  C  C71  1  0.54826000  0.37736000  0.80049000  1.0
  C  C72  1  0.50161000  0.58443000  0.05489000  1.0
  C  C73  1  0.49840000  0.41557000  0.94510000  1.0
  N  N74  1  0.19526000  0.04705000  0.81797000  1.0
  N  N75  1  0.80474000  0.95295000  0.18203000  1.0
  N  N76  1  0.39752000  0.83624000  0.43802000  1.0
  N  N77  1  0.60248000  0.16378000  0.56199000  1.0
  O  O78  1  0.84872000  0.33564000  0.01561000  1.0
  O  O79  1  0.15127000  0.66436000  0.98439000  1.0
  O  O80  1  0.15700000  0.41255000  0.00635000  1.0
  O  O81  1  0.84300000  0.58744000  0.99364000  1.0
  O  O82  1  0.01171000  0.20169000  0.08233000  1.0
  O  O83  1  0.98829000  0.79832000  0.91768000  1.0
  O  O84  1  0.84559000  0.00265000  0.65336000  1.0
  O  O85  1  0.15441000  0.99734000  0.34664000  1.0
  O  O86  1  0.03740000  0.18911000  0.57284000  1.0
  O  O87  1  0.96260000  0.81087000  0.42715000  1.0
  O  O88  1  0.90550000  0.34664000  0.73085000  1.0
  O  O89  1  0.09449000  0.65334000  0.26913000  1.0
  O  O90  1  0.59338000  0.85141000  0.61235000  1.0
  O  O91  1  0.40662000  0.14860000  0.38766000  1.0
