# generated using pymatgen
data_CdH24C28N2O7
_symmetry_space_group_name_H-M   'P 1'
_cell_length_a   10.11010000
_cell_length_b   12.32110000
_cell_length_c   12.83820000
_cell_angle_alpha   93.05600000
_cell_angle_beta   94.27150000
_cell_angle_gamma   94.73650000
_symmetry_Int_Tables_number   1
_chemical_formula_structural   CdH24C28N2O7
_chemical_formula_sum   'Cd2 H48 C56 N4 O14'
_cell_volume   1586.48743213
_cell_formula_units_Z   2
loop_
 _symmetry_equiv_pos_site_id
 _symmetry_equiv_pos_as_xyz
  1  'x, y, z'
loop_
 _atom_site_type_symbol
 _atom_site_label
 _atom_site_symmetry_multiplicity
 _atom_site_fract_x
 _atom_site_fract_y
 _atom_site_fract_z
 _atom_site_occupancy
  Cd  Cd0  1  0.96622000  0.16526000  0.12580000  1.0
  Cd  Cd1  1  0.03379000  0.83474000  0.87420000  1.0
  H  H2  1  0.15877000  0.98313000  0.50969000  1.0
  H  H3  1  0.84122000  0.01687000  0.49031000  1.0
  H  H4  1  0.20943000  0.00596000  0.70233000  1.0
  H  H5  1  0.79058000  0.99404000  0.29768000  1.0
  H  H6  1  0.58267000  0.18625000  0.65658000  1.0
  H  H7  1  0.41733000  0.81375000  0.34342000  1.0
  H  H8  1  0.52697000  0.16728000  0.46398000  1.0
  H  H9  1  0.47303000  0.83271000  0.53602000  1.0
  H  H10  1  0.21944000  0.11867000  0.83515000  1.0
  H  H11  1  0.78057000  0.88133000  0.16486000  1.0
  H  H12  1  0.49036000  0.16095000  0.11198000  1.0
  H  H13  1  0.50965000  0.83905000  0.88802000  1.0
  H  H14  1  0.64248000  0.10581000  0.81282000  1.0
  H  H15  1  0.35753000  0.89419000  0.18718000  1.0
  H  H16  1  0.78937000  0.36676000  0.11848000  1.0
  H  H17  1  0.21063000  0.63324000  0.88152000  1.0
  H  H18  1  0.80662000  0.57043000  0.14913000  1.0
  H  H19  1  0.19337000  0.42957000  0.85088000  1.0
  H  H20  1  0.23282000  0.56618000  0.14870000  1.0
  H  H21  1  0.76718000  0.43382000  0.85129000  1.0
  H  H22  1  0.19771000  0.36313000  0.11757000  1.0
  H  H23  1  0.80229000  0.63688000  0.88242000  1.0
  H  H24  1  0.14244000  0.73752000  0.17333000  1.0
  H  H25  1  0.85755000  0.26248000  0.82667000  1.0
  H  H26  1  0.97755000  0.74824000  0.12333000  1.0
  H  H27  1  0.02245000  0.25177000  0.87667000  1.0
  H  H28  1  0.02865000  0.82200000  0.31077000  1.0
  H  H29  1  0.97135000  0.17801000  0.68923000  1.0
  H  H30  1  0.89030000  0.72393000  0.29344000  1.0
  H  H31  1  0.10969000  0.27607000  0.70656000  1.0
  H  H32  1  0.17223000  0.66465000  0.36014000  1.0
  H  H33  1  0.82777000  0.33535000  0.63985000  1.0
  H  H34  1  0.02264000  0.58034000  0.36031000  1.0
  H  H35  1  0.97736000  0.41966000  0.63969000  1.0
  H  H36  1  0.26470000  0.73869000  0.52187000  1.0
  H  H37  1  0.73530000  0.26131000  0.47813000  1.0
  H  H38  1  0.23951000  0.80374000  0.70688000  1.0
  H  H39  1  0.76048000  0.19626000  0.29312000  1.0
  H  H40  1  0.82906000  0.75067000  0.66430000  1.0
  H  H41  1  0.17094000  0.24933000  0.33570000  1.0
  H  H42  1  0.83642000  0.68355000  0.47855000  1.0
  H  H43  1  0.16358000  0.31645000  0.52145000  1.0
  H  H44  1  0.08346000  0.98865000  0.21322000  1.0
  H  H45  1  0.91654000  0.01135000  0.78678000  1.0
  H  H46  1  0.98394000  0.93981000  0.11540000  1.0
  H  H47  1  0.01606000  0.06019000  0.88460000  1.0
  H  H48  1  0.32996000  0.13632000  0.23177000  1.0
  H  H49  1  0.67004000  0.86368000  0.76823000  1.0
  C  C50  1  0.30219000  0.06306000  0.36056000  1.0
  C  C51  1  0.69780000  0.93693000  0.63944000  1.0
  C  C52  1  0.33922000  0.07446000  0.47502000  1.0
  C  C53  1  0.66078000  0.92553000  0.52498000  1.0
  C  C54  1  0.25087000  0.02831000  0.54288000  1.0
  C  C55  1  0.74914000  0.97169000  0.45712000  1.0
  C  C56  1  0.28007000  0.04088000  0.65052000  1.0
  C  C57  1  0.71993000  0.95912000  0.34948000  1.0
  C  C58  1  0.39988000  0.09785000  0.69359000  1.0
  C  C59  1  0.60013000  0.90215000  0.30642000  1.0
  C  C60  1  0.48910000  0.14217000  0.62479000  1.0
  C  C61  1  0.51089000  0.85782000  0.37521000  1.0
  C  C62  1  0.45841000  0.13202000  0.51707000  1.0
  C  C63  1  0.54158000  0.86797000  0.48293000  1.0
  C  C64  1  0.42737000  0.11287000  0.80844000  1.0
  C  C65  1  0.57264000  0.88713000  0.19156000  1.0
  C  C66  1  0.32077000  0.12317000  0.87117000  1.0
  C  C67  1  0.67924000  0.87683000  0.12884000  1.0
  C  C68  1  0.34137000  0.13986000  0.97995000  1.0
  C  C69  1  0.65863000  0.86014000  0.02005000  1.0
  C  C70  1  0.47088000  0.14695000  0.02762000  1.0
  C  C71  1  0.52913000  0.85305000  0.97239000  1.0
  C  C72  1  0.57817000  0.13464000  0.96664000  1.0
  C  C73  1  0.42183000  0.86536000  0.03337000  1.0
  C  C74  1  0.55671000  0.11762000  0.85770000  1.0
  C  C75  1  0.44330000  0.88238000  0.14230000  1.0
  C  C76  1  0.22444000  0.15145000  0.04281000  1.0
  C  C77  1  0.77557000  0.84855000  0.95720000  1.0
  C  C78  1  0.71626000  0.13927000  0.01889000  1.0
  C  C79  1  0.28374000  0.86073000  0.98111000  1.0
  C  C80  1  0.88554000  0.41499000  0.12504000  1.0
  C  C81  1  0.11445000  0.58501000  0.87496000  1.0
  C  C82  1  0.89628000  0.52768000  0.14275000  1.0
  C  C83  1  0.10372000  0.47232000  0.85726000  1.0
  C  C84  1  0.02236000  0.58580000  0.15318000  1.0
  C  C85  1  0.97764000  0.41420000  0.84682000  1.0
  C  C86  1  0.13237000  0.52528000  0.14240000  1.0
  C  C87  1  0.86762000  0.47473000  0.85760000  1.0
  C  C88  1  0.11367000  0.41258000  0.12430000  1.0
  C  C89  1  0.88633000  0.58742000  0.87569000  1.0
  C  C90  1  0.03863000  0.70620000  0.18019000  1.0
  C  C91  1  0.96137000  0.29380000  0.81981000  1.0
  C  C92  1  0.99925000  0.73502000  0.29133000  1.0
  C  C93  1  0.00074000  0.26499000  0.70867000  1.0
  C  C94  1  0.06572000  0.66565000  0.37282000  1.0
  C  C95  1  0.93427000  0.33435000  0.62718000  1.0
  C  C96  1  0.05282000  0.70502000  0.48387000  1.0
  C  C97  1  0.94718000  0.29499000  0.51613000  1.0
  C  C98  1  0.16589000  0.73995000  0.55043000  1.0
  C  C99  1  0.83411000  0.26005000  0.44956000  1.0
  C  C100  1  0.15295000  0.77687000  0.65312000  1.0
  C  C101  1  0.84705000  0.22313000  0.34688000  1.0
  C  C102  1  0.92387000  0.74735000  0.62938000  1.0
  C  C103  1  0.07613000  0.25265000  0.37062000  1.0
  C  C104  1  0.92894000  0.70928000  0.52590000  1.0
  C  C105  1  0.07106000  0.29072000  0.47409000  1.0
  N  N106  1  0.03365000  0.78128000  0.69226000  1.0
  N  N107  1  0.96635000  0.21872000  0.30773000  1.0
  N  N108  1  0.99250000  0.35784000  0.11634000  1.0
  N  N109  1  0.00750000  0.64216000  0.88366000  1.0
  O  O110  1  0.99291000  0.99015000  0.17841000  1.0
  O  O111  1  0.00708000  0.00984000  0.82159000  1.0
  O  O112  1  0.20925000  0.99798000  0.32143000  1.0
  O  O113  1  0.79074000  0.00202000  0.67857000  1.0
  O  O114  1  0.37530000  0.13077000  0.30577000  1.0
  O  O115  1  0.62470000  0.86922000  0.69422000  1.0
  O  O116  1  0.10856000  0.14429000  0.99449000  1.0
  O  O117  1  0.89144000  0.85572000  0.00551000  1.0
  O  O118  1  0.24023000  0.17233000  0.14161000  1.0
  O  O119  1  0.75976000  0.82767000  0.85839000  1.0
  O  O120  1  0.81098000  0.11348000  0.96585000  1.0
  O  O121  1  0.18902000  0.88652000  0.03416000  1.0
  O  O122  1  0.73289000  0.17092000  0.11635000  1.0
  O  O123  1  0.26712000  0.82908000  0.88365000  1.0
