# generated using pymatgen
data_Zn2CdH42C54(NO6)2
_symmetry_space_group_name_H-M   'P 1'
_cell_length_a   10.30610000
_cell_length_b   10.93920000
_cell_length_c   13.15330000
_cell_angle_alpha   76.39920000
_cell_angle_beta   67.47270000
_cell_angle_gamma   63.08170000
_symmetry_Int_Tables_number   1
_chemical_formula_structural   Zn2CdH42C54(NO6)2
_chemical_formula_sum   'Zn2 Cd1 H42 C54 N2 O12'
_cell_volume   1217.91698769
_cell_formula_units_Z   1
loop_
 _symmetry_equiv_pos_site_id
 _symmetry_equiv_pos_as_xyz
  1  'x, y, z'
loop_
 _atom_site_type_symbol
 _atom_site_label
 _atom_site_symmetry_multiplicity
 _atom_site_fract_x
 _atom_site_fract_y
 _atom_site_fract_z
 _atom_site_occupancy
  Zn  Zn0  1  0.70260000  0.95948000  0.71698000  1.0
  Zn  Zn1  1  0.29740000  0.04052000  0.28302000  1.0
  Cd  Cd2  1  0.00000000  0.00000000  0.50000000  1.0
  H  H3  1  0.51101000  0.84255000  0.54971000  1.0
  H  H4  1  0.48898000  0.15745000  0.45029000  1.0
  H  H5  1  0.44462000  0.72840000  0.44471000  1.0
  H  H6  1  0.55537000  0.27160000  0.55529000  1.0
  H  H7  1  0.62480000  0.64549000  0.26123000  1.0
  H  H8  1  0.37519000  0.35451000  0.73877000  1.0
  H  H9  1  0.86802000  0.67955000  0.18055000  1.0
  H  H10  1  0.13199000  0.32044000  0.81945000  1.0
  H  H11  1  0.92985000  0.79985000  0.28433000  1.0
  H  H12  1  0.07016000  0.20013000  0.71568000  1.0
  H  H13  1  0.95635000  0.65791000  0.93306000  1.0
  H  H14  1  0.04365000  0.34209000  0.06694000  1.0
  H  H15  1  0.15510000  0.50975000  0.02365000  1.0
  H  H16  1  0.84490000  0.49026000  0.97635000  1.0
  H  H17  1  0.43239000  0.45391000  0.91833000  1.0
  H  H18  1  0.56761000  0.54609000  0.08167000  1.0
  H  H19  1  0.50842000  0.54869000  0.72375000  1.0
  H  H20  1  0.49157000  0.45131000  0.27626000  1.0
  H  H21  1  0.30740000  0.69510000  0.63371000  1.0
  H  H22  1  0.69260000  0.30491000  0.36629000  1.0
  H  H23  1  0.81442000  0.31971000  0.52714000  1.0
  H  H24  1  0.18559000  0.68030000  0.47285000  1.0
  H  H25  1  0.85158000  0.53672000  0.49010000  1.0
  H  H26  1  0.14843000  0.46328000  0.50990000  1.0
  H  H27  1  0.82975000  0.64726000  0.64431000  1.0
  H  H28  1  0.17026000  0.35274000  0.35569000  1.0
  H  H29  1  0.76647000  0.54302000  0.83611000  1.0
  H  H30  1  0.23354000  0.45697000  0.16388000  1.0
  H  H31  1  0.72482000  0.32517000  0.87409000  1.0
  H  H32  1  0.27519000  0.67483000  0.12591000  1.0
  H  H33  1  0.51188000  0.82397000  0.72923000  1.0
  H  H34  1  0.48811000  0.17604000  0.27076000  1.0
  H  H35  1  0.26140000  0.81417000  0.84929000  1.0
  H  H36  1  0.73860000  0.18585000  0.15070000  1.0
  H  H37  1  0.21039000  0.10720000  0.04689000  1.0
  H  H38  1  0.78961000  0.89280000  0.95311000  1.0
  H  H39  1  0.46156000  0.10865000  0.91540000  1.0
  H  H40  1  0.53843000  0.89135000  0.08460000  1.0
  H  H41  1  0.07017000  0.85354000  0.05074000  1.0
  H  H42  1  0.92982000  0.14646000  0.94926000  1.0
  H  H43  1  0.02303000  0.00563000  0.10781000  1.0
  H  H44  1  0.97697000  0.99437000  0.89219000  1.0
  C  C45  1  0.76750000  0.89221000  0.48660000  1.0
  C  C46  1  0.23250000  0.10779000  0.51340000  1.0
  C  C47  1  0.72442000  0.82790000  0.42291000  1.0
  C  C48  1  0.27558000  0.17209000  0.57710000  1.0
  C  C49  1  0.58817000  0.80687000  0.46864000  1.0
  C  C50  1  0.41183000  0.19313000  0.53136000  1.0
  C  C51  1  0.55197000  0.74226000  0.41028000  1.0
  C  C52  1  0.44803000  0.25774000  0.58972000  1.0
  C  C53  1  0.65277000  0.69640000  0.30668000  1.0
  C  C54  1  0.34723000  0.30360000  0.69332000  1.0
  C  C55  1  0.78917000  0.71636000  0.26110000  1.0
  C  C56  1  0.21083000  0.28363000  0.73891000  1.0
  C  C57  1  0.82415000  0.78344000  0.31828000  1.0
  C  C58  1  0.17586000  0.21654000  0.68173000  1.0
  C  C59  1  0.00269000  0.77490000  0.72176000  1.0
  C  C60  1  0.99730000  0.22511000  0.27824000  1.0
  C  C61  1  0.12046000  0.68447000  0.77757000  1.0
  C  C62  1  0.87954000  0.31554000  0.22243000  1.0
  C  C63  1  0.07761000  0.63285000  0.88779000  1.0
  C  C64  1  0.92239000  0.36715000  0.11222000  1.0
  C  C65  1  0.18950000  0.55021000  0.93821000  1.0
  C  C66  1  0.81050000  0.44979000  0.06179000  1.0
  C  C67  1  0.34462000  0.51957000  0.87945000  1.0
  C  C68  1  0.65538000  0.48043000  0.12056000  1.0
  C  C69  1  0.38772000  0.57201000  0.76975000  1.0
  C  C70  1  0.61228000  0.42799000  0.23026000  1.0
  C  C71  1  0.27618000  0.65345000  0.71901000  1.0
  C  C72  1  0.72382000  0.34655000  0.28099000  1.0
  C  C73  1  0.73558000  0.18364000  0.72892000  1.0
  C  C74  1  0.26441000  0.81636000  0.27107000  1.0
  C  C75  1  0.76800000  0.30898000  0.70322000  1.0
  C  C76  1  0.23200000  0.69103000  0.29678000  1.0
  C  C77  1  0.80401000  0.36831000  0.59491000  1.0
  C  C78  1  0.19600000  0.63169000  0.40509000  1.0
  C  C79  1  0.82559000  0.48992000  0.57411000  1.0
  C  C80  1  0.17442000  0.51008000  0.42589000  1.0
  C  C81  1  0.81334000  0.55203000  0.66077000  1.0
  C  C82  1  0.18667000  0.44797000  0.33923000  1.0
  C  C83  1  0.77774000  0.49293000  0.76884000  1.0
  C  C84  1  0.22227000  0.50707000  0.23116000  1.0
  C  C85  1  0.75466000  0.37209000  0.79032000  1.0
  C  C86  1  0.24535000  0.62790000  0.20968000  1.0
  C  C87  1  0.44044000  0.88533000  0.80028000  1.0
  C  C88  1  0.55955000  0.11467000  0.19972000  1.0
  C  C89  1  0.30089000  0.88106000  0.86753000  1.0
  C  C90  1  0.69911000  0.11895000  0.13246000  1.0
  C  C91  1  0.21354000  0.96142000  0.95809000  1.0
  C  C92  1  0.78646000  0.03858000  0.04191000  1.0
  C  C93  1  0.27154000  0.04507000  0.97602000  1.0
  C  C94  1  0.72846000  0.95493000  0.02398000  1.0
  C  C95  1  0.41166000  0.04525000  0.90498000  1.0
  C  C96  1  0.58834000  0.95475000  0.09502000  1.0
  C  C97  1  0.06071000  0.96017000  0.02994000  1.0
  C  C98  1  0.93929000  0.03983000  0.97005000  1.0
  N  N99  1  0.49575000  0.96612000  0.81859000  1.0
  N  N100  1  0.50424000  0.03388000  0.18140000  1.0
  O  O101  1  0.86684000  0.94190000  0.43344000  1.0
  O  O102  1  0.13316000  0.05810000  0.56656000  1.0
  O  O103  1  0.70041000  0.88979000  0.59116000  1.0
  O  O104  1  0.29959000  0.11020000  0.40884000  1.0
  O  O105  1  0.04979000  0.80596000  0.61948000  1.0
  O  O106  1  0.95021000  0.19404000  0.38052000  1.0
  O  O107  1  0.86072000  0.81522000  0.78259000  1.0
  O  O108  1  0.13928000  0.18478000  0.21741000  1.0
  O  O109  1  0.77268000  0.11291000  0.64638000  1.0
  O  O110  1  0.22732000  0.88709000  0.35362000  1.0
  O  O111  1  0.67031000  0.14919000  0.82564000  1.0
  O  O112  1  0.32968000  0.85082000  0.17436000  1.0
