# generated using pymatgen
data_CuH13C13(NO2)2
_symmetry_space_group_name_H-M   'P 1'
_cell_length_a   8.34853000
_cell_length_b   9.95918000
_cell_length_c   15.30530000
_cell_angle_alpha   89.99920000
_cell_angle_beta   89.99950000
_cell_angle_gamma   101.20300000
_symmetry_Int_Tables_number   1
_chemical_formula_structural   CuH13C13(NO2)2
_chemical_formula_sum   'Cu4 H52 C52 N8 O16'
_cell_volume   1248.30322130
_cell_formula_units_Z   4
loop_
 _symmetry_equiv_pos_site_id
 _symmetry_equiv_pos_as_xyz
  1  'x, y, z'
loop_
 _atom_site_type_symbol
 _atom_site_label
 _atom_site_symmetry_multiplicity
 _atom_site_fract_x
 _atom_site_fract_y
 _atom_site_fract_z
 _atom_site_occupancy
  Cu  Cu0  1  0.15087000  0.72030000  0.44206000  1.0
  Cu  Cu1  1  0.84913000  0.77970000  0.94206000  1.0
  Cu  Cu2  1  0.84913000  0.27969000  0.55794000  1.0
  Cu  Cu3  1  0.15088000  0.22030000  0.05794000  1.0
  H  H4  1  0.07901000  0.58577000  0.72120000  1.0
  H  H5  1  0.92099000  0.91422000  0.22120000  1.0
  H  H6  1  0.92097000  0.41423000  0.27880000  1.0
  H  H7  1  0.07901000  0.08577000  0.77880000  1.0
  H  H8  1  0.16688000  0.38711000  0.79201000  1.0
  H  H9  1  0.83312000  0.11289000  0.29200000  1.0
  H  H10  1  0.83310000  0.61291000  0.20800000  1.0
  H  H11  1  0.16689000  0.88711000  0.70800000  1.0
  H  H12  1  0.31632000  0.23724000  0.70647000  1.0
  H  H13  1  0.68369000  0.26276000  0.20647000  1.0
  H  H14  1  0.68367000  0.76277000  0.29353000  1.0
  H  H15  1  0.31633000  0.73724000  0.79353000  1.0
  H  H16  1  0.37297000  0.28668000  0.54874000  1.0
  H  H17  1  0.62704000  0.21331000  0.04874000  1.0
  H  H18  1  0.62702000  0.71333000  0.45126000  1.0
  H  H19  1  0.37299000  0.78668000  0.95126000  1.0
  H  H20  1  0.34785000  0.40048000  0.42142000  1.0
  H  H21  1  0.65215000  0.09952000  0.92142000  1.0
  H  H22  1  0.65215000  0.59952000  0.57858000  1.0
  H  H23  1  0.34785000  0.90048000  0.07858000  1.0
  H  H24  1  0.22506000  0.48415000  0.27692000  1.0
  H  H25  1  0.77495000  0.01586000  0.77691000  1.0
  H  H26  1  0.77493000  0.51584000  0.72308000  1.0
  H  H27  1  0.22507000  0.98415000  0.22308000  1.0
  H  H28  1  0.42016000  0.58175000  0.30123000  1.0
  H  H29  1  0.57983000  0.91827000  0.80124000  1.0
  H  H30  1  0.57984000  0.41825000  0.69877000  1.0
  H  H31  1  0.42016000  0.08174000  0.19877000  1.0
  H  H32  1  0.13847000  0.98769000  0.36156000  1.0
  H  H33  1  0.86153000  0.51230000  0.86156000  1.0
  H  H34  1  0.86151000  0.01230000  0.63843000  1.0
  H  H35  1  0.13848000  0.48769000  0.13843000  1.0
  H  H36  1  0.95046000  0.79563000  0.59095000  1.0
  H  H37  1  0.04953000  0.70436000  0.09095000  1.0
  H  H38  1  0.04951000  0.20436000  0.40904000  1.0
  H  H39  1  0.95049000  0.29563000  0.90905000  1.0
  H  H40  1  0.34714000  0.05329000  0.58655000  1.0
  H  H41  1  0.65286000  0.44672000  0.08655000  1.0
  H  H42  1  0.65285000  0.94672000  0.41345000  1.0
  H  H43  1  0.34715000  0.55328000  0.91346000  1.0
  H  H44  1  0.52550000  0.05721000  0.65278000  1.0
  H  H45  1  0.47450000  0.44279000  0.15279000  1.0
  H  H46  1  0.47449000  0.94280000  0.34721000  1.0
  H  H47  1  0.52551000  0.55721000  0.84722000  1.0
  H  H48  1  0.60177000  0.86899000  0.56878000  1.0
  H  H49  1  0.39822000  0.63101000  0.06878000  1.0
  H  H50  1  0.39822000  0.13102000  0.43121000  1.0
  H  H51  1  0.60179000  0.36899000  0.93122000  1.0
  H  H52  1  0.39238000  0.81680000  0.59890000  1.0
  H  H53  1  0.60761000  0.68320000  0.09890000  1.0
  H  H54  1  0.60762000  0.18320000  0.40110000  1.0
  H  H55  1  0.39240000  0.31680000  0.90110000  1.0
  C  C56  1  0.17346000  0.55008000  0.59402000  1.0
  C  C57  1  0.82655000  0.94991000  0.09402000  1.0
  C  C58  1  0.82653000  0.44992000  0.40598000  1.0
  C  C59  1  0.17347000  0.05008000  0.90598000  1.0
  C  C60  1  0.14398000  0.51949000  0.68415000  1.0
  C  C61  1  0.85603000  0.98051000  0.18415000  1.0
  C  C62  1  0.85602000  0.48052000  0.31585000  1.0
  C  C63  1  0.14398000  0.01948000  0.81585000  1.0
  C  C64  1  0.19387000  0.40906000  0.72311000  1.0
  C  C65  1  0.80614000  0.09093000  0.22311000  1.0
  C  C66  1  0.80612000  0.59095000  0.27690000  1.0
  C  C67  1  0.19387000  0.90906000  0.77690000  1.0
  C  C68  1  0.27728000  0.32361000  0.67499000  1.0
  C  C69  1  0.72273000  0.17639000  0.17499000  1.0
  C  C70  1  0.72272000  0.67641000  0.32501000  1.0
  C  C71  1  0.27728000  0.82360000  0.82501000  1.0
  C  C72  1  0.30661000  0.35042000  0.58710000  1.0
  C  C73  1  0.69340000  0.14958000  0.08711000  1.0
  C  C74  1  0.69338000  0.64959000  0.41290000  1.0
  C  C75  1  0.30663000  0.85042000  0.91290000  1.0
  C  C76  1  0.25524000  0.46087000  0.54444000  1.0
  C  C77  1  0.74476000  0.03913000  0.04444000  1.0
  C  C78  1  0.74475000  0.53914000  0.45556000  1.0
  C  C79  1  0.25526000  0.96087000  0.95556000  1.0
  C  C80  1  0.28701000  0.47660000  0.45245000  1.0
  C  C81  1  0.71298000  0.02340000  0.95245000  1.0
  C  C82  1  0.71298000  0.52340000  0.54755000  1.0
  C  C83  1  0.28703000  0.97660000  0.04755000  1.0
  C  C84  1  0.28838000  0.57723000  0.31074000  1.0
  C  C85  1  0.71162000  0.92278000  0.81074000  1.0
  C  C86  1  0.71161000  0.42277000  0.68926000  1.0
  C  C87  1  0.28839000  0.07723000  0.18926000  1.0
  C  C88  1  0.24408000  0.70395000  0.26876000  1.0
  C  C89  1  0.75591000  0.79604000  0.76875000  1.0
  C  C90  1  0.75593000  0.29605000  0.73124000  1.0
  C  C91  1  0.24408000  0.20395000  0.23125000  1.0
  C  C92  1  0.07593000  0.99339000  0.42326000  1.0
  C  C93  1  0.92407000  0.50660000  0.92326000  1.0
  C  C94  1  0.92405000  0.00660000  0.57674000  1.0
  C  C95  1  0.07595000  0.49339000  0.07674000  1.0
  C  C96  1  0.97273000  0.88700000  0.55036000  1.0
  C  C97  1  0.02726000  0.61299000  0.05036000  1.0
  C  C98  1  0.02724000  0.11299000  0.44963000  1.0
  C  C99  1  0.97276000  0.38700000  0.94963000  1.0
  C  C100  1  0.47418000  0.03606000  0.58705000  1.0
  C  C101  1  0.52582000  0.46395000  0.08705000  1.0
  C  C102  1  0.52582000  0.96395000  0.41295000  1.0
  C  C103  1  0.47418000  0.53606000  0.91295000  1.0
  C  C104  1  0.47822000  0.89048000  0.55992000  1.0
  C  C105  1  0.52177000  0.60952000  0.05992000  1.0
  C  C106  1  0.52177000  0.10953000  0.44008000  1.0
  C  C107  1  0.47824000  0.39048000  0.94009000  1.0
  N  N108  1  0.24749000  0.57094000  0.40325000  1.0
  N  N109  1  0.75251000  0.92906000  0.90325000  1.0
  N  N110  1  0.75250000  0.42906000  0.59675000  1.0
  N  N111  1  0.24751000  0.07093000  0.09675000  1.0
  N  N112  1  0.04901000  0.88063000  0.47361000  1.0
  N  N113  1  0.95098000  0.61936000  0.97362000  1.0
  N  N114  1  0.95096000  0.11936000  0.52638000  1.0
  N  N115  1  0.04903000  0.38063000  0.02638000  1.0
  O  O116  1  0.12508000  0.65745000  0.56177000  1.0
  O  O117  1  0.87493000  0.84255000  0.06177000  1.0
  O  O118  1  0.87491000  0.34256000  0.43823000  1.0
  O  O119  1  0.12510000  0.15745000  0.93823000  1.0
  O  O120  1  0.17634000  0.78219000  0.31897000  1.0
  O  O121  1  0.82367000  0.71781000  0.81897000  1.0
  O  O122  1  0.82366000  0.21781000  0.68103000  1.0
  O  O123  1  0.17634000  0.28219000  0.18103000  1.0
  O  O124  1  0.27456000  0.72791000  0.18996000  1.0
  O  O125  1  0.72542000  0.77209000  0.68997000  1.0
  O  O126  1  0.72546000  0.27209000  0.81004000  1.0
  O  O127  1  0.27455000  0.22791000  0.31003000  1.0
  O  O128  1  0.57258000  0.13256000  0.52963000  1.0
  O  O129  1  0.42742000  0.36744000  0.02963000  1.0
  O  O130  1  0.42740000  0.86745000  0.47037000  1.0
  O  O131  1  0.57259000  0.63256000  0.97037000  1.0
