# generated using pymatgen
data_CdH7C11O5
_symmetry_space_group_name_H-M   'P 1'
_cell_length_a   14.39230000
_cell_length_b   14.66578164
_cell_length_c   14.66920000
_cell_angle_alpha   76.05762391
_cell_angle_beta   60.61580000
_cell_angle_gamma   60.60910861
_symmetry_Int_Tables_number   1
_chemical_formula_structural   CdH7C11O5
_chemical_formula_sum   'Cd8 H56 C88 O40'
_cell_volume   2350.70266106
_cell_formula_units_Z   8
loop_
 _symmetry_equiv_pos_site_id
 _symmetry_equiv_pos_as_xyz
  1  'x, y, z'
loop_
 _atom_site_type_symbol
 _atom_site_label
 _atom_site_symmetry_multiplicity
 _atom_site_fract_x
 _atom_site_fract_y
 _atom_site_fract_z
 _atom_site_occupancy
  Cd  Cd0  1  0.75690000  0.77755000  0.81287000  1.0
  Cd  Cd1  1  0.34728000  0.72272000  0.68720000  1.0
  Cd  Cd2  1  0.06985000  0.68719000  0.77748000  1.0
  Cd  Cd3  1  0.53444000  0.81286000  0.72249000  1.0
  Cd  Cd4  1  0.24311000  0.22244000  0.18713000  1.0
  Cd  Cd5  1  0.65272000  0.27728000  0.31280000  1.0
  Cd  Cd6  1  0.93017000  0.31280000  0.22252000  1.0
  Cd  Cd7  1  0.46556000  0.18714000  0.27751000  1.0
  H  H8  1  0.81449000  0.87999000  0.91051000  1.0
  H  H9  1  0.60496000  0.61982000  0.58980000  1.0
  H  H10  1  0.22492000  0.58977000  0.88001000  1.0
  H  H11  1  0.69452000  0.91046000  0.61986000  1.0
  H  H12  1  0.18551000  0.12001000  0.08949000  1.0
  H  H13  1  0.39504000  0.38018000  0.41020000  1.0
  H  H14  1  0.77508000  0.41023000  0.12000000  1.0
  H  H15  1  0.30548000  0.08954000  0.38014000  1.0
  H  H16  1  0.69146000  0.87628000  0.98506000  1.0
  H  H17  1  0.55277000  0.62351000  0.51527000  1.0
  H  H18  1  0.17639000  0.51518000  0.87649000  1.0
  H  H19  1  0.56776000  0.98505000  0.62361000  1.0
  H  H20  1  0.30854000  0.12372000  0.01494000  1.0
  H  H21  1  0.44723000  0.37649000  0.48473000  1.0
  H  H22  1  0.82360000  0.48483000  0.12351000  1.0
  H  H23  1  0.43224000  0.01495000  0.37639000  1.0
  H  H24  1  0.32656000  0.91720000  0.91039000  1.0
  H  H25  1  0.15422000  0.58289000  0.58998000  1.0
  H  H26  1  0.73701000  0.58999000  0.91712000  1.0
  H  H27  1  0.24378000  0.91019000  0.58301000  1.0
  H  H28  1  0.67344000  0.08280000  0.08961000  1.0
  H  H29  1  0.84578000  0.41711000  0.41002000  1.0
  H  H30  1  0.26299000  0.41001000  0.08289000  1.0
  H  H31  1  0.75622000  0.08981000  0.41699000  1.0
  H  H32  1  0.06241000  0.93685000  0.22895000  1.0
  H  H33  1  0.22821000  0.56285000  0.27154000  1.0
  H  H34  1  0.79083000  0.27151000  0.93724000  1.0
  H  H35  1  0.99960000  0.22874000  0.56248000  1.0
  H  H36  1  0.93759000  0.06315000  0.77105000  1.0
  H  H37  1  0.77180000  0.43714000  0.72846000  1.0
  H  H38  1  0.20917000  0.72849000  0.06276000  1.0
  H  H39  1  0.00039000  0.77127000  0.43752000  1.0
  H  H40  1  0.21808000  0.86293000  0.29074000  1.0
  H  H41  1  0.37195000  0.63661000  0.20943000  1.0
  H  H42  1  0.00839000  0.20934000  0.86320000  1.0
  H  H43  1  0.08120000  0.29082000  0.63628000  1.0
  H  H44  1  0.78191000  0.13708000  0.70926000  1.0
  H  H45  1  0.62806000  0.36338000  0.79057000  1.0
  H  H46  1  0.99160000  0.79066000  0.13680000  1.0
  H  H47  1  0.91880000  0.70918000  0.36372000  1.0
  H  H48  1  0.43139000  0.80838000  0.16013000  1.0
  H  H49  1  0.40009000  0.69138000  0.33994000  1.0
  H  H50  1  0.09137000  0.33987000  0.80832000  1.0
  H  H51  1  0.23970000  0.16035000  0.69122000  1.0
  H  H52  1  0.56861000  0.19163000  0.83987000  1.0
  H  H53  1  0.59992000  0.30861000  0.66006000  1.0
  H  H54  1  0.90863000  0.66013000  0.19169000  1.0
  H  H55  1  0.76029000  0.83966000  0.30878000  1.0
  H  H56  1  0.19236000  0.84586000  0.91907000  1.0
  H  H57  1  0.95724000  0.65368000  0.58163000  1.0
  H  H58  1  0.61104000  0.58146000  0.84616000  1.0
  H  H59  1  0.03833000  0.91889000  0.65403000  1.0
  H  H60  1  0.80764000  0.15414000  0.08093000  1.0
  H  H61  1  0.04276000  0.34632000  0.41837000  1.0
  H  H62  1  0.38895000  0.41855000  0.15383000  1.0
  H  H63  1  0.96167000  0.08111000  0.34597000  1.0
  C  C64  1  0.51902000  0.82651000  0.95174000  1.0
  C  C65  1  0.29749000  0.67360000  0.54821000  1.0
  C  C66  1  0.97096000  0.54819000  0.82637000  1.0
  C  C67  1  0.34551000  0.95198000  0.67351000  1.0
  C  C68  1  0.48098000  0.17349000  0.04826000  1.0
  C  C69  1  0.70252000  0.32640000  0.45178000  1.0
  C  C70  1  0.02903000  0.45181000  0.17363000  1.0
  C  C71  1  0.65449000  0.04802000  0.32649000  1.0
  C  C72  1  0.39211000  0.85717000  0.02775000  1.0
  C  C73  1  0.27713000  0.64282000  0.47239000  1.0
  C  C74  1  0.91982000  0.47236000  0.85709000  1.0
  C  C75  1  0.24927000  0.02780000  0.64274000  1.0
  C  C76  1  0.60788000  0.14284000  0.97225000  1.0
  C  C77  1  0.72287000  0.35718000  0.52761000  1.0
  C  C78  1  0.08017000  0.52764000  0.14292000  1.0
  C  C79  1  0.75072000  0.97220000  0.35726000  1.0
  C  C80  1  0.30351000  0.90240000  0.99338000  1.0
  C  C81  1  0.19932000  0.59763000  0.50695000  1.0
  C  C82  1  0.79683000  0.50695000  0.90235000  1.0
  C  C83  1  0.20599000  0.99323000  0.59761000  1.0
  C  C84  1  0.69649000  0.09760000  0.00662000  1.0
  C  C85  1  0.80068000  0.40237000  0.49305000  1.0
  C  C86  1  0.20317000  0.49305000  0.09765000  1.0
  C  C87  1  0.79401000  0.00677000  0.40240000  1.0
  C  C88  1  0.18438000  0.93163000  0.06529000  1.0
  C  C89  1  0.18130000  0.56828000  0.43515000  1.0
  C  C90  1  0.74948000  0.43511000  0.93178000  1.0
  C  C91  1  0.11623000  0.06508000  0.56818000  1.0
  C  C92  1  0.81562000  0.06837000  0.93471000  1.0
  C  C93  1  0.81870000  0.43172000  0.56485000  1.0
  C  C94  1  0.25051000  0.56490000  0.06822000  1.0
  C  C95  1  0.88377000  0.93492000  0.43182000  1.0
  C  C96  1  0.15469000  0.91689000  0.17264000  1.0
  C  C97  1  0.24425000  0.58290000  0.32775000  1.0
  C  C98  1  0.82702000  0.32769000  0.91711000  1.0
  C  C99  1  0.07181000  0.17250000  0.58265000  1.0
  C  C100  1  0.84531000  0.08311000  0.82736000  1.0
  C  C101  1  0.75575000  0.41710000  0.67225000  1.0
  C  C102  1  0.17298000  0.67231000  0.08289000  1.0
  C  C103  1  0.92819000  0.82750000  0.41735000  1.0
  C  C104  1  0.24238000  0.87402000  0.20725000  1.0
  C  C105  1  0.32373000  0.62572000  0.29297000  1.0
  C  C106  1  0.94933000  0.29290000  0.87415000  1.0
  C  C107  1  0.11650000  0.20728000  0.62546000  1.0
  C  C108  1  0.75761000  0.12599000  0.79274000  1.0
  C  C109  1  0.67627000  0.37428000  0.70703000  1.0
  C  C110  1  0.05067000  0.70710000  0.12585000  1.0
  C  C111  1  0.88350000  0.79272000  0.37454000  1.0
  C  C112  1  0.36111000  0.84305000  0.13507000  1.0
  C  C113  1  0.33937000  0.65676000  0.36503000  1.0
  C  C114  1  0.99603000  0.36498000  0.84304000  1.0
  C  C115  1  0.20414000  0.13518000  0.65662000  1.0
  C  C116  1  0.63889000  0.15696000  0.86493000  1.0
  C  C117  1  0.66064000  0.34323000  0.63496000  1.0
  C  C118  1  0.00396000  0.63502000  0.15697000  1.0
  C  C119  1  0.79586000  0.86482000  0.34338000  1.0
  C  C120  1  0.04132000  0.86410000  0.85703000  1.0
  C  C121  1  0.76252000  0.63568000  0.64320000  1.0
  C  C122  1  0.39820000  0.64306000  0.86415000  1.0
  C  C123  1  0.90528000  0.85709000  0.63597000  1.0
  C  C124  1  0.95868000  0.13590000  0.14296000  1.0
  C  C125  1  0.23749000  0.36431000  0.35679000  1.0
  C  C126  1  0.60180000  0.35694000  0.13585000  1.0
  C  C127  1  0.09472000  0.14291000  0.36403000  1.0
  C  C128  1  0.01886000  0.94075000  0.92528000  1.0
  C  C129  1  0.88488000  0.55908000  0.57480000  1.0
  C  C130  1  0.44398000  0.57478000  0.94080000  1.0
  C  C131  1  0.95942000  0.92535000  0.55933000  1.0
  C  C132  1  0.98114000  0.05925000  0.07472000  1.0
  C  C133  1  0.11512000  0.44092000  0.42520000  1.0
  C  C134  1  0.55602000  0.42523000  0.05920000  1.0
  C  C135  1  0.04058000  0.07465000  0.44067000  1.0
  C  C136  1  0.10852000  0.91493000  0.95369000  1.0
  C  C137  1  0.97715000  0.58477000  0.54673000  1.0
  C  C138  1  0.56195000  0.54666000  0.91514000  1.0
  C  C139  1  0.02354000  0.95356000  0.58499000  1.0
  C  C140  1  0.89148000  0.08507000  0.04631000  1.0
  C  C141  1  0.02285000  0.41523000  0.45327000  1.0
  C  C142  1  0.43805000  0.45334000  0.08486000  1.0
  C  C143  1  0.97646000  0.04644000  0.41501000  1.0
  C  C144  1  0.09142000  0.97146000  0.02944000  1.0
  C  C145  1  0.09237000  0.52842000  0.47091000  1.0
  C  C146  1  0.62071000  0.47091000  0.97162000  1.0
  C  C147  1  0.06316000  0.02920000  0.52838000  1.0
  C  C148  1  0.90858000  0.02854000  0.97056000  1.0
  C  C149  1  0.90762000  0.47158000  0.52909000  1.0
  C  C150  1  0.37928000  0.52910000  0.02838000  1.0
  C  C151  1  0.93684000  0.97080000  0.47162000  1.0
  O  O152  1  0.54569000  0.85700000  0.85528000  1.0
  O  O153  1  0.25817000  0.64324000  0.64472000  1.0
  O  O154  1  0.90127000  0.64470000  0.85679000  1.0
  O  O155  1  0.40288000  0.85546000  0.64305000  1.0
  O  O156  1  0.45430000  0.14301000  0.14472000  1.0
  O  O157  1  0.74182000  0.35677000  0.35528000  1.0
  O  O158  1  0.09872000  0.35530000  0.14321000  1.0
  O  O159  1  0.59712000  0.14454000  0.35694000  1.0
  O  O160  1  0.59968000  0.77360000  0.98227000  1.0
  O  O161  1  0.35586000  0.72644000  0.51754000  1.0
  O  O162  1  0.08216000  0.51756000  0.77356000  1.0
  O  O163  1  0.37310000  0.98268000  0.72639000  1.0
  O  O164  1  0.40032000  0.22640000  0.01773000  1.0
  O  O165  1  0.64414000  0.27356000  0.48246000  1.0
  O  O166  1  0.91784000  0.48244000  0.22644000  1.0
  O  O167  1  0.62689000  0.01732000  0.27362000  1.0
  O  O168  1  0.96014000  0.83643000  0.88142000  1.0
  O  O169  1  0.67785000  0.66345000  0.61903000  1.0
  O  O170  1  0.34136000  0.61880000  0.83645000  1.0
  O  O171  1  0.79646000  0.88130000  0.66357000  1.0
  O  O172  1  0.03986000  0.16357000  0.11858000  1.0
  O  O173  1  0.32215000  0.33654000  0.38097000  1.0
  O  O174  1  0.65864000  0.38120000  0.16355000  1.0
  O  O175  1  0.20353000  0.11871000  0.33643000  1.0
  O  O176  1  0.14257000  0.82253000  0.78020000  1.0
  O  O177  1  0.74560000  0.67715000  0.71997000  1.0
  O  O178  1  0.42271000  0.71987000  0.82255000  1.0
  O  O179  1  0.96495000  0.78035000  0.67762000  1.0
  O  O180  1  0.85743000  0.17747000  0.21980000  1.0
  O  O181  1  0.25441000  0.32284000  0.28004000  1.0
  O  O182  1  0.57729000  0.28013000  0.17744000  1.0
  O  O183  1  0.03505000  0.21965000  0.32237000  1.0
  O  O184  1  0.73893000  0.89138000  0.91361000  1.0
  O  O185  1  0.54380000  0.60854000  0.58674000  1.0
  O  O186  1  0.15243000  0.58667000  0.89144000  1.0
  O  O187  1  0.63028000  0.91357000  0.60859000  1.0
  O  O188  1  0.26107000  0.10862000  0.08639000  1.0
  O  O189  1  0.45620000  0.39146000  0.41326000  1.0
  O  O190  1  0.84758000  0.41332000  0.10856000  1.0
  O  O191  1  0.36973000  0.08643000  0.39141000  1.0
