# generated using pymatgen
data_CdH11C17NO4
_symmetry_space_group_name_H-M   'P 1'
_cell_length_a   6.76414000
_cell_length_b   14.04130000
_cell_length_c   14.73570000
_cell_angle_alpha   89.99960000
_cell_angle_beta   89.99890000
_cell_angle_gamma   89.99920000
_symmetry_Int_Tables_number   1
_chemical_formula_structural   CdH11C17NO4
_chemical_formula_sum   'Cd4 H44 C68 N4 O16'
_cell_volume   1399.55727889
_cell_formula_units_Z   4
loop_
 _symmetry_equiv_pos_site_id
 _symmetry_equiv_pos_as_xyz
  1  'x, y, z'
loop_
 _atom_site_type_symbol
 _atom_site_label
 _atom_site_symmetry_multiplicity
 _atom_site_fract_x
 _atom_site_fract_y
 _atom_site_fract_z
 _atom_site_occupancy
  Cd  Cd0  1  0.84467000  0.19304000  0.53740000  1.0
  Cd  Cd1  1  0.65534000  0.80696000  0.03740000  1.0
  Cd  Cd2  1  0.34466000  0.30696000  0.46260000  1.0
  Cd  Cd3  1  0.15534000  0.69304000  0.96260000  1.0
  H  H4  1  0.78150000  0.33160000  0.24392000  1.0
  H  H5  1  0.71850000  0.66840000  0.74392000  1.0
  H  H6  1  0.28151000  0.16840000  0.75608000  1.0
  H  H7  1  0.21848000  0.83159000  0.25608000  1.0
  H  H8  1  0.81731000  0.45576000  0.12321000  1.0
  H  H9  1  0.68269000  0.54425000  0.62321000  1.0
  H  H10  1  0.31731000  0.04425000  0.87679000  1.0
  H  H11  1  0.18269000  0.95575000  0.37679000  1.0
  H  H12  1  0.93460000  0.49284000  0.52136000  1.0
  H  H13  1  0.56538000  0.50716000  0.02136000  1.0
  H  H14  1  0.43460000  0.00716000  0.47864000  1.0
  H  H15  1  0.06541000  0.99283000  0.97864000  1.0
  H  H16  1  0.99125000  0.66084000  0.56485000  1.0
  H  H17  1  0.50873000  0.33915000  0.06485000  1.0
  H  H18  1  0.49125000  0.83915000  0.43515000  1.0
  H  H19  1  0.00874000  0.16084000  0.93515000  1.0
  H  H20  1  0.99337000  0.78814000  0.44562000  1.0
  H  H21  1  0.50662000  0.21186000  0.94562000  1.0
  H  H22  1  0.49338000  0.71186000  0.55438000  1.0
  H  H23  1  0.00662000  0.28814000  0.05438000  1.0
  H  H24  1  0.93534000  0.74565000  0.28488000  1.0
  H  H25  1  0.56467000  0.25436000  0.78489000  1.0
  H  H26  1  0.43534000  0.75436000  0.71511000  1.0
  H  H27  1  0.06466000  0.24564000  0.21511000  1.0
  H  H28  1  0.78456000  0.13817000  0.74176000  1.0
  H  H29  1  0.71544000  0.86183000  0.24176000  1.0
  H  H30  1  0.28457000  0.36183000  0.25824000  1.0
  H  H31  1  0.21543000  0.63817000  0.75824000  1.0
  H  H32  1  0.79959000  0.99779000  0.84772000  1.0
  H  H33  1  0.70040000  0.00221000  0.34771000  1.0
  H  H34  1  0.29961000  0.50221000  0.15229000  1.0
  H  H35  1  0.20040000  0.49779000  0.65229000  1.0
  H  H36  1  0.89361000  0.83840000  0.78512000  1.0
  H  H37  1  0.60638000  0.16160000  0.28511000  1.0
  H  H38  1  0.39361000  0.66160000  0.21489000  1.0
  H  H39  1  0.10638000  0.33840000  0.71489000  1.0
  H  H40  1  0.96281000  0.82519000  0.61731000  1.0
  H  H41  1  0.53719000  0.17480000  0.11730000  1.0
  H  H42  1  0.46279000  0.67480000  0.38270000  1.0
  H  H43  1  0.03719000  0.32520000  0.88270000  1.0
  H  H44  1  0.93790000  0.97215000  0.52115000  1.0
  H  H45  1  0.56210000  0.02784000  0.02116000  1.0
  H  H46  1  0.43789000  0.52784000  0.47885000  1.0
  H  H47  1  0.06211000  0.47216000  0.97885000  1.0
  C  C48  1  0.84992000  0.34567000  0.41778000  1.0
  C  C49  1  0.65009000  0.65433000  0.91779000  1.0
  C  C50  1  0.34992000  0.15433000  0.58221000  1.0
  C  C51  1  0.15009000  0.84567000  0.08221000  1.0
  C  C52  1  0.85678000  0.42619000  0.35196000  1.0
  C  C53  1  0.64322000  0.57382000  0.85196000  1.0
  C  C54  1  0.35678000  0.07382000  0.64804000  1.0
  C  C55  1  0.14321000  0.92618000  0.14804000  1.0
  C  C56  1  0.82017000  0.40458000  0.26176000  1.0
  C  C57  1  0.67982000  0.59543000  0.76176000  1.0
  C  C58  1  0.32018000  0.09543000  0.73824000  1.0
  C  C59  1  0.17982000  0.90457000  0.23824000  1.0
  C  C60  1  0.83707000  0.47446000  0.19442000  1.0
  C  C61  1  0.66293000  0.52554000  0.69442000  1.0
  C  C62  1  0.33707000  0.02555000  0.80558000  1.0
  C  C63  1  0.16293000  0.97445000  0.30558000  1.0
  C  C64  1  0.87448000  0.56840000  0.21709000  1.0
  C  C65  1  0.62552000  0.43160000  0.71709000  1.0
  C  C66  1  0.37448000  0.93160000  0.78291000  1.0
  C  C67  1  0.12552000  0.06840000  0.28291000  1.0
  C  C68  1  0.90126000  0.59502000  0.30984000  1.0
  C  C69  1  0.59873000  0.40498000  0.80984000  1.0
  C  C70  1  0.40126000  0.90498000  0.69016000  1.0
  C  C71  1  0.09874000  0.09502000  0.19016000  1.0
  C  C72  1  0.89987000  0.52200000  0.37829000  1.0
  C  C73  1  0.60013000  0.47800000  0.87829000  1.0
  C  C74  1  0.39987000  0.97800000  0.62171000  1.0
  C  C75  1  0.10013000  0.02200000  0.12171000  1.0
  C  C76  1  0.93346000  0.54862000  0.47012000  1.0
  C  C77  1  0.56653000  0.45139000  0.97013000  1.0
  C  C78  1  0.43346000  0.95138000  0.52987000  1.0
  C  C79  1  0.06654000  0.04861000  0.02987000  1.0
  C  C80  1  0.96519000  0.64242000  0.49388000  1.0
  C  C81  1  0.53478000  0.35758000  0.99388000  1.0
  C  C82  1  0.46520000  0.85758000  0.50612000  1.0
  C  C83  1  0.03480000  0.14242000  0.00612000  1.0
  C  C84  1  0.96634000  0.71416000  0.42670000  1.0
  C  C85  1  0.53366000  0.28585000  0.92670000  1.0
  C  C86  1  0.46634000  0.78585000  0.57330000  1.0
  C  C87  1  0.03366000  0.21415000  0.07330000  1.0
  C  C88  1  0.93557000  0.69076000  0.33690000  1.0
  C  C89  1  0.56444000  0.30924000  0.83691000  1.0
  C  C90  1  0.43557000  0.80924000  0.66310000  1.0
  C  C91  1  0.06443000  0.19076000  0.16310000  1.0
  C  C92  1  0.88102000  0.63863000  0.14021000  1.0
  C  C93  1  0.61898000  0.36137000  0.64021000  1.0
  C  C94  1  0.38101000  0.86137000  0.85979000  1.0
  C  C95  1  0.11899000  0.13863000  0.35979000  1.0
  C  C96  1  0.82273000  0.06710000  0.71764000  1.0
  C  C97  1  0.67728000  0.93290000  0.21764000  1.0
  C  C98  1  0.32273000  0.43290000  0.28236000  1.0
  C  C99  1  0.17727000  0.56710000  0.78236000  1.0
  C  C100  1  0.83259000  0.98923000  0.77586000  1.0
  C  C101  1  0.66740000  0.01078000  0.27586000  1.0
  C  C102  1  0.33260000  0.51077000  0.22415000  1.0
  C  C103  1  0.16740000  0.48923000  0.72415000  1.0
  C  C104  1  0.88356000  0.90033000  0.74060000  1.0
  C  C105  1  0.61644000  0.09967000  0.24060000  1.0
  C  C106  1  0.38356000  0.59966000  0.25940000  1.0
  C  C107  1  0.11644000  0.40034000  0.75941000  1.0
  C  C108  1  0.92100000  0.89293000  0.64783000  1.0
  C  C109  1  0.57899000  0.10706000  0.14783000  1.0
  C  C110  1  0.42100000  0.60706000  0.35217000  1.0
  C  C111  1  0.07899000  0.39294000  0.85217000  1.0
  C  C112  1  0.90710000  0.97397000  0.59373000  1.0
  C  C113  1  0.59289000  0.02602000  0.09373000  1.0
  C  C114  1  0.40709000  0.52601000  0.40627000  1.0
  C  C115  1  0.09290000  0.47398000  0.90627000  1.0
  N  N116  1  0.85932000  0.05975000  0.62808000  1.0
  N  N117  1  0.64067000  0.94025000  0.12808000  1.0
  N  N118  1  0.35933000  0.44025000  0.37192000  1.0
  N  N119  1  0.14068000  0.55975000  0.87192000  1.0
  O  O120  1  0.71925000  0.28114000  0.40666000  1.0
  O  O121  1  0.78078000  0.71886000  0.90666000  1.0
  O  O122  1  0.21924000  0.21886000  0.59333000  1.0
  O  O123  1  0.28075000  0.78114000  0.09333000  1.0
  O  O124  1  0.97658000  0.34137000  0.48233000  1.0
  O  O125  1  0.52343000  0.65864000  0.98233000  1.0
  O  O126  1  0.47659000  0.15863000  0.51766000  1.0
  O  O127  1  0.02342000  0.84137000  0.01766000  1.0
  O  O128  1  0.97453000  0.61133000  0.07005000  1.0
  O  O129  1  0.52548000  0.38867000  0.57005000  1.0
  O  O130  1  0.47453000  0.88867000  0.92995000  1.0
  O  O131  1  0.02548000  0.11133000  0.42995000  1.0
  O  O132  1  0.78814000  0.71675000  0.15095000  1.0
  O  O133  1  0.71187000  0.28325000  0.65096000  1.0
  O  O134  1  0.28813000  0.78325000  0.84904000  1.0
  O  O135  1  0.21188000  0.21675000  0.34904000  1.0
