# generated using pymatgen
data_Cu2H12C20SN8
_symmetry_space_group_name_H-M   'P 1'
_cell_length_a   6.78629000
_cell_length_b   8.26215000
_cell_length_c   18.28550000
_cell_angle_alpha   89.99990000
_cell_angle_beta   89.99970000
_cell_angle_gamma   68.29200000
_symmetry_Int_Tables_number   1
_chemical_formula_structural   Cu2H12C20SN8
_chemical_formula_sum   'Cu4 H24 C40 S2 N16'
_cell_volume   952.54582732
_cell_formula_units_Z   2
loop_
 _symmetry_equiv_pos_site_id
 _symmetry_equiv_pos_as_xyz
  1  'x, y, z'
loop_
 _atom_site_type_symbol
 _atom_site_label
 _atom_site_symmetry_multiplicity
 _atom_site_fract_x
 _atom_site_fract_y
 _atom_site_fract_z
 _atom_site_occupancy
  Cu  Cu0  1  0.66005000  0.63819000  0.78929000  1.0
  Cu  Cu1  1  0.33995000  0.36180000  0.28930000  1.0
  Cu  Cu2  1  0.08904000  0.70991000  0.51043000  1.0
  Cu  Cu3  1  0.91094000  0.29010000  0.01043000  1.0
  H  H4  1  0.82708000  0.21534000  0.76956000  1.0
  H  H5  1  0.17294000  0.78466000  0.26957000  1.0
  H  H6  1  0.77631000  0.00796000  0.67821000  1.0
  H  H7  1  0.22369000  0.99205000  0.17821000  1.0
  H  H8  1  0.55122000  0.13164000  0.56698000  1.0
  H  H9  1  0.44877000  0.86836000  0.06699000  1.0
  H  H10  1  0.37981000  0.45577000  0.55393000  1.0
  H  H11  1  0.62019000  0.54423000  0.05393000  1.0
  H  H12  1  0.84063000  0.97753000  0.40183000  1.0
  H  H13  1  0.15937000  0.02247000  0.90183000  1.0
  H  H14  1  0.72015000  0.29957000  0.38687000  1.0
  H  H15  1  0.27985000  0.70043000  0.88687000  1.0
  H  H16  1  0.85288000  0.46938000  0.47862000  1.0
  H  H17  1  0.14712000  0.53063000  0.97862000  1.0
  H  H18  1  0.08748000  0.30695000  0.57962000  1.0
  H  H19  1  0.91252000  0.69306000  0.07962000  1.0
  H  H20  1  0.16815000  0.29755000  0.75374000  1.0
  H  H21  1  0.83185000  0.70245000  0.25375000  1.0
  H  H22  1  0.24958000  0.43346000  0.86498000  1.0
  H  H23  1  0.75042000  0.56653000  0.36498000  1.0
  H  H24  1  0.51545000  0.24333000  0.95638000  1.0
  H  H25  1  0.48455000  0.75666000  0.45639000  1.0
  H  H26  1  0.67976000  0.92125000  0.93090000  1.0
  H  H27  1  0.32023000  0.07874000  0.43090000  1.0
  C  C28  1  0.73011000  0.26275000  0.72073000  1.0
  C  C29  1  0.26990000  0.73725000  0.22073000  1.0
  C  C30  1  0.70076000  0.14807000  0.66970000  1.0
  C  C31  1  0.29924000  0.85193000  0.16970000  1.0
  C  C32  1  0.57482000  0.21722000  0.60857000  1.0
  C  C33  1  0.42518000  0.78278000  0.10858000  1.0
  C  C34  1  0.48005000  0.39731000  0.60088000  1.0
  C  C35  1  0.51996000  0.60269000  0.10089000  1.0
  C  C36  1  0.51541000  0.50294000  0.65507000  1.0
  C  C37  1  0.48460000  0.49707000  0.15507000  1.0
  C  C38  1  0.41587000  0.69477000  0.65480000  1.0
  C  C39  1  0.58414000  0.30523000  0.15481000  1.0
  C  C40  1  0.21923000  0.95712000  0.60377000  1.0
  C  C41  1  0.78077000  0.04288000  0.10377000  1.0
  C  C42  1  0.08429000  0.05856000  0.54423000  1.0
  C  C43  1  0.91572000  0.94144000  0.04423000  1.0
  C  C44  1  0.89002000  0.05603000  0.44016000  1.0
  C  C45  1  0.10998000  0.94397000  0.94016000  1.0
  C  C46  1  0.82609000  0.23581000  0.43180000  1.0
  C  C47  1  0.17391000  0.76419000  0.93180000  1.0
  C  C48  1  0.89695000  0.32884000  0.48245000  1.0
  C  C49  1  0.10305000  0.67116000  0.98245000  1.0
  C  C50  1  0.02904000  0.23914000  0.53910000  1.0
  C  C51  1  0.97096000  0.76087000  0.03911000  1.0
  C  C52  1  0.35394000  0.95025000  0.71782000  1.0
  C  C53  1  0.64606000  0.04976000  0.21782000  1.0
  C  C54  1  0.38642000  0.03933000  0.78384000  1.0
  C  C55  1  0.61358000  0.96067000  0.28384000  1.0
  C  C56  1  0.28098000  0.21881000  0.79411000  1.0
  C  C57  1  0.71902000  0.78119000  0.29411000  1.0
  C  C58  1  0.32692000  0.29374000  0.85676000  1.0
  C  C59  1  0.67307000  0.70626000  0.35676000  1.0
  C  C60  1  0.47240000  0.18871000  0.90740000  1.0
  C  C61  1  0.52759000  0.81128000  0.40740000  1.0
  C  C62  1  0.56638000  0.01013000  0.89308000  1.0
  C  C63  1  0.43362000  0.98986000  0.39308000  1.0
  C  C64  1  0.94630000  0.67161000  0.65993000  1.0
  C  C65  1  0.05369000  0.32839000  0.15992000  1.0
  C  C66  1  0.79626000  0.43875000  0.93244000  1.0
  C  C67  1  0.20371000  0.56125000  0.43245000  1.0
  S  S68  1  0.97200000  0.67252000  0.74843000  1.0
  S  S69  1  0.02801000  0.32747000  0.24842000  1.0
  N  N70  1  0.64158000  0.43572000  0.71356000  1.0
  N  N71  1  0.35843000  0.56427000  0.21356000  1.0
  N  N72  1  0.30790000  0.78167000  0.59644000  1.0
  N  N73  1  0.69211000  0.21833000  0.09645000  1.0
  N  N74  1  0.01426000  0.96820000  0.49546000  1.0
  N  N75  1  0.98574000  0.03181000  0.99546000  1.0
  N  N76  1  0.24276000  0.04574000  0.66252000  1.0
  N  N77  1  0.75724000  0.95426000  0.16253000  1.0
  N  N78  1  0.52607000  0.93693000  0.83264000  1.0
  N  N79  1  0.47393000  0.06306000  0.33264000  1.0
  N  N80  1  0.43842000  0.77364000  0.71779000  1.0
  N  N81  1  0.56160000  0.22636000  0.21779000  1.0
  N  N82  1  0.93307000  0.67619000  0.59500000  1.0
  N  N83  1  0.06694000  0.32381000  0.09500000  1.0
  N  N84  1  0.72756000  0.52458000  0.88022000  1.0
  N  N85  1  0.27242000  0.47541000  0.38023000  1.0
