# generated using pymatgen
data_MnSi2H30(C6O)2
_symmetry_space_group_name_H-M   'P 1'
_cell_length_a   9.71636000
_cell_length_b   10.12840000
_cell_length_c   10.80290000
_cell_angle_alpha   98.55520000
_cell_angle_beta   90.00070000
_cell_angle_gamma   118.66200000
_symmetry_Int_Tables_number   1
_chemical_formula_structural   MnSi2H30(C6O)2
_chemical_formula_sum   'Mn2 Si4 H60 C24 O4'
_cell_volume   919.35025626
_cell_formula_units_Z   2
loop_
 _symmetry_equiv_pos_site_id
 _symmetry_equiv_pos_as_xyz
  1  'x, y, z'
loop_
 _atom_site_type_symbol
 _atom_site_label
 _atom_site_symmetry_multiplicity
 _atom_site_fract_x
 _atom_site_fract_y
 _atom_site_fract_z
 _atom_site_occupancy
  Mn  Mn0  1  0.25216000  0.99996000  0.74998000  1.0
  Mn  Mn1  1  0.74784000  0.00004000  0.25002000  1.0
  Si  Si2  1  0.22564000  0.29474000  0.67314000  1.0
  Si  Si3  1  0.93090000  0.70524000  0.82685000  1.0
  Si  Si4  1  0.77436000  0.70527000  0.32686000  1.0
  Si  Si5  1  0.06910000  0.29476000  0.17316000  1.0
  H  H6  1  0.25622000  0.24339000  0.88157000  1.0
  H  H7  1  0.01281000  0.75658000  0.61838000  1.0
  H  H8  1  0.74378000  0.75661000  0.11843000  1.0
  H  H9  1  0.98719000  0.24342000  0.38162000  1.0
  H  H10  1  0.43323000  0.30442000  0.80549000  1.0
  H  H11  1  0.12880000  0.69553000  0.69449000  1.0
  H  H12  1  0.56678000  0.69558000  0.19451000  1.0
  H  H13  1  0.87120000  0.30447000  0.30551000  1.0
  H  H14  1  0.43965000  0.35225000  0.52721000  1.0
  H  H15  1  0.08741000  0.64772000  0.97278000  1.0
  H  H16  1  0.56035000  0.64775000  0.47279000  1.0
  H  H17  1  0.91259000  0.35228000  0.02722000  1.0
  H  H18  1  0.26608000  0.32579000  0.44803000  1.0
  H  H19  1  0.94029000  0.67420000  0.05195000  1.0
  H  H20  1  0.73392000  0.67421000  0.55197000  1.0
  H  H21  1  0.05970000  0.32580000  0.94805000  1.0
  H  H22  1  0.28009000  0.16447000  0.47763000  1.0
  H  H23  1  0.11560000  0.83550000  0.02235000  1.0
  H  H24  1  0.71991000  0.83553000  0.52237000  1.0
  H  H25  1  0.88440000  0.16451000  0.97765000  1.0
  H  H26  1  0.96629000  0.05740000  0.61053000  1.0
  H  H27  1  0.90890000  0.94261000  0.88949000  1.0
  H  H28  1  0.03371000  0.94260000  0.38947000  1.0
  H  H29  1  0.09110000  0.05739000  0.11052000  1.0
  H  H30  1  0.95664000  0.22168000  0.58286000  1.0
  H  H31  1  0.73496000  0.77832000  0.91715000  1.0
  H  H32  1  0.04337000  0.77832000  0.41714000  1.0
  H  H33  1  0.26504000  0.22169000  0.08285000  1.0
  H  H34  1  0.95043000  0.18051000  0.73819000  1.0
  H  H35  1  0.76993000  0.81949000  0.76183000  1.0
  H  H36  1  0.04957000  0.81949000  0.26181000  1.0
  H  H37  1  0.23007000  0.18051000  0.23817000  1.0
  H  H38  1  0.23006000  0.51936000  0.81043000  1.0
  H  H39  1  0.71068000  0.48063000  0.68955000  1.0
  H  H40  1  0.76994000  0.48064000  0.18957000  1.0
  H  H41  1  0.28932000  0.51937000  0.31045000  1.0
  H  H42  1  0.23517000  0.54373000  0.65031000  1.0
  H  H43  1  0.69143000  0.45627000  0.84968000  1.0
  H  H44  1  0.76483000  0.45627000  0.34968000  1.0
  H  H45  1  0.30858000  0.54373000  0.15032000  1.0
  H  H46  1  0.40797000  0.57329000  0.73516000  1.0
  H  H47  1  0.83466000  0.42672000  0.76483000  1.0
  H  H48  1  0.59203000  0.42671000  0.26484000  1.0
  H  H49  1  0.16534000  0.57328000  0.23517000  1.0
  H  H50  1  0.59267000  0.94152000  0.85409000  1.0
  H  H51  1  0.65113000  0.05850000  0.64588000  1.0
  H  H52  1  0.40733000  0.05848000  0.14591000  1.0
  H  H53  1  0.34886000  0.94150000  0.35412000  1.0
  H  H54  1  0.38904000  0.79938000  0.81970000  1.0
  H  H55  1  0.58966000  0.20063000  0.68028000  1.0
  H  H56  1  0.61096000  0.20062000  0.18030000  1.0
  H  H57  1  0.41034000  0.79937000  0.31972000  1.0
  H  H58  1  0.48048000  0.22588000  0.98490000  1.0
  H  H59  1  0.25467000  0.77414000  0.51511000  1.0
  H  H60  1  0.51951000  0.77412000  0.01509000  1.0
  H  H61  1  0.74533000  0.22586000  0.48489000  1.0
  H  H62  1  0.64746000  0.19873000  0.95327000  1.0
  H  H63  1  0.44879000  0.80127000  0.54677000  1.0
  H  H64  1  0.35253000  0.80127000  0.04673000  1.0
  H  H65  1  0.55121000  0.19873000  0.45323000  1.0
  C  C66  1  0.30441000  0.22829000  0.79114000  1.0
  C  C67  1  0.07608000  0.77163000  0.70882000  1.0
  C  C68  1  0.69559000  0.77171000  0.20886000  1.0
  C  C69  1  0.92392000  0.22837000  0.29118000  1.0
  C  C70  1  0.31051000  0.28264000  0.51688000  1.0
  C  C71  1  0.02788000  0.71733000  0.98310000  1.0
  C  C72  1  0.68949000  0.71736000  0.48312000  1.0
  C  C73  1  0.97212000  0.28267000  0.01691000  1.0
  C  C74  1  0.00382000  0.17756000  0.64880000  1.0
  C  C75  1  0.82627000  0.82244000  0.85122000  1.0
  C  C76  1  0.99618000  0.82244000  0.35120000  1.0
  C  C77  1  0.17373000  0.17756000  0.14878000  1.0
  C  C78  1  0.27902000  0.50249000  0.72132000  1.0
  C  C79  1  0.77650000  0.49750000  0.77867000  1.0
  C  C80  1  0.72098000  0.49751000  0.27868000  1.0
  C  C81  1  0.22350000  0.50250000  0.22133000  1.0
  C  C82  1  0.47379000  0.89731000  0.88770000  1.0
  C  C83  1  0.57647000  0.10270000  0.61227000  1.0
  C  C84  1  0.52620000  0.10269000  0.11230000  1.0
  C  C85  1  0.42353000  0.89729000  0.38773000  1.0
  C  C86  1  0.52736000  0.14663000  0.98443000  1.0
  C  C87  1  0.38076000  0.85337000  0.51560000  1.0
  C  C88  1  0.47264000  0.85337000  0.01557000  1.0
  C  C89  1  0.61924000  0.14663000  0.48440000  1.0
  O  O90  1  0.42598000  0.01292000  0.89361000  1.0
  O  O91  1  0.41307000  0.98710000  0.60638000  1.0
  O  O92  1  0.57402000  0.98708000  0.10638000  1.0
  O  O93  1  0.58693000  0.01290000  0.39362000  1.0
