# generated using pymatgen
data_Zr3H4C26N10ClO36
_symmetry_space_group_name_H-M   'P 1'
_cell_length_a   14.75008397
_cell_length_b   14.75763855
_cell_length_c   14.76100000
_cell_angle_alpha   60.08823829
_cell_angle_beta   89.70016668
_cell_angle_gamma   119.59132698
_symmetry_Int_Tables_number   1
_chemical_formula_structural   Zr3H4C26N10ClO36
_chemical_formula_sum   'Zr6 H8 C52 N20 Cl2 O72'
_cell_volume   2283.07904107
_cell_formula_units_Z   2
loop_
 _symmetry_equiv_pos_site_id
 _symmetry_equiv_pos_as_xyz
  1  'x, y, z'
loop_
 _atom_site_type_symbol
 _atom_site_label
 _atom_site_symmetry_multiplicity
 _atom_site_fract_x
 _atom_site_fract_y
 _atom_site_fract_z
 _atom_site_occupancy
  Zr  Zr0  1  0.62907000  0.50991000  0.61437000  1.0
  Zr  Zr1  1  0.37799000  0.49696000  0.38674000  1.0
  Zr  Zr2  1  0.62066000  0.49952000  0.37998000  1.0
  Zr  Zr3  1  0.38754000  0.50659000  0.62204000  1.0
  Zr  Zr4  1  0.38546000  0.26444000  0.62381000  1.0
  Zr  Zr5  1  0.62106000  0.74214000  0.37665000  1.0
  H  H6  1  0.60193000  0.31891000  0.59855000  1.0
  H  H7  1  0.22038000  0.31293000  0.59700000  1.0
  H  H8  1  0.58232000  0.68233000  0.21669000  1.0
  H  H9  1  0.61110000  0.70418000  0.58305000  1.0
  H  H10  1  0.72695000  0.29031000  0.66978000  1.0
  H  H11  1  0.70995000  0.09196000  0.80345000  1.0
  H  H12  1  0.05634000  0.27616000  0.65819000  1.0
  H  H13  1  0.87443000  0.08322000  0.79430000  1.0
  C  C14  1  0.48481000  0.19966000  0.82091000  1.0
  C  C15  1  0.20797000  0.18931000  0.50297000  1.0
  C  C16  1  0.48670000  0.80351000  0.21241000  1.0
  C  C17  1  0.82525000  0.81825000  0.46686000  1.0
  C  C18  1  0.81202000  0.51389000  0.49274000  1.0
  C  C19  1  0.52957000  0.52540000  0.79434000  1.0
  C  C20  1  0.20323000  0.50864000  0.50269000  1.0
  C  C21  1  0.47675000  0.46654000  0.21576000  1.0
  C  C22  1  0.51845000  0.20143000  0.51281000  1.0
  C  C23  1  0.79285000  0.79783000  0.18233000  1.0
  C  C24  1  0.50010000  0.80276000  0.50718000  1.0
  C  C25  1  0.20144000  0.20894000  0.80495000  1.0
  C  C26  1  0.47418000  0.90333000  0.12326000  1.0
  C  C27  1  0.47037000  0.09761000  0.93444000  1.0
  C  C28  1  0.39756000  0.87455000  0.06927000  1.0
  C  C29  1  0.54374000  0.12601000  0.99119000  1.0
  C  C30  1  0.38747000  0.96761000  0.98574000  1.0
  C  C31  1  0.53901000  0.03063000  0.08879000  1.0
  C  C32  1  0.11504000  0.09298000  0.48964000  1.0
  C  C33  1  0.93471000  0.91518000  0.46328000  1.0
  C  C34  1  0.05500000  0.12767000  0.42228000  1.0
  C  C35  1  0.99091000  0.87844000  0.53416000  1.0
  C  C36  1  0.98083000  0.04672000  0.39600000  1.0
  C  C37  1  0.08665000  0.96939000  0.53634000  1.0
  C  C38  1  0.88572000  0.90234000  0.07260000  1.0
  C  C39  1  0.08826000  0.10799000  0.89138000  1.0
  C  C40  1  0.92764000  0.03028000  0.02719000  1.0
  C  C41  1  0.02945000  0.98528000  0.91536000  1.0
  C  C42  1  0.03370000  0.12809000  0.94984000  1.0
  C  C43  1  0.93856000  0.88293000  0.01181000  1.0
  C  C44  1  0.52695000  0.09854000  0.52676000  1.0
  C  C45  1  0.50773000  0.90277000  0.51739000  1.0
  C  C46  1  0.43828000  0.97037000  0.60276000  1.0
  C  C47  1  0.60811000  0.02310000  0.46441000  1.0
  C  C48  1  0.42129000  0.87847000  0.58691000  1.0
  C  C49  1  0.61552000  0.12244000  0.46129000  1.0
  C  C50  1  0.91290000  0.51262000  0.49530000  1.0
  C  C51  1  0.90200000  0.39975000  0.58152000  1.0
  C  C52  1  0.01481000  0.62007000  0.41617000  1.0
  C  C53  1  0.79939000  0.28798000  0.66496000  1.0
  C  C54  1  0.78983000  0.17698000  0.74075000  1.0
  C  C55  1  0.10210000  0.51012000  0.50166000  1.0
  C  C56  1  0.11116000  0.62024000  0.42246000  1.0
  C  C57  1  0.99768000  0.39680000  0.58133000  1.0
  C  C58  1  0.98475000  0.28051000  0.65976000  1.0
  C  C59  1  0.88314000  0.17248000  0.73678000  1.0
  C  C60  1  0.48162000  0.46456000  0.11434000  1.0
  C  C61  1  0.52903000  0.52984000  0.89471000  1.0
  C  C62  1  0.57121000  0.47410000  0.06621000  1.0
  C  C63  1  0.44035000  0.52168000  0.94232000  1.0
  C  C64  1  0.59975000  0.51633000  0.95559000  1.0
  C  C65  1  0.41240000  0.48078000  0.05217000  1.0
  N  N66  1  0.32858000  0.74339000  0.09629000  1.0
  N  N67  1  0.61803000  0.26030000  0.95514000  1.0
  N  N68  1  0.27993000  0.92436000  0.96510000  1.0
  N  N69  1  0.59502000  0.06659000  0.16000000  1.0
  N  N70  1  0.05975000  0.24480000  0.39010000  1.0
  N  N71  1  0.96111000  0.74490000  0.59683000  1.0
  N  N72  1  0.96990000  0.10441000  0.28402000  1.0
  N  N73  1  0.16051000  0.93095000  0.58030000  1.0
  N  N74  1  0.85402000  0.06442000  0.04839000  1.0
  N  N75  1  0.05267000  0.96536000  0.83084000  1.0
  N  N76  1  0.08963000  0.25173000  0.93685000  1.0
  N  N77  1  0.89518000  0.75530000  0.03731000  1.0
  N  N78  1  0.37790000  0.93391000  0.71052000  1.0
  N  N79  1  0.71041000  0.04491000  0.41533000  1.0
  N  N80  1  0.30639000  0.76166000  0.63646000  1.0
  N  N81  1  0.72457000  0.24932000  0.40118000  1.0
  N  N82  1  0.62563000  0.41929000  0.14028000  1.0
  N  N83  1  0.38771000  0.57759000  0.86712000  1.0
  N  N84  1  0.71697000  0.57515000  0.89612000  1.0
  N  N85  1  0.29824000  0.43132000  0.10831000  1.0
  Cl  Cl86  1  0.23954000  0.75924000  0.33452000  1.0
  Cl  Cl87  1  0.02737000  0.75598000  0.31306000  1.0
  O  O88  1  0.56507000  0.31392000  0.77815000  1.0
  O  O89  1  0.24200000  0.30452000  0.43161000  1.0
  O  O90  1  0.41449000  0.68846000  0.24910000  1.0
  O  O91  1  0.78466000  0.70315000  0.54449000  1.0
  O  O92  1  0.77432000  0.51917000  0.41421000  1.0
  O  O93  1  0.44563000  0.51007000  0.76402000  1.0
  O  O94  1  0.24489000  0.51127000  0.57731000  1.0
  O  O95  1  0.55014000  0.46263000  0.25883000  1.0
  O  O96  1  0.43685000  0.16608000  0.58261000  1.0
  O  O97  1  0.76235000  0.83537000  0.22924000  1.0
  O  O98  1  0.57064000  0.84075000  0.42468000  1.0
  O  O99  1  0.24325000  0.16978000  0.77060000  1.0
  O  O100  1  0.75499000  0.68284000  0.22012000  1.0
  O  O101  1  0.42571000  0.68727000  0.58551000  1.0
  O  O102  1  0.24525000  0.32359000  0.77243000  1.0
  O  O103  1  0.59044000  0.31488000  0.42957000  1.0
  O  O104  1  0.76808000  0.50513000  0.57444000  1.0
  O  O105  1  0.40882000  0.48532000  0.24268000  1.0
  O  O106  1  0.23790000  0.50025000  0.42944000  1.0
  O  O107  1  0.60691000  0.52658000  0.75407000  1.0
  O  O108  1  0.77830000  0.85675000  0.39952000  1.0
  O  O109  1  0.41789000  0.15972000  0.77461000  1.0
  O  O110  1  0.24443000  0.15117000  0.58187000  1.0
  O  O111  1  0.57168000  0.84434000  0.24097000  1.0
  O  O112  1  0.57951000  0.64633000  0.56069000  1.0
  O  O113  1  0.56134000  0.63144000  0.29696000  1.0
  O  O114  1  0.30066000  0.36551000  0.57312000  1.0
  O  O115  1  0.57263000  0.37015000  0.57086000  1.0
  O  O116  1  0.45257000  0.40080000  0.45550000  1.0
  O  O117  1  0.45798000  0.40881000  0.64895000  1.0
  O  O118  1  0.45270000  0.60054000  0.45335000  1.0
  O  O119  1  0.65090000  0.60305000  0.44454000  1.0
  O  O120  1  0.37938000  0.72301000  0.05098000  1.0
  O  O121  1  0.23224000  0.67191000  0.15699000  1.0
  O  O122  1  0.71378000  0.32516000  0.89607000  1.0
  O  O123  1  0.57053000  0.29049000  0.99220000  1.0
  O  O124  1  0.23317000  0.96779000  0.98170000  1.0
  O  O125  1  0.24356000  0.84519000  0.94402000  1.0
  O  O126  1  0.53099000  0.01695000  0.25019000  1.0
  O  O127  1  0.69550000  0.14547000  0.12177000  1.0
  O  O128  1  0.00548000  0.22410000  0.47070000  1.0
  O  O129  1  0.10947000  0.34218000  0.29649000  1.0
  O  O130  1  0.89440000  0.66645000  0.69064000  1.0
  O  O131  1  0.01136000  0.72954000  0.54472000  1.0
  O  O132  1  0.98927000  0.06558000  0.23390000  1.0
  O  O133  1  0.95493000  0.18869000  0.24800000  1.0
  O  O134  1  0.25717000  0.00168000  0.51714000  1.0
  O  O135  1  0.11767000  0.82814000  0.67061000  1.0
  O  O136  1  0.76910000  0.02119000  0.02428000  1.0
  O  O137  1  0.88395000  0.13572000  0.07786000  1.0
  O  O138  1  0.03582000  0.02428000  0.74493000  1.0
  O  O139  1  0.07841000  0.89161000  0.85249000  1.0
  O  O140  1  0.14741000  0.25767000  0.99628000  1.0
  O  O141  1  0.07126000  0.32973000  0.87432000  1.0
  O  O142  1  0.92179000  0.69083000  0.10559000  1.0
  O  O143  1  0.84074000  0.73334000  0.97864000  1.0
  O  O144  1  0.43958000  0.93946000  0.76739000  1.0
  O  O145  1  0.28425000  0.90444000  0.73439000  1.0
  O  O146  1  0.74533000  0.98920000  0.48315000  1.0
  O  O147  1  0.75246000  0.11725000  0.31436000  1.0
  O  O148  1  0.26715000  0.74463000  0.56835000  1.0
  O  O149  1  0.26006000  0.69957000  0.73629000  1.0
  O  O150  1  0.75552000  0.31864000  0.30009000  1.0
  O  O151  1  0.77504000  0.26851000  0.46339000  1.0
  O  O152  1  0.71503000  0.48720000  0.14314000  1.0
  O  O153  1  0.56746000  0.30167000  0.19362000  1.0
  O  O154  1  0.45420000  0.69462000  0.79919000  1.0
  O  O155  1  0.29091000  0.51142000  0.87803000  1.0
  O  O156  1  0.76079000  0.51930000  0.93670000  1.0
  O  O157  1  0.76120000  0.68564000  0.81326000  1.0
  O  O158  1  0.24499000  0.31674000  0.18619000  1.0
  O  O159  1  0.26522000  0.49959000  0.06984000  1.0
