# generated using pymatgen
data_Cd3H12C20(S3N7)2
_symmetry_space_group_name_H-M   'P 1'
_cell_length_a   7.01231000
_cell_length_b   8.45096000
_cell_length_c   13.79620000
_cell_angle_alpha   87.02560000
_cell_angle_beta   84.45650000
_cell_angle_gamma   68.44660000
_symmetry_Int_Tables_number   1
_chemical_formula_structural   Cd3H12C20(S3N7)2
_chemical_formula_sum   'Cd3 H12 C20 S6 N14'
_cell_volume   756.72974590
_cell_formula_units_Z   1
loop_
 _symmetry_equiv_pos_site_id
 _symmetry_equiv_pos_as_xyz
  1  'x, y, z'
loop_
 _atom_site_type_symbol
 _atom_site_label
 _atom_site_symmetry_multiplicity
 _atom_site_fract_x
 _atom_site_fract_y
 _atom_site_fract_z
 _atom_site_occupancy
  Cd  Cd0  1  0.50001000  0.00001000  0.00000000  1.0
  Cd  Cd1  1  0.35864000  0.46706000  0.31604000  1.0
  Cd  Cd2  1  0.64137000  0.53294000  0.68396000  1.0
  H  H3  1  0.07620000  0.62927000  0.55157000  1.0
  H  H4  1  0.92379000  0.37072000  0.44843000  1.0
  H  H5  1  0.78202000  0.95381000  0.55864000  1.0
  H  H6  1  0.21798000  0.04618000  0.44136000  1.0
  H  H7  1  0.70433000  0.03566000  0.36823000  1.0
  H  H8  1  0.29567000  0.96433000  0.63177000  1.0
  H  H9  1  0.24863000  0.51798000  0.07452000  1.0
  H  H10  1  0.75136000  0.48201000  0.92549000  1.0
  H  H11  1  0.95925000  0.70024000  0.97408000  1.0
  H  H12  1  0.04075000  0.29975000  0.02592000  1.0
  H  H13  1  0.63913000  0.95987000  0.22257000  1.0
  H  H14  1  0.36087000  0.04014000  0.77743000  1.0
  C  C15  1  0.00138000  0.71021000  0.49216000  1.0
  C  C16  1  0.99861000  0.28978000  0.50785000  1.0
  C  C17  1  0.85127000  0.87658000  0.49514000  1.0
  C  C18  1  0.14873000  0.12341000  0.50486000  1.0
  C  C19  1  0.80906000  0.92001000  0.39976000  1.0
  C  C20  1  0.19094000  0.07998000  0.60024000  1.0
  C  C21  1  0.93946000  0.76299000  0.24423000  1.0
  C  C22  1  0.06054000  0.23701000  0.75577000  1.0
  C  C23  1  0.11270000  0.61749000  0.10734000  1.0
  C  C24  1  0.88729000  0.38251000  0.89267000  1.0
  C  C25  1  0.95345000  0.71637000  0.05232000  1.0
  C  C26  1  0.04655000  0.28363000  0.94768000  1.0
  C  C27  1  0.50968000  0.29925000  0.53383000  1.0
  C  C28  1  0.49031000  0.70076000  0.46617000  1.0
  C  C29  1  0.24395000  0.15191000  0.21934000  1.0
  C  C30  1  0.75607000  0.84808000  0.78066000  1.0
  C  C31  1  0.60729000  0.30435000  0.10460000  1.0
  C  C32  1  0.39272000  0.69566000  0.89540000  1.0
  C  C33  1  0.77694000  0.86287000  0.18950000  1.0
  C  C34  1  0.22307000  0.13714000  0.81050000  1.0
  S  S35  1  0.68596000  0.40089000  0.18246000  1.0
  S  S36  1  0.31404000  0.59912000  0.81754000  1.0
  S  S37  1  0.22016000  0.00781000  0.15225000  1.0
  S  S38  1  0.77985000  0.99220000  0.84775000  1.0
  S  S39  1  0.53021000  0.26069000  0.65001000  1.0
  S  S40  1  0.46977000  0.73933000  0.34998000  1.0
  N  N41  1  0.50075000  0.32115000  0.44873000  1.0
  N  N42  1  0.49926000  0.67885000  0.55127000  1.0
  N  N43  1  0.54661000  0.23926000  0.04671000  1.0
  N  N44  1  0.45340000  0.76074000  0.95329000  1.0
  N  N45  1  0.26308000  0.25344000  0.26952000  1.0
  N  N46  1  0.73693000  0.74656000  0.73047000  1.0
  N  N47  1  0.10479000  0.64093000  0.20318000  1.0
  N  N48  1  0.89521000  0.35907000  0.79682000  1.0
  N  N49  1  0.04971000  0.65390000  0.40106000  1.0
  N  N50  1  0.95030000  0.34609000  0.59894000  1.0
  N  N51  1  0.93211000  0.78400000  0.34440000  1.0
  N  N52  1  0.06789000  0.21600000  0.65560000  1.0
  N  N53  1  0.78648000  0.83755000  0.09434000  1.0
  N  N54  1  0.21352000  0.16246000  0.90567000  1.0
