# generated using pymatgen
data_Cu2H20C17S(IN2)2
_symmetry_space_group_name_H-M   'P 1'
_cell_length_a   9.89578000
_cell_length_b   9.89578000
_cell_length_c   11.10820000
_cell_angle_alpha   76.63390000
_cell_angle_beta   76.63380000
_cell_angle_gamma   85.21300000
_symmetry_Int_Tables_number   1
_chemical_formula_structural   Cu2H20C17S(IN2)2
_chemical_formula_sum   'Cu4 H40 C34 S2 I4 N8'
_cell_volume   1029.13664357
_cell_formula_units_Z   2
loop_
 _symmetry_equiv_pos_site_id
 _symmetry_equiv_pos_as_xyz
  1  'x, y, z'
loop_
 _atom_site_type_symbol
 _atom_site_label
 _atom_site_symmetry_multiplicity
 _atom_site_fract_x
 _atom_site_fract_y
 _atom_site_fract_z
 _atom_site_occupancy
  Cu  Cu0  1  0.62871000  0.84768000  0.67977000  1.0
  Cu  Cu1  1  0.84768000  0.62871000  0.17977000  1.0
  Cu  Cu2  1  0.82610000  0.72980000  0.77244000  1.0
  Cu  Cu3  1  0.72980000  0.82610000  0.27244000  1.0
  H  H4  1  0.30492000  0.80534000  0.03368000  1.0
  H  H5  1  0.80534000  0.30492000  0.53368000  1.0
  H  H6  1  0.48284000  0.82179000  0.03510000  1.0
  H  H7  1  0.82180000  0.48284000  0.53510000  1.0
  H  H8  1  0.44174000  0.77180000  0.90434000  1.0
  H  H9  1  0.77180000  0.44175000  0.40434000  1.0
  H  H10  1  0.42019000  0.09640000  0.04186000  1.0
  H  H11  1  0.09640000  0.42019000  0.54186000  1.0
  H  H12  1  0.24682000  0.06449000  0.03757000  1.0
  H  H13  1  0.06449000  0.24682000  0.53757000  1.0
  H  H14  1  0.25575000  0.28509000  0.89140000  1.0
  H  H15  1  0.28509000  0.25575000  0.39140000  1.0
  H  H16  1  0.44147000  0.28388000  0.85877000  1.0
  H  H17  1  0.28388000  0.44147000  0.35877000  1.0
  H  H18  1  0.50902000  0.29422000  0.62788000  1.0
  H  H19  1  0.29422000  0.50902000  0.12788000  1.0
  H  H20  1  0.33190000  0.34941000  0.63224000  1.0
  H  H21  1  0.34941000  0.33190000  0.13224000  1.0
  H  H22  1  0.40159000  0.20768000  0.56141000  1.0
  H  H23  1  0.20768000  0.40159000  0.06141000  1.0
  H  H24  1  0.16606000  0.01157000  0.69350000  1.0
  H  H25  1  0.01157000  0.16606000  0.19350000  1.0
  H  H26  1  0.05899000  0.02203000  0.51301000  1.0
  H  H27  1  0.02203000  0.05899000  0.01301000  1.0
  H  H28  1  0.20426000  0.98693000  0.30464000  1.0
  H  H29  1  0.98693000  0.20426000  0.80464000  1.0
  H  H30  1  0.45691000  0.92641000  0.28776000  1.0
  H  H31  1  0.92641000  0.45691000  0.78776000  1.0
  H  H32  1  0.66442000  0.13582000  0.46289000  1.0
  H  H33  1  0.13582000  0.66442000  0.96290000  1.0
  H  H34  1  0.81825000  0.04765000  0.39631000  1.0
  H  H35  1  0.04765000  0.81825000  0.89631000  1.0
  H  H36  1  0.60848000  0.41812000  0.06536000  1.0
  H  H37  1  0.41813000  0.60848000  0.56537000  1.0
  H  H38  1  0.64971000  0.24795000  0.92203000  1.0
  H  H39  1  0.24795000  0.64971000  0.42203000  1.0
  H  H40  1  0.70104000  0.99912000  0.01223000  1.0
  H  H41  1  0.99912000  0.70105000  0.51223000  1.0
  H  H42  1  0.63270000  0.33234000  0.28946000  1.0
  H  H43  1  0.33234000  0.63270000  0.78946000  1.0
  C  C44  1  0.39787000  0.02573000  0.78403000  1.0
  C  C45  1  0.02573000  0.39787000  0.28403000  1.0
  C  C46  1  0.40770000  0.83717000  0.97377000  1.0
  C  C47  1  0.83717000  0.40770000  0.47377000  1.0
  C  C48  1  0.35161000  0.08900000  0.97890000  1.0
  C  C49  1  0.08900000  0.35161000  0.47890000  1.0
  C  C50  1  0.35035000  0.21985000  0.87360000  1.0
  C  C51  1  0.21985000  0.35035000  0.37360000  1.0
  C  C52  1  0.40326000  0.25827000  0.63871000  1.0
  C  C53  1  0.25827000  0.40326000  0.13871000  1.0
  C  C54  1  0.37431000  0.96404000  0.59598000  1.0
  C  C55  1  0.96404000  0.37431000  0.09598000  1.0
  C  C56  1  0.23099000  0.99592000  0.60365000  1.0
  C  C57  1  0.99592000  0.23099000  0.10365000  1.0
  C  C58  1  0.17118000  0.00329000  0.50066000  1.0
  C  C59  1  0.00329000  0.17118000  0.00066000  1.0
  C  C60  1  0.25197000  0.98262000  0.38466000  1.0
  C  C61  1  0.98262000  0.25197000  0.88466000  1.0
  C  C62  1  0.39291000  0.94912000  0.37505000  1.0
  C  C63  1  0.94912000  0.39291000  0.87505000  1.0
  C  C64  1  0.45364000  0.93866000  0.47900000  1.0
  C  C65  1  0.93866000  0.45364000  0.97899000  1.0
  C  C66  1  0.70633000  0.06588000  0.39877000  1.0
  C  C67  1  0.06588000  0.70633000  0.89878000  1.0
  C  C68  1  0.68121000  0.12121000  0.26794000  1.0
  C  C69  1  0.12121000  0.68122000  0.76795000  1.0
  C  C70  1  0.63291000  0.30863000  0.10081000  1.0
  C  C71  1  0.30863000  0.63291000  0.60081000  1.0
  C  C72  1  0.65429000  0.21473000  0.02166000  1.0
  C  C73  1  0.21473000  0.65429000  0.52166000  1.0
  C  C74  1  0.68471000  0.07585000  0.07120000  1.0
  C  C75  1  0.07585000  0.68471000  0.57120000  1.0
  C  C76  1  0.64595000  0.26052000  0.22617000  1.0
  C  C77  1  0.26053000  0.64595000  0.72617000  1.0
  S  S78  1  0.63377000  0.89364000  0.46732000  1.0
  S  S79  1  0.89364000  0.63377000  0.96732000  1.0
  I  I80  1  0.63272000  0.57535000  0.75928000  1.0
  I  I81  1  0.57534000  0.63272000  0.25928000  1.0
  I  I82  1  0.79485000  0.00218000  0.73912000  1.0
  I  I83  1  0.00218000  0.79485000  0.23912000  1.0
  N  N84  1  0.43446000  0.94568000  0.70008000  1.0
  N  N85  1  0.94568000  0.43446000  0.20008000  1.0
  N  N86  1  0.40196000  0.98101000  0.90805000  1.0
  N  N87  1  0.98101000  0.40195000  0.40805000  1.0
  N  N88  1  0.35793000  0.16414000  0.76057000  1.0
  N  N89  1  0.16414000  0.35793000  0.26057000  1.0
  N  N90  1  0.69711000  0.02931000  0.19186000  1.0
  N  N91  1  0.02931000  0.69711000  0.69186000  1.0
