# generated using pymatgen
data_Zn2H7C6N9O4
_symmetry_space_group_name_H-M   'P 1'
_cell_length_a   12.83310000
_cell_length_b   13.90370000
_cell_length_c   16.95790000
_cell_angle_alpha   90.00000000
_cell_angle_beta   90.00000000
_cell_angle_gamma   90.00000000
_symmetry_Int_Tables_number   1
_chemical_formula_structural   Zn2H7C6N9O4
_chemical_formula_sum   'Zn16 H56 C48 N72 O32'
_cell_volume   3025.75693119
_cell_formula_units_Z   8
loop_
 _symmetry_equiv_pos_site_id
 _symmetry_equiv_pos_as_xyz
  1  'x, y, z'
loop_
 _atom_site_type_symbol
 _atom_site_label
 _atom_site_symmetry_multiplicity
 _atom_site_fract_x
 _atom_site_fract_y
 _atom_site_fract_z
 _atom_site_occupancy
  Zn  Zn0  1  0.01823000  0.40833000  0.06965000  1.0
  Zn  Zn1  1  0.56843000  0.52374000  0.09654000  1.0
  Zn  Zn2  1  0.98177000  0.09167000  0.56966000  1.0
  Zn  Zn3  1  0.43157000  0.97626000  0.59653000  1.0
  Zn  Zn4  1  0.51823000  0.59167000  0.43034000  1.0
  Zn  Zn5  1  0.06843000  0.47626000  0.40347000  1.0
  Zn  Zn6  1  0.48177000  0.90833000  0.93034000  1.0
  Zn  Zn7  1  0.93157000  0.02374000  0.90346000  1.0
  Zn  Zn8  1  0.98177000  0.59167000  0.93034000  1.0
  Zn  Zn9  1  0.43157000  0.47626000  0.90346000  1.0
  Zn  Zn10  1  0.01823000  0.90833000  0.43034000  1.0
  Zn  Zn11  1  0.56843000  0.02374000  0.40347000  1.0
  Zn  Zn12  1  0.48177000  0.40833000  0.56966000  1.0
  Zn  Zn13  1  0.93157000  0.52374000  0.59653000  1.0
  Zn  Zn14  1  0.51823000  0.09167000  0.06966000  1.0
  Zn  Zn15  1  0.06843000  0.97626000  0.09653000  1.0
  H  H16  1  0.04540000  0.19681000  0.15591000  1.0
  H  H17  1  0.83245000  0.33937000  0.15169000  1.0
  H  H18  1  0.71400000  0.38801000  0.17674000  1.0
  H  H19  1  0.96359000  0.22884000  0.85694000  1.0
  H  H20  1  0.95264000  0.33852000  0.90495000  1.0
  H  H21  1  0.79464000  0.72228000  0.97609000  1.0
  H  H22  1  0.69420000  0.71606000  0.04242000  1.0
  H  H23  1  0.95460000  0.30319000  0.65591000  1.0
  H  H24  1  0.16755000  0.16063000  0.65169000  1.0
  H  H25  1  0.28600000  0.11199000  0.67674000  1.0
  H  H26  1  0.03641000  0.27116000  0.35694000  1.0
  H  H27  1  0.04736000  0.16148000  0.40495000  1.0
  H  H28  1  0.20536000  0.77772000  0.47609000  1.0
  H  H29  1  0.30580000  0.78394000  0.54242000  1.0
  H  H30  1  0.54540000  0.80319000  0.34409000  1.0
  H  H31  1  0.33245000  0.66062000  0.34831000  1.0
  H  H32  1  0.21400000  0.61199000  0.32326000  1.0
  H  H33  1  0.46359000  0.77116000  0.64306000  1.0
  H  H34  1  0.45264000  0.66148000  0.59505000  1.0
  H  H35  1  0.29464000  0.27772000  0.52390000  1.0
  H  H36  1  0.19420000  0.28394000  0.45758000  1.0
  H  H37  1  0.45460000  0.69681000  0.84409000  1.0
  H  H38  1  0.66755000  0.83937000  0.84831000  1.0
  H  H39  1  0.78600000  0.88801000  0.82326000  1.0
  H  H40  1  0.53641000  0.72884000  0.14306000  1.0
  H  H41  1  0.54736000  0.83852000  0.09505000  1.0
  H  H42  1  0.70536000  0.22228000  0.02391000  1.0
  H  H43  1  0.80580000  0.21606000  0.95759000  1.0
  H  H44  1  0.95460000  0.80319000  0.84409000  1.0
  H  H45  1  0.16755000  0.66062000  0.84831000  1.0
  H  H46  1  0.28600000  0.61199000  0.82326000  1.0
  H  H47  1  0.03641000  0.77116000  0.14306000  1.0
  H  H48  1  0.04736000  0.66148000  0.09505000  1.0
  H  H49  1  0.20536000  0.27772000  0.02391000  1.0
  H  H50  1  0.30580000  0.28394000  0.95759000  1.0
  H  H51  1  0.04540000  0.69681000  0.34409000  1.0
  H  H52  1  0.83246000  0.83937000  0.34831000  1.0
  H  H53  1  0.71400000  0.88801000  0.32326000  1.0
  H  H54  1  0.96359000  0.72884000  0.64306000  1.0
  H  H55  1  0.95264000  0.83852000  0.59505000  1.0
  H  H56  1  0.79464000  0.22228000  0.52391000  1.0
  H  H57  1  0.69420000  0.21606000  0.45758000  1.0
  H  H58  1  0.45460000  0.19681000  0.65591000  1.0
  H  H59  1  0.66754000  0.33938000  0.65170000  1.0
  H  H60  1  0.78600000  0.38801000  0.67674000  1.0
  H  H61  1  0.53641000  0.22884000  0.35694000  1.0
  H  H62  1  0.54736000  0.33852000  0.40495000  1.0
  H  H63  1  0.70536000  0.72228000  0.47609000  1.0
  H  H64  1  0.80580000  0.71606000  0.54242000  1.0
  H  H65  1  0.54540000  0.30319000  0.15591000  1.0
  H  H66  1  0.33246000  0.16063000  0.15169000  1.0
  H  H67  1  0.21400000  0.11199000  0.17674000  1.0
  H  H68  1  0.46359000  0.27116000  0.85694000  1.0
  H  H69  1  0.45264000  0.16148000  0.90495000  1.0
  H  H70  1  0.29464000  0.77772000  0.97609000  1.0
  H  H71  1  0.19420000  0.78394000  0.04242000  1.0
  C  C72  1  0.02207000  0.41563000  0.24088000  1.0
  C  C73  1  0.06776000  0.51481000  0.21711000  1.0
  C  C74  1  0.79115000  0.45554000  0.08883000  1.0
  C  C75  1  0.77992000  0.59335000  0.03067000  1.0
  C  C76  1  0.98667000  0.21902000  0.97393000  1.0
  C  C77  1  0.02668000  0.18860000  0.09407000  1.0
  C  C78  1  0.97793000  0.08437000  0.74088000  1.0
  C  C79  1  0.93224000  0.98519000  0.71711000  1.0
  C  C80  1  0.20885000  0.04446000  0.58882000  1.0
  C  C81  1  0.22008000  0.90665000  0.53067000  1.0
  C  C82  1  0.01333000  0.28098000  0.47393000  1.0
  C  C83  1  0.97332000  0.31140000  0.59407000  1.0
  C  C84  1  0.52207000  0.58437000  0.25912000  1.0
  C  C85  1  0.56776000  0.48519000  0.28289000  1.0
  C  C86  1  0.29115000  0.54446000  0.41117000  1.0
  C  C87  1  0.27992000  0.40665000  0.46933000  1.0
  C  C88  1  0.48667000  0.78098000  0.52607000  1.0
  C  C89  1  0.52668000  0.81140000  0.40593000  1.0
  C  C90  1  0.47793000  0.91563000  0.75912000  1.0
  C  C91  1  0.43224000  0.01481000  0.78289000  1.0
  C  C92  1  0.70885000  0.95554000  0.91118000  1.0
  C  C93  1  0.72008000  0.09335000  0.96933000  1.0
  C  C94  1  0.51333000  0.71902000  0.02607000  1.0
  C  C95  1  0.47332000  0.68860000  0.90593000  1.0
  C  C96  1  0.97793000  0.58437000  0.75912000  1.0
  C  C97  1  0.93224000  0.48519000  0.78289000  1.0
  C  C98  1  0.20885000  0.54446000  0.91117000  1.0
  C  C99  1  0.22008000  0.40665000  0.96933000  1.0
  C  C100  1  0.01333000  0.78098000  0.02607000  1.0
  C  C101  1  0.97332000  0.81140000  0.90593000  1.0
  C  C102  1  0.02207000  0.91563000  0.25912000  1.0
  C  C103  1  0.06776000  0.01481000  0.28289000  1.0
  C  C104  1  0.79115000  0.95554000  0.41117000  1.0
  C  C105  1  0.77992000  0.09335000  0.46933000  1.0
  C  C106  1  0.98667000  0.71902000  0.52607000  1.0
  C  C107  1  0.02668000  0.68860000  0.40593000  1.0
  C  C108  1  0.47793000  0.41562000  0.74088000  1.0
  C  C109  1  0.43224000  0.51481000  0.71711000  1.0
  C  C110  1  0.70885000  0.45554000  0.58883000  1.0
  C  C111  1  0.72008000  0.59335000  0.53067000  1.0
  C  C112  1  0.51333000  0.21902000  0.47393000  1.0
  C  C113  1  0.47332000  0.18860000  0.59407000  1.0
  C  C114  1  0.52208000  0.08437000  0.24088000  1.0
  C  C115  1  0.56776000  0.98519000  0.21711000  1.0
  C  C116  1  0.29115000  0.04446000  0.08883000  1.0
  C  C117  1  0.27992000  0.90665000  0.03067000  1.0
  C  C118  1  0.48667000  0.28098000  0.97393000  1.0
  C  C119  1  0.52668000  0.31140000  0.09407000  1.0
  N  N120  1  0.72519000  0.53221000  0.07907000  1.0
  N  N121  1  0.87880000  0.46655000  0.04749000  1.0
  N  N122  1  0.87203000  0.55622000  0.01044000  1.0
  N  N123  1  0.76842000  0.37652000  0.13336000  1.0
  N  N124  1  0.01873000  0.10424000  0.05837000  1.0
  N  N125  1  0.99314000  0.12262000  0.98036000  1.0
  N  N126  1  0.00842000  0.26266000  0.04391000  1.0
  N  N127  1  0.95054000  0.26499000  0.90855000  1.0
  N  N128  1  0.74305000  0.67977000  0.00518000  1.0
  N  N129  1  0.27481000  0.96779000  0.57907000  1.0
  N  N130  1  0.12120000  0.03345000  0.54749000  1.0
  N  N131  1  0.12797000  0.94378000  0.51044000  1.0
  N  N132  1  0.23158000  0.12348000  0.63336000  1.0
  N  N133  1  0.98127000  0.39576000  0.55837000  1.0
  N  N134  1  0.00686000  0.37738000  0.48036000  1.0
  N  N135  1  0.99157000  0.23734000  0.54391000  1.0
  N  N136  1  0.04946000  0.23501000  0.40855000  1.0
  N  N137  1  0.25695000  0.82024000  0.50518000  1.0
  N  N138  1  0.22519000  0.46779000  0.42093000  1.0
  N  N139  1  0.37880000  0.53345000  0.45251000  1.0
  N  N140  1  0.37203000  0.44377000  0.48956000  1.0
  N  N141  1  0.26842000  0.62347000  0.36664000  1.0
  N  N142  1  0.51873000  0.89576000  0.44163000  1.0
  N  N143  1  0.49314000  0.87738000  0.51964000  1.0
  N  N144  1  0.50842000  0.73734000  0.45609000  1.0
  N  N145  1  0.45054000  0.73501000  0.59145000  1.0
  N  N146  1  0.24305000  0.32023000  0.49481000  1.0
  N  N147  1  0.77481000  0.03221000  0.92093000  1.0
  N  N148  1  0.62120000  0.96655000  0.95251000  1.0
  N  N149  1  0.62797000  0.05622000  0.98956000  1.0
  N  N150  1  0.73158000  0.87652000  0.86664000  1.0
  N  N151  1  0.48127000  0.60424000  0.94163000  1.0
  N  N152  1  0.50686000  0.62262000  0.01964000  1.0
  N  N153  1  0.49158000  0.76266000  0.95609000  1.0
  N  N154  1  0.54946000  0.76499000  0.09145000  1.0
  N  N155  1  0.75695000  0.17976000  0.99482000  1.0
  N  N156  1  0.27481000  0.46779000  0.92093000  1.0
  N  N157  1  0.12120000  0.53345000  0.95251000  1.0
  N  N158  1  0.12797000  0.44377000  0.98956000  1.0
  N  N159  1  0.23158000  0.62348000  0.86664000  1.0
  N  N160  1  0.98127000  0.89576000  0.94163000  1.0
  N  N161  1  0.00686000  0.87738000  0.01964000  1.0
  N  N162  1  0.99158000  0.73734000  0.95609000  1.0
  N  N163  1  0.04946000  0.73501000  0.09145000  1.0
  N  N164  1  0.25695000  0.32023000  0.99482000  1.0
  N  N165  1  0.72519000  0.03221000  0.42093000  1.0
  N  N166  1  0.87881000  0.96655000  0.45251000  1.0
  N  N167  1  0.87203000  0.05623000  0.48955000  1.0
  N  N168  1  0.76842000  0.87652000  0.36664000  1.0
  N  N169  1  0.01873000  0.60424000  0.44163000  1.0
  N  N170  1  0.99314000  0.62262000  0.51964000  1.0
  N  N171  1  0.00843000  0.76266000  0.45609000  1.0
  N  N172  1  0.95054000  0.76499000  0.59145000  1.0
  N  N173  1  0.74305000  0.17977000  0.49481000  1.0
  N  N174  1  0.77481000  0.53222000  0.57907000  1.0
  N  N175  1  0.62119000  0.46655000  0.54749000  1.0
  N  N176  1  0.62797000  0.55623000  0.51045000  1.0
  N  N177  1  0.73158000  0.37653000  0.63336000  1.0
  N  N178  1  0.48127000  0.10424000  0.55837000  1.0
  N  N179  1  0.50686000  0.12262000  0.48036000  1.0
  N  N180  1  0.49157000  0.26266000  0.54391000  1.0
  N  N181  1  0.54946000  0.26499000  0.40855000  1.0
  N  N182  1  0.75695000  0.67977000  0.50519000  1.0
  N  N183  1  0.22519000  0.96779000  0.07907000  1.0
  N  N184  1  0.37881000  0.03345000  0.04749000  1.0
  N  N185  1  0.37203000  0.94378000  0.01044000  1.0
  N  N186  1  0.26842000  0.12348000  0.13336000  1.0
  N  N187  1  0.51873000  0.39576000  0.05837000  1.0
  N  N188  1  0.49314000  0.37738000  0.98036000  1.0
  N  N189  1  0.50843000  0.23734000  0.04391000  1.0
  N  N190  1  0.45054000  0.23501000  0.90855000  1.0
  N  N191  1  0.24305000  0.82024000  0.00518000  1.0
  O  O192  1  0.99585000  0.35851000  0.18651000  1.0
  O  O193  1  0.07048000  0.53182000  0.14361000  1.0
  O  O194  1  0.01251000  0.39600000  0.31371000  1.0
  O  O195  1  0.09659000  0.56856000  0.27280000  1.0
  O  O196  1  0.00415000  0.14149000  0.68651000  1.0
  O  O197  1  0.92952000  0.96818000  0.64361000  1.0
  O  O198  1  0.98750000  0.10400000  0.81371000  1.0
  O  O199  1  0.90341000  0.93144000  0.77280000  1.0
  O  O200  1  0.49584000  0.64149000  0.31349000  1.0
  O  O201  1  0.57048000  0.46818000  0.35639000  1.0
  O  O202  1  0.51250000  0.60400000  0.18629000  1.0
  O  O203  1  0.59659000  0.43144000  0.22720000  1.0
  O  O204  1  0.50415000  0.85851000  0.81349000  1.0
  O  O205  1  0.42952000  0.03182000  0.85639000  1.0
  O  O206  1  0.48749000  0.89600000  0.68629000  1.0
  O  O207  1  0.40341000  0.06856000  0.72720000  1.0
  O  O208  1  0.00415000  0.64149000  0.81349000  1.0
  O  O209  1  0.92952000  0.46818000  0.85639000  1.0
  O  O210  1  0.98749000  0.60400000  0.68629000  1.0
  O  O211  1  0.90341000  0.43144000  0.72720000  1.0
  O  O212  1  0.99585000  0.85851000  0.31349000  1.0
  O  O213  1  0.07048000  0.03182000  0.35639000  1.0
  O  O214  1  0.01250000  0.89600000  0.18629000  1.0
  O  O215  1  0.09659000  0.06856000  0.22720000  1.0
  O  O216  1  0.50415000  0.35851000  0.68651000  1.0
  O  O217  1  0.42952000  0.53182000  0.64361000  1.0
  O  O218  1  0.48750000  0.39600000  0.81371000  1.0
  O  O219  1  0.40341000  0.56856000  0.77281000  1.0
  O  O220  1  0.49585000  0.14149000  0.18651000  1.0
  O  O221  1  0.57048000  0.96818000  0.14361000  1.0
  O  O222  1  0.51251000  0.10400000  0.31371000  1.0
  O  O223  1  0.59659000  0.93144000  0.27280000  1.0
