# generated using pymatgen
data_Zr6H25C52N5O48
_symmetry_space_group_name_H-M   'P 1'
_cell_length_a   14.74489507
_cell_length_b   14.74655037
_cell_length_c   14.75800000
_cell_angle_alpha   60.03463155
_cell_angle_beta   89.93419598
_cell_angle_gamma   60.11199524
_symmetry_Int_Tables_number   1
_chemical_formula_structural   Zr6H25C52N5O48
_chemical_formula_sum   'Zr6 H25 C52 N5 O48'
_cell_volume   2275.36248183
_cell_formula_units_Z   1
loop_
 _symmetry_equiv_pos_site_id
 _symmetry_equiv_pos_as_xyz
  1  'x, y, z'
loop_
 _atom_site_type_symbol
 _atom_site_label
 _atom_site_symmetry_multiplicity
 _atom_site_fract_x
 _atom_site_fract_y
 _atom_site_fract_z
 _atom_site_occupancy
  Zr  Zr0  1  0.37907000  0.48711000  0.62591000  1.0
  Zr  Zr1  1  0.61524000  0.49196000  0.38369000  1.0
  Zr  Zr2  1  0.37645000  0.72820000  0.38630000  1.0
  Zr  Zr3  1  0.61739000  0.25049000  0.62124000  1.0
  Zr  Zr4  1  0.61770000  0.48813000  0.62439000  1.0
  Zr  Zr5  1  0.37607000  0.49001000  0.38459000  1.0
  H  H6  1  0.40695000  0.67463000  0.60384000  1.0
  H  H7  1  0.78143000  0.30131000  0.59526000  1.0
  H  H8  1  0.40088000  0.68054000  0.22090000  1.0
  H  H9  1  0.40273000  0.29994000  0.59802000  1.0
  H  H10  1  0.43298000  0.36800000  0.98218000  1.0
  H  H11  1  0.58965000  0.56755000  0.87905000  1.0
  H  H12  1  0.43004000  0.37491000  0.14891000  1.0
  H  H13  1  0.06583000  0.51815000  0.63781000  1.0
  H  H14  1  0.08479000  0.48907000  0.36123000  1.0
  H  H15  1  0.89661000  0.51640000  0.63564000  1.0
  H  H16  1  0.89453000  0.21826000  0.93875000  1.0
  H  H17  1  0.89771000  0.92797000  0.93232000  1.0
  H  H18  1  0.06532000  0.04825000  0.10570000  1.0
  H  H19  1  0.36361000  0.21887000  0.34434000  1.0
  H  H20  1  0.64628000  0.93332000  0.64266000  1.0
  H  H21  1  0.36603000  0.04558000  0.34805000  1.0
  H  H22  1  0.65445000  0.92419000  0.93309000  1.0
  H  H23  1  0.35110000  0.22127000  0.91415000  1.0
  H  H24  1  0.65095000  0.75939000  0.10396000  1.0
  H  H25  1  0.78974000  0.27378000  0.31405000  1.0
  H  H26  1  0.09787000  0.95913000  0.32421000  1.0
  H  H27  1  0.87724000  0.10844000  0.71435000  1.0
  H  H28  1  0.19180000  0.89717000  0.91230000  1.0
  H  H29  1  0.35486000  0.70123000  0.86570000  1.0
  H  H30  1  0.28942000  0.67811000  0.69694000  1.0
  C  C31  1  0.50828000  0.47150000  0.81756000  1.0
  C  C32  1  0.79697000  0.49691000  0.50194000  1.0
  C  C33  1  0.49824000  0.48473000  0.20312000  1.0
  C  C34  1  0.18843000  0.49945000  0.50214000  1.0
  C  C35  1  0.19495000  0.79584000  0.51148000  1.0
  C  C36  1  0.50182000  0.18267000  0.81032000  1.0
  C  C37  1  0.80442000  0.19026000  0.50220000  1.0
  C  C38  1  0.49937000  0.79495000  0.20555000  1.0
  C  C39  1  0.50073000  0.79295000  0.50038000  1.0
  C  C40  1  0.18449000  0.79403000  0.20838000  1.0
  C  C41  1  0.50198000  0.18744000  0.49563000  1.0
  C  C42  1  0.79234000  0.18417000  0.81816000  1.0
  C  C43  1  0.50154000  0.48072000  0.10395000  1.0
  C  C44  1  0.51175000  0.46654000  0.92123000  1.0
  C  C45  1  0.54561000  0.53490000  0.02663000  1.0
  C  C46  1  0.46643000  0.41267000  0.99664000  1.0
  C  C47  1  0.55478000  0.52511000  0.93784000  1.0
  C  C48  1  0.46365000  0.41765000  0.08849000  1.0
  C  C49  1  0.89698000  0.49919000  0.49971000  1.0
  C  C50  1  0.08595000  0.50203000  0.50075000  1.0
  C  C51  1  0.95116000  0.49204000  0.42276000  1.0
  C  C52  1  0.03294000  0.51052000  0.57785000  1.0
  C  C53  1  0.04438000  0.49363000  0.42208000  1.0
  C  C54  1  0.93940000  0.50917000  0.57689000  1.0
  C  C55  1  0.07867000  0.89288000  0.11279000  1.0
  C  C56  1  0.88639000  0.08353000  0.92504000  1.0
  C  C57  1  0.02867000  0.86160000  0.06304000  1.0
  C  C58  1  0.93245000  0.11751000  0.97492000  1.0
  C  C59  1  0.93351000  0.95453000  0.97093000  1.0
  C  C60  1  0.02735000  0.02291000  0.06774000  1.0
  C  C61  1  0.50468000  0.89320000  0.49818000  1.0
  C  C62  1  0.50433000  0.08608000  0.49357000  1.0
  C  C63  1  0.58364000  0.86370000  0.57979000  1.0
  C  C64  1  0.42549000  0.11844000  0.40995000  1.0
  C  C65  1  0.58481000  0.95777000  0.57839000  1.0
  C  C66  1  0.42631000  0.02256000  0.41242000  1.0
  C  C67  1  0.10684000  0.90436000  0.51144000  1.0
  C  C68  1  0.10689000  0.90746000  0.60739000  1.0
  C  C69  1  0.02114000  0.01050000  0.41007000  1.0
  C  C70  1  0.20301000  0.82519000  0.70097000  1.0
  C  C71  1  0.20464000  0.84356000  0.78414000  1.0
  C  C72  1  0.91457000  0.10013000  0.50534000  1.0
  C  C73  1  0.92327000  0.10880000  0.40747000  1.0
  C  C74  1  0.00996000  0.00904000  0.60321000  1.0
  C  C75  1  0.01490000  0.02690000  0.68868000  1.0
  C  C76  1  0.11138000  0.94604000  0.77799000  1.0
  C  C77  1  0.49984000  0.89640000  0.10524000  1.0
  C  C78  1  0.50305000  0.08231000  0.91359000  1.0
  C  C79  1  0.41622000  0.02731000  0.05046000  1.0
  C  C80  1  0.58789000  0.95238000  0.96697000  1.0
  C  C81  1  0.41683000  0.12011000  0.95602000  1.0
  C  C82  1  0.58603000  0.86081000  0.06181000  1.0
  N  N83  1  0.57215000  0.61851000  0.02876000  1.0
  N  N84  1  0.91354000  0.48056000  0.33817000  1.0
  N  N85  1  0.07679000  0.72796000  0.10149000  1.0
  N  N86  1  0.66983000  0.73080000  0.67456000  1.0
  N  N87  1  0.32076000  0.07597000  0.08830000  1.0
  O  O88  1  0.43264000  0.46775000  0.78067000  1.0
  O  O89  1  0.75585000  0.49877000  0.42462000  1.0
  O  O90  1  0.57539000  0.48448000  0.24243000  1.0
  O  O91  1  0.22788000  0.50066000  0.57843000  1.0
  O  O92  1  0.22613000  0.82510000  0.42507000  1.0
  O  O93  1  0.57780000  0.14543000  0.76977000  1.0
  O  O94  1  0.76312000  0.14903000  0.57602000  1.0
  O  O95  1  0.42185000  0.83159000  0.24490000  1.0
  O  O96  1  0.57729000  0.67686000  0.57667000  1.0
  O  O97  1  0.22713000  0.67741000  0.24637000  1.0
  O  O98  1  0.42270000  0.30324000  0.42134000  1.0
  O  O99  1  0.75442000  0.29992000  0.77674000  1.0
  O  O100  1  0.22560000  0.83313000  0.24406000  1.0
  O  O101  1  0.57821000  0.15011000  0.57311000  1.0
  O  O102  1  0.75950000  0.14552000  0.77278000  1.0
  O  O103  1  0.42040000  0.83131000  0.42667000  1.0
  O  O104  1  0.23437000  0.67940000  0.59171000  1.0
  O  O105  1  0.57564000  0.67929000  0.24372000  1.0
  O  O106  1  0.75273000  0.30799000  0.41792000  1.0
  O  O107  1  0.42313000  0.29889000  0.76959000  1.0
  O  O108  1  0.23057000  0.49359000  0.42804000  1.0
  O  O109  1  0.57871000  0.48323000  0.77213000  1.0
  O  O110  1  0.76006000  0.49296000  0.58122000  1.0
  O  O111  1  0.42018000  0.48621000  0.24074000  1.0
  O  O112  1  0.42961000  0.35366000  0.57117000  1.0
  O  O113  1  0.42737000  0.62650000  0.30134000  1.0
  O  O114  1  0.70026000  0.35463000  0.57098000  1.0
  O  O115  1  0.43030000  0.62283000  0.57486000  1.0
  O  O116  1  0.54543000  0.58940000  0.45535000  1.0
  O  O117  1  0.54749000  0.38832000  0.65330000  1.0
  O  O118  1  0.54500000  0.39232000  0.45343000  1.0
  O  O119  1  0.34878000  0.58704000  0.45710000  1.0
  O  O120  1  0.49651000  0.70973000  0.02778000  1.0
  O  O121  1  0.66433000  0.59554000  0.02574000  1.0
  O  O122  1  0.95122000  0.37119000  0.36591000  1.0
  O  O123  1  0.85216000  0.58069000  0.24547000  1.0
  O  O124  1  0.14382000  0.68568000  0.05927000  1.0
  O  O125  1  0.04139000  0.67226000  0.16769000  1.0
  O  O126  1  0.64479000  0.68618000  0.75830000  1.0
  O  O127  1  0.76191000  0.67838000  0.66497000  1.0
  O  O128  1  0.23865000  0.08505000  0.05316000  1.0
  O  O129  1  0.32868000  0.11088000  0.14687000  1.0
  O  O130  1  0.84203000  0.20331000  0.30803000  1.0
  O  O131  1  0.02129000  0.02463000  0.31242000  1.0
  O  O132  1  0.92674000  0.13182000  0.68167000  1.0
  O  O133  1  0.11744000  0.96606000  0.85780000  1.0
  O  O134  1  0.29753000  0.76705000  0.87338000  1.0
  O  O135  1  0.30398000  0.72767000  0.71390000  1.0
