# generated using pymatgen
data_Al3H7(C16O9)2
_symmetry_space_group_name_H-M   'P 1'
_cell_length_a   12.81720000
_cell_length_b   12.83590000
_cell_length_c   26.85920000
_cell_angle_alpha   90.48280000
_cell_angle_beta   97.66990000
_cell_angle_gamma   60.68600000
_symmetry_Int_Tables_number   1
_chemical_formula_structural   Al3H7(C16O9)2
_chemical_formula_sum   'Al6 H14 C64 O36'
_cell_volume   3810.28056933
_cell_formula_units_Z   2
loop_
 _symmetry_equiv_pos_site_id
 _symmetry_equiv_pos_as_xyz
  1  'x, y, z'
loop_
 _atom_site_type_symbol
 _atom_site_label
 _atom_site_symmetry_multiplicity
 _atom_site_fract_x
 _atom_site_fract_y
 _atom_site_fract_z
 _atom_site_occupancy
  Al  Al0  1  0.81562000  0.58984000  0.48813000  1.0
  Al  Al1  1  0.07191000  0.34660000  0.50425000  1.0
  Al  Al2  1  0.07296000  0.58009000  0.50273000  1.0
  Al  Al3  1  0.84539000  0.07782000  0.02103000  1.0
  Al  Al4  1  0.58944000  0.08384000  0.00394000  1.0
  Al  Al5  1  0.58656000  0.31955000  0.00482000  1.0
  H  H6  1  0.20551000  0.26436000  0.28925000  1.0
  H  H7  1  0.20869000  0.58152000  0.84148000  1.0
  H  H8  1  0.03539000  0.68346000  0.73004000  1.0
  H  H9  1  0.94421000  0.11380000  0.70183000  1.0
  H  H10  1  0.66346000  0.48377000  0.68936000  1.0
  H  H11  1  0.23647000  0.24181000  0.19962000  1.0
  H  H12  1  0.06315000  0.90431000  0.79448000  1.0
  H  H13  1  0.63572000  0.46462000  0.77828000  1.0
  H  H14  1  0.48745000  0.37624000  0.22647000  1.0
  H  H15  1  0.58344000  0.46959000  0.33013000  1.0
  H  H16  1  0.67106000  0.97530000  0.68995000  1.0
  H  H17  1  0.49339000  0.06956000  0.82264000  1.0
  H  H18  1  0.61798000  0.67201000  0.50632000  1.0
  H  H19  1  0.04261000  0.98862000  0.00264000  1.0
  C  C20  1  0.90059000  0.37931000  0.42238000  1.0
  C  C21  1  0.80321000  0.87235000  0.18171000  1.0
  C  C22  1  0.82214000  0.84465000  0.23124000  1.0
  C  C23  1  0.21865000  0.38911000  0.44573000  1.0
  C  C24  1  0.83870000  0.82197000  0.27708000  1.0
  C  C25  1  0.85684000  0.79424000  0.32658000  1.0
  C  C26  1  0.87394000  0.76610000  0.37166000  1.0
  C  C27  1  0.77858000  0.32183000  0.13512000  1.0
  C  C28  1  0.79699000  0.32888000  0.18070000  1.0
  C  C29  1  0.81735000  0.33403000  0.23059000  1.0
  C  C30  1  0.83651000  0.33603000  0.27673000  1.0
  C  C31  1  0.42590000  0.35147000  0.24019000  1.0
  C  C32  1  0.85701000  0.34202000  0.32656000  1.0
  C  C33  1  0.87620000  0.35002000  0.37203000  1.0
  C  C34  1  0.38719000  0.30429000  0.87513000  1.0
  C  C35  1  0.89836000  0.71362000  0.42173000  1.0
  C  C36  1  0.35717000  0.32413000  0.82926000  1.0
  C  C37  1  0.32659000  0.34351000  0.77907000  1.0
  C  C38  1  0.30347000  0.35665000  0.73271000  1.0
  C  C39  1  0.27918000  0.36827000  0.68229000  1.0
  C  C40  1  0.25568000  0.37836000  0.63616000  1.0
  C  C41  1  0.88042000  0.77868000  0.60896000  1.0
  C  C42  1  0.41195000  0.36066000  0.29092000  1.0
  C  C43  1  0.74514000  0.91314000  0.71811000  1.0
  C  C44  1  0.72972000  0.92244000  0.76864000  1.0
  C  C45  1  0.93566000  0.75811000  0.79158000  1.0
  C  C46  1  0.94965000  0.74994000  0.74091000  1.0
  C  C47  1  0.89456000  0.37569000  0.56081000  1.0
  C  C48  1  0.85362000  0.82483000  0.70338000  1.0
  C  C49  1  0.82407000  0.84342000  0.80664000  1.0
  C  C50  1  0.81049000  0.85859000  0.85787000  1.0
  C  C51  1  0.86680000  0.80539000  0.65216000  1.0
  C  C52  1  0.79287000  0.88492000  0.90075000  1.0
  C  C53  1  0.33041000  0.33042000  0.30914000  1.0
  C  C54  1  0.86204000  0.33697000  0.60323000  1.0
  C  C55  1  0.87653000  0.19044000  0.71858000  1.0
  C  C56  1  0.86018000  0.17831000  0.76806000  1.0
  C  C57  1  0.70261000  0.38819000  0.76104000  1.0
  C  C58  1  0.71825000  0.39900000  0.71168000  1.0
  C  C59  1  0.20830000  0.39891000  0.58335000  1.0
  C  C60  1  0.80868000  0.30094000  0.69032000  1.0
  C  C61  1  0.77527000  0.27967000  0.79072000  1.0
  C  C62  1  0.76560000  0.27931000  0.84249000  1.0
  C  C63  1  0.83561000  0.31692000  0.64257000  1.0
  C  C64  1  0.36330000  0.30858000  0.20670000  1.0
  C  C65  1  0.75704000  0.28931000  0.88715000  1.0
  C  C66  1  0.76140000  0.95291000  0.08648000  1.0
  C  C67  1  0.44916000  0.26761000  0.06536000  1.0
  C  C68  1  0.75815000  0.29087000  0.08467000  1.0
  C  C69  1  0.76566000  0.94201000  0.94698000  1.0
  C  C70  1  0.44197000  0.27328000  0.92713000  1.0
  C  C71  1  0.90199000  0.72164000  0.56219000  1.0
  C  C72  1  0.74843000  0.27679000  0.93924000  1.0
  C  C73  1  0.27140000  0.36053000  0.40049000  1.0
  C  C74  1  0.26771000  0.28796000  0.27528000  1.0
  C  C75  1  0.38258000  0.29691000  0.15571000  1.0
  C  C76  1  0.28441000  0.27606000  0.22512000  1.0
  C  C77  1  0.93138000  0.05997000  0.79697000  1.0
  C  C78  1  0.48434000  0.39829000  0.32696000  1.0
  C  C79  1  0.61241000  0.02391000  0.77957000  1.0
  C  C80  1  0.03782000  0.67552000  0.83034000  1.0
  C  C81  1  0.30501000  0.34582000  0.35929000  1.0
  C  C82  1  0.40294000  0.28693000  0.11231000  1.0
  C  C83  1  0.78479000  0.90046000  0.13655000  1.0
  O  O84  1  0.82145000  0.68931000  0.43496000  1.0
  O  O85  1  0.47624000  0.34442000  0.05012000  1.0
  O  O86  1  0.66206000  0.36842000  0.05579000  1.0
  O  O87  1  0.82313000  0.47923000  0.43533000  1.0
  O  O88  1  0.83223000  0.18503000  0.96483000  1.0
  O  O89  1  0.84047000  0.97025000  0.96913000  1.0
  O  O90  1  0.66375000  0.96523000  0.96063000  1.0
  O  O91  1  0.47460000  0.16770000  0.94435000  1.0
  O  O92  1  0.45847000  0.35190000  0.95077000  1.0
  O  O93  1  0.65201000  0.35848000  0.95523000  1.0
  O  O94  1  0.67114000  0.16173000  0.00941000  1.0
  O  O95  1  0.18454000  0.32067000  0.56357000  1.0
  O  O96  1  0.00151000  0.30299000  0.44870000  1.0
  O  O97  1  0.19528000  0.31339000  0.46528000  1.0
  O  O98  1  0.19311000  0.49143000  0.46262000  1.0
  O  O99  1  0.99958000  0.69190000  0.44798000  1.0
  O  O100  1  0.82573000  0.69291000  0.54218000  1.0
  O  O101  1  0.82314000  0.48118000  0.54218000  1.0
  O  O102  1  0.99593000  0.30080000  0.54632000  1.0
  O  O103  1  0.91062000  0.03449000  0.83679000  1.0
  O  O104  1  0.02406000  0.97936000  0.77340000  1.0
  O  O105  1  0.49632000  0.38401000  0.37266000  1.0
  O  O106  1  0.18857000  0.49605000  0.56145000  1.0
  O  O107  1  0.53745000  0.44937000  0.30343000  1.0
  O  O108  1  0.56241000  0.12140000  0.75608000  1.0
  O  O109  1  0.56670000  0.99648000  0.81672000  1.0
  O  O110  1  0.02783000  0.64345000  0.87111000  1.0
  O  O111  1  0.14751000  0.63815000  0.81466000  1.0
  O  O112  1  0.00106000  0.69961000  0.54628000  1.0
  O  O113  1  0.98880000  0.50446000  0.49873000  1.0
  O  O114  1  0.83399000  0.18798000  0.07388000  1.0
  O  O115  1  0.83825000  0.97845000  0.07427000  1.0
  O  O116  1  0.66151000  0.97324000  0.05934000  1.0
  O  O117  1  0.46585000  0.17294000  0.04315000  1.0
  O  O118  1  0.65771000  0.66752000  0.47758000  1.0
  O  O119  1  0.00305000  0.00651000  0.03228000  1.0
