# generated using pymatgen
data_Cu2H10C3(IN)2
_symmetry_space_group_name_H-M   'P 1'
_cell_length_a   7.30073000
_cell_length_b   8.92740690
_cell_length_c   15.27630000
_cell_angle_alpha   88.74749544
_cell_angle_beta   90.02480000
_cell_angle_gamma   65.85801524
_symmetry_Int_Tables_number   1
_chemical_formula_structural   Cu2H10C3(IN)2
_chemical_formula_sum   'Cu8 H40 C12 I8 N8'
_cell_volume   908.30664991
_cell_formula_units_Z   4
loop_
 _symmetry_equiv_pos_site_id
 _symmetry_equiv_pos_as_xyz
  1  'x, y, z'
loop_
 _atom_site_type_symbol
 _atom_site_label
 _atom_site_symmetry_multiplicity
 _atom_site_fract_x
 _atom_site_fract_y
 _atom_site_fract_z
 _atom_site_occupancy
  Cu  Cu0  1  0.39824000  0.06660000  0.17377000  1.0
  Cu  Cu1  1  0.46530000  0.93328000  0.32606000  1.0
  Cu  Cu2  1  0.60177000  0.93340000  0.82623000  1.0
  Cu  Cu3  1  0.53469000  0.06672000  0.67394000  1.0
  Cu  Cu4  1  0.24803000  0.85704000  0.22269000  1.0
  Cu  Cu5  1  0.10585000  0.14292000  0.27744000  1.0
  Cu  Cu6  1  0.75197000  0.14296000  0.77731000  1.0
  Cu  Cu7  1  0.89415000  0.85707000  0.72257000  1.0
  H  H8  1  0.65840000  0.10839000  0.07700000  1.0
  H  H9  1  0.76732000  0.89155000  0.42283000  1.0
  H  H10  1  0.34160000  0.89160000  0.92299000  1.0
  H  H11  1  0.23266000  0.10847000  0.57718000  1.0
  H  H12  1  0.45409000  0.15632000  0.01746000  1.0
  H  H13  1  0.61111000  0.84354000  0.48237000  1.0
  H  H14  1  0.54590000  0.84368000  0.98254000  1.0
  H  H15  1  0.38888000  0.15646000  0.51763000  1.0
  H  H16  1  0.28913000  0.56047000  0.22442000  1.0
  H  H17  1  0.85003000  0.43930000  0.27564000  1.0
  H  H18  1  0.71088000  0.43953000  0.77557000  1.0
  H  H19  1  0.14998000  0.56070000  0.72436000  1.0
  H  H20  1  0.04940000  0.67899000  0.21744000  1.0
  H  H21  1  0.72889000  0.32071000  0.28269000  1.0
  H  H22  1  0.95061000  0.32101000  0.78256000  1.0
  H  H23  1  0.27110000  0.67930000  0.71731000  1.0
  H  H24  1  0.54443000  0.38808000  0.04086000  1.0
  H  H25  1  0.93360000  0.61179000  0.45876000  1.0
  H  H26  1  0.45556000  0.61192000  0.95913000  1.0
  H  H27  1  0.06640000  0.38821000  0.54125000  1.0
  H  H28  1  0.50919000  0.36221000  0.15334000  1.0
  H  H29  1  0.87146000  0.63772000  0.34636000  1.0
  H  H30  1  0.49082000  0.63779000  0.84665000  1.0
  H  H31  1  0.12854000  0.36229000  0.65365000  1.0
  H  H32  1  0.14558000  0.40609000  0.11547000  1.0
  H  H33  1  0.55226000  0.59364000  0.38461000  1.0
  H  H34  1  0.85442000  0.59391000  0.88453000  1.0
  H  H35  1  0.44775000  0.40636000  0.61539000  1.0
  H  H36  1  0.19207000  0.44972000  0.00624000  1.0
  H  H37  1  0.64292000  0.55031000  0.49382000  1.0
  H  H38  1  0.80792000  0.55028000  0.99376000  1.0
  H  H39  1  0.35707000  0.44969000  0.50617000  1.0
  H  H40  1  0.29066000  0.67494000  0.06584000  1.0
  H  H41  1  0.96649000  0.32498000  0.43420000  1.0
  H  H42  1  0.70933000  0.32507000  0.93416000  1.0
  H  H43  1  0.03353000  0.67501000  0.56581000  1.0
  H  H44  1  0.03460000  0.71429000  0.07209000  1.0
  H  H45  1  0.74986000  0.28551000  0.42808000  1.0
  H  H46  1  0.96541000  0.28570000  0.92791000  1.0
  H  H47  1  0.25015000  0.71449000  0.57192000  1.0
  C  C48  1  0.45765000  0.34822000  0.08757000  1.0
  C  C49  1  0.80652000  0.65168000  0.41222000  1.0
  C  C50  1  0.54235000  0.65178000  0.91242000  1.0
  C  C51  1  0.19348000  0.34832000  0.58778000  1.0
  C  C52  1  0.23455000  0.45501000  0.07500000  1.0
  C  C53  1  0.69035000  0.54491000  0.42503000  1.0
  C  C54  1  0.76544000  0.54500000  0.92500000  1.0
  C  C55  1  0.30966000  0.45510000  0.57496000  1.0
  C  C56  1  0.18396000  0.63302000  0.09726000  1.0
  C  C57  1  0.81772000  0.36685000  0.40283000  1.0
  C  C58  1  0.81605000  0.36698000  0.90274000  1.0
  C  C59  1  0.18229000  0.63315000  0.59717000  1.0
  I  I60  1  0.03505000  0.10265000  0.10895000  1.0
  I  I61  1  0.13826000  0.89725000  0.39114000  1.0
  I  I62  1  0.96495000  0.89736000  0.89105000  1.0
  I  I63  1  0.86173000  0.10275000  0.60886000  1.0
  I  I64  1  0.64383000  0.74670000  0.17731000  1.0
  I  I65  1  0.39077000  0.25337000  0.32286000  1.0
  I  I66  1  0.35616000  0.25331000  0.82270000  1.0
  I  I67  1  0.60923000  0.74663000  0.67714000  1.0
  N  N68  1  0.50478000  0.17160000  0.07794000  1.0
  N  N69  1  0.67703000  0.82825000  0.42192000  1.0
  N  N70  1  0.49519000  0.82840000  0.92205000  1.0
  N  N71  1  0.32295000  0.17174000  0.57809000  1.0
  N  N72  1  0.18653000  0.66228000  0.19221000  1.0
  N  N73  1  0.84936000  0.33747000  0.30786000  1.0
  N  N74  1  0.81349000  0.33771000  0.80779000  1.0
  N  N75  1  0.15065000  0.66253000  0.69213000  1.0
