# generated using pymatgen
data_H6PbC11I2N2O
_symmetry_space_group_name_H-M   'P 1'
_cell_length_a   8.12434000
_cell_length_b   9.58462000
_cell_length_c   9.58430000
_cell_angle_alpha   112.73800000
_cell_angle_beta   94.46230000
_cell_angle_gamma   94.44820000
_symmetry_Int_Tables_number   1
_chemical_formula_structural   H6PbC11I2N2O
_chemical_formula_sum   'H12 Pb2 C22 I4 N4 O2'
_cell_volume   681.51083402
_cell_formula_units_Z   2
loop_
 _symmetry_equiv_pos_site_id
 _symmetry_equiv_pos_as_xyz
  1  'x, y, z'
loop_
 _atom_site_type_symbol
 _atom_site_label
 _atom_site_symmetry_multiplicity
 _atom_site_fract_x
 _atom_site_fract_y
 _atom_site_fract_z
 _atom_site_occupancy
  H  H0  1  0.12618000  0.59077000  0.89653000  1.0
  H  H1  1  0.62614000  0.89652000  0.59068000  1.0
  H  H2  1  0.00356000  0.42046000  0.01185000  1.0
  H  H3  1  0.50353000  0.01195000  0.42039000  1.0
  H  H4  1  0.18063000  0.36021000  0.20493000  1.0
  H  H5  1  0.68061000  0.20501000  0.36016000  1.0
  H  H6  1  0.89891000  0.57353000  0.41749000  1.0
  H  H7  1  0.39886000  0.41751000  0.57367000  1.0
  H  H8  1  0.07526000  0.76650000  0.35673000  1.0
  H  H9  1  0.57516000  0.35671000  0.76671000  1.0
  H  H10  1  0.95189000  0.88186000  0.18668000  1.0
  H  H11  1  0.45185000  0.18657000  0.88190000  1.0
  Pb  Pb12  1  0.53867000  0.83676000  0.94027000  1.0
  Pb  Pb13  1  0.03856000  0.94018000  0.83663000  1.0
  C  C14  1  0.20165000  0.56421000  0.98036000  1.0
  C  C15  1  0.70161000  0.98045000  0.56420000  1.0
  C  C16  1  0.13361000  0.46846000  0.04510000  1.0
  C  C17  1  0.63359000  0.04521000  0.46842000  1.0
  C  C18  1  0.23155000  0.43376000  0.15214000  1.0
  C  C19  1  0.73154000  0.15226000  0.43376000  1.0
  C  C20  1  0.39583000  0.49969000  0.18879000  1.0
  C  C21  1  0.89580000  0.18884000  0.49968000  1.0
  C  C22  1  0.45203000  0.59771000  0.12037000  1.0
  C  C23  1  0.95202000  0.12038000  0.59766000  1.0
  C  C24  1  0.62666000  0.65724000  0.17983000  1.0
  C  C25  1  0.12666000  0.17983000  0.65725000  1.0
  C  C26  1  0.68320000  0.58903000  0.27802000  1.0
  C  C27  1  0.18317000  0.27800000  0.58907000  1.0
  C  C28  1  0.84757000  0.62603000  0.34382000  1.0
  C  C29  1  0.34752000  0.34376000  0.62609000  1.0
  C  C30  1  0.94512000  0.73314000  0.30893000  1.0
  C  C31  1  0.44509000  0.30882000  0.73320000  1.0
  C  C32  1  0.87667000  0.79775000  0.21317000  1.0
  C  C33  1  0.37667000  0.21306000  0.79777000  1.0
  C  C34  1  0.53953000  0.48712000  0.29079000  1.0
  C  C35  1  0.03950000  0.29077000  0.48714000  1.0
  I  I36  1  0.27879000  0.03189000  0.15104000  1.0
  I  I37  1  0.77890000  0.15126000  0.03192000  1.0
  I  I38  1  0.79986000  0.62566000  0.74589000  1.0
  I  I39  1  0.29999000  0.74588000  0.62574000  1.0
  N  N40  1  0.36112000  0.62998000  0.01754000  1.0
  N  N41  1  0.86116000  0.01755000  0.62992000  1.0
  N  N42  1  0.71713000  0.76022000  0.14747000  1.0
  N  N43  1  0.21712000  0.14741000  0.76019000  1.0
  O  O44  1  0.53942000  0.41054000  0.36744000  1.0
  O  O45  1  0.03939000  0.36749000  0.41060000  1.0
