# generated using pymatgen
data_H14RuC20N(O3F2)2
_symmetry_space_group_name_H-M   'P 1'
_cell_length_a   10.18680000
_cell_length_b   10.51870000
_cell_length_c   11.06080000
_cell_angle_alpha   76.74250000
_cell_angle_beta   74.29000000
_cell_angle_gamma   63.09880000
_symmetry_Int_Tables_number   1
_chemical_formula_structural   H14RuC20N(O3F2)2
_chemical_formula_sum   'H28 Ru2 C40 N2 O12 F8'
_cell_volume   1009.54520683
_cell_formula_units_Z   2
loop_
 _symmetry_equiv_pos_site_id
 _symmetry_equiv_pos_as_xyz
  1  'x, y, z'
loop_
 _atom_site_type_symbol
 _atom_site_label
 _atom_site_symmetry_multiplicity
 _atom_site_fract_x
 _atom_site_fract_y
 _atom_site_fract_z
 _atom_site_occupancy
  H  H0  1  0.79350000  0.35891000  0.76730000  1.0
  H  H1  1  0.20651000  0.64108000  0.23269000  1.0
  H  H2  1  0.86510000  0.51100000  0.85785000  1.0
  H  H3  1  0.13491000  0.48899000  0.14214000  1.0
  H  H4  1  0.76993000  0.54820000  0.08506000  1.0
  H  H5  1  0.23009000  0.45177000  0.91494000  1.0
  H  H6  1  0.85454000  0.23033000  0.23755000  1.0
  H  H7  1  0.14545000  0.76967000  0.76246000  1.0
  H  H8  1  0.80028000  0.01838000  0.34978000  1.0
  H  H9  1  0.19974000  0.98160000  0.65022000  1.0
  H  H10  1  0.00600000  0.79606000  0.43131000  1.0
  H  H11  1  0.99403000  0.20393000  0.56870000  1.0
  H  H12  1  0.17250000  0.32192000  0.35275000  1.0
  H  H13  1  0.82752000  0.67808000  0.64725000  1.0
  H  H14  1  0.06855000  0.50408000  0.69684000  1.0
  H  H15  1  0.93146000  0.49592000  0.30315000  1.0
  H  H16  1  0.39088000  0.22673000  0.37935000  1.0
  H  H17  1  0.60914000  0.77327000  0.62065000  1.0
  H  H18  1  0.47738000  0.11768000  0.50800000  1.0
  H  H19  1  0.52264000  0.88233000  0.49200000  1.0
  H  H20  1  0.31146000  0.11245000  0.48676000  1.0
  H  H21  1  0.68856000  0.88755000  0.51324000  1.0
  H  H22  1  0.20827000  0.17326000  0.72144000  1.0
  H  H23  1  0.79175000  0.82674000  0.27856000  1.0
  H  H24  1  0.39289000  0.16394000  0.70724000  1.0
  H  H25  1  0.60712000  0.83607000  0.29275000  1.0
  H  H26  1  0.23332000  0.31870000  0.75527000  1.0
  H  H27  1  0.76669000  0.68131000  0.24473000  1.0
  Ru  Ru28  1  0.42038000  0.44474000  0.51507000  1.0
  Ru  Ru29  1  0.57963000  0.55527000  0.48492000  1.0
  C  C30  1  0.59701000  0.44253000  0.26085000  1.0
  C  C31  1  0.40299000  0.55748000  0.73914000  1.0
  C  C32  1  0.65090000  0.41484000  0.12637000  1.0
  C  C33  1  0.34911000  0.58515000  0.87361000  1.0
  C  C34  1  0.61451000  0.32765000  0.07446000  1.0
  C  C35  1  0.38548000  0.67235000  0.92554000  1.0
  C  C36  1  0.66610000  0.30980000  0.94621000  1.0
  C  C37  1  0.33391000  0.69019000  0.05379000  1.0
  C  C38  1  0.75668000  0.37368000  0.86722000  1.0
  C  C39  1  0.24333000  0.62630000  0.13278000  1.0
  C  C40  1  0.79540000  0.45877000  0.91861000  1.0
  C  C41  1  0.20462000  0.54121000  0.08139000  1.0
  C  C42  1  0.74287000  0.47946000  0.04538000  1.0
  C  C43  1  0.25714000  0.52053000  0.95462000  1.0
  C  C44  1  0.28829000  0.74753000  0.41892000  1.0
  C  C45  1  0.71173000  0.25248000  0.58107000  1.0
  C  C46  1  0.17071000  0.88254000  0.36929000  1.0
  C  C47  1  0.82930000  0.11747000  0.63071000  1.0
  C  C48  1  0.19725000  0.00339000  0.30728000  1.0
  C  C49  1  0.80275000  0.99664000  0.69273000  1.0
  C  C50  1  0.08217000  0.12590000  0.26147000  1.0
  C  C51  1  0.91782000  0.87411000  0.73854000  1.0
  C  C52  1  0.93995000  0.13282000  0.27586000  1.0
  C  C53  1  0.06004000  0.86719000  0.72415000  1.0
  C  C54  1  0.91219000  0.01343000  0.33760000  1.0
  C  C55  1  0.08782000  0.98656000  0.66241000  1.0
  C  C56  1  0.02598000  0.89016000  0.38307000  1.0
  C  C57  1  0.97405000  0.10984000  0.61694000  1.0
  C  C58  1  0.13940000  0.39605000  0.53067000  1.0
  C  C59  1  0.86061000  0.60394000  0.46932000  1.0
  C  C60  1  0.09830000  0.39932000  0.41837000  1.0
  C  C61  1  0.90171000  0.60068000  0.58163000  1.0
  C  C62  1  0.03829000  0.49877000  0.61162000  1.0
  C  C63  1  0.96172000  0.50123000  0.38837000  1.0
  C  C64  1  0.36941000  0.18173000  0.47835000  1.0
  C  C65  1  0.63061000  0.81828000  0.52165000  1.0
  C  C66  1  0.27799000  0.23438000  0.69418000  1.0
  C  C67  1  0.72202000  0.76562000  0.30582000  1.0
  C  C68  1  0.25277000  0.06925000  0.96980000  1.0
  C  C69  1  0.74708000  0.93073000  0.03023000  1.0
  N  N70  1  0.28244000  0.29639000  0.56007000  1.0
  N  N71  1  0.71757000  0.70361000  0.43993000  1.0
  O  O72  1  0.49719000  0.40117000  0.33047000  1.0
  O  O73  1  0.50281000  0.59883000  0.66953000  1.0
  O  O74  1  0.65528000  0.50722000  0.30033000  1.0
  O  O75  1  0.34472000  0.49280000  0.69967000  1.0
  O  O76  1  0.25761000  0.63740000  0.45278000  1.0
  O  O77  1  0.74242000  0.36261000  0.54720000  1.0
  O  O78  1  0.41207000  0.74679000  0.42561000  1.0
  O  O79  1  0.58795000  0.25322000  0.57439000  1.0
  O  O80  1  0.34307000  0.10685000  0.97573000  1.0
  O  O81  1  0.65673000  0.89320000  0.02428000  1.0
  O  O82  1  0.16107000  0.03361000  0.96294000  1.0
  O  O83  1  0.83883000  0.96629000  0.03711000  1.0
  F  F84  1  0.53061000  0.25720000  0.14455000  1.0
  F  F85  1  0.46937000  0.74282000  0.85544000  1.0
  F  F86  1  0.62352000  0.22831000  0.89947000  1.0
  F  F87  1  0.37649000  0.77169000  0.10052000  1.0
  F  F88  1  0.33295000  0.00640000  0.28740000  1.0
  F  F89  1  0.66704000  0.99363000  0.71261000  1.0
  F  F90  1  0.11265000  0.24024000  0.19893000  1.0
  F  F91  1  0.88732000  0.75979000  0.80110000  1.0
