# generated using pymatgen
data_ZnH8C8(N3O)2
_symmetry_space_group_name_H-M   'P 1'
_cell_length_a   10.84360000
_cell_length_b   12.49370000
_cell_length_c   16.88410000
_cell_angle_alpha   89.99990000
_cell_angle_beta   94.85990000
_cell_angle_gamma   89.99990000
_symmetry_Int_Tables_number   1
_chemical_formula_structural   ZnH8C8(N3O)2
_chemical_formula_sum   'Zn8 H64 C64 N48 O16'
_cell_volume   2279.17831193
_cell_formula_units_Z   8
loop_
 _symmetry_equiv_pos_site_id
 _symmetry_equiv_pos_as_xyz
  1  'x, y, z'
loop_
 _atom_site_type_symbol
 _atom_site_label
 _atom_site_symmetry_multiplicity
 _atom_site_fract_x
 _atom_site_fract_y
 _atom_site_fract_z
 _atom_site_occupancy
  Zn  Zn0  1  0.72559000  0.73308000  0.59492000  1.0
  Zn  Zn1  1  0.77441000  0.23308000  0.90508000  1.0
  Zn  Zn2  1  0.27441000  0.26692000  0.40508000  1.0
  Zn  Zn3  1  0.22559000  0.76692000  0.09492000  1.0
  Zn  Zn4  1  0.20611000  0.74494000  0.45602000  1.0
  Zn  Zn5  1  0.29389000  0.24494000  0.04398000  1.0
  Zn  Zn6  1  0.79389000  0.25506000  0.54398000  1.0
  Zn  Zn7  1  0.70611000  0.75506000  0.95602000  1.0
  H  H8  1  0.06296000  0.64146000  0.20072000  1.0
  H  H9  1  0.43704000  0.14146000  0.29928000  1.0
  H  H10  1  0.93704000  0.35854000  0.79928000  1.0
  H  H11  1  0.56296000  0.85854000  0.70072000  1.0
  H  H12  1  0.00233000  0.68556000  0.28950000  1.0
  H  H13  1  0.49767000  0.18556000  0.21050000  1.0
  H  H14  1  0.99767000  0.31444000  0.71050000  1.0
  H  H15  1  0.50233000  0.81444000  0.78950000  1.0
  H  H16  1  0.11846000  0.58573000  0.29353000  1.0
  H  H17  1  0.38154000  0.08573000  0.20647000  1.0
  H  H18  1  0.88154000  0.41427000  0.70647000  1.0
  H  H19  1  0.61846000  0.91427000  0.79353000  1.0
  H  H20  1  0.47524000  0.95650000  0.35274000  1.0
  H  H21  1  0.02476000  0.45650000  0.14726000  1.0
  H  H22  1  0.52476000  0.04350000  0.64726000  1.0
  H  H23  1  0.97524000  0.54350000  0.85274000  1.0
  H  H24  1  0.34334000  0.98937000  0.40201000  1.0
  H  H25  1  0.15666000  0.48937000  0.09799000  1.0
  H  H26  1  0.65666000  0.01063000  0.59799000  1.0
  H  H27  1  0.84335000  0.51063000  0.90201000  1.0
  H  H28  1  0.48950000  0.66602000  0.66224000  1.0
  H  H29  1  0.01050000  0.16602000  0.83776000  1.0
  H  H30  1  0.51050000  0.33398000  0.33776000  1.0
  H  H31  1  0.98950000  0.83398000  0.16224000  1.0
  H  H32  1  0.35971000  0.62131000  0.59871000  1.0
  H  H33  1  0.14029000  0.12131000  0.90129000  1.0
  H  H34  1  0.64029000  0.37869000  0.40129000  1.0
  H  H35  1  0.85971000  0.87869000  0.09871000  1.0
  H  H36  1  0.34671000  0.73748000  0.65736000  1.0
  H  H37  1  0.15329000  0.23748000  0.84264000  1.0
  H  H38  1  0.65329000  0.26252000  0.34264000  1.0
  H  H39  1  0.84671000  0.76252000  0.15736000  1.0
  H  H40  1  0.00616000  0.97647000  0.68806000  1.0
  H  H41  1  0.49384000  0.47647000  0.81194000  1.0
  H  H42  1  0.99384000  0.02353000  0.31194000  1.0
  H  H43  1  0.50616000  0.52353000  0.18806000  1.0
  H  H44  1  0.85712000  0.91637000  0.68797000  1.0
  H  H45  1  0.64288000  0.41637000  0.81203000  1.0
  H  H46  1  0.14288000  0.08363000  0.31203000  1.0
  H  H47  1  0.35712000  0.58363000  0.18797000  1.0
  H  H48  1  0.88196000  0.02666000  0.62414000  1.0
  H  H49  1  0.61804000  0.52666000  0.87587000  1.0
  H  H50  1  0.11804000  0.97334000  0.37586000  1.0
  H  H51  1  0.38196000  0.47334000  0.12413000  1.0
  H  H52  1  0.82923000  0.69206000  0.40465000  1.0
  H  H53  1  0.67077000  0.19206000  0.09535000  1.0
  H  H54  1  0.17077000  0.30794000  0.59535000  1.0
  H  H55  1  0.32923000  0.80794000  0.90465000  1.0
  H  H56  1  0.97167000  0.62256000  0.42082000  1.0
  H  H57  1  0.52833000  0.12255000  0.07918000  1.0
  H  H58  1  0.02833000  0.37745000  0.57918000  1.0
  H  H59  1  0.47167000  0.87745000  0.92082000  1.0
  H  H60  1  0.62724000  0.37816000  0.64290000  1.0
  H  H61  1  0.87277000  0.87816000  0.85710000  1.0
  H  H62  1  0.37276000  0.62184000  0.35710000  1.0
  H  H63  1  0.12723000  0.12184000  0.14290000  1.0
  H  H64  1  0.52973000  0.47996000  0.59949000  1.0
  H  H65  1  0.97027000  0.97997000  0.90051000  1.0
  H  H66  1  0.47027000  0.52003000  0.40051000  1.0
  H  H67  1  0.02973000  0.02003000  0.09949000  1.0
  H  H68  1  0.63939000  0.51139000  0.68040000  1.0
  H  H69  1  0.86061000  0.01139000  0.81960000  1.0
  H  H70  1  0.36061000  0.48861000  0.31960000  1.0
  H  H71  1  0.13939000  0.98860000  0.18040000  1.0
  C  C72  1  0.08696000  0.66008000  0.26348000  1.0
  C  C73  1  0.41304000  0.16008000  0.23652000  1.0
  C  C74  1  0.91304000  0.33992000  0.73652000  1.0
  C  C75  1  0.58696000  0.83992000  0.76348000  1.0
  C  C76  1  0.18370000  0.74418000  0.27231000  1.0
  C  C77  1  0.31630000  0.24418000  0.22769000  1.0
  C  C78  1  0.81630000  0.25582000  0.72769000  1.0
  C  C79  1  0.68370000  0.75582000  0.77231000  1.0
  C  C80  1  0.32006000  0.85616000  0.32239000  1.0
  C  C81  1  0.17994000  0.35616000  0.17761000  1.0
  C  C82  1  0.67994000  0.14384000  0.67761000  1.0
  C  C83  1  0.82006000  0.64385000  0.82239000  1.0
  C  C84  1  0.39807000  0.92171000  0.38166000  1.0
  C  C85  1  0.10193000  0.42171000  0.11834000  1.0
  C  C86  1  0.60193000  0.07829000  0.61834000  1.0
  C  C87  1  0.89807000  0.57829000  0.88166000  1.0
  C  C88  1  0.44721000  0.85979000  0.45334000  1.0
  C  C89  1  0.05279000  0.35979000  0.04666000  1.0
  C  C90  1  0.55279000  0.14021000  0.54666000  1.0
  C  C91  1  0.94721000  0.64021000  0.95334000  1.0
  C  C92  1  0.45024000  0.75996000  0.55720000  1.0
  C  C93  1  0.04976000  0.25996000  0.94280000  1.0
  C  C94  1  0.54976000  0.24004000  0.44280000  1.0
  C  C95  1  0.95024000  0.74004000  0.05720000  1.0
  C  C96  1  0.41014000  0.69211000  0.62255000  1.0
  C  C97  1  0.08986000  0.19211000  0.87745000  1.0
  C  C98  1  0.58986000  0.30789000  0.37745000  1.0
  C  C99  1  0.91014000  0.80789000  0.12255000  1.0
  C  C100  1  0.92319000  0.95320000  0.65045000  1.0
  C  C101  1  0.57681000  0.45320000  0.84955000  1.0
  C  C102  1  0.07681000  0.04680000  0.34955000  1.0
  C  C103  1  0.42319000  0.54680000  0.15045000  1.0
  C  C104  1  0.95594000  0.87727000  0.58782000  1.0
  C  C105  1  0.54406000  0.37727000  0.91218000  1.0
  C  C106  1  0.04406000  0.12273000  0.41218000  1.0
  C  C107  1  0.45594000  0.62273000  0.08782000  1.0
  C  C108  1  0.94432000  0.74757000  0.50354000  1.0
  C  C109  1  0.55568000  0.24757000  0.99646000  1.0
  C  C110  1  0.05568000  0.25243000  0.49646000  1.0
  C  C111  1  0.44432000  0.75243000  0.00354000  1.0
  C  C112  1  0.89602000  0.65793000  0.45090000  1.0
  C  C113  1  0.60398000  0.15793000  0.04910000  1.0
  C  C114  1  0.10398000  0.34207000  0.54910000  1.0
  C  C115  1  0.39602000  0.84207000  0.95090000  1.0
  C  C116  1  0.83465000  0.56986000  0.49307000  1.0
  C  C117  1  0.66535000  0.06986000  0.00693000  1.0
  C  C118  1  0.16535000  0.43014000  0.50693000  1.0
  C  C119  1  0.33465000  0.93014000  0.99307000  1.0
  C  C120  1  0.71759000  0.48759000  0.56984000  1.0
  C  C121  1  0.78241000  0.98759000  0.93016000  1.0
  C  C122  1  0.28241000  0.51241000  0.43016000  1.0
  C  C123  1  0.21759000  0.01241000  0.06984000  1.0
  C  C124  1  0.62361000  0.46289000  0.62632000  1.0
  C  C125  1  0.87639000  0.96289000  0.87368000  1.0
  C  C126  1  0.37639000  0.53711000  0.37368000  1.0
  C  C127  1  0.12361000  0.03711000  0.12632000  1.0
  C  C128  1  0.74693000  0.97488000  0.37363000  1.0
  C  C129  1  0.75308000  0.47488000  0.12637000  1.0
  C  C130  1  0.25308000  0.02512000  0.62636000  1.0
  C  C131  1  0.24693000  0.52512000  0.87363000  1.0
  C  C132  1  0.59826000  0.88312000  0.19512000  1.0
  C  C133  1  0.90174000  0.38311000  0.30488000  1.0
  C  C134  1  0.40174000  0.11689000  0.80488000  1.0
  C  C135  1  0.09826000  0.61689000  0.69512000  1.0
  N  N136  1  0.87899000  0.79742000  0.55756000  1.0
  N  N137  1  0.62101000  0.29742000  0.94245000  1.0
  N  N138  1  0.12101000  0.20258000  0.44244000  1.0
  N  N139  1  0.37899000  0.70258000  0.05756000  1.0
  N  N140  1  0.06259000  0.87807000  0.55479000  1.0
  N  N141  1  0.43741000  0.37807000  0.94521000  1.0
  N  N142  1  0.93741000  0.12193000  0.44521000  1.0
  N  N143  1  0.56259000  0.62193000  0.05479000  1.0
  N  N144  1  0.05493000  0.79460000  0.50121000  1.0
  N  N145  1  0.44507000  0.29460000  0.99879000  1.0
  N  N146  1  0.94507000  0.20540000  0.49879000  1.0
  N  N147  1  0.55493000  0.70540000  0.00121000  1.0
  N  N148  1  0.74892000  0.58705000  0.54681000  1.0
  N  N149  1  0.75108000  0.08705000  0.95319000  1.0
  N  N150  1  0.25108000  0.41296000  0.45319000  1.0
  N  N151  1  0.24892000  0.91295000  0.04681000  1.0
  N  N152  1  0.85596000  0.46653000  0.48224000  1.0
  N  N153  1  0.64404000  0.96653000  0.01776000  1.0
  N  N154  1  0.14404000  0.53347000  0.51776000  1.0
  N  N155  1  0.35596000  0.03347000  0.98224000  1.0
  N  N156  1  0.78143000  0.41437000  0.53201000  1.0
  N  N157  1  0.71857000  0.91437000  0.96799000  1.0
  N  N158  1  0.21857000  0.58563000  0.46799000  1.0
  N  N159  1  0.28143000  0.08562000  0.03201000  1.0
  N  N160  1  0.56598000  0.79420000  0.54945000  1.0
  N  N161  1  0.93402000  0.29420000  0.95055000  1.0
  N  N162  1  0.43402000  0.20580000  0.45055000  1.0
  N  N163  1  0.06598000  0.70580000  0.04945000  1.0
  N  N164  1  0.56472000  0.85827000  0.48257000  1.0
  N  N165  1  0.93528000  0.35827000  0.01743000  1.0
  N  N166  1  0.43528000  0.14173000  0.51743000  1.0
  N  N167  1  0.06472000  0.64173000  0.98257000  1.0
  N  N168  1  0.37282000  0.79965000  0.49748000  1.0
  N  N169  1  0.12718000  0.29965000  0.00252000  1.0
  N  N170  1  0.62718000  0.20035000  0.50252000  1.0
  N  N171  1  0.87282000  0.70035000  0.99748000  1.0
  N  N172  1  0.23014000  0.78639000  0.34251000  1.0
  N  N173  1  0.26986000  0.28639000  0.15749000  1.0
  N  N174  1  0.76986000  0.21361000  0.65749000  1.0
  N  N175  1  0.73014000  0.71361000  0.84251000  1.0
  N  N176  1  0.32930000  0.85900000  0.24452000  1.0
  N  N177  1  0.17070000  0.35900000  0.25548000  1.0
  N  N178  1  0.67070000  0.14100000  0.75548000  1.0
  N  N179  1  0.82930000  0.64100000  0.74452000  1.0
  N  N180  1  0.24153000  0.78721000  0.21279000  1.0
  N  N181  1  0.25847000  0.28721000  0.28721000  1.0
  N  N182  1  0.75847000  0.21279000  0.78721000  1.0
  N  N183  1  0.74153000  0.71279000  0.71279000  1.0
  O  O184  1  0.81645000  0.90279000  0.37164000  1.0
  O  O185  1  0.68355000  0.40279000  0.12836000  1.0
  O  O186  1  0.18355000  0.09721000  0.62836000  1.0
  O  O187  1  0.31645000  0.59721000  0.87164000  1.0
  O  O188  1  0.67486000  0.04517000  0.37169000  1.0
  O  O189  1  0.82514000  0.54517000  0.12831000  1.0
  O  O190  1  0.32514000  0.95483000  0.62831000  1.0
  O  O191  1  0.17486000  0.45483000  0.87169000  1.0
  O  O192  1  0.59371000  0.97693000  0.19954000  1.0
  O  O193  1  0.90629000  0.47693000  0.30046000  1.0
  O  O194  1  0.40629000  0.02307000  0.80046000  1.0
  O  O195  1  0.09371000  0.52307000  0.69954000  1.0
  O  O196  1  0.60672000  0.78942000  0.19263000  1.0
  O  O197  1  0.89328000  0.28942000  0.30737000  1.0
  O  O198  1  0.39328000  0.21058000  0.80737000  1.0
  O  O199  1  0.10671000  0.71058000  0.69263000  1.0
