# generated using pymatgen
data_Zn4H6C24S6O19F2
_symmetry_space_group_name_H-M   'P 1'
_cell_length_a   19.63730000
_cell_length_b   19.64910000
_cell_length_c   33.40390000
_cell_angle_alpha   78.97330000
_cell_angle_beta   78.94760000
_cell_angle_gamma   63.93460000
_symmetry_Int_Tables_number   1
_chemical_formula_structural   Zn4H6C24S6O19F2
_chemical_formula_sum   'Zn16 H24 C96 S24 O76 F8'
_cell_volume   11279.36537225
_cell_formula_units_Z   4
loop_
 _symmetry_equiv_pos_site_id
 _symmetry_equiv_pos_as_xyz
  1  'x, y, z'
loop_
 _atom_site_type_symbol
 _atom_site_label
 _atom_site_symmetry_multiplicity
 _atom_site_fract_x
 _atom_site_fract_y
 _atom_site_fract_z
 _atom_site_occupancy
  Zn  Zn0  1  0.59817000  0.94357000  0.52290000  1.0
  Zn  Zn1  1  0.51594000  0.01512000  0.43956000  1.0
  Zn  Zn2  1  0.43719000  0.94217000  0.51805000  1.0
  Zn  Zn3  1  0.44696000  0.10128000  0.51919000  1.0
  Zn  Zn4  1  0.65079000  0.30242000  0.72855000  1.0
  Zn  Zn5  1  0.80876000  0.31082000  0.73434000  1.0
  Zn  Zn6  1  0.73475000  0.22900000  0.81058000  1.0
  Zn  Zn7  1  0.80749000  0.15142000  0.72681000  1.0
  Zn  Zn8  1  0.23414000  0.73364000  0.31090000  1.0
  Zn  Zn9  1  0.30220000  0.65143000  0.22889000  1.0
  Zn  Zn10  1  0.15158000  0.80782000  0.22911000  1.0
  Zn  Zn11  1  0.31487000  0.80737000  0.23352000  1.0
  Zn  Zn12  1  0.94109000  0.43770000  0.01660000  1.0
  Zn  Zn13  1  0.94550000  0.59799000  0.02272000  1.0
  Zn  Zn14  1  0.09958000  0.44429000  0.02243000  1.0
  Zn  Zn15  1  0.01811000  0.51611000  0.94052000  1.0
  H  H16  1  0.54862000  0.25001000  0.64996000  1.0
  H  H17  1  0.70223000  0.99791000  0.59966000  1.0
  H  H18  1  0.30163000  0.79639000  0.40104000  1.0
  H  H19  1  0.44472000  0.95671000  0.35104000  1.0
  H  H20  1  0.75708000  0.53605000  0.66006000  1.0
  H  H21  1  0.29830000  0.51722000  0.39951000  1.0
  H  H22  1  0.02039000  0.79361000  0.39904000  1.0
  H  H23  1  0.03713000  0.05071000  0.65815000  1.0
  H  H24  1  0.84923000  0.34905000  0.95117000  1.0
  H  H25  1  0.89708000  0.40207000  0.79985000  1.0
  H  H26  1  0.23007000  0.44978000  0.85251000  1.0
  H  H27  1  0.85521000  0.83861000  0.95869000  1.0
  H  H28  1  0.99670000  0.70159000  0.10092000  1.0
  H  H29  1  0.25248000  0.55534000  0.14802000  1.0
  H  H30  1  0.71884000  0.69701000  0.09762000  1.0
  H  H31  1  0.99022000  0.21342000  0.09502000  1.0
  H  H32  1  0.37398000  0.75745000  0.63236000  1.0
  H  H33  1  0.57186000  0.13378000  0.33983000  1.0
  H  H34  1  0.68205000  0.90224000  0.31214000  1.0
  H  H35  1  0.27170000  0.24295000  0.63966000  1.0
  H  H36  1  0.55703000  0.17699000  0.93480000  1.0
  H  H37  1  0.84492000  0.87166000  0.74677000  1.0
  H  H38  1  0.56449000  0.43497000  0.19409000  1.0
  H  H39  1  0.30726000  0.07591000  0.20504000  1.0
  C  C40  1  0.68327000  0.93180000  0.44069000  1.0
  C  C41  1  0.42597000  0.93295000  0.43296000  1.0
  C  C42  1  0.55916000  0.81736000  0.56291000  1.0
  C  C43  1  0.31806000  0.06618000  0.56178000  1.0
  C  C44  1  0.57046000  0.07063000  0.56732000  1.0
  C  C45  1  0.44271000  0.18031000  0.43505000  1.0
  C  C46  1  0.68814000  0.43105000  0.68745000  1.0
  C  C47  1  0.81576000  0.31909000  0.82063000  1.0
  C  C48  1  0.56704000  0.30718000  0.81099000  1.0
  C  C49  1  0.81436000  0.06335000  0.80899000  1.0
  C  C50  1  0.68266000  0.17937000  0.68020000  1.0
  C  C51  1  0.93566000  0.19105000  0.68995000  1.0
  C  C52  1  0.30381000  0.56717000  0.31253000  1.0
  C  C53  1  0.17752000  0.68641000  0.18072000  1.0
  C  C54  1  0.06634000  0.81516000  0.31244000  1.0
  C  C55  1  0.19235000  0.93424000  0.19088000  1.0
  C  C56  1  0.32441000  0.81590000  0.31909000  1.0
  C  C57  1  0.43244000  0.68598000  0.18811000  1.0
  C  C58  1  0.81542000  0.56066000  0.06033000  1.0
  C  C59  1  0.06962000  0.56806000  0.07043000  1.0
  C  C60  1  0.06328000  0.31347000  0.06009000  1.0
  C  C61  1  0.18495000  0.44086000  0.93941000  1.0
  C  C62  1  0.93124000  0.43166000  0.93029000  1.0
  C  C63  1  0.94141000  0.68402000  0.94000000  1.0
  C  C64  1  0.59725000  0.09947000  0.59676000  1.0
  C  C65  1  0.65477000  0.14954000  0.65177000  1.0
  C  C66  1  0.55488000  0.17043000  0.61184000  1.0
  C  C67  1  0.69671000  0.07814000  0.63711000  1.0
  C  C68  1  0.58273000  0.19487000  0.63873000  1.0
  C  C69  1  0.66867000  0.05356000  0.61040000  1.0
  C  C70  1  0.39796000  0.90333000  0.40454000  1.0
  C  C71  1  0.35070000  0.84732000  0.34749000  1.0
  C  C72  1  0.35681000  0.85816000  0.41774000  1.0
  C  C73  1  0.39130000  0.89305000  0.33433000  1.0
  C  C74  1  0.33362000  0.83098000  0.38993000  1.0
  C  C75  1  0.41412000  0.92071000  0.36207000  1.0
  C  C76  1  0.54432000  0.69312000  0.59709000  1.0
  C  C77  1  0.70138000  0.55185000  0.65088000  1.0
  C  C78  1  0.58282000  0.74031000  0.58611000  1.0
  C  C79  1  0.66258000  0.50567000  0.66190000  1.0
  C  C80  1  0.65832000  0.61973000  0.62701000  1.0
  C  C81  1  0.58749000  0.62387000  0.62047000  1.0
  C  C82  1  0.41725000  0.27231000  0.36666000  1.0
  C  C83  1  0.32313000  0.47387000  0.37865000  1.0
  C  C84  1  0.41337000  0.25432000  0.40924000  1.0
  C  C85  1  0.32837000  0.49106000  0.33635000  1.0
  C  C86  1  0.35472000  0.39405000  0.38963000  1.0
  C  C87  1  0.38348000  0.35239000  0.35539000  1.0
  C  C88  1  0.77264000  0.92508000  0.37180000  1.0
  C  C89  1  0.97566000  0.82513000  0.37924000  1.0
  C  C90  1  0.75728000  0.91100000  0.41436000  1.0
  C  C91  1  0.99066000  0.83951000  0.33712000  1.0
  C  C92  1  0.89620000  0.85680000  0.39158000  1.0
  C  C93  1  0.85234000  0.89438000  0.35852000  1.0
  C  C94  1  0.19821000  0.16485000  0.60083000  1.0
  C  C95  1  0.05463000  0.09748000  0.65115000  1.0
  C  C96  1  0.24257000  0.09421000  0.58657000  1.0
  C  C97  1  0.01071000  0.16786000  0.66493000  1.0
  C  C98  1  0.12275000  0.09686000  0.62774000  1.0
  C  C99  1  0.12929000  0.16667000  0.62436000  1.0
  C  C100  1  0.84402000  0.34756000  0.84959000  1.0
  C  C101  1  0.90188000  0.40403000  0.90143000  1.0
  C  C102  1  0.83153000  0.33353000  0.89271000  1.0
  C  C103  1  0.91423000  0.41806000  0.85832000  1.0
  C  C104  1  0.85971000  0.36102000  0.91795000  1.0
  C  C105  1  0.88619000  0.39056000  0.83308000  1.0
  C  C106  1  0.47812000  0.32832000  0.88030000  1.0
  C  C107  1  0.27504000  0.42339000  0.87239000  1.0
  C  C108  1  0.49348000  0.33478000  0.83755000  1.0
  C  C109  1  0.26045000  0.41622000  0.91478000  1.0
  C  C110  1  0.35446000  0.39185000  0.86000000  1.0
  C  C111  1  0.39846000  0.36118000  0.89329000  1.0
  C  C112  1  0.88476000  0.91497000  0.82061000  1.0
  C  C113  1  0.87553000  0.82967000  0.92667000  1.0
  C  C114  1  0.84226000  0.98731000  0.83318000  1.0
  C  C115  1  0.91762000  0.75814000  0.91404000  1.0
  C  C116  1  0.86396000  0.88654000  0.89251000  1.0
  C  C117  1  0.89744000  0.85696000  0.85459000  1.0
  C  C118  1  0.14880000  0.65843000  0.15176000  1.0
  C  C119  1  0.09929000  0.59742000  0.09818000  1.0
  C  C120  1  0.07682000  0.69860000  0.13758000  1.0
  C  C121  1  0.17165000  0.55757000  0.11204000  1.0
  C  C122  1  0.05267000  0.66908000  0.11142000  1.0
  C  C123  1  0.19598000  0.58730000  0.13804000  1.0
  C  C124  1  0.54698000  0.59192000  0.14383000  1.0
  C  C125  1  0.69808000  0.65300000  0.10105000  1.0
  C  C126  1  0.50584000  0.65989000  0.16130000  1.0
  C  C127  1  0.73923000  0.58511000  0.08427000  1.0
  C  C128  1  0.62796000  0.65536000  0.12250000  1.0
  C  C129  1  0.61719000  0.58910000  0.12155000  1.0
  C  C130  1  0.21174000  0.05196000  0.14915000  1.0
  C  C131  1  0.04873000  0.19551000  0.10061000  1.0
  C  C132  1  0.17054000  0.00819000  0.16468000  1.0
  C  C133  1  0.08988000  0.23863000  0.08524000  1.0
  C  C134  1  0.09351000  0.12752000  0.12375000  1.0
  C  C135  1  0.16775000  0.12048000  0.12556000  1.0
  S  S136  1  0.67122000  0.70002000  0.60390000  1.0
  S  S137  1  0.57460000  0.54339000  0.64332000  1.0
  S  S138  1  0.36747000  0.33443000  0.43517000  1.0
  S  S139  1  0.37043000  0.41155000  0.30970000  1.0
  S  S140  1  0.83937000  0.86112000  0.43797000  1.0
  S  S141  1  0.90941000  0.89137000  0.31224000  1.0
  S  S142  1  0.20040000  0.03080000  0.60160000  1.0
  S  S143  1  0.05096000  0.23336000  0.64984000  1.0
  S  S144  1  0.41136000  0.38119000  0.81351000  1.0
  S  S145  1  0.34183000  0.37233000  0.93987000  1.0
  S  S146  1  0.81854000  0.98455000  0.88595000  1.0
  S  S147  1  0.94369000  0.75896000  0.86118000  1.0
  S  S148  1  0.55174000  0.72022000  0.15008000  1.0
  S  S149  1  0.69334000  0.52428000  0.09384000  1.0
  S  S150  1  0.07926000  0.04997000  0.15044000  1.0
  S  S151  1  0.18243000  0.19761000  0.09846000  1.0
  S  S152  1  0.45570000  0.70852000  0.58263000  1.0
  S  S153  1  0.45495000  0.20942000  0.32803000  1.0
  S  S154  1  0.70608000  0.98015000  0.33658000  1.0
  S  S155  1  0.21629000  0.24789000  0.58989000  1.0
  S  S156  1  0.54454000  0.29088000  0.91687000  1.0
  S  S157  1  0.92657000  0.89186000  0.77017000  1.0
  S  S158  1  0.51821000  0.51776000  0.14418000  1.0
  S  S159  1  0.30895000  0.02775000  0.15293000  1.0
  O  O160  1  0.50075000  0.99963000  0.50012000  1.0
  O  O161  1  0.68589000  0.92604000  0.47924000  1.0
  O  O162  1  0.45703000  0.97808000  0.41592000  1.0
  O  O163  1  0.48972000  0.85238000  0.55651000  1.0
  O  O164  1  0.62470000  0.95224000  0.42275000  1.0
  O  O165  1  0.61145000  0.84188000  0.55199000  1.0
  O  O166  1  0.41744000  0.91065000  0.47116000  1.0
  O  O167  1  0.33833000  0.00297000  0.54773000  1.0
  O  O168  1  0.51316000  0.11821000  0.54951000  1.0
  O  O169  1  0.35589000  0.10608000  0.55725000  1.0
  O  O170  1  0.60852000  0.00012000  0.56244000  1.0
  O  O171  1  0.49232000  0.12230000  0.41811000  1.0
  O  O172  1  0.41602000  0.18176000  0.47315000  1.0
  O  O173  1  0.74984000  0.24888000  0.75013000  1.0
  O  O174  1  0.64452000  0.39638000  0.69258000  1.0
  O  O175  1  0.83479000  0.33464000  0.78237000  1.0
  O  O176  1  0.62524000  0.25993000  0.82816000  1.0
  O  O177  1  0.75095000  0.40820000  0.70223000  1.0
  O  O178  1  0.56467000  0.33276000  0.77276000  1.0
  O  O179  1  0.77568000  0.28221000  0.83615000  1.0
  O  O180  1  0.78714000  0.11982000  0.82991000  1.0
  O  O181  1  0.75261000  0.14394000  0.68578000  1.0
  O  O182  1  0.81878000  0.06583000  0.77034000  1.0
  O  O183  1  0.63330000  0.23880000  0.69618000  1.0
  O  O184  1  0.90514000  0.25900000  0.69982000  1.0
  O  O185  1  0.90802000  0.14142000  0.69940000  1.0
  O  O186  1  0.25036000  0.75074000  0.25068000  1.0
  O  O187  1  0.27661000  0.62484000  0.33252000  1.0
  O  O188  1  0.24558000  0.64419000  0.18883000  1.0
  O  O189  1  0.06626000  0.83544000  0.27372000  1.0
  O  O190  1  0.31248000  0.56830000  0.27348000  1.0
  O  O191  1  0.12421000  0.77631000  0.33185000  1.0
  O  O192  1  0.13236000  0.74871000  0.19502000  1.0
  O  O193  1  0.14609000  0.90280000  0.19482000  1.0
  O  O194  1  0.35002000  0.82114000  0.28121000  1.0
  O  O195  1  0.25337000  0.90940000  0.20730000  1.0
  O  O196  1  0.27830000  0.78575000  0.33577000  1.0
  O  O197  1  0.40479000  0.63742000  0.20221000  1.0
  O  O198  1  0.40451000  0.75554000  0.19513000  1.0
  O  O199  1  0.00039000  0.49939000  0.00076000  1.0
  O  O200  1  0.84206000  0.49558000  0.04723000  1.0
  O  O201  1  0.00608000  0.61452000  0.05740000  1.0
  O  O202  1  0.11178000  0.34275000  0.04956000  1.0
  O  O203  1  0.84789000  0.60613000  0.05497000  1.0
  O  O204  1  0.99492000  0.34230000  0.05117000  1.0
  O  O205  1  0.10915000  0.49988000  0.06226000  1.0
  O  O206  1  0.18475000  0.43096000  0.97839000  1.0
  O  O207  1  0.96488000  0.47484000  0.91475000  1.0
  O  O208  1  0.12697000  0.46934000  0.91968000  1.0
  O  O209  1  0.91974000  0.40920000  0.96843000  1.0
  O  O210  1  0.92133000  0.68471000  0.97864000  1.0
  O  O211  1  0.98036000  0.62551000  0.92085000  1.0
  O  O212  1  0.39405000  0.77934000  0.60655000  1.0
  O  O213  1  0.45341000  0.73390000  0.53972000  1.0
  O  O214  1  0.44251000  0.64208000  0.60138000  1.0
  O  O215  1  0.54415000  0.18494000  0.32475000  1.0
  O  O216  1  0.43779000  0.14398000  0.34055000  1.0
  O  O217  1  0.43160000  0.25820000  0.29058000  1.0
  O  O218  1  0.65875000  0.93135000  0.33572000  1.0
  O  O219  1  0.65201000  0.04903000  0.35319000  1.0
  O  O220  1  0.74970000  0.98260000  0.29684000  1.0
  O  O221  1  0.29036000  0.22479000  0.61260000  1.0
  O  O222  1  0.23849000  0.26178000  0.54693000  1.0
  O  O223  1  0.15260000  0.30516000  0.61167000  1.0
  O  O224  1  0.58466000  0.20023000  0.91333000  1.0
  O  O225  1  0.60293000  0.31792000  0.90467000  1.0
  O  O226  1  0.49896000  0.30102000  0.95651000  1.0
  O  O227  1  0.85432000  0.91707000  0.74556000  1.0
  O  O228  1  0.96551000  0.93854000  0.75095000  1.0
  O  O229  1  0.96497000  0.80955000  0.77395000  1.0
  O  O230  1  0.51645000  0.48070000  0.19167000  1.0
  O  O231  1  0.44178000  0.54917000  0.13431000  1.0
  O  O232  1  0.58066000  0.46175000  0.12108000  1.0
  O  O233  1  0.31063000  0.02626000  0.20117000  1.0
  O  O234  1  0.35574000  0.95192000  0.14306000  1.0
  O  O235  1  0.32341000  0.09208000  0.13137000  1.0
  F  F236  1  0.48444000  0.21727000  0.60116000  1.0
  F  F237  1  0.76587000  0.02990000  0.64906000  1.0
  F  F238  1  0.33755000  0.84005000  0.45810000  1.0
  F  F239  1  0.40888000  0.91266000  0.29385000  1.0
  F  F240  1  0.79206000  0.29213000  0.91127000  1.0
  F  F241  1  0.95468000  0.45873000  0.83963000  1.0
  F  F242  1  0.02807000  0.76820000  0.14885000  1.0
  F  F243  1  0.22067000  0.48871000  0.10021000  1.0
