# generated using pymatgen
data_TbH19C24N2O7
_symmetry_space_group_name_H-M   'P 1'
_cell_length_a   8.11961000
_cell_length_b   12.76360000
_cell_length_c   14.16140000
_cell_angle_alpha   114.60800000
_cell_angle_beta   94.61040000
_cell_angle_gamma   100.06800000
_symmetry_Int_Tables_number   1
_chemical_formula_structural   TbH19C24N2O7
_chemical_formula_sum   'Tb2 H38 C48 N4 O14'
_cell_volume   1294.40717170
_cell_formula_units_Z   2
loop_
 _symmetry_equiv_pos_site_id
 _symmetry_equiv_pos_as_xyz
  1  'x, y, z'
loop_
 _atom_site_type_symbol
 _atom_site_label
 _atom_site_symmetry_multiplicity
 _atom_site_fract_x
 _atom_site_fract_y
 _atom_site_fract_z
 _atom_site_occupancy
  Tb  Tb0  1  0.27747000  0.55070000  0.50189000  1.0
  Tb  Tb1  1  0.72252000  0.44930000  0.49810000  1.0
  H  H2  1  0.34857000  0.48005000  0.77968000  1.0
  H  H3  1  0.38378000  0.36393000  0.88218000  1.0
  H  H4  1  0.84572000  0.21269000  0.80339000  1.0
  H  H5  1  0.81138000  0.33429000  0.70513000  1.0
  H  H6  1  0.41912000  0.14956000  0.15997000  1.0
  H  H7  1  0.27255000  0.07528000  0.97650000  1.0
  H  H8  1  0.18540000  0.42350000  0.04957000  1.0
  H  H9  1  0.32015000  0.49235000  0.23462000  1.0
  H  H10  1  0.28405000  0.86711000  0.66451000  1.0
  H  H11  1  0.35343000  0.08256000  0.79552000  1.0
  H  H12  1  0.83534000  0.05154000  0.84448000  1.0
  H  H13  1  0.76373000  0.83987000  0.70778000  1.0
  H  H14  1  0.65316000  0.72898000  0.50651000  1.0
  H  H15  1  0.86463000  0.84623000  0.49114000  1.0
  H  H16  1  0.82550000  0.97956000  0.49042000  1.0
  H  H17  1  0.83484000  0.85777000  0.36956000  1.0
  H  H18  1  0.37094000  0.85470000  0.39655000  1.0
  H  H19  1  0.49229000  0.82577000  0.29243000  1.0
  H  H20  1  0.54221000  0.96883000  0.40214000  1.0
  H  H21  1  0.65143000  0.51994000  0.22032000  1.0
  H  H22  1  0.61620000  0.63605000  0.11782000  1.0
  H  H23  1  0.15424000  0.78731000  0.19660000  1.0
  H  H24  1  0.18862000  0.66571000  0.29486000  1.0
  H  H25  1  0.58090000  0.85045000  0.84002000  1.0
  H  H26  1  0.72745000  0.92472000  0.02349000  1.0
  H  H27  1  0.81460000  0.57649000  0.95043000  1.0
  H  H28  1  0.67987000  0.50765000  0.76537000  1.0
  H  H29  1  0.71596000  0.13290000  0.33550000  1.0
  H  H30  1  0.64656000  0.91746000  0.20449000  1.0
  H  H31  1  0.16463000  0.94844000  0.15550000  1.0
  H  H32  1  0.23627000  0.16012000  0.29220000  1.0
  H  H33  1  0.34686000  0.27100000  0.49349000  1.0
  H  H34  1  0.13537000  0.15376000  0.50886000  1.0
  H  H35  1  0.17452000  0.02045000  0.50960000  1.0
  H  H36  1  0.16517000  0.14222000  0.63044000  1.0
  H  H37  1  0.62907000  0.14530000  0.60346000  1.0
  H  H38  1  0.50771000  0.17423000  0.70758000  1.0
  H  H39  1  0.45780000  0.03118000  0.59787000  1.0
  C  C40  1  0.05438000  0.47822000  0.67030000  1.0
  C  C41  1  0.07705000  0.41461000  0.73711000  1.0
  C  C42  1  0.23854000  0.42305000  0.78700000  1.0
  C  C43  1  0.25824000  0.35768000  0.84342000  1.0
  C  C44  1  0.11660000  0.28048000  0.84853000  1.0
  C  C45  1  0.95514000  0.27280000  0.79933000  1.0
  C  C46  1  0.93563000  0.34004000  0.74481000  1.0
  C  C47  1  0.46372000  0.36543000  0.31871000  1.0
  C  C48  1  0.38028000  0.32581000  0.20953000  1.0
  C  C49  1  0.36574000  0.20846000  0.13508000  1.0
  C  C50  1  0.28570000  0.16737000  0.03204000  1.0
  C  C51  1  0.22106000  0.24472000  0.99893000  1.0
  C  C52  1  0.23769000  0.36341000  0.07329000  1.0
  C  C53  1  0.31409000  0.40224000  0.17684000  1.0
  C  C54  1  0.97652000  0.71524000  0.59773000  1.0
  C  C55  1  0.01897000  0.84263000  0.67705000  1.0
  C  C56  1  0.18631000  0.90981000  0.70234000  1.0
  C  C57  1  0.22455000  0.02841000  0.77528000  1.0
  C  C58  1  0.09740000  0.07996000  0.82503000  1.0
  C  C59  1  0.93200000  0.01182000  0.80258000  1.0
  C  C60  1  0.89241000  0.89397000  0.72748000  1.0
  C  C61  1  0.55452000  0.75289000  0.46622000  1.0
  C  C62  1  0.79491000  0.88234000  0.44691000  1.0
  C  C63  1  0.49799000  0.87363000  0.37817000  1.0
  C  C64  1  0.94561000  0.52179000  0.32970000  1.0
  C  C65  1  0.92294000  0.58539000  0.26289000  1.0
  C  C66  1  0.76145000  0.57695000  0.21300000  1.0
  C  C67  1  0.74174000  0.64233000  0.15659000  1.0
  C  C68  1  0.88339000  0.71952000  0.15147000  1.0
  C  C69  1  0.04484000  0.72720000  0.20068000  1.0
  C  C70  1  0.06435000  0.65996000  0.25519000  1.0
  C  C71  1  0.53629000  0.63456000  0.68128000  1.0
  C  C72  1  0.61975000  0.67420000  0.79047000  1.0
  C  C73  1  0.63426000  0.79154000  0.86492000  1.0
  C  C74  1  0.71430000  0.83263000  0.96795000  1.0
  C  C75  1  0.77892000  0.75527000  0.00107000  1.0
  C  C76  1  0.76230000  0.63658000  0.92670000  1.0
  C  C77  1  0.68592000  0.59776000  0.82315000  1.0
  C  C78  1  0.02347000  0.28476000  0.40226000  1.0
  C  C79  1  0.98102000  0.15737000  0.32295000  1.0
  C  C80  1  0.81369000  0.09018000  0.29766000  1.0
  C  C81  1  0.77544000  0.97160000  0.22472000  1.0
  C  C82  1  0.90260000  0.92004000  0.17498000  1.0
  C  C83  1  0.06799000  0.98818000  0.19742000  1.0
  C  C84  1  0.10758000  0.10603000  0.27251000  1.0
  C  C85  1  0.44550000  0.24711000  0.53379000  1.0
  C  C86  1  0.20512000  0.11767000  0.55309000  1.0
  C  C87  1  0.50202000  0.12638000  0.62184000  1.0
  N  N88  1  0.13668000  0.20376000  0.89647000  1.0
  N  N89  1  0.61368000  0.83568000  0.43437000  1.0
  N  N90  1  0.86329000  0.79624000  0.10354000  1.0
  N  N91  1  0.38633000  0.16432000  0.56563000  1.0
  O  O92  1  0.18469000  0.51232000  0.63778000  1.0
  O  O93  1  0.90595000  0.49057000  0.64861000  1.0
  O  O94  1  0.46973000  0.47178000  0.38997000  1.0
  O  O95  1  0.53504000  0.29685000  0.34332000  1.0
  O  O96  1  0.09710000  0.67206000  0.55774000  1.0
  O  O97  1  0.82225000  0.65849000  0.57470000  1.0
  O  O98  1  0.39978000  0.70642000  0.45218000  1.0
  O  O99  1  0.81531000  0.48767000  0.36221000  1.0
  O  O100  1  0.09406000  0.50942000  0.35139000  1.0
  O  O101  1  0.53028000  0.52822000  0.61002000  1.0
  O  O102  1  0.46498000  0.70315000  0.65667000  1.0
  O  O103  1  0.90292000  0.32795000  0.44228000  1.0
  O  O104  1  0.17777000  0.34151000  0.42529000  1.0
  O  O105  1  0.60022000  0.29357000  0.54783000  1.0
