# generated using pymatgen
data_CuH16C20S4N4(ClO4)2
_symmetry_space_group_name_H-M   'P 1'
_cell_length_a   10.82820000
_cell_length_b   11.66750000
_cell_length_c   11.66740000
_cell_angle_alpha   109.33000000
_cell_angle_beta   89.99950000
_cell_angle_gamma   89.99990000
_symmetry_Int_Tables_number   1
_chemical_formula_structural   CuH16C20S4N4(ClO4)2
_chemical_formula_sum   'Cu2 H32 C40 S8 N8 Cl4 O16'
_cell_volume   1390.94153755
_cell_formula_units_Z   2
loop_
 _symmetry_equiv_pos_site_id
 _symmetry_equiv_pos_as_xyz
  1  'x, y, z'
loop_
 _atom_site_type_symbol
 _atom_site_label
 _atom_site_symmetry_multiplicity
 _atom_site_fract_x
 _atom_site_fract_y
 _atom_site_fract_z
 _atom_site_occupancy
  Cu  Cu0  1  0.77674000  0.00000000  0.50000000  1.0
  Cu  Cu1  1  0.27673000  0.50000000  1.00000000  1.0
  H  H2  1  0.00002000  0.04069000  0.65585000  1.0
  H  H3  1  0.00001000  0.95931000  0.34415000  1.0
  H  H4  1  0.50001000  0.34414000  0.95931000  1.0
  H  H5  1  0.50001000  0.65586000  0.04069000  1.0
  H  H6  1  0.17628000  0.92176000  0.68796000  1.0
  H  H7  1  0.17628000  0.07824000  0.31204000  1.0
  H  H8  1  0.67627000  0.31203000  0.07824000  1.0
  H  H9  1  0.67627000  0.68796000  0.92176000  1.0
  H  H10  1  0.00031000  0.60054000  0.44023000  1.0
  H  H11  1  0.00030000  0.39946000  0.55977000  1.0
  H  H12  1  0.50030000  0.55977000  0.39945000  1.0
  H  H13  1  0.50030000  0.44023000  0.60054000  1.0
  H  H14  1  0.83127000  0.73438000  0.41606000  1.0
  H  H15  1  0.83126000  0.26562000  0.58394000  1.0
  H  H16  1  0.33126000  0.58393000  0.26561000  1.0
  H  H17  1  0.33126000  0.41607000  0.73439000  1.0
  H  H18  1  0.72449000  0.95438000  0.72385000  1.0
  H  H19  1  0.72449000  0.04562000  0.27615000  1.0
  H  H20  1  0.22449000  0.27615000  0.04563000  1.0
  H  H21  1  0.22448000  0.72386000  0.95438000  1.0
  H  H22  1  0.55560000  0.86863000  0.81508000  1.0
  H  H23  1  0.55560000  0.13137000  0.18492000  1.0
  H  H24  1  0.05560000  0.18492000  0.13137000  1.0
  H  H25  1  0.05559000  0.81509000  0.86863000  1.0
  H  H26  1  0.36544000  0.77703000  0.46842000  1.0
  H  H27  1  0.36543000  0.22296000  0.53158000  1.0
  H  H28  1  0.86542000  0.53158000  0.22297000  1.0
  H  H29  1  0.86542000  0.46842000  0.77703000  1.0
  H  H30  1  0.54413000  0.86105000  0.39104000  1.0
  H  H31  1  0.54413000  0.13896000  0.60897000  1.0
  H  H32  1  0.04412000  0.60896000  0.13896000  1.0
  H  H33  1  0.04413000  0.39104000  0.86105000  1.0
  C  C34  1  0.00327000  0.94310000  0.60922000  1.0
  C  C35  1  0.00327000  0.05690000  0.39078000  1.0
  C  C36  1  0.50327000  0.39077000  0.05689000  1.0
  C  C37  1  0.50327000  0.60923000  0.94311000  1.0
  C  C38  1  0.10169000  0.87532000  0.62807000  1.0
  C  C39  1  0.10169000  0.12468000  0.37193000  1.0
  C  C40  1  0.60169000  0.37193000  0.12468000  1.0
  C  C41  1  0.60169000  0.62807000  0.87532000  1.0
  C  C42  1  0.10260000  0.75037000  0.56741000  1.0
  C  C43  1  0.10259000  0.24963000  0.43258000  1.0
  C  C44  1  0.60259000  0.43258000  0.24963000  1.0
  C  C45  1  0.60259000  0.56741000  0.75037000  1.0
  C  C46  1  0.00388000  0.69765000  0.49019000  1.0
  C  C47  1  0.00387000  0.30235000  0.50981000  1.0
  C  C48  1  0.50388000  0.50981000  0.30235000  1.0
  C  C49  1  0.50387000  0.49019000  0.69765000  1.0
  C  C50  1  0.90898000  0.77180000  0.47618000  1.0
  C  C51  1  0.90897000  0.22820000  0.52382000  1.0
  C  C52  1  0.40897000  0.52382000  0.22820000  1.0
  C  C53  1  0.40897000  0.47618000  0.77180000  1.0
  C  C54  1  0.64459000  0.91142000  0.67027000  1.0
  C  C55  1  0.64459000  0.08858000  0.32973000  1.0
  C  C56  1  0.14459000  0.32973000  0.08859000  1.0
  C  C57  1  0.14458000  0.67028000  0.91141000  1.0
  C  C58  1  0.54949000  0.86448000  0.72057000  1.0
  C  C59  1  0.54949000  0.13552000  0.27943000  1.0
  C  C60  1  0.04948000  0.27943000  0.13553000  1.0
  C  C61  1  0.04948000  0.72057000  0.86447000  1.0
  C  C62  1  0.44735000  0.81314000  0.64788000  1.0
  C  C63  1  0.44735000  0.18685000  0.35212000  1.0
  C  C64  1  0.94734000  0.35212000  0.18686000  1.0
  C  C65  1  0.94734000  0.64788000  0.81314000  1.0
  C  C66  1  0.44443000  0.81175000  0.52765000  1.0
  C  C67  1  0.44443000  0.18825000  0.47235000  1.0
  C  C68  1  0.94442000  0.47235000  0.18826000  1.0
  C  C69  1  0.94442000  0.52765000  0.81174000  1.0
  C  C70  1  0.54415000  0.85989000  0.48406000  1.0
  C  C71  1  0.54414000  0.14012000  0.51594000  1.0
  C  C72  1  0.04413000  0.51594000  0.14012000  1.0
  C  C73  1  0.04413000  0.48406000  0.85988000  1.0
  S  S74  1  0.22170000  0.65262000  0.58221000  1.0
  S  S75  1  0.22169000  0.34738000  0.41779000  1.0
  S  S76  1  0.72169000  0.41779000  0.34738000  1.0
  S  S77  1  0.72169000  0.58220000  0.65262000  1.0
  S  S78  1  0.33004000  0.75633000  0.71912000  1.0
  S  S79  1  0.33004000  0.24366000  0.28088000  1.0
  S  S80  1  0.83003000  0.28088000  0.24367000  1.0
  S  S81  1  0.83003000  0.71912000  0.75633000  1.0
  N  N82  1  0.90871000  0.89278000  0.53442000  1.0
  N  N83  1  0.90871000  0.10722000  0.46558000  1.0
  N  N84  1  0.40869000  0.46558000  0.10721000  1.0
  N  N85  1  0.40869000  0.53442000  0.89279000  1.0
  N  N86  1  0.64270000  0.90881000  0.55389000  1.0
  N  N87  1  0.64270000  0.09119000  0.44611000  1.0
  N  N88  1  0.14271000  0.44612000  0.09118000  1.0
  N  N89  1  0.14271000  0.55389000  0.90882000  1.0
  Cl  Cl90  1  0.74822000  0.76573000  0.18892000  1.0
  Cl  Cl91  1  0.74821000  0.23427000  0.81108000  1.0
  Cl  Cl92  1  0.24821000  0.81108000  0.23428000  1.0
  Cl  Cl93  1  0.24821000  0.18892000  0.76572000  1.0
  O  O94  1  0.81812000  0.86527000  0.27635000  1.0
  O  O95  1  0.81811000  0.13474000  0.72365000  1.0
  O  O96  1  0.31811000  0.72365000  0.13474000  1.0
  O  O97  1  0.31811000  0.27634000  0.86526000  1.0
  O  O98  1  0.82633000  0.70546000  0.08490000  1.0
  O  O99  1  0.82631000  0.29455000  0.91510000  1.0
  O  O100  1  0.32631000  0.91510000  0.29456000  1.0
  O  O101  1  0.32631000  0.08490000  0.70544000  1.0
  O  O102  1  0.71121000  0.67905000  0.24948000  1.0
  O  O103  1  0.71120000  0.32096000  0.75052000  1.0
  O  O104  1  0.21120000  0.75052000  0.32097000  1.0
  O  O105  1  0.21120000  0.24948000  0.67903000  1.0
  O  O106  1  0.63853000  0.81617000  0.15092000  1.0
  O  O107  1  0.63852000  0.18383000  0.84908000  1.0
  O  O108  1  0.13853000  0.84908000  0.18383000  1.0
  O  O109  1  0.13853000  0.15092000  0.81616000  1.0
