# generated using pymatgen
data_Ni3H28C38(N5O7)2
_symmetry_space_group_name_H-M   'P 1'
_cell_length_a   10.01560000
_cell_length_b   14.56198002
_cell_length_c   19.83913317
_cell_angle_alpha   80.53230128
_cell_angle_beta   75.39735250
_cell_angle_gamma   69.93081917
_symmetry_Int_Tables_number   1
_chemical_formula_structural   Ni3H28C38(N5O7)2
_chemical_formula_sum   'Ni6 H56 C76 N20 O28'
_cell_volume   2620.29530020
_cell_formula_units_Z   2
loop_
 _symmetry_equiv_pos_site_id
 _symmetry_equiv_pos_as_xyz
  1  'x, y, z'
loop_
 _atom_site_type_symbol
 _atom_site_label
 _atom_site_symmetry_multiplicity
 _atom_site_fract_x
 _atom_site_fract_y
 _atom_site_fract_z
 _atom_site_occupancy
  Ni  Ni0  1  0.00000000  0.00000000  0.50000000  1.0
  Ni  Ni1  1  0.50000000  0.50001000  0.00000000  1.0
  Ni  Ni2  1  0.53160000  0.21200000  0.40411000  1.0
  Ni  Ni3  1  0.14793000  0.28803000  0.09544000  1.0
  Ni  Ni4  1  0.46839000  0.78800000  0.59590000  1.0
  Ni  Ni5  1  0.85207000  0.71197000  0.90456000  1.0
  H  H6  1  0.52606000  0.06386000  0.50461000  1.0
  H  H7  1  0.09444000  0.43627000  0.99506000  1.0
  H  H8  1  0.47395000  0.93613000  0.49539000  1.0
  H  H9  1  0.90557000  0.56375000  0.00494000  1.0
  H  H10  1  0.68472000  0.05932000  0.46045000  1.0
  H  H11  1  0.20472000  0.44078000  0.03909000  1.0
  H  H12  1  0.31528000  0.94068000  0.53955000  1.0
  H  H13  1  0.79530000  0.55922000  0.96091000  1.0
  H  H14  1  0.12162000  0.11547000  0.14021000  1.0
  H  H15  1  0.37816000  0.38463000  0.35934000  1.0
  H  H16  1  0.87838000  0.88453000  0.85979000  1.0
  H  H17  1  0.62184000  0.61538000  0.64066000  1.0
  H  H18  1  0.29249000  0.11071000  0.13538000  1.0
  H  H19  1  0.53948000  0.38918000  0.36425000  1.0
  H  H20  1  0.70751000  0.88928000  0.86462000  1.0
  H  H21  1  0.46053000  0.61082000  0.63575000  1.0
  H  H22  1  0.36721000  0.16066000  0.22890000  1.0
  H  H23  1  0.75745000  0.33927000  0.27063000  1.0
  H  H24  1  0.63279000  0.83935000  0.77110000  1.0
  H  H25  1  0.24258000  0.66072000  0.72937000  1.0
  H  H26  1  0.94054000  0.13762000  0.24800000  1.0
  H  H27  1  0.32666000  0.36256000  0.25164000  1.0
  H  H28  1  0.05946000  0.86239000  0.75200000  1.0
  H  H29  1  0.67333000  0.63744000  0.74837000  1.0
  H  H30  1  0.72723000  0.27821000  0.47000000  1.0
  H  H31  1  0.47589000  0.22187000  0.02958000  1.0
  H  H32  1  0.27277000  0.72177000  0.52999000  1.0
  H  H33  1  0.52412000  0.77813000  0.97041000  1.0
  H  H34  1  0.71263000  0.32755000  0.58519000  1.0
  H  H35  1  0.62553000  0.17250000  0.91442000  1.0
  H  H36  1  0.28736000  0.67243000  0.41482000  1.0
  H  H37  1  0.37446000  0.82750000  0.08558000  1.0
  H  H38  1  0.26859000  0.32268000  0.64438000  1.0
  H  H39  1  0.23607000  0.17670000  0.85537000  1.0
  H  H40  1  0.73138000  0.67731000  0.35563000  1.0
  H  H41  1  0.76391000  0.82332000  0.14463000  1.0
  H  H42  1  0.30147000  0.26981000  0.52435000  1.0
  H  H43  1  0.09621000  0.22978000  0.97531000  1.0
  H  H44  1  0.69852000  0.73018000  0.47565000  1.0
  H  H45  1  0.90380000  0.77023000  0.02468000  1.0
  H  H46  1  0.78062000  0.34507000  0.77151000  1.0
  H  H47  1  0.89685000  0.15530000  0.72831000  1.0
  H  H48  1  0.21936000  0.65492000  0.22849000  1.0
  H  H49  1  0.10315000  0.84470000  0.27169000  1.0
  H  H50  1  0.74484000  0.39063000  0.89505000  1.0
  H  H51  1  0.03023000  0.10979000  0.60477000  1.0
  H  H52  1  0.25516000  0.60937000  0.10494000  1.0
  H  H53  1  0.96979000  0.89021000  0.39522000  1.0
  H  H54  1  0.29929000  0.48003000  0.92070000  1.0
  H  H55  1  0.69979000  0.02028000  0.57891000  1.0
  H  H56  1  0.70072000  0.51997000  0.07930000  1.0
  H  H57  1  0.30022000  0.97971000  0.42109000  1.0
  H  H58  1  0.31334000  0.43067000  0.80261000  1.0
  H  H59  1  0.54640000  0.06967000  0.69695000  1.0
  H  H60  1  0.68666000  0.56933000  0.19739000  1.0
  H  H61  1  0.45360000  0.93033000  0.30305000  1.0
  C  C62  1  0.05696000  0.17834000  0.45233000  1.0
  C  C63  1  0.68779000  0.32146000  0.04727000  1.0
  C  C64  1  0.94304000  0.82166000  0.54767000  1.0
  C  C65  1  0.31223000  0.67856000  0.95273000  1.0
  C  C66  1  0.09526000  0.16902000  0.37414000  1.0
  C  C67  1  0.63879000  0.33062000  0.12548000  1.0
  C  C68  1  0.90475000  0.83096000  0.62586000  1.0
  C  C69  1  0.36123000  0.66939000  0.87452000  1.0
  C  C70  1  0.23006000  0.17075000  0.33145000  1.0
  C  C71  1  0.73273000  0.32898000  0.16810000  1.0
  C  C72  1  0.76994000  0.82925000  0.66855000  1.0
  C  C73  1  0.26729000  0.67102000  0.83190000  1.0
  C  C74  1  0.34552000  0.18289000  0.36020000  1.0
  C  C75  1  0.88899000  0.31683000  0.13931000  1.0
  C  C76  1  0.65447000  0.81711000  0.63980000  1.0
  C  C77  1  0.11102000  0.68317000  0.86070000  1.0
  C  C78  1  0.26145000  0.15920000  0.26002000  1.0
  C  C79  1  0.68130000  0.34066000  0.23953000  1.0
  C  C80  1  0.73855000  0.84079000  0.73998000  1.0
  C  C81  1  0.31870000  0.65935000  0.76047000  1.0
  C  C82  1  0.15746000  0.14884000  0.22914000  1.0
  C  C83  1  0.53612000  0.35114000  0.27042000  1.0
  C  C84  1  0.84253000  0.85116000  0.77086000  1.0
  C  C85  1  0.46389000  0.64886000  0.72958000  1.0
  C  C86  1  0.02363000  0.14607000  0.27079000  1.0
  C  C87  1  0.44097000  0.35396000  0.22883000  1.0
  C  C88  1  0.97636000  0.85393000  0.72921000  1.0
  C  C89  1  0.55903000  0.64604000  0.77117000  1.0
  C  C90  1  0.99442000  0.15368000  0.34278000  1.0
  C  C91  1  0.49127000  0.34610000  0.15686000  1.0
  C  C92  1  0.00558000  0.84631000  0.65722000  1.0
  C  C93  1  0.50874000  0.65391000  0.84313000  1.0
  C  C94  1  0.85238000  0.14465000  0.38531000  1.0
  C  C95  1  0.38265000  0.35520000  0.11436000  1.0
  C  C96  1  0.14761000  0.85535000  0.61470000  1.0
  C  C97  1  0.61737000  0.64480000  0.88563000  1.0
  C  C98  1  0.62649000  0.28865000  0.50929000  1.0
  C  C99  1  0.42485000  0.21133000  0.99033000  1.0
  C  C100  1  0.37349000  0.71134000  0.49071000  1.0
  C  C101  1  0.57515000  0.78868000  0.00966000  1.0
  C  C102  1  0.61825000  0.31686000  0.57401000  1.0
  C  C103  1  0.50937000  0.18304000  0.92563000  1.0
  C  C104  1  0.38173000  0.68312000  0.42600000  1.0
  C  C105  1  0.49061000  0.81697000  0.07436000  1.0
  C  C106  1  0.48779000  0.32877000  0.62419000  1.0
  C  C107  1  0.44098000  0.17093000  0.87551000  1.0
  C  C108  1  0.51219000  0.67122000  0.37582000  1.0
  C  C109  1  0.55901000  0.82908000  0.12449000  1.0
  C  C110  1  0.37100000  0.31293000  0.60631000  1.0
  C  C111  1  0.29061000  0.18663000  0.89340000  1.0
  C  C112  1  0.62899000  0.68706000  0.39369000  1.0
  C  C113  1  0.70938000  0.81338000  0.10659000  1.0
  C  C114  1  0.38848000  0.28405000  0.54051000  1.0
  C  C115  1  0.21354000  0.21558000  0.95919000  1.0
  C  C116  1  0.61148000  0.71595000  0.45950000  1.0
  C  C117  1  0.78646000  0.78443000  0.04080000  1.0
  C  C118  1  0.54953000  0.38406000  0.77833000  1.0
  C  C119  1  0.71181000  0.11615000  0.72136000  1.0
  C  C120  1  0.45045000  0.61594000  0.22167000  1.0
  C  C121  1  0.28820000  0.88385000  0.27864000  1.0
  C  C122  1  0.67259000  0.37318000  0.80413000  1.0
  C  C123  1  0.84968000  0.12717000  0.69562000  1.0
  C  C124  1  0.32739000  0.62682000  0.19587000  1.0
  C  C125  1  0.15033000  0.87284000  0.30438000  1.0
  C  C126  1  0.65429000  0.39871000  0.87111000  1.0
  C  C127  1  0.92383000  0.10168000  0.62864000  1.0
  C  C128  1  0.34571000  0.60128000  0.12889000  1.0
  C  C129  1  0.07618000  0.89832000  0.37135000  1.0
  C  C130  1  0.40307000  0.44596000  0.88668000  1.0
  C  C131  1  0.73543000  0.05440000  0.61297000  1.0
  C  C132  1  0.59693000  0.55404000  0.11332000  1.0
  C  C133  1  0.26456000  0.94560000  0.38704000  1.0
  C  C134  1  0.41127000  0.42016000  0.82127000  1.0
  C  C135  1  0.65249000  0.08018000  0.67835000  1.0
  C  C136  1  0.58872000  0.57984000  0.17874000  1.0
  C  C137  1  0.34751000  0.91982000  0.32165000  1.0
  N  N138  1  0.52143000  0.43607000  0.91138000  1.0
  N  N139  1  0.86863000  0.06426000  0.58836000  1.0
  N  N140  1  0.47857000  0.56394000  0.08861000  1.0
  N  N141  1  0.13137000  0.93574000  0.41164000  1.0
  N  N142  1  0.18580000  0.14633000  0.15525000  1.0
  N  N143  1  0.48814000  0.35364000  0.34434000  1.0
  N  N144  1  0.81419000  0.85368000  0.84475000  1.0
  N  N145  1  0.51187000  0.64636000  0.65566000  1.0
  N  N146  1  0.51473000  0.27142000  0.49246000  1.0
  N  N147  1  0.27906000  0.22849000  0.00720000  1.0
  N  N148  1  0.48522000  0.72858000  0.50756000  1.0
  N  N149  1  0.72094000  0.77152000  0.99280000  1.0
  N  N150  1  0.46273000  0.35512000  0.69271000  1.0
  N  N151  1  0.51068000  0.14465000  0.80700000  1.0
  N  N152  1  0.53726000  0.64486000  0.30729000  1.0
  N  N153  1  0.48931000  0.85535000  0.19300000  1.0
  N  N154  1  0.57501000  0.35865000  0.70956000  1.0
  N  N155  1  0.64319000  0.14140000  0.79017000  1.0
  N  N156  1  0.42497000  0.64134000  0.29044000  1.0
  N  N157  1  0.35681000  0.85860000  0.20983000  1.0
  O  O158  1  0.84625000  0.08818000  0.44204000  1.0
  O  O159  1  0.37696000  0.41156000  0.05757000  1.0
  O  O160  1  0.15375000  0.91182000  0.55796000  1.0
  O  O161  1  0.62305000  0.58845000  0.94243000  1.0
  O  O162  1  0.11318000  0.09843000  0.48932000  1.0
  O  O163  1  0.70095000  0.40153000  0.01046000  1.0
  O  O164  1  0.88682000  0.90156000  0.51069000  1.0
  O  O165  1  0.29907000  0.59850000  0.98954000  1.0
  O  O166  1  0.31308000  0.22471000  0.41703000  1.0
  O  O167  1  0.95506000  0.27495000  0.08251000  1.0
  O  O168  1  0.68691000  0.77529000  0.58297000  1.0
  O  O169  1  0.04495000  0.72505000  0.91749000  1.0
  O  O170  1  0.47802000  0.15430000  0.32741000  1.0
  O  O171  1  0.96013000  0.34560000  0.17203000  1.0
  O  O172  1  0.52197000  0.84570000  0.67259000  1.0
  O  O173  1  0.03988000  0.65440000  0.82797000  1.0
  O  O174  1  0.74064000  0.19508000  0.36107000  1.0
  O  O175  1  0.29676000  0.30496000  0.13867000  1.0
  O  O176  1  0.25935000  0.80492000  0.63894000  1.0
  O  O177  1  0.70326000  0.69503000  0.86132000  1.0
  O  O178  1  0.58346000  0.06632000  0.45704000  1.0
  O  O179  1  0.10712000  0.43362000  0.04259000  1.0
  O  O180  1  0.41654000  0.93368000  0.54296000  1.0
  O  O181  1  0.89289000  0.56638000  0.95742000  1.0
  O  O182  1  0.97155000  0.25682000  0.47505000  1.0
  O  O183  1  0.70371000  0.24300000  0.02442000  1.0
  O  O184  1  0.02847000  0.74317000  0.52495000  1.0
  O  O185  1  0.29633000  0.75703000  0.97557000  1.0
