# generated using pymatgen
data_Al2H14C27O17
_symmetry_space_group_name_H-M   'P 1'
_cell_length_a   6.89623000
_cell_length_b   17.69330000
_cell_length_c   20.80550000
_cell_angle_alpha   107.79300000
_cell_angle_beta   89.99980000
_cell_angle_gamma   89.99930000
_symmetry_Int_Tables_number   1
_chemical_formula_structural   Al2H14C27O17
_chemical_formula_sum   'Al4 H28 C54 O34'
_cell_volume   2417.19529401
_cell_formula_units_Z   2
loop_
 _symmetry_equiv_pos_site_id
 _symmetry_equiv_pos_as_xyz
  1  'x, y, z'
loop_
 _atom_site_type_symbol
 _atom_site_label
 _atom_site_symmetry_multiplicity
 _atom_site_fract_x
 _atom_site_fract_y
 _atom_site_fract_z
 _atom_site_occupancy
  Al  Al0  1  0.81948000  0.49955000  0.49823000  1.0
  Al  Al1  1  0.31948000  0.50045000  0.50177000  1.0
  Al  Al2  1  0.41612000  0.00053000  0.00168000  1.0
  Al  Al3  1  0.91611000  0.99948000  0.99831000  1.0
  H  H4  1  0.08542000  0.11173000  0.69999000  1.0
  H  H5  1  0.58543000  0.88828000  0.30001000  1.0
  H  H6  1  0.12969000  0.39400000  0.79390000  1.0
  H  H7  1  0.62971000  0.60601000  0.20611000  1.0
  H  H8  1  0.38367000  0.31993000  0.72860000  1.0
  H  H9  1  0.88368000  0.68007000  0.27140000  1.0
  H  H10  1  0.88630000  0.36046000  0.78298000  1.0
  H  H11  1  0.38632000  0.63954000  0.21703000  1.0
  H  H12  1  0.32704000  0.25819000  0.59692000  1.0
  H  H13  1  0.82703000  0.74182000  0.40307000  1.0
  H  H14  1  0.53122000  0.21654000  0.83882000  1.0
  H  H15  1  0.03125000  0.78346000  0.16117000  1.0
  H  H16  1  0.37144000  0.10599000  0.65648000  1.0
  H  H17  1  0.87145000  0.89401000  0.34351000  1.0
  H  H18  1  0.69689000  0.15961000  0.76377000  1.0
  H  H19  1  0.19691000  0.84040000  0.23622000  1.0
  H  H20  1  0.88283000  0.19872000  0.58019000  1.0
  H  H21  1  0.38285000  0.80129000  0.41981000  1.0
  H  H22  1  0.79997000  0.23771000  0.69836000  1.0
  H  H23  1  0.29998000  0.76231000  0.30165000  1.0
  H  H24  1  0.28164000  0.39322000  0.87711000  1.0
  H  H25  1  0.78162000  0.60677000  0.12288000  1.0
  H  H26  1  0.83457000  0.35504000  0.89852000  1.0
  H  H27  1  0.33459000  0.64497000  0.10149000  1.0
  H  H28  1  0.56734000  0.39737000  0.46338000  1.0
  H  H29  1  0.06734000  0.60264000  0.53662000  1.0
  H  H30  1  0.66473000  0.09466000  0.99099000  1.0
  H  H31  1  0.16473000  0.90535000  0.00900000  1.0
  C  C32  1  0.56477000  0.57736000  0.42360000  1.0
  C  C33  1  0.06476000  0.42264000  0.57641000  1.0
  C  C34  1  0.57331000  0.60630000  0.60332000  1.0
  C  C35  1  0.07329000  0.39368000  0.39669000  1.0
  C  C36  1  0.08288000  0.33183000  0.33333333  1.0
  C  C37  1  0.58294000  0.66812000  0.66666667  1.0
  C  C38  1  0.10564000  0.27943000  0.27973000  1.0
  C  C39  1  0.60574000  0.72054000  0.72028000  1.0
  C  C40  1  0.12958000  0.22185000  0.22047000  1.0
  C  C41  1  0.62969000  0.77813000  0.77953000  1.0
  C  C42  1  0.15213000  0.16971000  0.16677000  1.0
  C  C43  1  0.65218000  0.83028000  0.83324000  1.0
  C  C44  1  0.33902000  0.21178000  0.75126000  1.0
  C  C45  1  0.83903000  0.78822000  0.24873000  1.0
  C  C46  1  0.00408000  0.16269000  0.73231000  1.0
  C  C47  1  0.50409000  0.83731000  0.26769000  1.0
  C  C48  1  0.94972000  0.21603000  0.68907000  1.0
  C  C49  1  0.44974000  0.78397000  0.31093000  1.0
  C  C50  1  0.05991000  0.37927000  0.62515000  1.0
  C  C51  1  0.55991000  0.62073000  0.37484000  1.0
  C  C52  1  0.14543000  0.20630000  0.79153000  1.0
  C  C53  1  0.64544000  0.79370000  0.20847000  1.0
  C  C54  1  0.30090000  0.26425000  0.70546000  1.0
  C  C55  1  0.80091000  0.73576000  0.29454000  1.0
  C  C56  1  0.08535000  0.29022000  0.70748000  1.0
  C  C57  1  0.58536000  0.70979000  0.29252000  1.0
  C  C58  1  0.03752000  0.34054000  0.78074000  1.0
  C  C59  1  0.53754000  0.65946000  0.21927000  1.0
  C  C60  1  0.07318000  0.29277000  0.83060000  1.0
  C  C61  1  0.57319000  0.70723000  0.16940000  1.0
  C  C62  1  0.05953000  0.33864000  0.66283000  1.0
  C  C63  1  0.55953000  0.66136000  0.33718000  1.0
  C  C64  1  0.17145000  0.15991000  0.83743000  1.0
  C  C65  1  0.67146000  0.84009000  0.16256000  1.0
  C  C66  1  0.17326000  0.12024000  0.87568000  1.0
  C  C67  1  0.67326000  0.87976000  0.12431000  1.0
  C  C68  1  0.66269000  0.89170000  0.89763000  1.0
  C  C69  1  0.16267000  0.10829000  0.10237000  1.0
  C  C70  1  0.66942000  0.92472000  0.07720000  1.0
  C  C71  1  0.16943000  0.07528000  0.92280000  1.0
  C  C72  1  0.39517000  0.23700000  0.63662000  1.0
  C  C73  1  0.89517000  0.76301000  0.36338000  1.0
  C  C74  1  0.49904000  0.24706000  0.80078000  1.0
  C  C75  1  0.99905000  0.75294000  0.19922000  1.0
  C  C76  1  0.38729000  0.12251000  0.71192000  1.0
  C  C77  1  0.88729000  0.87749000  0.28807000  1.0
  C  C78  1  0.83241000  0.12374000  0.75428000  1.0
  C  C79  1  0.33242000  0.87627000  0.24572000  1.0
  C  C80  1  0.96912000  0.17332000  0.61366000  1.0
  C  C81  1  0.46913000  0.82669000  0.38634000  1.0
  C  C82  1  0.22181000  0.33821000  0.88544000  1.0
  C  C83  1  0.72182000  0.66178000  0.11455000  1.0
  C  C84  1  0.89108000  0.29404000  0.87418000  1.0
  C  C85  1  0.39110000  0.70595000  0.12582000  1.0
  O  O86  1  0.40556000  0.58197000  0.58017000  1.0
  O  O87  1  0.90554000  0.41804000  0.41984000  1.0
  O  O88  1  0.73317000  0.56070000  0.44055000  1.0
  O  O89  1  0.23318000  0.43931000  0.55945000  1.0
  O  O90  1  0.73668000  0.58197000  0.57593000  1.0
  O  O91  1  0.23666000  0.41802000  0.42408000  1.0
  O  O92  1  0.90072000  0.43752000  0.55519000  1.0
  O  O93  1  0.40070000  0.56247000  0.44481000  1.0
  O  O94  1  0.56930000  0.45234000  0.49167000  1.0
  O  O95  1  0.06931000  0.54767000  0.50834000  1.0
  O  O96  1  0.83349000  0.94063000  0.05636000  1.0
  O  O97  1  0.33347000  0.05938000  0.94364000  1.0
  O  O98  1  0.49858000  0.91479000  0.92435000  1.0
  O  O99  1  0.99857000  0.08521000  0.07564000  1.0
  O  O100  1  0.50228000  0.94297000  0.06051000  1.0
  O  O101  1  0.00226000  0.05703000  0.93949000  1.0
  O  O102  1  0.33117000  0.08557000  0.07979000  1.0
  O  O103  1  0.83119000  0.91442000  0.92022000  1.0
  O  O104  1  0.66630000  0.04686000  0.00465000  1.0
  O  O105  1  0.16630000  0.95315000  0.99535000  1.0
  O  O106  1  0.54691000  0.19946000  0.62574000  1.0
  O  O107  1  0.04691000  0.80055000  0.37426000  1.0
  O  O108  1  0.58334000  0.30892000  0.80178000  1.0
  O  O109  1  0.08336000  0.69108000  0.19822000  1.0
  O  O110  1  0.42636000  0.07452000  0.74087000  1.0
  O  O111  1  0.92635000  0.92548000  0.25912000  1.0
  O  O112  1  0.83579000  0.05719000  0.75869000  1.0
  O  O113  1  0.33580000  0.94282000  0.24131000  1.0
  O  O114  1  0.07771000  0.11702000  0.59059000  1.0
  O  O115  1  0.57772000  0.88299000  0.40941000  1.0
  O  O116  1  0.26407000  0.31891000  0.93477000  1.0
  O  O117  1  0.76409000  0.68109000  0.06523000  1.0
  O  O118  1  0.82000000  0.23645000  0.88528000  1.0
  O  O119  1  0.32002000  0.76355000  0.11472000  1.0
