# generated using pymatgen
data_CuH19C25N3O7
_symmetry_space_group_name_H-M   'P 1'
_cell_length_a   10.13420000
_cell_length_b   11.01040000
_cell_length_c   12.86440000
_cell_angle_alpha   109.82100000
_cell_angle_beta   101.25400000
_cell_angle_gamma   94.61180000
_symmetry_Int_Tables_number   1
_chemical_formula_structural   CuH19C25N3O7
_chemical_formula_sum   'Cu2 H38 C50 N6 O14'
_cell_volume   1307.60497854
_cell_formula_units_Z   2
loop_
 _symmetry_equiv_pos_site_id
 _symmetry_equiv_pos_as_xyz
  1  'x, y, z'
loop_
 _atom_site_type_symbol
 _atom_site_label
 _atom_site_symmetry_multiplicity
 _atom_site_fract_x
 _atom_site_fract_y
 _atom_site_fract_z
 _atom_site_occupancy
  Cu  Cu0  1  0.03027000  0.82728000  0.23601000  1.0
  Cu  Cu1  1  0.96973000  0.17273000  0.76399000  1.0
  H  H2  1  0.12884000  0.97429000  0.10908000  1.0
  H  H3  1  0.87117000  0.02571000  0.89092000  1.0
  H  H4  1  0.91155000  0.05195000  0.35971000  1.0
  H  H5  1  0.08845000  0.94805000  0.64028000  1.0
  H  H6  1  0.24916000  0.88540000  0.39052000  1.0
  H  H7  1  0.75082000  0.11459000  0.60948000  1.0
  H  H8  1  0.18965000  0.00550000  0.46188000  1.0
  H  H9  1  0.81034000  0.99450000  0.53811000  1.0
  H  H10  1  0.64325000  0.32753000  0.58677000  1.0
  H  H11  1  0.35675000  0.67247000  0.41324000  1.0
  H  H12  1  0.63928000  0.63415000  0.91696000  1.0
  H  H13  1  0.36071000  0.36586000  0.08304000  1.0
  H  H14  1  0.57814000  0.83328000  0.24890000  1.0
  H  H15  1  0.42186000  0.16672000  0.75111000  1.0
  H  H16  1  0.47922000  0.35471000  0.71315000  1.0
  H  H17  1  0.52079000  0.64529000  0.28685000  1.0
  H  H18  1  0.95304000  0.47406000  0.39512000  1.0
  H  H19  1  0.04696000  0.52594000  0.60488000  1.0
  H  H20  1  0.23032000  0.66497000  0.96531000  1.0
  H  H21  1  0.76967000  0.33503000  0.03469000  1.0
  H  H22  1  0.96917000  0.69710000  0.39374000  1.0
  H  H23  1  0.03082000  0.30290000  0.60626000  1.0
  H  H24  1  0.07002000  0.35416000  0.07146000  1.0
  H  H25  1  0.92999000  0.64584000  0.92854000  1.0
  H  H26  1  0.89535000  0.27631000  0.36239000  1.0
  H  H27  1  0.10465000  0.72369000  0.63761000  1.0
  H  H28  1  0.64458000  0.72994000  0.62141000  1.0
  H  H29  1  0.35542000  0.27006000  0.37860000  1.0
  H  H30  1  0.08339000  0.58426000  0.08620000  1.0
  H  H31  1  0.91662000  0.41574000  0.91380000  1.0
  H  H32  1  0.12370000  0.19528000  0.09937000  1.0
  H  H33  1  0.87631000  0.80473000  0.90063000  1.0
  H  H34  1  0.47224000  0.74181000  0.74244000  1.0
  H  H35  1  0.52776000  0.25818000  0.25757000  1.0
  H  H36  1  0.32259000  0.46040000  0.78497000  1.0
  H  H37  1  0.67740000  0.53960000  0.21503000  1.0
  H  H38  1  0.28798000  0.60508000  0.76210000  1.0
  H  H39  1  0.71202000  0.39492000  0.23790000  1.0
  C  C40  1  0.07918000  0.04540000  0.16347000  1.0
  C  C41  1  0.92082000  0.95460000  0.83653000  1.0
  C  C42  1  0.95809000  0.08855000  0.30431000  1.0
  C  C43  1  0.04191000  0.91145000  0.69569000  1.0
  C  C44  1  0.30460000  0.79799000  0.19666000  1.0
  C  C45  1  0.69540000  0.20200000  0.80334000  1.0
  C  C46  1  0.01120000  0.25752000  0.23238000  1.0
  C  C47  1  0.98880000  0.74249000  0.76762000  1.0
  C  C48  1  0.01318000  0.39233000  0.23425000  1.0
  C  C49  1  0.98682000  0.60767000  0.76575000  1.0
  C  C50  1  0.39479000  0.75154000  0.11500000  1.0
  C  C51  1  0.60521000  0.24845000  0.88501000  1.0
  C  C52  1  0.60960000  0.42129000  0.62117000  1.0
  C  C53  1  0.39040000  0.57871000  0.37884000  1.0
  C  C54  1  0.62247000  0.73592000  0.08593000  1.0
  C  C55  1  0.37753000  0.26408000  0.91407000  1.0
  C  C56  1  0.56758000  0.66525000  0.97003000  1.0
  C  C57  1  0.43241000  0.33475000  0.02997000  1.0
  C  C58  1  0.53619000  0.77787000  0.15856000  1.0
  C  C59  1  0.46381000  0.22213000  0.84145000  1.0
  C  C60  1  0.51856000  0.43444000  0.69022000  1.0
  C  C61  1  0.48144000  0.56556000  0.30978000  1.0
  C  C62  1  0.98402000  0.49218000  0.32463000  1.0
  C  C63  1  0.01598000  0.50783000  0.67537000  1.0
  C  C64  1  0.65442000  0.52716000  0.59315000  1.0
  C  C65  1  0.34558000  0.47284000  0.40685000  1.0
  C  C66  1  0.34065000  0.68286000  0.99818000  1.0
  C  C67  1  0.65935000  0.31714000  0.00182000  1.0
  C  C68  1  0.99255000  0.61886000  0.32471000  1.0
  C  C69  1  0.00745000  0.38114000  0.67529000  1.0
  C  C70  1  0.04796000  0.42584000  0.14575000  1.0
  C  C71  1  0.95204000  0.57416000  0.85425000  1.0
  C  C72  1  0.94985000  0.21414000  0.30515000  1.0
  C  C73  1  0.05015000  0.78587000  0.69485000  1.0
  C  C74  1  0.60925000  0.64608000  0.64105000  1.0
  C  C75  1  0.39075000  0.35392000  0.35895000  1.0
  C  C76  1  0.05533000  0.55433000  0.15237000  1.0
  C  C77  1  0.94467000  0.44567000  0.84763000  1.0
  C  C78  1  0.74216000  0.51250000  0.50571000  1.0
  C  C79  1  0.25783000  0.48750000  0.49429000  1.0
  C  C80  1  0.42718000  0.63798000  0.92501000  1.0
  C  C81  1  0.57282000  0.36202000  0.07499000  1.0
  C  C82  1  0.07524000  0.16912000  0.15913000  1.0
  C  C83  1  0.92477000  0.83088000  0.84087000  1.0
  C  C84  1  0.51613000  0.65428000  0.70763000  1.0
  C  C85  1  0.48387000  0.34572000  0.29238000  1.0
  C  C86  1  0.36830000  0.56037000  0.79937000  1.0
  C  C87  1  0.63170000  0.43963000  0.20063000  1.0
  C  C88  1  0.77452000  0.76623000  0.12727000  1.0
  C  C89  1  0.22548000  0.23377000  0.87273000  1.0
  N  N90  1  0.02336000  0.00605000  0.23583000  1.0
  N  N91  1  0.97664000  0.99395000  0.76417000  1.0
  N  N92  1  0.02919000  0.64983000  0.24057000  1.0
  N  N93  1  0.97081000  0.35017000  0.75943000  1.0
  N  N94  1  0.47141000  0.54898000  0.73088000  1.0
  N  N95  1  0.52859000  0.45102000  0.26912000  1.0
  O  O96  1  0.17225000  0.91046000  0.42819000  1.0
  O  O97  1  0.82773000  0.08954000  0.57181000  1.0
  O  O98  1  0.18125000  0.80240000  0.15067000  1.0
  O  O99  1  0.81875000  0.19761000  0.84933000  1.0
  O  O100  1  0.75141000  0.39582000  0.44804000  1.0
  O  O101  1  0.24859000  0.60418000  0.55196000  1.0
  O  O102  1  0.35437000  0.82753000  0.30148000  1.0
  O  O103  1  0.64563000  0.17246000  0.69852000  1.0
  O  O104  1  0.79094000  0.61747000  0.49828000  1.0
  O  O105  1  0.20906000  0.38253000  0.50172000  1.0
  O  O106  1  0.84556000  0.75031000  0.05490000  1.0
  O  O107  1  0.15444000  0.24969000  0.94510000  1.0
  O  O108  1  0.82484000  0.80698000  0.23562000  1.0
  O  O109  1  0.17516000  0.19302000  0.76438000  1.0
