# generated using pymatgen
data_Cu3H9(C8N7)2
_symmetry_space_group_name_H-M   'P 1'
_cell_length_a   9.65963000
_cell_length_b   10.04660000
_cell_length_c   10.96240000
_cell_angle_alpha   108.30700000
_cell_angle_beta   90.91550000
_cell_angle_gamma   108.82300000
_symmetry_Int_Tables_number   1
_chemical_formula_structural   Cu3H9(C8N7)2
_chemical_formula_sum   'Cu6 H18 C32 N28'
_cell_volume   947.81782449
_cell_formula_units_Z   2
loop_
 _symmetry_equiv_pos_site_id
 _symmetry_equiv_pos_as_xyz
  1  'x, y, z'
loop_
 _atom_site_type_symbol
 _atom_site_label
 _atom_site_symmetry_multiplicity
 _atom_site_fract_x
 _atom_site_fract_y
 _atom_site_fract_z
 _atom_site_occupancy
  Cu  Cu0  1  0.28410000  0.84125000  0.65301000  1.0
  Cu  Cu1  1  0.71591000  0.15874000  0.34698000  1.0
  Cu  Cu2  1  0.45168000  0.41588000  0.56353000  1.0
  Cu  Cu3  1  0.54833000  0.58412000  0.43647000  1.0
  Cu  Cu4  1  0.91281000  0.95595000  0.71593000  1.0
  Cu  Cu5  1  0.08719000  0.04405000  0.28407000  1.0
  H  H6  1  0.88328000  0.47101000  0.89838000  1.0
  H  H7  1  0.11671000  0.52899000  0.10162000  1.0
  H  H8  1  0.58912000  0.94718000  0.79386000  1.0
  H  H9  1  0.41088000  0.05282000  0.20613000  1.0
  H  H10  1  0.42927000  0.82491000  0.93589000  1.0
  H  H11  1  0.57073000  0.17509000  0.06411000  1.0
  H  H12  1  0.75647000  0.56374000  0.75584000  1.0
  H  H13  1  0.24353000  0.43626000  0.24416000  1.0
  H  H14  1  0.54641000  0.71336000  0.06914000  1.0
  H  H15  1  0.45359000  0.28665000  0.93086000  1.0
  H  H16  1  0.92743000  0.48899000  0.40142000  1.0
  H  H17  1  0.07256000  0.51101000  0.59859000  1.0
  H  H18  1  0.84618000  0.71511000  0.14486000  1.0
  H  H19  1  0.15382000  0.28488000  0.85514000  1.0
  H  H20  1  0.78513000  0.47705000  0.20244000  1.0
  H  H21  1  0.21487000  0.52295000  0.79756000  1.0
  H  H22  1  0.76648000  0.20055000  0.88143000  1.0
  H  H23  1  0.23352000  0.79946000  0.11857000  1.0
  C  C24  1  0.78048000  0.39860000  0.83582000  1.0
  C  C25  1  0.21952000  0.60140000  0.16418000  1.0
  C  C26  1  0.19239000  0.97181000  0.48310000  1.0
  C  C27  1  0.80761000  0.02819000  0.51690000  1.0
  C  C28  1  0.96543000  0.82055000  0.89086000  1.0
  C  C29  1  0.03457000  0.17945000  0.10914000  1.0
  C  C30  1  0.38529000  0.13641000  0.60003000  1.0
  C  C31  1  0.61470000  0.86359000  0.39997000  1.0
  C  C32  1  0.81978000  0.82709000  0.91441000  1.0
  C  C33  1  0.18022000  0.17292000  0.08559000  1.0
  C  C34  1  0.63028000  0.89418000  0.85218000  1.0
  C  C35  1  0.36972000  0.10583000  0.14782000  1.0
  C  C36  1  0.52390000  0.22188000  0.68395000  1.0
  C  C37  1  0.47610000  0.77812000  0.31606000  1.0
  C  C38  1  0.54305000  0.82837000  0.93192000  1.0
  C  C39  1  0.45694000  0.17163000  0.06808000  1.0
  C  C40  1  0.70982000  0.45106000  0.75933000  1.0
  C  C41  1  0.29018000  0.54894000  0.24068000  1.0
  C  C42  1  0.60690000  0.76540000  0.00330000  1.0
  C  C43  1  0.39310000  0.23461000  0.99670000  1.0
  C  C44  1  0.07744000  0.83340000  0.41049000  1.0
  C  C45  1  0.92256000  0.16659000  0.58951000  1.0
  C  C46  1  0.94859000  0.58765000  0.37259000  1.0
  C  C47  1  0.05141000  0.41235000  0.62741000  1.0
  C  C48  1  0.90152000  0.71091000  0.23072000  1.0
  C  C49  1  0.09848000  0.28909000  0.76928000  1.0
  C  C50  1  0.86874000  0.58120000  0.26221000  1.0
  C  C51  1  0.13126000  0.41880000  0.73779000  1.0
  C  C52  1  0.71450000  0.24942000  0.82641000  1.0
  C  C53  1  0.28550000  0.75058000  0.17359000  1.0
  C  C54  1  0.40539000  0.58836000  0.59609000  1.0
  C  C55  1  0.59462000  0.41164000  0.40390000  1.0
  N  N56  1  0.02936000  0.86813000  0.79599000  1.0
  N  N57  1  0.97064000  0.13186000  0.20401000  1.0
  N  N58  1  0.29840000  0.99254000  0.57632000  1.0
  N  N59  1  0.70160000  0.00745000  0.42369000  1.0
  N  N60  1  0.33310000  0.20106000  0.52679000  1.0
  N  N61  1  0.66690000  0.79894000  0.47322000  1.0
  N  N62  1  0.15814000  0.84406000  0.79483000  1.0
  N  N63  1  0.84186000  0.15594000  0.20517000  1.0
  N  N64  1  0.21041000  0.09592000  0.45195000  1.0
  N  N65  1  0.78958000  0.90408000  0.54806000  1.0
  N  N66  1  0.76934000  0.89512000  0.84296000  1.0
  N  N67  1  0.23066000  0.10489000  0.15704000  1.0
  N  N68  1  0.58096000  0.36528000  0.68496000  1.0
  N  N69  1  0.41904000  0.63472000  0.31504000  1.0
  N  N70  1  0.17086000  0.78402000  0.88595000  1.0
  N  N71  1  0.82914000  0.21598000  0.11405000  1.0
  N  N72  1  0.05113000  0.76780000  0.94681000  1.0
  N  N73  1  0.94887000  0.23221000  0.05319000  1.0
  N  N74  1  0.58681000  0.15998000  0.75022000  1.0
  N  N75  1  0.41319000  0.84002000  0.24978000  1.0
  N  N76  1  0.74463000  0.76359000  0.99477000  1.0
  N  N77  1  0.25537000  0.23641000  0.00523000  1.0
  N  N78  1  0.00694000  0.83884000  0.30445000  1.0
  N  N79  1  0.99306000  0.16116000  0.69555000  1.0
  N  N80  1  0.05330000  0.71379000  0.44767000  1.0
  N  N81  1  0.94669000  0.28621000  0.55234000  1.0
  N  N82  1  0.36364000  0.69121000  0.62294000  1.0
  N  N83  1  0.63637000  0.30878000  0.37705000  1.0
