# generated using pymatgen
data_CuH15C10S2N5Cl
_symmetry_space_group_name_H-M   'P 1'
_cell_length_a   10.08660000
_cell_length_b   10.50280000
_cell_length_c   13.43500000
_cell_angle_alpha   90.00000000
_cell_angle_beta   103.11600000
_cell_angle_gamma   90.00000000
_symmetry_Int_Tables_number   1
_chemical_formula_structural   CuH15C10S2N5Cl
_chemical_formula_sum   'Cu4 H60 C40 S8 N20 Cl4'
_cell_volume   1386.14149807
_cell_formula_units_Z   4
loop_
 _symmetry_equiv_pos_site_id
 _symmetry_equiv_pos_as_xyz
  1  'x, y, z'
loop_
 _atom_site_type_symbol
 _atom_site_label
 _atom_site_symmetry_multiplicity
 _atom_site_fract_x
 _atom_site_fract_y
 _atom_site_fract_z
 _atom_site_occupancy
  Cu  Cu0  1  0.76752000  0.18474000  0.13876000  1.0
  Cu  Cu1  1  0.23248000  0.68474000  0.36124000  1.0
  Cu  Cu2  1  0.23247000  0.81526000  0.86124000  1.0
  Cu  Cu3  1  0.76753000  0.31526000  0.63876000  1.0
  H  H4  1  0.63395000  0.90757000  0.43505000  1.0
  H  H5  1  0.36605000  0.40757000  0.06495000  1.0
  H  H6  1  0.36605000  0.09243000  0.56495000  1.0
  H  H7  1  0.63395000  0.59243000  0.93505000  1.0
  H  H8  1  0.67904000  0.71373000  0.74337000  1.0
  H  H9  1  0.32096000  0.21373000  0.75663000  1.0
  H  H10  1  0.32096000  0.28627000  0.25663000  1.0
  H  H11  1  0.67904000  0.78627000  0.24337000  1.0
  H  H12  1  0.70129000  0.55131000  0.72214000  1.0
  H  H13  1  0.29871000  0.05131000  0.77786000  1.0
  H  H14  1  0.29871000  0.44869000  0.27786000  1.0
  H  H15  1  0.70130000  0.94869000  0.22214000  1.0
  H  H16  1  0.64270000  0.29310000  0.40744000  1.0
  H  H17  1  0.35731000  0.79309000  0.09256000  1.0
  H  H18  1  0.35730000  0.70690000  0.59256000  1.0
  H  H19  1  0.64270000  0.20690000  0.90744000  1.0
  H  H20  1  0.53834000  0.54907000  0.21328000  1.0
  H  H21  1  0.46166000  0.04907000  0.28672000  1.0
  H  H22  1  0.46166000  0.45092000  0.78672000  1.0
  H  H23  1  0.53834000  0.95093000  0.71328000  1.0
  H  H24  1  0.55072000  0.38109000  0.23332000  1.0
  H  H25  1  0.44928000  0.88109000  0.26668000  1.0
  H  H26  1  0.44928000  0.61891000  0.76668000  1.0
  H  H27  1  0.55072000  0.11891000  0.73332000  1.0
  H  H28  1  0.81365000  0.41400000  0.28031000  1.0
  H  H29  1  0.18635000  0.91400000  0.21969000  1.0
  H  H30  1  0.18635000  0.58600000  0.71969000  1.0
  H  H31  1  0.81365000  0.08600000  0.78031000  1.0
  H  H32  1  0.78079000  0.56707000  0.21941000  1.0
  H  H33  1  0.21921000  0.06706000  0.28059000  1.0
  H  H34  1  0.21921000  0.43293000  0.78059000  1.0
  H  H35  1  0.78079000  0.93293000  0.71941000  1.0
  H  H36  1  0.87578000  0.42797000  0.99302000  1.0
  H  H37  1  0.12422000  0.92797000  0.50698000  1.0
  H  H38  1  0.12422000  0.57203000  0.00698000  1.0
  H  H39  1  0.87578000  0.07203000  0.49302000  1.0
  H  H40  1  0.89678000  0.54726000  0.08939000  1.0
  H  H41  1  0.10322000  0.04726000  0.41061000  1.0
  H  H42  1  0.10322000  0.45274000  0.91061000  1.0
  H  H43  1  0.89678000  0.95274000  0.58939000  1.0
  H  H44  1  0.01963000  0.39338000  0.22110000  1.0
  H  H45  1  0.98038000  0.89338000  0.27890000  1.0
  H  H46  1  0.98038000  0.60662000  0.77890000  1.0
  H  H47  1  0.01963000  0.10662000  0.72110000  1.0
  H  H48  1  0.10183000  0.40366000  0.11889000  1.0
  H  H49  1  0.89817000  0.90365000  0.38111000  1.0
  H  H50  1  0.89817000  0.59635000  0.88111000  1.0
  H  H51  1  0.10183000  0.09635000  0.61889000  1.0
  H  H52  1  0.91648000  0.24248000  0.94547000  1.0
  H  H53  1  0.08353000  0.74248000  0.55453000  1.0
  H  H54  1  0.08353000  0.75752000  0.05453000  1.0
  H  H55  1  0.91647000  0.25752000  0.44547000  1.0
  H  H56  1  0.97467000  0.08439000  0.97431000  1.0
  H  H57  1  0.02533000  0.58439000  0.52569000  1.0
  H  H58  1  0.02533000  0.91561000  0.02569000  1.0
  H  H59  1  0.97467000  0.41561000  0.47431000  1.0
  H  H60  1  0.09624000  0.20989000  0.98311000  1.0
  H  H61  1  0.90377000  0.70989000  0.51688000  1.0
  H  H62  1  0.90377000  0.79011000  0.01688000  1.0
  H  H63  1  0.09624000  0.29011000  0.48312000  1.0
  C  C64  1  0.64088000  0.80723000  0.45757000  1.0
  C  C65  1  0.35911000  0.30723000  0.04243000  1.0
  C  C66  1  0.35912000  0.19277000  0.54243000  1.0
  C  C67  1  0.64088000  0.69277000  0.95757000  1.0
  C  C68  1  0.63877000  0.60187000  0.41723000  1.0
  C  C69  1  0.36123000  0.10186000  0.08277000  1.0
  C  C70  1  0.36123000  0.39813000  0.58277000  1.0
  C  C71  1  0.63877000  0.89814000  0.91723000  1.0
  C  C72  1  0.66716000  0.56558000  0.52054000  1.0
  C  C73  1  0.33284000  0.06558000  0.97946000  1.0
  C  C74  1  0.33285000  0.43442000  0.47946000  1.0
  C  C75  1  0.66715000  0.93442000  0.02054000  1.0
  C  C76  1  0.67433000  0.66428000  0.59365000  1.0
  C  C77  1  0.32567000  0.16428000  0.90635000  1.0
  C  C78  1  0.32567000  0.33572000  0.40635000  1.0
  C  C79  1  0.67433000  0.83572000  0.09365000  1.0
  C  C80  1  0.64552000  0.39208000  0.43178000  1.0
  C  C81  1  0.35448000  0.89208000  0.06822000  1.0
  C  C82  1  0.35449000  0.60792000  0.56822000  1.0
  C  C83  1  0.64551000  0.10791000  0.93178000  1.0
  C  C84  1  0.60374000  0.47231000  0.25241000  1.0
  C  C85  1  0.39626000  0.97230000  0.24759000  1.0
  C  C86  1  0.39626000  0.52769000  0.74760000  1.0
  C  C87  1  0.60374000  0.02769000  0.75240000  1.0
  C  C88  1  0.74150000  0.47031000  0.22371000  1.0
  C  C89  1  0.25850000  0.97031000  0.27629000  1.0
  C  C90  1  0.25849000  0.52969000  0.77629000  1.0
  C  C91  1  0.74151000  0.02969000  0.72371000  1.0
  C  C92  1  0.88577000  0.44423000  0.07518000  1.0
  C  C93  1  0.11423000  0.94423000  0.42482000  1.0
  C  C94  1  0.11422000  0.55577000  0.92482000  1.0
  C  C95  1  0.88578000  0.05577000  0.57518000  1.0
  C  C96  1  0.00724000  0.37322000  0.13935000  1.0
  C  C97  1  0.99276000  0.87322000  0.36065000  1.0
  C  C98  1  0.99276000  0.62678000  0.86065000  1.0
  C  C99  1  0.00724000  0.12678000  0.63935000  1.0
  C  C100  1  0.99548000  0.18444000  0.99479000  1.0
  C  C101  1  0.00452000  0.68444000  0.50521000  1.0
  C  C102  1  0.00452000  0.81556000  0.00521000  1.0
  C  C103  1  0.99548000  0.31556000  0.49479000  1.0
  S  S104  1  0.72316000  0.39653000  0.09928000  1.0
  S  S105  1  0.27684000  0.89653000  0.40072000  1.0
  S  S106  1  0.27684000  0.60347000  0.90072000  1.0
  S  S107  1  0.72316000  0.10347000  0.59928000  1.0
  S  S108  1  0.99277000  0.20140000  0.12851000  1.0
  S  S109  1  0.00723000  0.70140000  0.37149000  1.0
  S  S110  1  0.00723000  0.79860000  0.87148000  1.0
  S  S111  1  0.99277000  0.29860000  0.62852000  1.0
  N  N112  1  0.66109000  0.78590000  0.55833000  1.0
  N  N113  1  0.33891000  0.28589000  0.94168000  1.0
  N  N114  1  0.33891000  0.21410000  0.44168000  1.0
  N  N115  1  0.66109000  0.71410000  0.05832000  1.0
  N  N116  1  0.62797000  0.72185000  0.38128000  1.0
  N  N117  1  0.37203000  0.22185000  0.11872000  1.0
  N  N118  1  0.37203000  0.27815000  0.61872000  1.0
  N  N119  1  0.62797000  0.77815000  0.88128000  1.0
  N  N120  1  0.69146000  0.64266000  0.69405000  1.0
  N  N121  1  0.30853000  0.14266000  0.80596000  1.0
  N  N122  1  0.30854000  0.35735000  0.30596000  1.0
  N  N123  1  0.69146000  0.85735000  0.19404000  1.0
  N  N124  1  0.67263000  0.43342000  0.52788000  1.0
  N  N125  1  0.32737000  0.93342000  0.97212000  1.0
  N  N126  1  0.32737000  0.56658000  0.47212000  1.0
  N  N127  1  0.67263000  0.06658000  0.02788000  1.0
  N  N128  1  0.62356000  0.48955000  0.36235000  1.0
  N  N129  1  0.37644000  0.98955000  0.13765000  1.0
  N  N130  1  0.37644000  0.51045000  0.63765000  1.0
  N  N131  1  0.62356000  0.01045000  0.86235000  1.0
  Cl  Cl132  1  0.74358000  0.13395000  0.30051000  1.0
  Cl  Cl133  1  0.25642000  0.63395000  0.19950000  1.0
  Cl  Cl134  1  0.25642000  0.86605000  0.69950000  1.0
  Cl  Cl135  1  0.74358000  0.36605000  0.80050000  1.0
