# generated using pymatgen
data_AgH3(CN2)2
_symmetry_space_group_name_H-M   'P 1'
_cell_length_a   7.43682000
_cell_length_b   7.60030000
_cell_length_c   7.60033000
_cell_angle_alpha   97.21380000
_cell_angle_beta   96.59330000
_cell_angle_gamma   96.59350000
_symmetry_Int_Tables_number   1
_chemical_formula_structural   AgH3(CN2)2
_chemical_formula_sum   'Ag4 H12 C8 N16'
_cell_volume   419.71089338
_cell_formula_units_Z   4
loop_
 _symmetry_equiv_pos_site_id
 _symmetry_equiv_pos_as_xyz
  1  'x, y, z'
loop_
 _atom_site_type_symbol
 _atom_site_label
 _atom_site_symmetry_multiplicity
 _atom_site_fract_x
 _atom_site_fract_y
 _atom_site_fract_z
 _atom_site_occupancy
  Ag  Ag0  1  0.36885000  0.49780000  0.26135000  1.0
  Ag  Ag1  1  0.13114000  0.73865000  0.50220000  1.0
  Ag  Ag2  1  0.63114000  0.50220000  0.73865000  1.0
  Ag  Ag3  1  0.86886000  0.26135000  0.49779000  1.0
  H  H4  1  0.55068000  0.84210000  0.07832000  1.0
  H  H5  1  0.94932000  0.92168000  0.15789000  1.0
  H  H6  1  0.44933000  0.15789000  0.92168000  1.0
  H  H7  1  0.05068000  0.07832000  0.84211000  1.0
  H  H8  1  0.62005000  0.07103000  0.17511000  1.0
  H  H9  1  0.87995000  0.82489000  0.92896000  1.0
  H  H10  1  0.37996000  0.92897000  0.82489000  1.0
  H  H11  1  0.12005000  0.17511000  0.07104000  1.0
  H  H12  1  0.40050000  0.96151000  0.19518000  1.0
  H  H13  1  0.09950000  0.80482000  0.03848000  1.0
  H  H14  1  0.59950000  0.03849000  0.80482000  1.0
  H  H15  1  0.90050000  0.19519000  0.96151000  1.0
  C  C16  1  0.61988000  0.88409000  0.36073000  1.0
  C  C17  1  0.88012000  0.63927000  0.11591000  1.0
  C  C18  1  0.38014000  0.11590000  0.63930000  1.0
  C  C19  1  0.11987000  0.36071000  0.88410000  1.0
  C  C20  1  0.54455000  0.94339000  0.19295000  1.0
  C  C21  1  0.95544000  0.80705000  0.05660000  1.0
  C  C22  1  0.45545000  0.05662000  0.80703000  1.0
  C  C23  1  0.04455000  0.19296000  0.94340000  1.0
  N  N24  1  0.56695000  0.72618000  0.41310000  1.0
  N  N25  1  0.93305000  0.58690000  0.27382000  1.0
  N  N26  1  0.43305000  0.27384000  0.58690000  1.0
  N  N27  1  0.06695000  0.41310000  0.72617000  1.0
  N  N28  1  0.67114000  0.72442000  0.57050000  1.0
  N  N29  1  0.82885000  0.42950000  0.27558000  1.0
  N  N30  1  0.32886000  0.27557000  0.42950000  1.0
  N  N31  1  0.17115000  0.57050000  0.72443000  1.0
  N  N32  1  0.78348000  0.87436000  0.61328000  1.0
  N  N33  1  0.71651000  0.38672000  0.12564000  1.0
  N  N34  1  0.21652000  0.12564000  0.38672000  1.0
  N  N35  1  0.28348000  0.61329000  0.87436000  1.0
  N  N36  1  0.75291000  0.97774000  0.48342000  1.0
  N  N37  1  0.74709000  0.51658000  0.02226000  1.0
  N  N38  1  0.24708000  0.02225000  0.51658000  1.0
  N  N39  1  0.25292000  0.48342000  0.97775000  1.0
