# generated using pymatgen
data_ZnH12C16N4O7
_symmetry_space_group_name_H-M   'P 1'
_cell_length_a   8.92024000
_cell_length_b   9.89423000
_cell_length_c   10.06950000
_cell_angle_alpha   75.95830000
_cell_angle_beta   67.70170000
_cell_angle_gamma   83.72680000
_symmetry_Int_Tables_number   1
_chemical_formula_structural   ZnH12C16N4O7
_chemical_formula_sum   'Zn2 H24 C32 N8 O14'
_cell_volume   797.54880054
_cell_formula_units_Z   2
loop_
 _symmetry_equiv_pos_site_id
 _symmetry_equiv_pos_as_xyz
  1  'x, y, z'
loop_
 _atom_site_type_symbol
 _atom_site_label
 _atom_site_symmetry_multiplicity
 _atom_site_fract_x
 _atom_site_fract_y
 _atom_site_fract_z
 _atom_site_occupancy
  Zn  Zn0  1  0.99993000  0.20231000  0.04005000  1.0
  Zn  Zn1  1  0.00006000  0.79769000  0.95995000  1.0
  H  H2  1  0.05960000  0.84157000  0.61935000  1.0
  H  H3  1  0.94040000  0.15842000  0.38066000  1.0
  H  H4  1  0.34299000  0.60056000  0.84588000  1.0
  H  H5  1  0.65701000  0.39944000  0.15412000  1.0
  H  H6  1  0.16099000  0.41726000  0.06891000  1.0
  H  H7  1  0.83901000  0.58274000  0.93109000  1.0
  H  H8  1  0.29730000  0.32574000  0.96083000  1.0
  H  H9  1  0.70270000  0.67426000  0.03917000  1.0
  H  H10  1  0.11831000  0.88065000  0.38753000  1.0
  H  H11  1  0.88169000  0.11935000  0.61247000  1.0
  H  H12  1  0.45247000  0.78930000  0.98022000  1.0
  H  H13  1  0.54753000  0.21070000  0.01978000  1.0
  H  H14  1  0.23237000  0.35629000  0.54040000  1.0
  H  H15  1  0.76763000  0.64372000  0.45960000  1.0
  H  H16  1  0.76011000  0.54296000  0.71447000  1.0
  H  H17  1  0.23989000  0.45704000  0.28554000  1.0
  H  H18  1  0.54972000  0.62242000  0.36024000  1.0
  H  H19  1  0.45028000  0.37758000  0.63976000  1.0
  H  H20  1  0.25924000  0.23841000  0.17719000  1.0
  H  H21  1  0.74076000  0.76159000  0.82281000  1.0
  H  H22  1  0.22782000  0.07841000  0.65445000  1.0
  H  H23  1  0.77218000  0.92159000  0.34555000  1.0
  H  H24  1  0.58114000  0.04380000  0.22823000  1.0
  H  H25  1  0.41886000  0.95620000  0.77177000  1.0
  C  C26  1  0.15608000  0.77747000  0.64548000  1.0
  C  C27  1  0.84391000  0.22253000  0.35452000  1.0
  C  C28  1  0.30171000  0.65232000  0.75765000  1.0
  C  C29  1  0.69829000  0.34768000  0.24235000  1.0
  C  C30  1  0.22917000  0.83032000  0.32624000  1.0
  C  C31  1  0.77083000  0.16968000  0.67376000  1.0
  C  C32  1  0.32778000  0.74647000  0.39414000  1.0
  C  C33  1  0.67222000  0.25353000  0.60586000  1.0
  C  C34  1  0.27427000  0.84718000  0.17471000  1.0
  C  C35  1  0.72573000  0.15282000  0.82529000  1.0
  C  C36  1  0.41511000  0.77923000  0.09836000  1.0
  C  C37  1  0.58489000  0.22077000  0.90164000  1.0
  C  C38  1  0.17742000  0.93915000  0.09210000  1.0
  C  C39  1  0.82258000  0.06085000  0.90790000  1.0
  C  C40  1  0.99611000  0.44441000  0.64367000  1.0
  C  C41  1  0.00389000  0.55560000  0.35633000  1.0
  C  C42  1  0.98560000  0.38094000  0.79804000  1.0
  C  C43  1  0.01440000  0.61906000  0.20196000  1.0
  C  C44  1  0.13093000  0.41931000  0.52233000  1.0
  C  C45  1  0.86907000  0.58070000  0.47767000  1.0
  C  C46  1  0.86553000  0.52543000  0.61985000  1.0
  C  C47  1  0.13447000  0.47458000  0.38015000  1.0
  C  C48  1  0.47006000  0.68608000  0.30946000  1.0
  C  C49  1  0.52994000  0.31392000  0.69054000  1.0
  C  C50  1  0.27287000  0.13444000  0.36843000  1.0
  C  C51  1  0.72712000  0.86556000  0.63157000  1.0
  C  C52  1  0.34684000  0.04353000  0.58771000  1.0
  C  C53  1  0.65316000  0.95647000  0.41229000  1.0
  C  C54  1  0.54562000  0.02464000  0.34701000  1.0
  C  C55  1  0.45438000  0.97536000  0.65299000  1.0
  C  C56  1  0.39279000  0.06807000  0.43460000  1.0
  C  C57  1  0.60721000  0.93193000  0.56540000  1.0
  N  N58  1  0.16290000  0.73254000  0.77888000  1.0
  N  N59  1  0.83710000  0.26746000  0.22112000  1.0
  N  N60  1  0.28575000  0.72465000  0.54817000  1.0
  N  N61  1  0.71425000  0.27535000  0.45183000  1.0
  N  N62  1  0.38027000  0.64436000  0.61874000  1.0
  N  N63  1  0.61973000  0.35564000  0.38127000  1.0
  N  N64  1  0.51246000  0.70292000  0.16366000  1.0
  N  N65  1  0.48754000  0.29708000  0.83634000  1.0
  O  O66  1  0.19321000  0.32020000  0.05082000  1.0
  O  O67  1  0.80678000  0.67980000  0.94918000  1.0
  O  O68  1  0.18399000  0.91281000  0.97303000  1.0
  O  O69  1  0.81601000  0.08719000  0.02697000  1.0
  O  O70  1  0.09947000  0.04060000  0.14751000  1.0
  O  O71  1  0.90054000  0.95940000  0.85248000  1.0
  O  O72  1  0.07725000  0.27415000  0.81833000  1.0
  O  O73  1  0.92274000  0.72585000  0.18167000  1.0
  O  O74  1  0.88397000  0.42850000  0.90459000  1.0
  O  O75  1  0.11603000  0.57150000  0.09542000  1.0
  O  O76  1  0.12576000  0.12786000  0.43935000  1.0
  O  O77  1  0.87425000  0.87215000  0.56065000  1.0
  O  O78  1  0.33993000  0.19913000  0.22793000  1.0
  O  O79  1  0.66007000  0.80088000  0.77207000  1.0
