# generated using pymatgen
data_CuMo3H8C8S2(NO5)2
_symmetry_space_group_name_H-M   'P 1'
_cell_length_a   7.64627000
_cell_length_b   10.56040000
_cell_length_c   20.20070000
_cell_angle_alpha   90.00090000
_cell_angle_beta   89.99990000
_cell_angle_gamma   89.99990000
_symmetry_Int_Tables_number   1
_chemical_formula_structural   CuMo3H8C8S2(NO5)2
_chemical_formula_sum   'Cu4 Mo12 H32 C32 S8 N8 O40'
_cell_volume   1631.15945126
_cell_formula_units_Z   4
loop_
 _symmetry_equiv_pos_site_id
 _symmetry_equiv_pos_as_xyz
  1  'x, y, z'
loop_
 _atom_site_type_symbol
 _atom_site_label
 _atom_site_symmetry_multiplicity
 _atom_site_fract_x
 _atom_site_fract_y
 _atom_site_fract_z
 _atom_site_occupancy
  Cu  Cu0  1  0.16817000  0.65236000  0.18788000  1.0
  Cu  Cu1  1  0.16817000  0.34763000  0.81212000  1.0
  Cu  Cu2  1  0.83182000  0.15235000  0.31211000  1.0
  Cu  Cu3  1  0.83181000  0.84765000  0.68789000  1.0
  Mo  Mo4  1  0.44792000  0.65618000  0.04310000  1.0
  Mo  Mo5  1  0.44792000  0.34382000  0.95690000  1.0
  Mo  Mo6  1  0.55205000  0.15618000  0.45690000  1.0
  Mo  Mo7  1  0.55205000  0.84382000  0.54310000  1.0
  Mo  Mo8  1  0.19820000  0.39447000  0.08361000  1.0
  Mo  Mo9  1  0.19820000  0.60553000  0.91639000  1.0
  Mo  Mo10  1  0.80177000  0.89447000  0.41638000  1.0
  Mo  Mo11  1  0.80177000  0.10553000  0.58362000  1.0
  Mo  Mo12  1  0.92535000  0.34547000  0.96356000  1.0
  Mo  Mo13  1  0.92535000  0.65453000  0.03644000  1.0
  Mo  Mo14  1  0.07462000  0.84547000  0.53644000  1.0
  Mo  Mo15  1  0.07462000  0.15453000  0.46356000  1.0
  H  H16  1  0.36819000  0.78609000  0.41489000  1.0
  H  H17  1  0.36819000  0.21391000  0.58511000  1.0
  H  H18  1  0.63178000  0.28611000  0.08510000  1.0
  H  H19  1  0.63177000  0.71389000  0.91490000  1.0
  H  H20  1  0.25789000  0.37711000  0.24215000  1.0
  H  H21  1  0.25790000  0.62289000  0.75785000  1.0
  H  H22  1  0.74217000  0.87710000  0.25781000  1.0
  H  H23  1  0.74217000  0.12291000  0.74219000  1.0
  H  H24  1  0.19758000  0.32889000  0.32379000  1.0
  H  H25  1  0.19758000  0.67111000  0.67622000  1.0
  H  H26  1  0.80246000  0.82889000  0.17617000  1.0
  H  H27  1  0.80246000  0.17111000  0.82383000  1.0
  H  H28  1  0.42110000  0.33626000  0.30215000  1.0
  H  H29  1  0.42110000  0.66374000  0.69785000  1.0
  H  H30  1  0.57895000  0.83624000  0.19781000  1.0
  H  H31  1  0.57894000  0.16376000  0.80219000  1.0
  H  H32  1  0.11089000  0.86698000  0.08967000  1.0
  H  H33  1  0.11089000  0.13302000  0.91033000  1.0
  H  H34  1  0.88908000  0.36696000  0.41032000  1.0
  H  H35  1  0.88907000  0.63304000  0.58968000  1.0
  H  H36  1  0.24813000  0.00320000  0.08534000  1.0
  H  H37  1  0.24813000  0.99680000  0.91465000  1.0
  H  H38  1  0.75186000  0.50320000  0.41464000  1.0
  H  H39  1  0.75186000  0.49680000  0.58536000  1.0
  H  H40  1  0.02537000  0.02116000  0.10451000  1.0
  H  H41  1  0.02537000  0.97884000  0.89549000  1.0
  H  H42  1  0.97464000  0.52114000  0.39548000  1.0
  H  H43  1  0.97464000  0.47887000  0.60451000  1.0
  H  H44  1  0.31663000  0.00473000  0.34678000  1.0
  H  H45  1  0.31663000  0.99527000  0.65321000  1.0
  H  H46  1  0.68344000  0.50474000  0.15320000  1.0
  H  H47  1  0.68346000  0.49526000  0.84680000  1.0
  C  C48  1  0.33769000  0.71329000  0.37903000  1.0
  C  C49  1  0.33769000  0.28671000  0.62097000  1.0
  C  C50  1  0.66231000  0.21330000  0.12095000  1.0
  C  C51  1  0.66230000  0.78670000  0.87905000  1.0
  C  C52  1  0.29377000  0.38227000  0.29443000  1.0
  C  C53  1  0.29377000  0.61772000  0.70557000  1.0
  C  C54  1  0.70627000  0.88227000  0.20552000  1.0
  C  C55  1  0.70627000  0.11773000  0.79447000  1.0
  C  C56  1  0.13860000  0.95888000  0.11178000  1.0
  C  C57  1  0.13860000  0.04112000  0.88822000  1.0
  C  C58  1  0.86140000  0.45887000  0.38822000  1.0
  C  C59  1  0.86139000  0.54114000  0.61178000  1.0
  C  C60  1  0.27405000  0.96959000  0.29896000  1.0
  C  C61  1  0.27405000  0.03041000  0.70104000  1.0
  C  C62  1  0.72600000  0.46958000  0.20103000  1.0
  C  C63  1  0.72601000  0.53042000  0.79897000  1.0
  C  C64  1  0.30002000  0.51670000  0.31612000  1.0
  C  C65  1  0.30003000  0.48330000  0.68388000  1.0
  C  C66  1  0.69999000  0.01669000  0.18384000  1.0
  C  C67  1  0.69998000  0.98331000  0.81615000  1.0
  C  C68  1  0.24781000  0.84655000  0.28004000  1.0
  C  C69  1  0.24781000  0.15345000  0.71996000  1.0
  C  C70  1  0.75220000  0.34654000  0.21995000  1.0
  C  C71  1  0.75221000  0.65346000  0.78006000  1.0
  C  C72  1  0.18177000  0.94275000  0.18276000  1.0
  C  C73  1  0.18177000  0.05725000  0.81724000  1.0
  C  C74  1  0.81824000  0.44274000  0.31723000  1.0
  C  C75  1  0.81823000  0.55726000  0.68277000  1.0
  C  C76  1  0.27970000  0.73006000  0.31565000  1.0
  C  C77  1  0.27970000  0.26994000  0.68435000  1.0
  C  C78  1  0.72031000  0.23006000  0.18433000  1.0
  C  C79  1  0.72031000  0.76995000  0.81567000  1.0
  S  S80  1  0.36653000  0.55630000  0.39511000  1.0
  S  S81  1  0.36653000  0.44370000  0.60489000  1.0
  S  S82  1  0.63347000  0.05631000  0.10486000  1.0
  S  S83  1  0.63345000  0.94369000  0.89513000  1.0
  S  S84  1  0.23353000  0.06870000  0.23373000  1.0
  S  S85  1  0.23352000  0.93130000  0.76627000  1.0
  S  S86  1  0.76652000  0.56869000  0.26626000  1.0
  S  S87  1  0.76653000  0.43131000  0.73374000  1.0
  N  N88  1  0.25797000  0.61799000  0.28044000  1.0
  N  N89  1  0.25797000  0.38201000  0.71956000  1.0
  N  N90  1  0.74206000  0.11799000  0.21954000  1.0
  N  N91  1  0.74205000  0.88201000  0.78046000  1.0
  N  N92  1  0.19301000  0.83342000  0.21483000  1.0
  N  N93  1  0.19301000  0.16658000  0.78517000  1.0
  N  N94  1  0.80699000  0.33341000  0.28516000  1.0
  N  N95  1  0.80699000  0.66659000  0.71484000  1.0
  O  O96  1  0.20381000  0.23969000  0.10706000  1.0
  O  O97  1  0.20381000  0.76030000  0.89294000  1.0
  O  O98  1  0.79617000  0.73969000  0.39294000  1.0
  O  O99  1  0.79617000  0.26031000  0.60706000  1.0
  O  O100  1  0.96181000  0.42864000  0.05360000  1.0
  O  O101  1  0.96181000  0.57136000  0.94640000  1.0
  O  O102  1  0.03816000  0.92864000  0.44640000  1.0
  O  O103  1  0.03816000  0.07136000  0.55360000  1.0
  O  O104  1  0.98409000  0.32304000  0.87863000  1.0
  O  O105  1  0.98408000  0.67696000  0.12138000  1.0
  O  O106  1  0.01588000  0.82304000  0.62137000  1.0
  O  O107  1  0.01588000  0.17696000  0.37863000  1.0
  O  O108  1  0.41992000  0.67480000  0.12783000  1.0
  O  O109  1  0.41992000  0.32519000  0.87217000  1.0
  O  O110  1  0.58008000  0.17482000  0.37218000  1.0
  O  O111  1  0.58008000  0.82518000  0.62782000  1.0
  O  O112  1  0.18001000  0.47927000  0.15914000  1.0
  O  O113  1  0.18001000  0.52073000  0.84086000  1.0
  O  O114  1  0.81996000  0.97926000  0.34085000  1.0
  O  O115  1  0.81996000  0.02074000  0.65915000  1.0
  O  O116  1  0.91067000  0.19439000  0.99205000  1.0
  O  O117  1  0.91066000  0.80560000  0.00795000  1.0
  O  O118  1  0.08930000  0.69440000  0.50794000  1.0
  O  O119  1  0.08930000  0.30560000  0.49206000  1.0
  O  O120  1  0.42793000  0.43454000  0.05700000  1.0
  O  O121  1  0.42793000  0.56546000  0.94300000  1.0
  O  O122  1  0.57205000  0.93454000  0.44299000  1.0
  O  O123  1  0.57205000  0.06546000  0.55701000  1.0
  O  O124  1  0.47084000  0.80708000  0.01393000  1.0
  O  O125  1  0.47084000  0.19292000  0.98607000  1.0
  O  O126  1  0.52913000  0.30707000  0.48608000  1.0
  O  O127  1  0.52912000  0.69292000  0.51392000  1.0
  O  O128  1  0.69169000  0.39133000  0.95786000  1.0
  O  O129  1  0.69169000  0.60867000  0.04214000  1.0
  O  O130  1  0.30829000  0.89132000  0.54215000  1.0
  O  O131  1  0.30829000  0.10868000  0.45786000  1.0
  O  O132  1  0.19689000  0.37060000  0.97712000  1.0
  O  O133  1  0.19689000  0.62940000  0.02288000  1.0
  O  O134  1  0.80308000  0.87060000  0.52288000  1.0
  O  O135  1  0.80308000  0.12940000  0.47712000  1.0
