# generated using pymatgen
data_CuSiH12C20(N4F5)2
_symmetry_space_group_name_H-M   'P 1'
_cell_length_a   8.20896000
_cell_length_b   13.25610000
_cell_length_c   13.26060000
_cell_angle_alpha   88.55610000
_cell_angle_beta   80.90190000
_cell_angle_gamma   80.87500000
_symmetry_Int_Tables_number   1
_chemical_formula_structural   CuSiH12C20(N4F5)2
_chemical_formula_sum   'Cu1 Si1 H12 C20 N8 F10'
_cell_volume   1406.81628014
_cell_formula_units_Z   1
loop_
 _symmetry_equiv_pos_site_id
 _symmetry_equiv_pos_as_xyz
  1  'x, y, z'
loop_
 _atom_site_type_symbol
 _atom_site_label
 _atom_site_symmetry_multiplicity
 _atom_site_fract_x
 _atom_site_fract_y
 _atom_site_fract_z
 _atom_site_occupancy
  Cu  Cu0  1  0.49998000  0.50027000  0.49973000  1.0
  Si  Si1  1  0.00006000  0.49919000  0.50086000  1.0
  H  H2  1  0.24938000  0.56740000  0.37120000  1.0
  H  H3  1  0.20852000  0.57543000  0.18984000  1.0
  H  H4  1  0.73261000  0.45086000  0.10799000  1.0
  H  H5  1  0.26770000  0.55270000  0.89108000  1.0
  H  H6  1  0.78857000  0.42052000  0.81046000  1.0
  H  H7  1  0.74860000  0.42915000  0.62888000  1.0
  H  H8  1  0.25148000  0.37123000  0.57125000  1.0
  H  H9  1  0.21166000  0.18961000  0.58007000  1.0
  H  H10  1  0.73181000  0.10896000  0.44649000  1.0
  H  H11  1  0.26774000  0.89192000  0.54985000  1.0
  H  H12  1  0.79130000  0.81006000  0.42413000  1.0
  H  H13  1  0.75060000  0.62861000  0.43230000  1.0
  C  C14  1  0.35392000  0.54274000  0.31135000  1.0
  C  C15  1  0.33127000  0.54712000  0.20963000  1.0
  C  C16  1  0.46720000  0.51306000  0.13446000  1.0
  C  C17  1  0.62267000  0.47709000  0.16361000  1.0
  C  C18  1  0.63203000  0.47608000  0.26704000  1.0
  C  C19  1  0.37713000  0.52479000  0.83574000  1.0
  C  C20  1  0.53134000  0.48627000  0.86529000  1.0
  C  C21  1  0.66666667  0.45037000  0.79038000  1.0
  C  C22  1  0.64453000  0.45517000  0.68857000  1.0
  C  C23  1  0.36854000  0.52665000  0.73221000  1.0
  C  C24  1  0.35547000  0.31155000  0.54497000  1.0
  C  C25  1  0.33347000  0.20970000  0.54988000  1.0
  C  C26  1  0.46858000  0.13476000  0.51369000  1.0
  C  C27  1  0.62252000  0.16434000  0.47467000  1.0
  C  C28  1  0.63102000  0.26791000  0.47266000  1.0
  C  C29  1  0.37759000  0.83629000  0.52335000  1.0
  C  C30  1  0.53285000  0.86547000  0.48698000  1.0
  C  C31  1  0.66868000  0.79026000  0.45269000  1.0
  C  C32  1  0.64614000  0.68849000  0.45716000  1.0
  C  C33  1  0.36833000  0.73282000  0.52449000  1.0
  N  N34  1  0.50257000  0.50620000  0.34090000  1.0
  N  N35  1  0.43708000  0.51852000  0.03187000  1.0
  N  N36  1  0.56116000  0.48049000  0.96793000  1.0
  N  N37  1  0.49724000  0.49429000  0.65863000  1.0
  N  N38  1  0.50253000  0.34151000  0.50542000  1.0
  N  N39  1  0.43888000  0.03206000  0.51967000  1.0
  N  N40  1  0.56282000  0.96811000  0.48140000  1.0
  N  N41  1  0.49767000  0.65894000  0.49406000  1.0
  F  F42  1  0.20493000  0.51301000  0.51420000  1.0
  F  F43  1  0.79522000  0.48557000  0.48729000  1.0
  F  F44  1  0.99990000  0.59238000  0.40731000  1.0
  F  F45  1  0.00022000  0.40607000  0.59439000  1.0
  F  F46  1  0.07882000  0.40873000  0.41079000  1.0
  F  F47  1  0.92130000  0.58967000  0.59092000  1.0
  F  F48  1  0.77959000  0.44325000  0.29616000  1.0
  F  F49  1  0.22261000  0.56321000  0.70270000  1.0
  F  F50  1  0.77666000  0.29743000  0.43547000  1.0
  F  F51  1  0.22101000  0.70367000  0.55788000  1.0
