# generated using pymatgen
data_ZnH8C11N4
_symmetry_space_group_name_H-M   'P 1'
_cell_length_a   15.41720000
_cell_length_b   18.22510000
_cell_length_c   19.68930000
_cell_angle_alpha   85.49920000
_cell_angle_beta   89.14170000
_cell_angle_gamma   87.90190000
_symmetry_Int_Tables_number   1
_chemical_formula_structural   ZnH8C11N4
_chemical_formula_sum   'Zn8 H64 C88 N32'
_cell_volume   5511.13509963
_cell_formula_units_Z   8
loop_
 _symmetry_equiv_pos_site_id
 _symmetry_equiv_pos_as_xyz
  1  'x, y, z'
loop_
 _atom_site_type_symbol
 _atom_site_label
 _atom_site_symmetry_multiplicity
 _atom_site_fract_x
 _atom_site_fract_y
 _atom_site_fract_z
 _atom_site_occupancy
  Zn  Zn0  1  0.03019000  0.97086000  0.40887000  1.0
  Zn  Zn1  1  0.99224000  0.06038000  0.54874000  1.0
  Zn  Zn2  1  0.47775000  0.47097000  0.90717000  1.0
  Zn  Zn3  1  0.52503000  0.50827000  0.10701000  1.0
  Zn  Zn4  1  0.18241000  0.04494000  0.48902000  1.0
  Zn  Zn5  1  0.83245000  0.94016000  0.53457000  1.0
  Zn  Zn6  1  0.67812000  0.48987000  0.02667000  1.0
  Zn  Zn7  1  0.36697000  0.55912000  0.99525000  1.0
  H  H8  1  0.11724000  0.81443000  0.41175000  1.0
  H  H9  1  0.73052000  0.04242000  0.41715000  1.0
  H  H10  1  0.82622000  0.77475000  0.49574000  1.0
  H  H11  1  0.26666000  0.20278000  0.54698000  1.0
  H  H12  1  0.75665000  0.32225000  0.08109000  1.0
  H  H13  1  0.21142000  0.66062000  0.90254000  1.0
  H  H14  1  0.31431000  0.36609000  0.86662000  1.0
  H  H15  1  0.84583000  0.55898000  0.12371000  1.0
  H  H16  1  0.98157000  0.87839000  0.62069000  1.0
  H  H17  1  0.97757000  0.14731000  0.39376000  1.0
  H  H18  1  0.98083000  0.84751000  0.31935000  1.0
  H  H19  1  0.91253000  0.16287000  0.66277000  1.0
  H  H20  1  0.99433000  0.22086000  0.60018000  1.0
  H  H21  1  0.56980000  0.37210000  0.23930000  1.0
  H  H22  1  0.38060000  0.56430000  0.75277000  1.0
  H  H23  1  0.44196000  0.43182000  0.67533000  1.0
  H  H24  1  0.60912000  0.60760000  0.23534000  1.0
  H  H25  1  0.61321000  0.91659000  0.58940000  1.0
  H  H26  1  0.20324000  0.18208000  0.39515000  1.0
  H  H27  1  0.35780000  0.92393000  0.43899000  1.0
  H  H28  1  0.72138000  0.99400000  0.67464000  1.0
  H  H29  1  0.27363000  0.40265000  0.96516000  1.0
  H  H30  1  0.78993000  0.77241000  0.71144000  1.0
  H  H31  1  0.65236000  0.65015000  0.03815000  1.0
  H  H32  1  0.81835000  0.42802000  0.92373000  1.0
  H  H33  1  0.24388000  0.65681000  0.09095000  1.0
  H  H34  1  0.97637000  0.72713000  0.28222000  1.0
  H  H35  1  0.11591000  0.24093000  0.72409000  1.0
  H  H36  1  0.04459000  0.78884000  0.73185000  1.0
  H  H37  1  0.91872000  0.18745000  0.27250000  1.0
  H  H38  1  0.30864000  0.43417000  0.62389000  1.0
  H  H39  1  0.69223000  0.61583000  0.33201000  1.0
  H  H40  1  0.60176000  0.24550000  0.28428000  1.0
  H  H41  1  0.08673000  0.06046000  0.24145000  1.0
  H  H42  1  0.33727000  0.68273000  0.67949000  1.0
  H  H43  1  0.21679000  0.36768000  0.54879000  1.0
  H  H44  1  0.75154000  0.69613000  0.41243000  1.0
  H  H45  1  0.67048000  0.16149000  0.37365000  1.0
  H  H46  1  0.27135000  0.78114000  0.60198000  1.0
  H  H47  1  0.91435000  0.65086000  0.19956000  1.0
  H  H48  1  0.20982000  0.30507000  0.79886000  1.0
  H  H49  1  0.10799000  0.68701000  0.80714000  1.0
  H  H50  1  0.85053000  0.27535000  0.18539000  1.0
  H  H51  1  0.17574000  0.17772000  0.14739000  1.0
  H  H52  1  0.58113000  0.35242000  0.84321000  1.0
  H  H53  1  0.70276000  0.81723000  0.80699000  1.0
  H  H54  1  0.84979000  0.21246000  0.75541000  1.0
  H  H55  1  0.20252000  0.76123000  0.32441000  1.0
  H  H56  1  0.51807000  0.75691000  0.82930000  1.0
  H  H57  1  0.31307000  0.28713000  0.18776000  1.0
  H  H58  1  0.37756000  0.67367000  0.31078000  1.0
  H  H59  1  0.66693000  0.23787000  0.81948000  1.0
  H  H60  1  0.25220000  0.22824000  0.27840000  1.0
  H  H61  1  0.54217000  0.82324000  0.71506000  1.0
  H  H62  1  0.68369000  0.12315000  0.75483000  1.0
  H  H63  1  0.44031000  0.58095000  0.23756000  1.0
  H  H64  1  0.37291000  0.76698000  0.40325000  1.0
  H  H65  1  0.68019000  0.75283000  0.91981000  1.0
  H  H66  1  0.23404000  0.26914000  0.04777000  1.0
  H  H67  1  0.21290000  0.70067000  0.22392000  1.0
  H  H68  1  0.83900000  0.31826000  0.82451000  1.0
  H  H69  1  0.44467000  0.34640000  0.13518000  1.0
  H  H70  1  0.47543000  0.64039000  0.87152000  1.0
  H  H71  1  0.25747000  0.91368000  0.59845000  1.0
  C  C72  1  0.16828000  0.85222000  0.41984000  1.0
  C  C73  1  0.21081000  0.19406000  0.25000000  1.0
  C  C74  1  0.30519000  0.77923000  0.38943000  1.0
  C  C75  1  0.75005000  0.13848000  0.74117000  1.0
  C  C76  1  0.27702000  0.28985000  0.08506000  1.0
  C  C77  1  0.61573000  0.73821000  0.90413000  1.0
  C  C78  1  0.76978000  0.30906000  0.83350000  1.0
  C  C79  1  0.27740000  0.67735000  0.23721000  1.0
  C  C80  1  0.63502000  0.80962000  0.79405000  1.0
  C  C81  1  0.21517000  0.20750000  0.18110000  1.0
  C  C82  1  0.26874000  0.74398000  0.33941000  1.0
  C  C83  1  0.87303000  0.11579000  0.65715000  1.0
  C  C84  1  0.78254000  0.19849000  0.76789000  1.0
  C  C85  1  0.27171000  0.26290000  0.15126000  1.0
  C  C86  1  0.58346000  0.77001000  0.84444000  1.0
  C  C87  1  0.73550000  0.24855000  0.80908000  1.0
  C  C88  1  0.31186000  0.69369000  0.29701000  1.0
  C  C89  1  0.18704000  0.91668000  0.59757000  1.0
  C  C90  1  0.79708000  0.05943000  0.42011000  1.0
  C  C91  1  0.86758000  0.80223000  0.45729000  1.0
  C  C92  1  0.19717000  0.19637000  0.55332000  1.0
  C  C93  1  0.70483000  0.34368000  0.11279000  1.0
  C  C94  1  0.75940000  0.81096000  0.67335000  1.0
  C  C95  1  0.25935000  0.62973000  0.87428000  1.0
  C  C96  1  0.35727000  0.38544000  0.82540000  1.0
  C  C97  1  0.77992000  0.56629000  0.14293000  1.0
  C  C98  1  0.04621000  0.89869000  0.60980000  1.0
  C  C99  1  0.92309000  0.11277000  0.40676000  1.0
  C  C100  1  0.94709000  0.83916000  0.36804000  1.0
  C  C101  1  0.05863000  0.20496000  0.58222000  1.0
  C  C102  1  0.60816000  0.36838000  0.19290000  1.0
  C  C103  1  0.34685000  0.58179000  0.79787000  1.0
  C  C104  1  0.42263000  0.42077000  0.72837000  1.0
  C  C105  1  0.10978000  0.08238000  0.28734000  1.0
  C  C106  1  0.65905000  0.58980000  0.20011000  1.0
  C  C107  1  0.66705000  0.88267000  0.61092000  1.0
  C  C108  1  0.16891000  0.14412000  0.36619000  1.0
  C  C109  1  0.29106000  0.90787000  0.43471000  1.0
  C  C110  1  0.77527000  0.02988000  0.66306000  1.0
  C  C111  1  0.32424000  0.39780000  0.00316000  1.0
  C  C112  1  0.60407000  0.63627000  0.00227000  1.0
  C  C113  1  0.75206000  0.41720000  0.91039000  1.0
  C  C114  1  0.29894000  0.63144000  0.11874000  1.0
  C  C115  1  0.25893000  0.84031000  0.41800000  1.0
  C  C116  1  0.63073000  0.37722000  0.87135000  1.0
  C  C117  1  0.79625000  0.09567000  0.69200000  1.0
  C  C118  1  0.67329000  0.84160000  0.67419000  1.0
  C  C119  1  0.16299000  0.14301000  0.29497000  1.0
  C  C120  1  0.72144000  0.36380000  0.86987000  1.0
  C  C121  1  0.32153000  0.63590000  0.18705000  1.0
  C  C122  1  0.33414000  0.34818000  0.06051000  1.0
  C  C123  1  0.57734000  0.67574000  0.94157000  1.0
  C  C124  1  0.12808000  0.86473000  0.62460000  1.0
  C  C125  1  0.83869000  0.11766000  0.38249000  1.0
  C  C126  1  0.89439000  0.78143000  0.39233000  1.0
  C  C127  1  0.39954000  0.59341000  0.19341000  1.0
  C  C128  1  0.13689000  0.23994000  0.58814000  1.0
  C  C129  1  0.68062000  0.32190000  0.18016000  1.0
  C  C130  1  0.27433000  0.63101000  0.80377000  1.0
  C  C131  1  0.34334000  0.39310000  0.75517000  1.0
  C  C132  1  0.74988000  0.59537000  0.20363000  1.0
  C  C133  1  0.91273000  0.70420000  0.29296000  1.0
  C  C134  1  0.15708000  0.28446000  0.70221000  1.0
  C  C135  1  0.10862000  0.76540000  0.71980000  1.0
  C  C136  1  0.84924000  0.20086000  0.27565000  1.0
  C  C137  1  0.26696000  0.39123000  0.64589000  1.0
  C  C138  1  0.41101000  0.37099000  0.09052000  1.0
  C  C139  1  0.75396000  0.64145000  0.31971000  1.0
  C  C140  1  0.67155000  0.23355000  0.28210000  1.0
  C  C141  1  0.27265000  0.70522000  0.69118000  1.0
  C  C142  1  0.21495000  0.35448000  0.60380000  1.0
  C  C143  1  0.78811000  0.68638000  0.36592000  1.0
  C  C144  1  0.71008000  0.18558000  0.33187000  1.0
  C  C145  1  0.23593000  0.76153000  0.64789000  1.0
  C  C146  1  0.87794000  0.66017000  0.24626000  1.0
  C  C147  1  0.21032000  0.32043000  0.74417000  1.0
  C  C148  1  0.14506000  0.70847000  0.76276000  1.0
  C  C149  1  0.51323000  0.63211000  0.91762000  1.0
  C  C150  1  0.81065000  0.24951000  0.22613000  1.0
  C  C151  1  0.16365000  0.29707000  0.63098000  1.0
  C  C152  1  0.86653000  0.72217000  0.35211000  1.0
  C  C153  1  0.79970000  0.16866000  0.32983000  1.0
  C  C154  1  0.15518000  0.79569000  0.66308000  1.0
  C  C155  1  0.79537000  0.63048000  0.25675000  1.0
  C  C156  1  0.27150000  0.37013000  0.71613000  1.0
  C  C157  1  0.22974000  0.67975000  0.75161000  1.0
  C  C158  1  0.72118000  0.26726000  0.22873000  1.0
  C  C159  1  0.61056000  0.82680000  0.72831000  1.0
  N  N160  1  0.14861000  0.92174000  0.43401000  1.0
  N  N161  1  0.85245000  0.02247000  0.46234000  1.0
  N  N162  1  0.90091000  0.86715000  0.47010000  1.0
  N  N163  1  0.15767000  0.13940000  0.52966000  1.0
  N  N164  1  0.65015000  0.39839000  0.08769000  1.0
  N  N165  1  0.31849000  0.58346000  0.90672000  1.0
  N  N166  1  0.43801000  0.40727000  0.83805000  1.0
  N  N167  1  0.71167000  0.54552000  0.10716000  1.0
  N  N168  1  0.05725000  0.96546000  0.57595000  1.0
  N  N169  1  0.93270000  0.05399000  0.45448000  1.0
  N  N170  1  0.94986000  0.89009000  0.41411000  1.0
  N  N171  1  0.89433000  0.06715000  0.61152000  1.0
  N  N172  1  0.07149000  0.14437000  0.54714000  1.0
  N  N173  1  0.59124000  0.41367000  0.13743000  1.0
  N  N174  1  0.37261000  0.55369000  0.85973000  1.0
  N  N175  1  0.47884000  0.42982000  0.77773000  1.0
  N  N176  1  0.63699000  0.56040000  0.14292000  1.0
  N  N177  1  0.74356000  0.87632000  0.57662000  1.0
  N  N178  1  0.12525000  0.08876000  0.39802000  1.0
  N  N179  1  0.22463000  0.95660000  0.44234000  1.0
  N  N180  1  0.83490000  0.01319000  0.61485000  1.0
  N  N181  1  0.38974000  0.44673000  0.99969000  1.0
  N  N182  1  0.80100000  0.83108000  0.61544000  1.0
  N  N183  1  0.56152000  0.57190000  0.01246000  1.0
  N  N184  1  0.68469000  0.45846000  0.93426000  1.0
  N  N185  1  0.35916000  0.58972000  0.08742000  1.0
  N  N186  1  0.08872000  0.05051000  0.34940000  1.0
  N  N187  1  0.60875000  0.43277000  0.90982000  1.0
  N  N188  1  0.42092000  0.56613000  0.13399000  1.0
  N  N189  1  0.44328000  0.42939000  0.05489000  1.0
  N  N190  1  0.50342000  0.57034000  0.95952000  1.0
  N  N191  1  0.14431000  0.97645000  0.56930000  1.0
