# generated using pymatgen
data_CdH12C15(NO)4
_symmetry_space_group_name_H-M   'P 1'
_cell_length_a   7.91568000
_cell_length_b   9.55632000
_cell_length_c   10.91380000
_cell_angle_alpha   101.53200000
_cell_angle_beta   104.63500000
_cell_angle_gamma   104.32700000
_symmetry_Int_Tables_number   1
_chemical_formula_structural   CdH12C15(NO)4
_chemical_formula_sum   'Cd2 H24 C30 N8 O8'
_cell_volume   742.99821452
_cell_formula_units_Z   2
loop_
 _symmetry_equiv_pos_site_id
 _symmetry_equiv_pos_as_xyz
  1  'x, y, z'
loop_
 _atom_site_type_symbol
 _atom_site_label
 _atom_site_symmetry_multiplicity
 _atom_site_fract_x
 _atom_site_fract_y
 _atom_site_fract_z
 _atom_site_occupancy
  Cd  Cd0  1  0.22149000  0.34174000  0.35121000  1.0
  Cd  Cd1  1  0.77851000  0.65826000  0.64879000  1.0
  H  H2  1  0.16469000  0.50834000  0.62536000  1.0
  H  H3  1  0.83531000  0.49166000  0.37464000  1.0
  H  H4  1  0.19422000  0.06529000  0.53620000  1.0
  H  H5  1  0.80579000  0.93471000  0.46380000  1.0
  H  H6  1  0.09820000  0.11932000  0.76424000  1.0
  H  H7  1  0.90180000  0.88068000  0.23576000  1.0
  H  H8  1  0.06854000  0.52732000  0.81247000  1.0
  H  H9  1  0.93146000  0.47268000  0.18753000  1.0
  H  H10  1  0.92210000  0.35551000  0.81779000  1.0
  H  H11  1  0.07790000  0.64449000  0.18222000  1.0
  H  H12  1  0.38728000  0.64852000  0.99877000  1.0
  H  H13  1  0.61273000  0.35148000  0.00123000  1.0
  H  H14  1  0.49442000  0.60326000  0.24793000  1.0
  H  H15  1  0.50559000  0.39674000  0.75208000  1.0
  H  H16  1  0.02637000  0.24105000  0.00375000  1.0
  H  H17  1  0.97364000  0.75895000  0.99626000  1.0
  H  H18  1  0.76597000  0.91707000  0.97416000  1.0
  H  H19  1  0.23403000  0.08293000  0.02584000  1.0
  H  H20  1  0.54870000  0.22015000  0.18653000  1.0
  H  H21  1  0.45130000  0.77985000  0.81346000  1.0
  H  H22  1  0.28564000  0.80102000  0.30034000  1.0
  H  H23  1  0.71436000  0.19899000  0.69966000  1.0
  H  H24  1  0.62041000  0.93270000  0.70606000  1.0
  H  H25  1  0.37958000  0.06730000  0.29394000  1.0
  C  C26  1  0.16157000  0.39522000  0.62918000  1.0
  C  C27  1  0.83843000  0.60478000  0.37082000  1.0
  C  C28  1  0.17463000  0.16595000  0.58847000  1.0
  C  C29  1  0.82536000  0.83405000  0.41153000  1.0
  C  C30  1  0.12873000  0.19184000  0.70226000  1.0
  C  C31  1  0.87127000  0.80816000  0.29774000  1.0
  C  C32  1  0.06384000  0.41689000  0.82829000  1.0
  C  C33  1  0.93616000  0.58311000  0.17171000  1.0
  C  C34  1  0.33104000  0.55849000  0.03800000  1.0
  C  C35  1  0.66896000  0.44151000  0.96201000  1.0
  C  C36  1  0.38223000  0.53397000  0.15990000  1.0
  C  C37  1  0.61777000  0.46603000  0.84010000  1.0
  C  C38  1  0.14094000  0.34471000  0.03858000  1.0
  C  C39  1  0.85907000  0.65530000  0.96142000  1.0
  C  C40  1  0.86653000  0.15880000  0.18590000  1.0
  C  C41  1  0.13347000  0.84120000  0.81410000  1.0
  C  C42  1  0.67677000  0.07610000  0.09061000  1.0
  C  C43  1  0.32322000  0.92390000  0.90939000  1.0
  C  C44  1  0.64831000  0.95175000  0.98557000  1.0
  C  C45  1  0.35169000  0.04824000  0.01443000  1.0
  C  C46  1  0.52695000  0.12428000  0.10419000  1.0
  C  C47  1  0.47305000  0.87572000  0.89581000  1.0
  C  C48  1  0.38705000  0.68791000  0.50557000  1.0
  C  C49  1  0.61295000  0.31209000  0.49443000  1.0
  C  C50  1  0.44394000  0.84956000  0.50360000  1.0
  C  C51  1  0.55606000  0.15044000  0.49640000  1.0
  C  C52  1  0.37798000  0.88925000  0.38805000  1.0
  C  C53  1  0.62202000  0.11075000  0.61195000  1.0
  C  C54  1  0.56747000  0.96224000  0.61595000  1.0
  C  C55  1  0.43253000  0.03776000  0.38405000  1.0
  N  N56  1  0.19446000  0.29335000  0.54397000  1.0
  N  N57  1  0.80554000  0.70665000  0.45603000  1.0
  N  N58  1  0.12228000  0.33823000  0.72690000  1.0
  N  N59  1  0.87772000  0.66177000  0.27310000  1.0
  N  N60  1  0.17726000  0.43712000  0.96182000  1.0
  N  N61  1  0.82274000  0.56288000  0.03818000  1.0
  N  N62  1  0.26253000  0.40040000  0.15878000  1.0
  N  N63  1  0.73747000  0.59960000  0.84122000  1.0
  O  O64  1  0.99358000  0.09817000  0.18923000  1.0
  O  O65  1  0.00642000  0.90183000  0.81077000  1.0
  O  O66  1  0.89429000  0.29072000  0.25835000  1.0
  O  O67  1  0.10571000  0.70928000  0.74164000  1.0
  O  O68  1  0.24940000  0.59656000  0.41051000  1.0
  O  O69  1  0.75060000  0.40344000  0.58949000  1.0
  O  O70  1  0.47778000  0.65076000  0.60109000  1.0
  O  O71  1  0.52221000  0.34924000  0.39891000  1.0
