# generated using pymatgen
data_Al6H68C99Br3N3O28
_symmetry_space_group_name_H-M   'P 1'
_cell_length_a   12.78510000
_cell_length_b   12.90480709
_cell_length_c   27.61830000
_cell_angle_alpha   89.06354902
_cell_angle_beta   89.31850000
_cell_angle_gamma   60.96313506
_symmetry_Int_Tables_number   1
_chemical_formula_structural   Al6H68C99Br3N3O28
_chemical_formula_sum   'Al6 H68 C99 Br3 N3 O28'
_cell_volume   3983.40413578
_cell_formula_units_Z   1
loop_
 _symmetry_equiv_pos_site_id
 _symmetry_equiv_pos_as_xyz
  1  'x, y, z'
loop_
 _atom_site_type_symbol
 _atom_site_label
 _atom_site_symmetry_multiplicity
 _atom_site_fract_x
 _atom_site_fract_y
 _atom_site_fract_z
 _atom_site_occupancy
  Al  Al0  1  0.59568000  0.55628000  0.50422000  1.0
  Al  Al1  1  0.82261000  0.59771000  0.50345000  1.0
  Al  Al2  1  0.58018000  0.81016000  0.49933000  1.0
  Al  Al3  1  0.09084000  0.07031000  0.01541000  1.0
  Al  Al4  1  0.84135000  0.06777000  0.01903000  1.0
  Al  Al5  1  0.06682000  0.83368000  0.01665000  1.0
  H  H6  1  0.63145000  0.94171000  0.81214000  1.0
  H  H7  1  0.39854000  0.63639000  0.80027000  1.0
  H  H8  1  0.94571000  0.38918000  0.81984000  1.0
  H  H9  1  0.66007000  0.79142000  0.73064000  1.0
  H  H10  1  0.52376000  0.70780000  0.72789000  1.0
  H  H11  1  0.82034000  0.52275000  0.73492000  1.0
  H  H12  1  0.69607000  0.78579000  0.81386000  1.0
  H  H13  1  0.48539000  0.70608000  0.81102000  1.0
  H  H14  1  0.79166000  0.49211000  0.81674000  1.0
  H  H15  1  0.01117000  0.72165000  0.79336000  1.0
  H  H16  1  0.23286000  0.01691000  0.79733000  1.0
  H  H17  1  0.69269000  0.27040000  0.78819000  1.0
  H  H18  1  0.68571000  0.02203000  0.13729000  1.0
  H  H19  1  0.26808000  0.66313000  0.13812000  1.0
  H  H20  1  0.03883000  0.24562000  0.13515000  1.0
  H  H21  1  0.54961000  0.08880000  0.30187000  1.0
  H  H22  1  0.39329000  0.50843000  0.29834000  1.0
  H  H23  1  0.10051000  0.37175000  0.28947000  1.0
  H  H24  1  0.01509000  0.69161000  0.14081000  1.0
  H  H25  1  0.26640000  0.99681000  0.13582000  1.0
  H  H26  1  0.71409000  0.22671000  0.15199000  1.0
  H  H27  1  0.08512000  0.57543000  0.21683000  1.0
  H  H28  1  0.32123000  0.06783000  0.20800000  1.0
  H  H29  1  0.60495000  0.27644000  0.22945000  1.0
  H  H30  1  0.06609000  0.56068000  0.30574000  1.0
  H  H31  1  0.38214000  0.04137000  0.29419000  1.0
  H  H32  1  0.58803000  0.33748000  0.31517000  1.0
  H  H33  1  0.60965000  0.94520000  0.72793000  1.0
  H  H34  1  0.44341000  0.63132000  0.71747000  1.0
  H  H35  1  0.96911000  0.40493000  0.73603000  1.0
  H  H36  1  0.94848000  0.64022000  0.38091000  1.0
  H  H37  1  0.43519000  0.92148000  0.36935000  1.0
  H  H38  1  0.66231000  0.40457000  0.38289000  1.0
  H  H39  1  0.91016000  0.92005000  0.70565000  1.0
  H  H40  1  0.14621000  0.90288000  0.69894000  1.0
  H  H41  1  0.89068000  0.16766000  0.70781000  1.0
  H  H42  1  0.75526000  0.02166000  0.70780000  1.0
  H  H43  1  0.21979000  0.74658000  0.70284000  1.0
  H  H44  1  0.01232000  0.19603000  0.71149000  1.0
  H  H45  1  0.76177000  0.03512000  0.79218000  1.0
  H  H46  1  0.17527000  0.76014000  0.78587000  1.0
  H  H47  1  0.01773000  0.17716000  0.79634000  1.0
  H  H48  1  0.91869000  0.94606000  0.78878000  1.0
  H  H49  1  0.10920000  0.91621000  0.78244000  1.0
  H  H50  1  0.91583000  0.12258000  0.79095000  1.0
  H  H51  1  0.88504000  0.64688000  0.72504000  1.0
  H  H52  1  0.41795000  0.93314000  0.72256000  1.0
  H  H53  1  0.65062000  0.47917000  0.72657000  1.0
  H  H54  1  0.98520000  0.70017000  0.71094000  1.0
  H  H55  1  0.26201000  0.01252000  0.71316000  1.0
  H  H56  1  0.67611000  0.33897000  0.70769000  1.0
  H  H57  1  0.92137000  0.65603000  0.80738000  1.0
  H  H58  1  0.38820000  0.93113000  0.80647000  1.0
  H  H59  1  0.63965000  0.41824000  0.80613000  1.0
  H  H60  1  0.60459000  0.09717000  0.36425000  1.0
  H  H61  1  0.60768000  0.05159000  0.46226000  1.0
  H  H62  1  0.65120000  0.15044000  0.43384000  1.0
  H  H63  1  0.75977000  0.00029000  0.44657000  1.0
  H  H64  1  0.44342000  0.58209000  0.42107000  1.0
  H  H65  1  0.35265000  0.47549000  0.41754000  1.0
  H  H66  1  0.42055000  0.42273000  0.36040000  1.0
  H  H67  1  0.27542000  0.55008000  0.36329000  1.0
  H  H68  1  0.99535000  0.43011000  0.41455000  1.0
  H  H69  1  0.19317000  0.30860000  0.40839000  1.0
  H  H70  1  0.18712000  0.37576000  0.35113000  1.0
  H  H71  1  0.17312000  0.24484000  0.35500000  1.0
  H  H72  1  0.49136000  0.45759000  0.53094000  1.0
  H  H73  1  0.20981000  0.14878000  0.98436000  1.0
  C  C74  1  0.44967000  0.76102000  0.56862000  1.0
  C  C75  1  0.80548000  0.45012000  0.57279000  1.0
  C  C76  1  0.74776000  0.79057000  0.57063000  1.0
  C  C77  1  0.92353000  0.72840000  0.78667000  1.0
  C  C78  1  0.31273000  0.93504000  0.78633000  1.0
  C  C79  1  0.70996000  0.34583000  0.78515000  1.0
  C  C80  1  0.90450000  0.71927000  0.73199000  1.0
  C  C81  1  0.33359000  0.93354000  0.73100000  1.0
  C  C82  1  0.70942000  0.38343000  0.73169000  1.0
  C  C83  1  0.83958000  0.85772000  0.85809000  1.0
  C  C84  1  0.27167000  0.83220000  0.85356000  1.0
  C  C85  1  0.83438000  0.28271000  0.85948000  1.0
  C  C86  1  0.78280000  0.82922000  0.66125000  1.0
  C  C87  1  0.36430000  0.81323000  0.65764000  1.0
  C  C88  1  0.83849000  0.37878000  0.66424000  1.0
  C  C89  1  0.76813000  0.81945000  0.61846000  1.0
  C  C90  1  0.39285000  0.79625000  0.61519000  1.0
  C  C91  1  0.83391000  0.40287000  0.62130000  1.0
  C  C92  1  0.89470000  0.18734000  0.08886000  1.0
  C  C93  1  0.87789000  0.88043000  0.08374000  1.0
  C  C94  1  0.21060000  0.86010000  0.08334000  1.0
  C  C95  1  0.87548000  0.20491000  0.95010000  1.0
  C  C96  1  0.87871000  0.89030000  0.94910000  1.0
  C  C97  1  0.20305000  0.86691000  0.94528000  1.0
  C  C98  1  0.71963000  0.92352000  0.36371000  1.0
  C  C99  1  0.40778000  0.67052000  0.35802000  1.0
  C  C100  1  0.93409000  0.38576000  0.35727000  1.0
  C  C101  1  0.72006000  0.92478000  0.31156000  1.0
  C  C102  1  0.38067000  0.68206000  0.30715000  1.0
  C  C103  1  0.94313000  0.35335000  0.30731000  1.0
  C  C104  1  0.73436000  0.93628000  0.20772000  1.0
  C  C105  1  0.32012000  0.70901000  0.20537000  1.0
  C  C106  1  0.95820000  0.29004000  0.20661000  1.0
  C  C107  1  0.46604000  0.75408000  0.42989000  1.0
  C  C108  1  0.79889000  0.45435000  0.43321000  1.0
  C  C109  1  0.77440000  0.78342000  0.43698000  1.0
  C  C110  1  0.63457000  0.02316000  0.23465000  1.0
  C  C111  1  0.34499000  0.60467000  0.23274000  1.0
  C  C112  1  0.04191000  0.31856000  0.22846000  1.0
  C  C113  1  0.62888000  0.01972000  0.28411000  1.0
  C  C114  1  0.37326000  0.59151000  0.28079000  1.0
  C  C115  1  0.03572000  0.34805000  0.27608000  1.0
  C  C116  1  0.75038000  0.94526000  0.15781000  1.0
  C  C117  1  0.28288000  0.72832000  0.15692000  1.0
  C  C118  1  0.96523000  0.25543000  0.15836000  1.0
  C  C119  1  0.85212000  0.85851000  0.13433000  1.0
  C  C120  1  0.26258000  0.83228000  0.13275000  1.0
  C  C121  1  0.87810000  0.23212000  0.13925000  1.0
  C  C122  1  0.88938000  0.72190000  0.36155000  1.0
  C  C123  1  0.41739000  0.85685000  0.35160000  1.0
  C  C124  1  0.74118000  0.38749000  0.36157000  1.0
  C  C125  1  0.90316000  0.72901000  0.31175000  1.0
  C  C126  1  0.38369000  0.87317000  0.30317000  1.0
  C  C127  1  0.75238000  0.34763000  0.31430000  1.0
  C  C128  1  0.81424000  0.83018000  0.28602000  1.0
  C  C129  1  0.36579000  0.78408000  0.28045000  1.0
  C  C130  1  0.85351000  0.33254000  0.28631000  1.0
  C  C131  1  0.99989000  0.63720000  0.28538000  1.0
  C  C132  1  0.36772000  0.97501000  0.27593000  1.0
  C  C133  1  0.66399000  0.32555000  0.29282000  1.0
  C  C134  1  0.01031000  0.64510000  0.23649000  1.0
  C  C135  1  0.33480000  0.98960000  0.22855000  1.0
  C  C136  1  0.67311000  0.29196000  0.24579000  1.0
  C  C137  1  0.92328000  0.74570000  0.20961000  1.0
  C  C138  1  0.31739000  0.90183000  0.20435000  1.0
  C  C139  1  0.77170000  0.27843000  0.21620000  1.0
  C  C140  1  0.68328000  0.85990000  0.74051000  1.0
  C  C141  1  0.43772000  0.71011000  0.73459000  1.0
  C  C142  1  0.87631000  0.42936000  0.74555000  1.0
  C  C143  1  0.82298000  0.83726000  0.23466000  1.0
  C  C144  1  0.33488000  0.79763000  0.23038000  1.0
  C  C145  1  0.86170000  0.30010000  0.23672000  1.0
  C  C146  1  0.93646000  0.75829000  0.15977000  1.0
  C  C147  1  0.28191000  0.91714000  0.15585000  1.0
  C  C148  1  0.78151000  0.24457000  0.16765000  1.0
  C  C149  1  0.79756000  0.81421000  0.38802000  1.0
  C  C150  1  0.42917000  0.76005000  0.37933000  1.0
  C  C151  1  0.82766000  0.40790000  0.38344000  1.0
  C  C152  1  0.82579000  0.93885000  0.72372000  1.0
  C  C153  1  0.21635000  0.82600000  0.71841000  1.0
  C  C154  1  0.92354000  0.22061000  0.72663000  1.0
  C  C155  1  0.83379000  0.95000000  0.77912000  1.0
  C  C156  1  0.19020000  0.83324000  0.77343000  1.0
  C  C157  1  0.92977000  0.19815000  0.78194000  1.0
  C  C158  1  0.85247000  0.86827000  0.90096000  1.0
  C  C159  1  0.24902000  0.83925000  0.89660000  1.0
  C  C160  1  0.84334000  0.25662000  0.90229000  1.0
  C  C161  1  0.79892000  0.83671000  0.71284000  1.0
  C  C162  1  0.33793000  0.82201000  0.70901000  1.0
  C  C163  1  0.83758000  0.35340000  0.71553000  1.0
  C  C164  1  0.70123000  0.85978000  0.79585000  1.0
  C  C165  1  0.41116000  0.71188000  0.78936000  1.0
  C  C166  1  0.86301000  0.41127000  0.80031000  1.0
  C  C167  1  0.82510000  0.84833000  0.80647000  1.0
  C  C168  1  0.29629000  0.82799000  0.80209000  1.0
  C  C169  1  0.83281000  0.30954000  0.80823000  1.0
  C  C170  1  0.66712000  0.05884000  0.43505000  1.0
  C  C171  1  0.36330000  0.50379000  0.38100000  1.0
  C  C172  1  0.14961000  0.32889000  0.37283000  1.0
  Br  Br173  1  0.50335000  0.14638000  0.20077000  1.0
  Br  Br174  1  0.34121000  0.47586000  0.20148000  1.0
  Br  Br175  1  0.16420000  0.32055000  0.18888000  1.0
  N  N176  1  0.64840000  0.02696000  0.38693000  1.0
  N  N177  1  0.41611000  0.57979000  0.38653000  1.0
  N  N178  1  0.02123000  0.39910000  0.38027000  1.0
  O  O179  1  0.71079000  0.45957000  0.55482000  1.0
  O  O180  1  0.83249000  0.69739000  0.55177000  1.0
  O  O181  1  0.45561000  0.84151000  0.54234000  1.0
  O  O182  1  0.18432000  0.96554000  0.96125000  1.0
  O  O183  1  0.79605000  0.19138000  0.97453000  1.0
  O  O184  1  0.97460000  0.80989000  0.96870000  1.0
  O  O185  1  0.49327000  0.65269000  0.55817000  1.0
  O  O186  1  0.87619000  0.48328000  0.55247000  1.0
  O  O187  1  0.64505000  0.85653000  0.55164000  1.0
  O  O188  1  0.70184000  0.46936000  0.45194000  1.0
  O  O189  1  0.85411000  0.68548000  0.45666000  1.0
  O  O190  1  0.48245000  0.83879000  0.44614000  1.0
  O  O191  1  0.48345000  0.66524000  0.45650000  1.0
  O  O192  1  0.87202000  0.48091000  0.45573000  1.0
  O  O193  1  0.67194000  0.84866000  0.45670000  1.0
  O  O194  1  0.66712000  0.65506000  0.50342000  1.0
  O  O195  1  0.19143000  0.95719000  0.06420000  1.0
  O  O196  1  0.81280000  0.16775000  0.07127000  1.0
  O  O197  1  0.97706000  0.80456000  0.06468000  1.0
  O  O198  1  0.98984000  0.16766000  0.06704000  1.0
  O  O199  1  0.80335000  0.97793000  0.06300000  1.0
  O  O200  1  0.18327000  0.78575000  0.06395000  1.0
  O  O201  1  0.99859000  0.98936000  0.01618000  1.0
  O  O202  1  0.98107000  0.17272000  0.96317000  1.0
  O  O203  1  0.80725000  0.99091000  0.96725000  1.0
  O  O204  1  0.18075000  0.79097000  0.96733000  1.0
  O  O205  1  0.52580000  0.46702000  0.50095000  1.0
  O  O206  1  0.17325000  0.14647000  0.01488000  1.0
