# generated using pymatgen
data_MnH22C30(N2O3)2
_symmetry_space_group_name_H-M   'P 1'
_cell_length_a   10.41250000
_cell_length_b   10.41250000
_cell_length_c   12.65320000
_cell_angle_alpha   108.88600000
_cell_angle_beta   108.88600000
_cell_angle_gamma   92.80290000
_symmetry_Int_Tables_number   1
_chemical_formula_structural   MnH22C30(N2O3)2
_chemical_formula_sum   'Mn2 H44 C60 N8 O12'
_cell_volume   1209.89849487
_cell_formula_units_Z   2
loop_
 _symmetry_equiv_pos_site_id
 _symmetry_equiv_pos_as_xyz
  1  'x, y, z'
loop_
 _atom_site_type_symbol
 _atom_site_label
 _atom_site_symmetry_multiplicity
 _atom_site_fract_x
 _atom_site_fract_y
 _atom_site_fract_z
 _atom_site_occupancy
  Mn  Mn0  1  0.50852000  0.49148000  0.75000000  1.0
  Mn  Mn1  1  0.49148000  0.50852000  0.25000000  1.0
  H  H2  1  0.17022000  0.41775000  0.92240000  1.0
  H  H3  1  0.58225000  0.82978000  0.57760000  1.0
  H  H4  1  0.82978000  0.58225000  0.07760000  1.0
  H  H5  1  0.41775000  0.17022000  0.42240000  1.0
  H  H6  1  0.09488000  0.66085000  0.64718000  1.0
  H  H7  1  0.33915000  0.90512000  0.85282000  1.0
  H  H8  1  0.90512000  0.33915000  0.35282000  1.0
  H  H9  1  0.66085000  0.09488000  0.14718000  1.0
  H  H10  1  0.94742000  0.83325000  0.61099000  1.0
  H  H11  1  0.16675000  0.05258000  0.88901000  1.0
  H  H12  1  0.05258000  0.16675000  0.38901000  1.0
  H  H13  1  0.83325000  0.94742000  0.11099000  1.0
  H  H14  1  0.80162000  0.91362000  0.73346000  1.0
  H  H15  1  0.08638000  0.19838000  0.76654000  1.0
  H  H16  1  0.19838000  0.08638000  0.26655000  1.0
  H  H17  1  0.91362000  0.80163000  0.23345000  1.0
  H  H18  1  0.80005000  0.82036000  0.88874000  1.0
  H  H19  1  0.17964000  0.19995000  0.61126000  1.0
  H  H20  1  0.19995000  0.17964000  0.11126000  1.0
  H  H21  1  0.82036000  0.80005000  0.38874000  1.0
  H  H22  1  0.85126000  0.15775000  0.66803000  1.0
  H  H23  1  0.84225000  0.14874000  0.83197000  1.0
  H  H24  1  0.14874000  0.84225000  0.33197000  1.0
  H  H25  1  0.15775000  0.85126000  0.16803000  1.0
  H  H26  1  0.91485000  0.24246000  0.52575000  1.0
  H  H27  1  0.75754000  0.08515000  0.97425000  1.0
  H  H28  1  0.08515000  0.75754000  0.47426000  1.0
  H  H29  1  0.24246000  0.91485000  0.02575000  1.0
  H  H30  1  0.81267000  0.44178000  0.47986000  1.0
  H  H31  1  0.55822000  0.18733000  0.02014000  1.0
  H  H32  1  0.18734000  0.55823000  0.52014000  1.0
  H  H33  1  0.44178000  0.81267000  0.97986000  1.0
  H  H34  1  0.65089000  0.54465000  0.57775000  1.0
  H  H35  1  0.45535000  0.34910000  0.92225000  1.0
  H  H36  1  0.34911000  0.45535000  0.42226000  1.0
  H  H37  1  0.54465000  0.65089000  0.07774000  1.0
  H  H38  1  0.27424000  0.36891000  0.58290000  1.0
  H  H39  1  0.63109000  0.72576000  0.91710000  1.0
  H  H40  1  0.72576000  0.63109000  0.41710000  1.0
  H  H41  1  0.36891000  0.27424000  0.08290000  1.0
  H  H42  1  0.36331000  0.24702000  0.56363000  1.0
  H  H43  1  0.75298000  0.63669000  0.93637000  1.0
  H  H44  1  0.63669000  0.75298000  0.43637000  1.0
  H  H45  1  0.24702000  0.36331000  0.06363000  1.0
  C  C46  1  0.00899000  0.53132000  0.95701000  1.0
  C  C47  1  0.46868000  0.99101000  0.54299000  1.0
  C  C48  1  0.99101000  0.46868000  0.04299000  1.0
  C  C49  1  0.53132000  0.00899000  0.45701000  1.0
  C  C50  1  0.10510000  0.49057000  0.89990000  1.0
  C  C51  1  0.50943000  0.89490000  0.60010000  1.0
  C  C52  1  0.89490000  0.50943000  0.10010000  1.0
  C  C53  1  0.49057000  0.10510000  0.39990000  1.0
  C  C54  1  0.11484000  0.54150000  0.81430000  1.0
  C  C55  1  0.45850000  0.88515000  0.68570000  1.0
  C  C56  1  0.88515000  0.45850000  0.18570000  1.0
  C  C57  1  0.54150000  0.11485000  0.31430000  1.0
  C  C58  1  0.03161000  0.63986000  0.78830000  1.0
  C  C59  1  0.36014000  0.96839000  0.71170000  1.0
  C  C60  1  0.96839000  0.36014000  0.21170000  1.0
  C  C61  1  0.63986000  0.03161000  0.28830000  1.0
  C  C62  1  0.03083000  0.69608000  0.70010000  1.0
  C  C63  1  0.30392000  0.96917000  0.79990000  1.0
  C  C64  1  0.96916000  0.30392000  0.29990000  1.0
  C  C65  1  0.69608000  0.03083000  0.20010000  1.0
  C  C66  1  0.94847000  0.79179000  0.68003000  1.0
  C  C67  1  0.20821000  0.05153000  0.81997000  1.0
  C  C68  1  0.05153000  0.20821000  0.31997000  1.0
  C  C69  1  0.79179000  0.94846000  0.18003000  1.0
  C  C70  1  0.86629000  0.83770000  0.74963000  1.0
  C  C71  1  0.16230000  0.13371000  0.75037000  1.0
  C  C72  1  0.13371000  0.16230000  0.25037000  1.0
  C  C73  1  0.83770000  0.86629000  0.24963000  1.0
  C  C74  1  0.86508000  0.78552000  0.83660000  1.0
  C  C75  1  0.21448000  0.13493000  0.66340000  1.0
  C  C76  1  0.13493000  0.21448000  0.16340000  1.0
  C  C77  1  0.78552000  0.86508000  0.33660000  1.0
  C  C78  1  0.94455000  0.68284000  0.85629000  1.0
  C  C79  1  0.31716000  0.05545000  0.64371000  1.0
  C  C80  1  0.05545000  0.31716000  0.14371000  1.0
  C  C81  1  0.68284000  0.94455000  0.35629000  1.0
  C  C82  1  0.21000000  0.49124000  0.74741000  1.0
  C  C83  1  0.50876000  0.79000000  0.75259000  1.0
  C  C84  1  0.79000000  0.50876000  0.25259000  1.0
  C  C85  1  0.49124000  0.21001000  0.24741000  1.0
  C  C86  1  0.72515000  0.31340000  0.70507000  1.0
  C  C87  1  0.68660000  0.27484000  0.79493000  1.0
  C  C88  1  0.27484000  0.68660000  0.29493000  1.0
  C  C89  1  0.31340000  0.72515000  0.20507000  1.0
  C  C90  1  0.81194000  0.24615000  0.64949000  1.0
  C  C91  1  0.75385000  0.18806000  0.85051000  1.0
  C  C92  1  0.18806000  0.75385000  0.35051000  1.0
  C  C93  1  0.24614000  0.81194000  0.14949000  1.0
  C  C94  1  0.84532000  0.29183000  0.56807000  1.0
  C  C95  1  0.70818000  0.15468000  0.93193000  1.0
  C  C96  1  0.15468000  0.70817000  0.43193000  1.0
  C  C97  1  0.29183000  0.84532000  0.06807000  1.0
  C  C98  1  0.78900000  0.40135000  0.54191000  1.0
  C  C99  1  0.59865000  0.21099000  0.95809000  1.0
  C  C100  1  0.21100000  0.59866000  0.45809000  1.0
  C  C101  1  0.40135000  0.78900000  0.04191000  1.0
  C  C102  1  0.69961000  0.46053000  0.59746000  1.0
  C  C103  1  0.53947000  0.30039000  0.90254000  1.0
  C  C104  1  0.30039000  0.53947000  0.40254000  1.0
  C  C105  1  0.46053000  0.69961000  0.09746000  1.0
  N  N106  1  0.93162000  0.62553000  0.93620000  1.0
  N  N107  1  0.37447000  0.06838000  0.56381000  1.0
  N  N108  1  0.06838000  0.37447000  0.06380000  1.0
  N  N109  1  0.62553000  0.93162000  0.43620000  1.0
  N  N110  1  0.66977000  0.41881000  0.67782000  1.0
  N  N111  1  0.58119000  0.33022000  0.82218000  1.0
  N  N112  1  0.33023000  0.58120000  0.32218000  1.0
  N  N113  1  0.41880000  0.66977000  0.17782000  1.0
  O  O114  1  0.33785000  0.51244000  0.80997000  1.0
  O  O115  1  0.48756000  0.66215000  0.69003000  1.0
  O  O116  1  0.66215000  0.48756000  0.19003000  1.0
  O  O117  1  0.51244000  0.33785000  0.30997000  1.0
  O  O118  1  0.15471000  0.43192000  0.63483000  1.0
  O  O119  1  0.56808000  0.84529000  0.86517000  1.0
  O  O120  1  0.84529000  0.56808000  0.36517000  1.0
  O  O121  1  0.43192000  0.15471000  0.13483000  1.0
  O  O122  1  0.36249000  0.34520000  0.57089000  1.0
  O  O123  1  0.65480000  0.63752000  0.92911000  1.0
  O  O124  1  0.63751000  0.65480000  0.42910000  1.0
  O  O125  1  0.34520000  0.36248000  0.07090000  1.0
