# generated using pymatgen
data_H18PbC26(NO2)4
_symmetry_space_group_name_H-M   'P 1'
_cell_length_a   7.63251000
_cell_length_b   22.24091141
_cell_length_c   22.75579571
_cell_angle_alpha   79.33651924
_cell_angle_beta   80.38142830
_cell_angle_gamma   80.15409075
_symmetry_Int_Tables_number   1
_chemical_formula_structural   H18PbC26(NO2)4
_chemical_formula_sum   'H72 Pb4 C104 N16 O32'
_cell_volume   3703.48894077
_cell_formula_units_Z   4
loop_
 _symmetry_equiv_pos_site_id
 _symmetry_equiv_pos_as_xyz
  1  'x, y, z'
loop_
 _atom_site_type_symbol
 _atom_site_label
 _atom_site_symmetry_multiplicity
 _atom_site_fract_x
 _atom_site_fract_y
 _atom_site_fract_z
 _atom_site_occupancy
  H  H0  1  0.60873000  0.38866000  0.18982000  1.0
  H  H1  1  0.18751000  0.11136000  0.31019000  1.0
  H  H2  1  0.39127000  0.61134000  0.81018000  1.0
  H  H3  1  0.81249000  0.88864000  0.68981000  1.0
  H  H4  1  0.76896000  0.47137000  0.12583000  1.0
  H  H5  1  0.36634000  0.02861000  0.37416000  1.0
  H  H6  1  0.23104000  0.52863000  0.87417000  1.0
  H  H7  1  0.63366000  0.97139000  0.62584000  1.0
  H  H8  1  0.27356000  0.55591000  0.05795000  1.0
  H  H9  1  0.88758000  0.94407000  0.44197000  1.0
  H  H10  1  0.72644000  0.44409000  0.94205000  1.0
  H  H11  1  0.11242000  0.05593000  0.55803000  1.0
  H  H12  1  0.11627000  0.47483000  0.12321000  1.0
  H  H13  1  0.71449000  0.02518000  0.37677000  1.0
  H  H14  1  0.88373000  0.52517000  0.87679000  1.0
  H  H15  1  0.28551000  0.97482000  0.62323000  1.0
  H  H16  1  0.53355000  0.59183000  0.01744000  1.0
  H  H17  1  0.14276000  0.90816000  0.48250000  1.0
  H  H18  1  0.46645000  0.40817000  0.98256000  1.0
  H  H19  1  0.85724000  0.09184000  0.51750000  1.0
  H  H20  1  0.12164000  0.58449000  0.98284000  1.0
  H  H21  1  0.68911000  0.91535000  0.51708000  1.0
  H  H22  1  0.87836000  0.41551000  0.01716000  1.0
  H  H23  1  0.31089000  0.08465000  0.48292000  1.0
  H  H24  1  0.22525000  0.66253000  0.89304000  1.0
  H  H25  1  0.78094000  0.83730000  0.60688000  1.0
  H  H26  1  0.77475000  0.33747000  0.10696000  1.0
  H  H27  1  0.21906000  0.16270000  0.39312000  1.0
  H  H28  1  0.69929000  0.73999000  0.87409000  1.0
  H  H29  1  0.31294000  0.76001000  0.62591000  1.0
  H  H30  1  0.30071000  0.26001000  0.12591000  1.0
  H  H31  1  0.68706000  0.23999000  0.37409000  1.0
  H  H32  1  0.57680000  0.67149000  0.96323000  1.0
  H  H33  1  0.21103000  0.82854000  0.53679000  1.0
  H  H34  1  0.42320000  0.32851000  0.03677000  1.0
  H  H35  1  0.78897000  0.17146000  0.46321000  1.0
  H  H36  1  0.02527000  0.55811000  0.61240000  1.0
  H  H37  1  0.19602000  0.94185000  0.88739000  1.0
  H  H38  1  0.97473000  0.44189000  0.38760000  1.0
  H  H39  1  0.80398000  0.05815000  0.11261000  1.0
  H  H40  1  0.15889000  0.48856000  0.53746000  1.0
  H  H41  1  0.18493000  0.01145000  0.96235000  1.0
  H  H42  1  0.84111000  0.51144000  0.46254000  1.0
  H  H43  1  0.81506000  0.98855000  0.03766000  1.0
  H  H44  1  0.29223000  0.64659000  0.40646000  1.0
  H  H45  1  0.34482000  0.85349000  0.09349000  1.0
  H  H46  1  0.70777000  0.35341000  0.59354000  1.0
  H  H47  1  0.65518000  0.14651000  0.90651000  1.0
  H  H48  1  0.15677000  0.71542000  0.48260000  1.0
  H  H49  1  0.35471000  0.78462000  0.01731000  1.0
  H  H50  1  0.84323000  0.28458000  0.51740000  1.0
  H  H51  1  0.64529000  0.21538000  0.98269000  1.0
  H  H52  1  0.28347000  0.41838000  0.38369000  1.0
  H  H53  1  0.08518000  0.08155000  0.11630000  1.0
  H  H54  1  0.71653000  0.58162000  0.61631000  1.0
  H  H55  1  0.91482000  0.91845000  0.88370000  1.0
  H  H56  1  0.44251000  0.32624000  0.33916000  1.0
  H  H57  1  0.10752000  0.17370000  0.16092000  1.0
  H  H58  1  0.55749000  0.67376000  0.66084000  1.0
  H  H59  1  0.89248000  0.82630000  0.83908000  1.0
  H  H60  1  0.87936000  0.41481000  0.25997000  1.0
  H  H61  1  0.55392000  0.08532000  0.24009000  1.0
  H  H62  1  0.12064000  0.58519000  0.74003000  1.0
  H  H63  1  0.44608000  0.91468000  0.75991000  1.0
  H  H64  1  0.73246000  0.51399000  0.29988000  1.0
  H  H65  1  0.54628000  0.98616000  0.20004000  1.0
  H  H66  1  0.26754000  0.48601000  0.70012000  1.0
  H  H67  1  0.45372000  0.01384000  0.79996000  1.0
  H  H68  1  0.29848000  0.47652000  0.44481000  1.0
  H  H69  1  0.21945000  0.02353000  0.05507000  1.0
  H  H70  1  0.70152000  0.52348000  0.55519000  1.0
  H  H71  1  0.78055000  0.97647000  0.94493000  1.0
  Pb  Pb72  1  0.09425000  0.27159000  0.28034000  1.0
  Pb  Pb73  1  0.64609000  0.22846000  0.21981000  1.0
  Pb  Pb74  1  0.90577000  0.72840000  0.71966000  1.0
  Pb  Pb75  1  0.35390000  0.77154000  0.78020000  1.0
  C  C76  1  0.26010000  0.37503000  0.19837000  1.0
  C  C77  1  0.83371000  0.12503000  0.30167000  1.0
  C  C78  1  0.73990000  0.62497000  0.80163000  1.0
  C  C79  1  0.16629000  0.87497000  0.69833000  1.0
  C  C80  1  0.35314000  0.42567000  0.16046000  1.0
  C  C81  1  0.93949000  0.07436000  0.33953000  1.0
  C  C82  1  0.64686000  0.57433000  0.83954000  1.0
  C  C83  1  0.06051000  0.92564000  0.66047000  1.0
  C  C84  1  0.53636000  0.42571000  0.16074000  1.0
  C  C85  1  0.12303000  0.07431000  0.33925000  1.0
  C  C86  1  0.46364000  0.57429000  0.83926000  1.0
  C  C87  1  0.87697000  0.92569000  0.66075000  1.0
  C  C88  1  0.62731000  0.47158000  0.12479000  1.0
  C  C89  1  0.22386000  0.02841000  0.37518000  1.0
  C  C90  1  0.37269000  0.52842000  0.87521000  1.0
  C  C91  1  0.77614000  0.97159000  0.62482000  1.0
  C  C92  1  0.53353000  0.51822000  0.08620000  1.0
  C  C93  1  0.13809000  0.98176000  0.41374000  1.0
  C  C94  1  0.46647000  0.48178000  0.91380000  1.0
  C  C95  1  0.86191000  0.01824000  0.58626000  1.0
  C  C96  1  0.34851000  0.51908000  0.08664000  1.0
  C  C97  1  0.95439000  0.98091000  0.41328000  1.0
  C  C98  1  0.65149000  0.48092000  0.91336000  1.0
  C  C99  1  0.04560000  0.01910000  0.58672000  1.0
  C  C100  1  0.25915000  0.47360000  0.12354000  1.0
  C  C101  1  0.85648000  0.02641000  0.37642000  1.0
  C  C102  1  0.74085000  0.52640000  0.87646000  1.0
  C  C103  1  0.14352000  0.97359000  0.62358000  1.0
  C  C104  1  0.84200000  0.62000000  0.98119000  1.0
  C  C105  1  0.44303000  0.87995000  0.51879000  1.0
  C  C106  1  0.15800000  0.38000000  0.01881000  1.0
  C  C107  1  0.55698000  0.12005000  0.48120000  1.0
  C  C108  1  0.02567000  0.61931000  0.96042000  1.0
  C  C109  1  0.60542000  0.88056000  0.53952000  1.0
  C  C110  1  0.97433000  0.38069000  0.03958000  1.0
  C  C111  1  0.39458000  0.11944000  0.46048000  1.0
  C  C112  1  0.08530000  0.66045000  0.91123000  1.0
  C  C113  1  0.65700000  0.83940000  0.58871000  1.0
  C  C114  1  0.91471000  0.33955000  0.08877000  1.0
  C  C115  1  0.34299000  0.16060000  0.41129000  1.0
  C  C116  1  0.78556000  0.70537000  0.90081000  1.0
  C  C117  1  0.39142000  0.79461000  0.59918000  1.0
  C  C118  1  0.21444000  0.29463000  0.09919000  1.0
  C  C119  1  0.60858000  0.20539000  0.40082000  1.0
  C  C120  1  0.72224000  0.66506000  0.95053000  1.0
  C  C121  1  0.33748000  0.83493000  0.54947000  1.0
  C  C122  1  0.27777000  0.33494000  0.04946000  1.0
  C  C123  1  0.66252000  0.16507000  0.45053000  1.0
  C  C124  1  0.00888000  0.68164000  0.59957000  1.0
  C  C125  1  0.29043000  0.81831000  0.90031000  1.0
  C  C126  1  0.99112000  0.31836000  0.40043000  1.0
  C  C127  1  0.70957000  0.18169000  0.09969000  1.0
  C  C128  1  0.08166000  0.64131000  0.55225000  1.0
  C  C129  1  0.27543000  0.85869000  0.94760000  1.0
  C  C130  1  0.91834000  0.35869000  0.44775000  1.0
  C  C131  1  0.72457000  0.14131000  0.05240000  1.0
  C  C132  1  0.08146000  0.57715000  0.56691000  1.0
  C  C133  1  0.22573000  0.92284000  0.93290000  1.0
  C  C134  1  0.91854000  0.42285000  0.43309000  1.0
  C  C135  1  0.77427000  0.07716000  0.06710000  1.0
  C  C136  1  0.15687000  0.53851000  0.52513000  1.0
  C  C137  1  0.22055000  0.96151000  0.97469000  1.0
  C  C138  1  0.84312000  0.46150000  0.47487000  1.0
  C  C139  1  0.77944000  0.03849000  0.02531000  1.0
  C  C140  1  0.23459000  0.56332000  0.46708000  1.0
  C  C141  1  0.26483000  0.93673000  0.03278000  1.0
  C  C142  1  0.76541000  0.43668000  0.53292000  1.0
  C  C143  1  0.73517000  0.06327000  0.96722000  1.0
  C  C144  1  0.23256000  0.62763000  0.45135000  1.0
  C  C145  1  0.31127000  0.87243000  0.04856000  1.0
  C  C146  1  0.76744000  0.37237000  0.54865000  1.0
  C  C147  1  0.68873000  0.12757000  0.95144000  1.0
  C  C148  1  0.15702000  0.66560000  0.49410000  1.0
  C  C149  1  0.31667000  0.83443000  0.00580000  1.0
  C  C150  1  0.84298000  0.33440000  0.50590000  1.0
  C  C151  1  0.68333000  0.16557000  0.99420000  1.0
  C  C152  1  0.42748000  0.53102000  0.37460000  1.0
  C  C153  1  0.33302000  0.96907000  0.12526000  1.0
  C  C154  1  0.57252000  0.46898000  0.62540000  1.0
  C  C155  1  0.66698000  0.03093000  0.87474000  1.0
  C  C156  1  0.50175000  0.47358000  0.34830000  1.0
  C  C157  1  0.32345000  0.02648000  0.15163000  1.0
  C  C158  1  0.49825000  0.52642000  0.65170000  1.0
  C  C159  1  0.67655000  0.97352000  0.84837000  1.0
  C  C160  1  0.41780000  0.42053000  0.35873000  1.0
  C  C161  1  0.19674000  0.07946000  0.14126000  1.0
  C  C162  1  0.58220000  0.57947000  0.64127000  1.0
  C  C163  1  0.80326000  0.92054000  0.85874000  1.0
  C  C164  1  0.50133000  0.36842000  0.33496000  1.0
  C  C165  1  0.20437000  0.13156000  0.16509000  1.0
  C  C166  1  0.49867000  0.63158000  0.66504000  1.0
  C  C167  1  0.79563000  0.86844000  0.83491000  1.0
  C  C168  1  0.74960000  0.41973000  0.28848000  1.0
  C  C169  1  0.45758000  0.08036000  0.21156000  1.0
  C  C170  1  0.25041000  0.58027000  0.71152000  1.0
  C  C171  1  0.54242000  0.91964000  0.78844000  1.0
  C  C172  1  0.66726000  0.47265000  0.31084000  1.0
  C  C173  1  0.45062000  0.02746000  0.18912000  1.0
  C  C174  1  0.33274000  0.52735000  0.68916000  1.0
  C  C175  1  0.54938000  0.97254000  0.81088000  1.0
  C  C176  1  0.79340000  0.57132000  0.03338000  1.0
  C  C177  1  0.39803000  0.92868000  0.46663000  1.0
  C  C178  1  0.20660000  0.42868000  0.96662000  1.0
  C  C179  1  0.60197000  0.07132000  0.53337000  1.0
  N  N180  1  0.61523000  0.56416000  0.04544000  1.0
  N  N181  1  0.22482000  0.93582000  0.45452000  1.0
  N  N182  1  0.38478000  0.43584000  0.95456000  1.0
  N  N183  1  0.77518000  0.06418000  0.54548000  1.0
  N  N184  1  0.96546000  0.70214000  0.88085000  1.0
  N  N185  1  0.54831000  0.79778000  0.61911000  1.0
  N  N186  1  0.03454000  0.29786000  0.11915000  1.0
  N  N187  1  0.45169000  0.20222000  0.38089000  1.0
  N  N188  1  0.31211000  0.52131000  0.42787000  1.0
  N  N189  1  0.26100000  0.97876000  0.07200000  1.0
  N  N190  1  0.68789000  0.47869000  0.57212000  1.0
  N  N191  1  0.73900000  0.02124000  0.92800000  1.0
  N  N192  1  0.66826000  0.36775000  0.30226000  1.0
  N  N193  1  0.33794000  0.13229000  0.19782000  1.0
  N  N194  1  0.33174000  0.63225000  0.69774000  1.0
  N  N195  1  0.66206000  0.86771000  0.80218000  1.0
  O  O196  1  0.09012000  0.37965000  0.20372000  1.0
  O  O197  1  0.67352000  0.12048000  0.29642000  1.0
  O  O198  1  0.90988000  0.62035000  0.79628000  1.0
  O  O199  1  0.32648000  0.87952000  0.70358000  1.0
  O  O200  1  0.35716000  0.32767000  0.22408000  1.0
  O  O201  1  0.90925000  0.17236000  0.27590000  1.0
  O  O202  1  0.64284000  0.67233000  0.77592000  1.0
  O  O203  1  0.09075000  0.82764000  0.72410000  1.0
  O  O204  1  0.91027000  0.53931000  0.06203000  1.0
  O  O205  1  0.51153000  0.96072000  0.43804000  1.0
  O  O206  1  0.08973000  0.46069000  0.93797000  1.0
  O  O207  1  0.48847000  0.03928000  0.56196000  1.0
  O  O208  1  0.02133000  0.73860000  0.83197000  1.0
  O  O209  1  0.59178000  0.76133000  0.66801000  1.0
  O  O210  1  0.97867000  0.26140000  0.16803000  1.0
  O  O211  1  0.40822000  0.23867000  0.33199000  1.0
  O  O212  1  0.92979000  0.65450000  0.64955000  1.0
  O  O213  1  0.23434000  0.84540000  0.85027000  1.0
  O  O214  1  0.07021000  0.34550000  0.35045000  1.0
  O  O215  1  0.76566000  0.15460000  0.14973000  1.0
  O  O216  1  0.03127000  0.73797000  0.58979000  1.0
  O  O217  1  0.35926000  0.76200000  0.91016000  1.0
  O  O218  1  0.96873000  0.26203000  0.41021000  1.0
  O  O219  1  0.64074000  0.23800000  0.08984000  1.0
  O  O220  1  0.47262000  0.58167000  0.35092000  1.0
  O  O221  1  0.40537000  0.91844000  0.14887000  1.0
  O  O222  1  0.52738000  0.41833000  0.64908000  1.0
  O  O223  1  0.59464000  0.08156000  0.85113000  1.0
  O  O224  1  0.74951000  0.31656000  0.28277000  1.0
  O  O225  1  0.34845000  0.18347000  0.21738000  1.0
  O  O226  1  0.25050000  0.68344000  0.71723000  1.0
  O  O227  1  0.65155000  0.81653000  0.78262000  1.0
