# generated using pymatgen
data_Ni2H46C60N4O9
_symmetry_space_group_name_H-M   'P 1'
_cell_length_a   14.15030000
_cell_length_b   14.15040000
_cell_length_c   17.55630000
_cell_angle_alpha   103.28200000
_cell_angle_beta   103.28200000
_cell_angle_gamma   115.40800000
_symmetry_Int_Tables_number   1
_chemical_formula_structural   Ni2H46C60N4O9
_chemical_formula_sum   'Ni4 H92 C120 N8 O18'
_cell_volume   2866.77693894
_cell_formula_units_Z   2
loop_
 _symmetry_equiv_pos_site_id
 _symmetry_equiv_pos_as_xyz
  1  'x, y, z'
loop_
 _atom_site_type_symbol
 _atom_site_label
 _atom_site_symmetry_multiplicity
 _atom_site_fract_x
 _atom_site_fract_y
 _atom_site_fract_z
 _atom_site_occupancy
  Ni  Ni0  1  0.21604000  0.19277000  0.18640000  1.0
  Ni  Ni1  1  0.97037000  0.99349000  0.18650000  1.0
  Ni  Ni2  1  0.44278000  0.96604000  0.68640000  1.0
  Ni  Ni3  1  0.24349000  0.72036000  0.68649000  1.0
  H  H4  1  0.15588000  0.09489000  0.30255000  1.0
  H  H5  1  0.14673000  0.20747000  0.30264000  1.0
  H  H6  1  0.34489000  0.90588000  0.80255000  1.0
  H  H7  1  0.45747000  0.89673000  0.80264000  1.0
  H  H8  1  0.28062000  0.40596000  0.15911000  1.0
  H  H9  1  0.87873000  0.75309000  0.15930000  1.0
  H  H10  1  0.65597000  0.03062000  0.65911000  1.0
  H  H11  1  0.00308000  0.62873000  0.65929000  1.0
  H  H12  1  0.38621000  0.51013000  0.08145000  1.0
  H  H13  1  0.69570000  0.57123000  0.08164000  1.0
  H  H14  1  0.76013000  0.13621000  0.58145000  1.0
  H  H15  1  0.82122000  0.44570000  0.58164000  1.0
  H  H16  1  0.42603000  0.22473000  0.98363000  1.0
  H  H17  1  0.55792000  0.75876000  0.98387000  1.0
  H  H18  1  0.47474000  0.17603000  0.48363000  1.0
  H  H19  1  0.00875000  0.30792000  0.48387000  1.0
  H  H20  1  0.31994000  0.13505000  0.06695000  1.0
  H  H21  1  0.74709000  0.93178000  0.06716000  1.0
  H  H22  1  0.38505000  0.06994000  0.56696000  1.0
  H  H23  1  0.18178000  0.49709000  0.56716000  1.0
  H  H24  1  0.55194000  0.42298000  0.98190000  1.0
  H  H25  1  0.43047000  0.55899000  0.98220000  1.0
  H  H26  1  0.67298000  0.30194000  0.48190000  1.0
  H  H27  1  0.80899000  0.18047000  0.48220000  1.0
  H  H28  1  0.31711000  0.35368000  0.86621000  1.0
  H  H29  1  0.54946000  0.51303000  0.86612000  1.0
  H  H30  1  0.60368000  0.06711000  0.36621000  1.0
  H  H31  1  0.76303000  0.29946000  0.36612000  1.0
  H  H32  1  0.23962000  0.15626000  0.80085000  1.0
  H  H33  1  0.56137000  0.64540000  0.80102000  1.0
  H  H34  1  0.40627000  0.98962000  0.30085000  1.0
  H  H35  1  0.89540000  0.31137000  0.30102000  1.0
  H  H36  1  0.25933000  0.99625000  0.72907000  1.0
  H  H37  1  0.46947000  0.73322000  0.72904000  1.0
  H  H38  1  0.24626000  0.00933000  0.22907000  1.0
  H  H39  1  0.98322000  0.21947000  0.22904000  1.0
  H  H40  1  0.59017000  0.21012000  0.76422000  1.0
  H  H41  1  0.17397000  0.55390000  0.76430000  1.0
  H  H42  1  0.46012000  0.34017000  0.26422000  1.0
  H  H43  1  0.80390000  0.92397000  0.26430000  1.0
  H  H44  1  0.58535000  0.38017000  0.83712000  1.0
  H  H45  1  0.25210000  0.45716000  0.83736000  1.0
  H  H46  1  0.63017000  0.33535000  0.33712000  1.0
  H  H47  1  0.70716000  0.00210000  0.33736000  1.0
  H  H48  1  0.07331000  0.32987000  0.04725000  1.0
  H  H49  1  0.97362000  0.71753000  0.04767000  1.0
  H  H50  1  0.57987000  0.82331000  0.54725000  1.0
  H  H51  1  0.96753000  0.72362000  0.54767000  1.0
  H  H52  1  0.97515000  0.37370000  0.93442000  1.0
  H  H53  1  0.95857000  0.56080000  0.93471000  1.0
  H  H54  1  0.62370000  0.72515000  0.43442000  1.0
  H  H55  1  0.81081000  0.70858000  0.43471000  1.0
  H  H56  1  0.77501000  0.23113000  0.83794000  1.0
  H  H57  1  0.06229000  0.60674000  0.83811000  1.0
  H  H58  1  0.48113000  0.52501000  0.33794000  1.0
  H  H59  1  0.85675000  0.81231000  0.33811000  1.0
  H  H60  1  0.77007000  0.01220000  0.97205000  1.0
  H  H61  1  0.20183000  0.95971000  0.97220000  1.0
  H  H62  1  0.26220000  0.52007000  0.47204000  1.0
  H  H63  1  0.20972000  0.95184000  0.47221000  1.0
  H  H64  1  0.82239000  0.31850000  0.06682000  1.0
  H  H65  1  0.24506000  0.74834000  0.06664000  1.0
  H  H66  1  0.56850000  0.57239000  0.56682000  1.0
  H  H67  1  0.99834000  0.99507000  0.56664000  1.0
  H  H68  1  0.63520000  0.29952000  0.04641000  1.0
  H  H69  1  0.41208000  0.74708000  0.04648000  1.0
  H  H70  1  0.54951000  0.38520000  0.54641000  1.0
  H  H71  1  0.99709000  0.16208000  0.54648000  1.0
  H  H72  1  0.60267000  0.39927000  0.16570000  1.0
  H  H73  1  0.56360000  0.76663000  0.16600000  1.0
  H  H74  1  0.64926000  0.35267000  0.66570000  1.0
  H  H75  1  0.01664000  0.31360000  0.66600000  1.0
  H  H76  1  0.75795000  0.51674000  0.30650000  1.0
  H  H77  1  0.54868000  0.78986000  0.30672000  1.0
  H  H78  1  0.76674000  0.50795000  0.80650000  1.0
  H  H79  1  0.03987000  0.29868000  0.80672000  1.0
  H  H80  1  0.95304000  0.58695000  0.40151000  1.0
  H  H81  1  0.44825000  0.81457000  0.40157000  1.0
  H  H82  1  0.83695000  0.70304000  0.90151000  1.0
  H  H83  1  0.06457000  0.19825000  0.90157000  1.0
  H  H84  1  0.13897000  0.60217000  0.42322000  1.0
  H  H85  1  0.28379000  0.82090000  0.42294000  1.0
  H  H86  1  0.85218000  0.88897000  0.92322000  1.0
  H  H87  1  0.07091000  0.03379000  0.92294000  1.0
  H  H88  1  0.17343000  0.50947000  0.30199000  1.0
  H  H89  1  0.12834000  0.79227000  0.30151000  1.0
  H  H90  1  0.75948000  0.92344000  0.80199000  1.0
  H  H91  1  0.04226000  0.87834000  0.80151000  1.0
  H  H92  1  0.02071000  0.39646000  0.16085000  1.0
  H  H93  1  0.14039000  0.76418000  0.16044000  1.0
  H  H94  1  0.64646000  0.77071000  0.66085000  1.0
  H  H95  1  0.01418000  0.89039000  0.66044000  1.0
  C  C96  1  0.31416000  0.36961000  0.11888000  1.0
  C  C97  1  0.80497000  0.74919000  0.11908000  1.0
  C  C98  1  0.61961000  0.06416000  0.61888000  1.0
  C  C99  1  0.99919000  0.55497000  0.61908000  1.0
  C  C100  1  0.37318000  0.42654000  0.07521000  1.0
  C  C101  1  0.70240000  0.64857000  0.07540000  1.0
  C  C102  1  0.67654000  0.12319000  0.57521000  1.0
  C  C103  1  0.89856000  0.45240000  0.57540000  1.0
  C  C104  1  0.41566000  0.37604000  0.02548000  1.0
  C  C105  1  0.61021000  0.64934000  0.02568000  1.0
  C  C106  1  0.62604000  0.16566000  0.52548000  1.0
  C  C107  1  0.89934000  0.36021000  0.52568000  1.0
  C  C108  1  0.39595000  0.26886000  0.02189000  1.0
  C  C109  1  0.62626000  0.75294000  0.02217000  1.0
  C  C110  1  0.51886000  0.14595000  0.52189000  1.0
  C  C111  1  0.00294000  0.37626000  0.52217000  1.0
  C  C112  1  0.33687000  0.21794000  0.06765000  1.0
  C  C113  1  0.73096000  0.84963000  0.06790000  1.0
  C  C114  1  0.46794000  0.08687000  0.56766000  1.0
  C  C115  1  0.09963000  0.48097000  0.56790000  1.0
  C  C116  1  0.47522000  0.42857000  0.97370000  1.0
  C  C117  1  0.49892000  0.54519000  0.97383000  1.0
  C  C118  1  0.67856000  0.22522000  0.47370000  1.0
  C  C119  1  0.79519000  0.24892000  0.47383000  1.0
  C  C120  1  0.40529000  0.37825000  0.87616000  1.0
  C  C121  1  0.47129000  0.49835000  0.87623000  1.0
  C  C122  1  0.62825000  0.15529000  0.37616000  1.0
  C  C123  1  0.74835000  0.22129000  0.37623000  1.0
  C  C124  1  0.41080000  0.28238000  0.82517000  1.0
  C  C125  1  0.41465000  0.54328000  0.82536000  1.0
  C  C126  1  0.53238000  0.16080000  0.32517000  1.0
  C  C127  1  0.79328000  0.16465000  0.32536000  1.0
  C  C128  1  0.31875000  0.17254000  0.79326000  1.0
  C  C129  1  0.47459000  0.62128000  0.79338000  1.0
  C  C130  1  0.42254000  0.06875000  0.29326000  1.0
  C  C131  1  0.87129000  0.22459000  0.29338000  1.0
  C  C132  1  0.32905000  0.08275000  0.75281000  1.0
  C  C133  1  0.42364000  0.67043000  0.75286000  1.0
  C  C134  1  0.33275000  0.07906000  0.25281000  1.0
  C  C135  1  0.92043000  0.17364000  0.25286000  1.0
  C  C136  1  0.51407000  0.20313000  0.77298000  1.0
  C  C137  1  0.25888000  0.56983000  0.77304000  1.0
  C  C138  1  0.45314000  0.26407000  0.27297000  1.0
  C  C139  1  0.81984000  0.00888000  0.27304000  1.0
  C  C140  1  0.51041000  0.29687000  0.81407000  1.0
  C  C141  1  0.30387000  0.51741000  0.81423000  1.0
  C  C142  1  0.54688000  0.26041000  0.31407000  1.0
  C  C143  1  0.76741000  0.05387000  0.31423000  1.0
  C  C144  1  0.92866000  0.16855000  0.01661000  1.0
  C  C145  1  0.08777000  0.84804000  0.01686000  1.0
  C  C146  1  0.41855000  0.67866000  0.51661000  1.0
  C  C147  1  0.09804000  0.83778000  0.51686000  1.0
  C  C148  1  0.98544000  0.27061000  0.00577000  1.0
  C  C149  1  0.02001000  0.73523000  0.00614000  1.0
  C  C150  1  0.52061000  0.73544000  0.50577000  1.0
  C  C151  1  0.98524000  0.77001000  0.50613000  1.0
  C  C152  1  0.93034000  0.29412000  0.94248000  1.0
  C  C153  1  0.01158000  0.64839000  0.94276000  1.0
  C  C154  1  0.54412000  0.68034000  0.44248000  1.0
  C  C155  1  0.89840000  0.76158000  0.44276000  1.0
  C  C156  1  0.81870000  0.21556000  0.88902000  1.0
  C  C157  1  0.06975000  0.67341000  0.88920000  1.0
  C  C158  1  0.46556000  0.56870000  0.38902000  1.0
  C  C159  1  0.92342000  0.81976000  0.38921000  1.0
  C  C160  1  0.76025000  0.11390000  0.90001000  1.0
  C  C161  1  0.13933000  0.78596000  0.90012000  1.0
  C  C162  1  0.36390000  0.51026000  0.40001000  1.0
  C  C163  1  0.03597000  0.88934000  0.40012000  1.0
  C  C164  1  0.81565000  0.09141000  0.96411000  1.0
  C  C165  1  0.14826000  0.87260000  0.96428000  1.0
  C  C166  1  0.34140000  0.56565000  0.46411000  1.0
  C  C167  1  0.12261000  0.89827000  0.46429000  1.0
  C  C168  1  0.63903000  0.03006000  0.84239000  1.0
  C  C169  1  0.20307000  0.81218000  0.84251000  1.0
  C  C170  1  0.28006000  0.38903000  0.34239000  1.0
  C  C171  1  0.06219000  0.95308000  0.34251000  1.0
  C  C172  1  0.98995000  0.14310000  0.08386000  1.0
  C  C173  1  0.09392000  0.94080000  0.08411000  1.0
  C  C174  1  0.39310000  0.73995000  0.58386000  1.0
  C  C175  1  0.19080000  0.84392000  0.58411000  1.0
  C  C176  1  0.80832000  0.36225000  0.11902000  1.0
  C  C177  1  0.31123000  0.75672000  0.11889000  1.0
  C  C178  1  0.61225000  0.55832000  0.61902000  1.0
  C  C179  1  0.00672000  0.06123000  0.61889000  1.0
  C  C180  1  0.70413000  0.35214000  0.10775000  1.0
  C  C181  1  0.40433000  0.75578000  0.10779000  1.0
  C  C182  1  0.60214000  0.45413000  0.60775000  1.0
  C  C183  1  0.00578000  0.15433000  0.60779000  1.0
  C  C184  1  0.68552000  0.40817000  0.17564000  1.0
  C  C185  1  0.49063000  0.76767000  0.17583000  1.0
  C  C186  1  0.65817000  0.43553000  0.67564000  1.0
  C  C187  1  0.01767000  0.24064000  0.67584000  1.0
  C  C188  1  0.77134000  0.47251000  0.25402000  1.0
  C  C189  1  0.48295000  0.78167000  0.25418000  1.0
  C  C190  1  0.72251000  0.52135000  0.75402000  1.0
  C  C191  1  0.03167000  0.23295000  0.75418000  1.0
  C  C192  1  0.96789000  0.54534000  0.34894000  1.0
  C  C193  1  0.38093000  0.80359000  0.34891000  1.0
  C  C194  1  0.79534000  0.71790000  0.84894000  1.0
  C  C195  1  0.05359000  0.13093000  0.84891000  1.0
  C  C196  1  0.07162000  0.55420000  0.36084000  1.0
  C  C197  1  0.28894000  0.80649000  0.36060000  1.0
  C  C198  1  0.80420000  0.82163000  0.86084000  1.0
  C  C199  1  0.05649000  0.03894000  0.86060000  1.0
  C  C200  1  0.09102000  0.50126000  0.29215000  1.0
  C  C201  1  0.20100000  0.79066000  0.29177000  1.0
  C  C202  1  0.75127000  0.84103000  0.79215000  1.0
  C  C203  1  0.04066000  0.95100000  0.79177000  1.0
  C  C204  1  0.00635000  0.43922000  0.21325000  1.0
  C  C205  1  0.20704000  0.77383000  0.21290000  1.0
  C  C206  1  0.68922000  0.75635000  0.71325000  1.0
  C  C207  1  0.02383000  0.95704000  0.71290000  1.0
  C  C208  1  0.87913000  0.48330000  0.26829000  1.0
  C  C209  1  0.38928000  0.78500000  0.26828000  1.0
  C  C210  1  0.73330000  0.62914000  0.76829000  1.0
  C  C211  1  0.03500000  0.13928000  0.76828000  1.0
  C  C212  1  0.89841000  0.42800000  0.19894000  1.0
  C  C213  1  0.30080000  0.77084000  0.19876000  1.0
  C  C214  1  0.67800000  0.64842000  0.69894000  1.0
  C  C215  1  0.02083000  0.05079000  0.69876000  1.0
  N  N216  1  0.29670000  0.26735000  0.11556000  1.0
  N  N217  1  0.81903000  0.84811000  0.11576000  1.0
  N  N218  1  0.51736000  0.04670000  0.61556000  1.0
  N  N219  1  0.09811000  0.56904000  0.61576000  1.0
  N  N220  1  0.42519000  0.09747000  0.74280000  1.0
  N  N221  1  0.31744000  0.64542000  0.74282000  1.0
  N  N222  1  0.34747000  0.17519000  0.24280000  1.0
  N  N223  1  0.89542000  0.06744000  0.24282000  1.0
  O  O224  1  0.08997000  0.22128000  0.13249000  1.0
  O  O225  1  0.04271000  0.91133000  0.13292000  1.0
  O  O226  1  0.47128000  0.83997000  0.63249000  1.0
  O  O227  1  0.16133000  0.79271000  0.63292000  1.0
  O  O228  1  0.93690000  0.04620000  0.08720000  1.0
  O  O229  1  0.15034000  0.04094000  0.08733000  1.0
  O  O230  1  0.29620000  0.68690000  0.58719000  1.0
  O  O231  1  0.29094000  0.90034000  0.58733000  1.0
  O  O232  1  0.58127000  0.94796000  0.86107000  1.0
  O  O233  1  0.27936000  0.91291000  0.86109000  1.0
  O  O234  1  0.19796000  0.33127000  0.36107000  1.0
  O  O235  1  0.16292000  0.02937000  0.36108000  1.0
  O  O236  1  0.60396000  0.05039000  0.77755000  1.0
  O  O237  1  0.17350000  0.72697000  0.77780000  1.0
  O  O238  1  0.30039000  0.35396000  0.27755000  1.0
  O  O239  1  0.97698000  0.92351000  0.27781000  1.0
  O  O240  1  0.13156000  0.13147000  0.26309000  1.0
  O  O241  1  0.38147000  0.88156000  0.76309000  1.0
