# generated using pymatgen
data_ZnTeH6C2N
_symmetry_space_group_name_H-M   'P 1'
_cell_length_a   6.89852000
_cell_length_b   6.98358000
_cell_length_c   20.64470000
_cell_angle_alpha   90.00050000
_cell_angle_beta   90.00010000
_cell_angle_gamma   89.99900000
_symmetry_Int_Tables_number   1
_chemical_formula_structural   ZnTeH6C2N
_chemical_formula_sum   'Zn8 Te8 H48 C16 N8'
_cell_volume   994.58662920
_cell_formula_units_Z   8
loop_
 _symmetry_equiv_pos_site_id
 _symmetry_equiv_pos_as_xyz
  1  'x, y, z'
loop_
 _atom_site_type_symbol
 _atom_site_label
 _atom_site_symmetry_multiplicity
 _atom_site_fract_x
 _atom_site_fract_y
 _atom_site_fract_z
 _atom_site_occupancy
  Zn  Zn0  1  0.73974000  0.09424000  0.70713000  1.0
  Zn  Zn1  1  0.26025000  0.40576000  0.20713000  1.0
  Zn  Zn2  1  0.23975000  0.90575000  0.79286000  1.0
  Zn  Zn3  1  0.76026000  0.59426000  0.29287000  1.0
  Zn  Zn4  1  0.26026000  0.90577000  0.29287000  1.0
  Zn  Zn5  1  0.73974000  0.59423000  0.79287000  1.0
  Zn  Zn6  1  0.76026000  0.09425000  0.20713000  1.0
  Zn  Zn7  1  0.23973000  0.40574000  0.70713000  1.0
  Te  Te8  1  0.11567000  0.05209000  0.68390000  1.0
  Te  Te9  1  0.88433000  0.44791000  0.18390000  1.0
  Te  Te10  1  0.61567000  0.94789000  0.81610000  1.0
  Te  Te11  1  0.38433000  0.55211000  0.31610000  1.0
  Te  Te12  1  0.88434000  0.94791000  0.31610000  1.0
  Te  Te13  1  0.11566000  0.55210000  0.81610000  1.0
  Te  Te14  1  0.38434000  0.05211000  0.18390000  1.0
  Te  Te15  1  0.61565000  0.44789000  0.68390000  1.0
  H  H16  1  0.46674000  0.99120000  0.62901000  1.0
  H  H17  1  0.53328000  0.50878000  0.12902000  1.0
  H  H18  1  0.96675000  0.00878000  0.87098000  1.0
  H  H19  1  0.03323000  0.49122000  0.37099000  1.0
  H  H20  1  0.53329000  0.00879000  0.37098000  1.0
  H  H21  1  0.46672000  0.49120000  0.87098000  1.0
  H  H22  1  0.03331000  0.99123000  0.12902000  1.0
  H  H23  1  0.96671000  0.50879000  0.62902000  1.0
  H  H24  1  0.61238000  0.80465000  0.63595000  1.0
  H  H25  1  0.38763000  0.69535000  0.13595000  1.0
  H  H26  1  0.11237000  0.19531000  0.86405000  1.0
  H  H27  1  0.88762000  0.30470000  0.36405000  1.0
  H  H28  1  0.38763000  0.19537000  0.36405000  1.0
  H  H29  1  0.61236000  0.30466000  0.86405000  1.0
  H  H30  1  0.88764000  0.80465000  0.13594000  1.0
  H  H31  1  0.11236000  0.69534000  0.63595000  1.0
  H  H32  1  0.72695000  0.15563000  0.56609000  1.0
  H  H33  1  0.27306000  0.34436000  0.06609000  1.0
  H  H34  1  0.22691000  0.84431000  0.93390000  1.0
  H  H35  1  0.77305000  0.65567000  0.43391000  1.0
  H  H36  1  0.27308000  0.84436000  0.43391000  1.0
  H  H37  1  0.72691000  0.65564000  0.93391000  1.0
  H  H38  1  0.77318000  0.15569000  0.06609000  1.0
  H  H39  1  0.22692000  0.34436000  0.56609000  1.0
  H  H40  1  0.84859000  0.93414000  0.56657000  1.0
  H  H41  1  0.15143000  0.56583000  0.06658000  1.0
  H  H42  1  0.34861000  0.06575000  0.93342000  1.0
  H  H43  1  0.65139000  0.43421000  0.43342000  1.0
  H  H44  1  0.15146000  0.06583000  0.43343000  1.0
  H  H45  1  0.84855000  0.43417000  0.93343000  1.0
  H  H46  1  0.65145000  0.93429000  0.06657000  1.0
  H  H47  1  0.34852000  0.56581000  0.56657000  1.0
  H  H48  1  0.69030000  0.96026000  0.46333000  1.0
  H  H49  1  0.30972000  0.53974000  0.96334000  1.0
  H  H50  1  0.19033000  0.03970000  0.03666000  1.0
  H  H51  1  0.80966000  0.46029000  0.53667000  1.0
  H  H52  1  0.30977000  0.03973000  0.53666000  1.0
  H  H53  1  0.69027000  0.46028000  0.03667000  1.0
  H  H54  1  0.80977000  0.96028000  0.96334000  1.0
  H  H55  1  0.19020000  0.53972000  0.46334000  1.0
  H  H56  1  0.55679000  0.78820000  0.50739000  1.0
  H  H57  1  0.44323000  0.71177000  0.00740000  1.0
  H  H58  1  0.05683000  0.21178000  0.99260000  1.0
  H  H59  1  0.94316000  0.28821000  0.49261000  1.0
  H  H60  1  0.44326000  0.21175000  0.49261000  1.0
  H  H61  1  0.55676000  0.28822000  0.99262000  1.0
  H  H62  1  0.94324000  0.78825000  0.00740000  1.0
  H  H63  1  0.05673000  0.71176000  0.50740000  1.0
  C  C64  1  0.70379000  0.99975000  0.56603000  1.0
  C  C65  1  0.29622000  0.50024000  0.06602000  1.0
  C  C66  1  0.20378000  0.00018000  0.93395000  1.0
  C  C67  1  0.79620000  0.49979000  0.43396000  1.0
  C  C68  1  0.29623000  0.00023000  0.43400000  1.0
  C  C69  1  0.70375000  0.49977000  0.93397000  1.0
  C  C70  1  0.79626000  0.99984000  0.06600000  1.0
  C  C71  1  0.20377000  0.50020000  0.56602000  1.0
  C  C72  1  0.59250000  0.94206000  0.50526000  1.0
  C  C73  1  0.40747000  0.55795000  0.00527000  1.0
  C  C74  1  0.09253000  0.05789000  0.99473000  1.0
  C  C75  1  0.90745000  0.44209000  0.49473000  1.0
  C  C76  1  0.40750000  0.05796000  0.49473000  1.0
  C  C77  1  0.59251000  0.44207000  0.99473000  1.0
  C  C78  1  0.90750000  0.94206000  0.00526000  1.0
  C  C79  1  0.09252000  0.55793000  0.50527000  1.0
  N  N80  1  0.61027000  0.95050000  0.62801000  1.0
  N  N81  1  0.38972000  0.54948000  0.12802000  1.0
  N  N82  1  0.11027000  0.04948000  0.87199000  1.0
  N  N83  1  0.88974000  0.45052000  0.37200000  1.0
  N  N84  1  0.38972000  0.04948000  0.37198000  1.0
  N  N85  1  0.61025000  0.45050000  0.87200000  1.0
  N  N86  1  0.88974000  0.95055000  0.12802000  1.0
  N  N87  1  0.11026000  0.54946000  0.62801000  1.0
