# generated using pymatgen
data_Rb2H4C11N4O5
_symmetry_space_group_name_H-M   'P 1'
_cell_length_a   8.73212000
_cell_length_b   9.31943000
_cell_length_c   9.89164000
_cell_angle_alpha   104.07100000
_cell_angle_beta   107.34400000
_cell_angle_gamma   99.82080000
_symmetry_Int_Tables_number   1
_chemical_formula_structural   Rb2H4C11N4O5
_chemical_formula_sum   'Rb4 H8 C22 N8 O10'
_cell_volume   719.17482234
_cell_formula_units_Z   2
loop_
 _symmetry_equiv_pos_site_id
 _symmetry_equiv_pos_as_xyz
  1  'x, y, z'
loop_
 _atom_site_type_symbol
 _atom_site_label
 _atom_site_symmetry_multiplicity
 _atom_site_fract_x
 _atom_site_fract_y
 _atom_site_fract_z
 _atom_site_occupancy
  Rb  Rb0  1  0.91390000  0.92684000  0.27347000  1.0
  Rb  Rb1  1  0.08610000  0.07316000  0.72652000  1.0
  Rb  Rb2  1  0.63184000  0.99325000  0.81749000  1.0
  Rb  Rb3  1  0.36816000  0.00674000  0.18251000  1.0
  H  H4  1  0.66723000  0.95054000  0.47785000  1.0
  H  H5  1  0.33276000  0.04946000  0.52215000  1.0
  H  H6  1  0.69279000  0.12719000  0.53339000  1.0
  H  H7  1  0.30721000  0.87281000  0.46661000  1.0
  H  H8  1  0.98112000  0.29779000  0.93986000  1.0
  H  H9  1  0.01888000  0.70221000  0.06014000  1.0
  H  H10  1  0.03017000  0.21035000  0.05764000  1.0
  H  H11  1  0.96983000  0.78965000  0.94236000  1.0
  C  C12  1  0.21629000  0.50924000  0.57353000  1.0
  C  C13  1  0.78371000  0.49076000  0.42647000  1.0
  C  C14  1  0.30796000  0.58872000  0.49971000  1.0
  C  C15  1  0.69204000  0.41128000  0.50029000  1.0
  C  C16  1  0.29783000  0.47724000  0.36278000  1.0
  C  C17  1  0.70217000  0.52276000  0.63722000  1.0
  C  C18  1  0.19613000  0.33038000  0.34860000  1.0
  C  C19  1  0.80388000  0.66962000  0.65140000  1.0
  C  C20  1  0.14897000  0.34859000  0.48445000  1.0
  C  C21  1  0.85103000  0.65141000  0.51555000  1.0
  C  C22  1  0.19533000  0.57819000  0.70638000  1.0
  C  C23  1  0.80467000  0.42181000  0.29362000  1.0
  C  C24  1  0.10799000  0.49511000  0.77498000  1.0
  C  C25  1  0.89201000  0.50489000  0.22502000  1.0
  C  C26  1  0.25561000  0.73767000  0.78112000  1.0
  C  C27  1  0.74439000  0.26232000  0.21888000  1.0
  C  C28  1  0.37529000  0.50896000  0.26433000  1.0
  C  C29  1  0.62471000  0.49104000  0.73567000  1.0
  C  C30  1  0.36794000  0.39432000  0.13686000  1.0
  C  C31  1  0.63206000  0.60568000  0.86315000  1.0
  C  C32  1  0.47004000  0.65749000  0.28745000  1.0
  C  C33  1  0.52996000  0.34251000  0.71255000  1.0
  N  N34  1  0.03631000  0.43545000  0.83789000  1.0
  N  N35  1  0.96370000  0.56455000  0.16211000  1.0
  N  N36  1  0.29911000  0.86860000  0.84855000  1.0
  N  N37  1  0.70089000  0.13140000  0.15145000  1.0
  N  N38  1  0.36604000  0.30183000  0.03169000  1.0
  N  N39  1  0.63396000  0.69816000  0.96831000  1.0
  N  N40  1  0.55012000  0.77790000  0.30023000  1.0
  N  N41  1  0.44988000  0.22210000  0.69976000  1.0
  O  O42  1  0.38413000  0.72818000  0.54702000  1.0
  O  O43  1  0.61587000  0.27182000  0.45298000  1.0
  O  O44  1  0.14958000  0.20753000  0.24305000  1.0
  O  O45  1  0.85042000  0.79247000  0.75695000  1.0
  O  O46  1  0.06517000  0.24348000  0.51050000  1.0
  O  O47  1  0.93482000  0.75652000  0.48949000  1.0
  O  O48  1  0.72776000  0.04192000  0.56515000  1.0
  O  O49  1  0.27224000  0.95808000  0.43485000  1.0
  O  O50  1  0.95256000  0.19910000  0.95809000  1.0
  O  O51  1  0.04743000  0.80090000  0.04191000  1.0
