# generated using pymatgen
data_ZnH3C11NO4
_symmetry_space_group_name_H-M   'P 1'
_cell_length_a   10.63740000
_cell_length_b   11.91040000
_cell_length_c   16.09390000
_cell_angle_alpha   89.98840000
_cell_angle_beta   90.13750000
_cell_angle_gamma   89.99140000
_symmetry_Int_Tables_number   1
_chemical_formula_structural   ZnH3C11NO4
_chemical_formula_sum   'Zn2 H6 C22 N2 O8'
_cell_volume   2039.02181209
_cell_formula_units_Z   2
loop_
 _symmetry_equiv_pos_site_id
 _symmetry_equiv_pos_as_xyz
  1  'x, y, z'
loop_
 _atom_site_type_symbol
 _atom_site_label
 _atom_site_symmetry_multiplicity
 _atom_site_fract_x
 _atom_site_fract_y
 _atom_site_fract_z
 _atom_site_occupancy
  Zn  Zn0  1  0.62844000  0.49999000  0.50000000  1.0
  Zn  Zn1  1  0.37156000  0.50001000  0.50000000  1.0
  H  H2  1  0.40400000  0.67357000  0.05159000  1.0
  H  H3  1  0.59599000  0.32643000  0.94841000  1.0
  H  H4  1  0.61975000  0.66144000  0.94853000  1.0
  H  H5  1  0.38025000  0.33856000  0.05147000  1.0
  H  H6  1  0.28272000  0.51235000  0.94909000  1.0
  H  H7  1  0.71728000  0.48765000  0.05091000  1.0
  C  C8  1  0.49999000  0.84057000  0.50000000  1.0
  C  C9  1  0.50000000  0.05669000  0.50000000  1.0
  C  C10  1  0.56670000  0.58972000  0.97231000  1.0
  C  C11  1  0.43330000  0.41028000  0.02769000  1.0
  C  C12  1  0.44651000  0.59648000  0.02773000  1.0
  C  C13  1  0.55349000  0.40352000  0.97227000  1.0
  C  C14  1  0.49949000  0.50016000  0.24916000  1.0
  C  C15  1  0.50051000  0.49984000  0.75084000  1.0
  C  C16  1  0.62086000  0.49315000  0.02753000  1.0
  C  C17  1  0.37914000  0.50685000  0.97247000  1.0
  C  C18  1  0.50101000  0.49985000  0.08551000  1.0
  C  C19  1  0.50001000  0.15943000  0.50000000  1.0
  C  C20  1  0.49899000  0.50015000  0.91449000  1.0
  C  C21  1  0.50005000  0.50003000  0.17339000  1.0
  C  C22  1  0.49995000  0.49997000  0.82661000  1.0
  C  C23  1  0.06431000  0.50000000  0.50000000  1.0
  C  C24  1  0.93569000  0.50000000  0.50000000  1.0
  C  C25  1  0.50000000  0.71930000  0.50000000  1.0
  C  C26  1  0.50000000  0.28070000  0.50000000  1.0
  C  C27  1  0.49965000  0.50010000  0.33864000  1.0
  C  C28  1  0.50035000  0.49990000  0.66136000  1.0
  C  C29  1  0.50000000  0.94331000  0.50000000  1.0
  N  N30  1  0.17350000  0.50001000  0.49999000  1.0
  N  N31  1  0.82650000  0.49999000  0.50001000  1.0
  O  O32  1  0.60740000  0.67182000  0.49997000  1.0
  O  O33  1  0.39260000  0.32818000  0.50003000  1.0
  O  O34  1  0.39261000  0.67183000  0.50002000  1.0
  O  O35  1  0.60739000  0.32817000  0.49998000  1.0
  O  O36  1  0.60705000  0.50006000  0.37437000  1.0
  O  O37  1  0.39295000  0.49994000  0.62563000  1.0
  O  O38  1  0.39254000  0.50005000  0.37437000  1.0
  O  O39  1  0.60746000  0.49995000  0.62563000  1.0
