# generated using pymatgen
data_CuH12C16NO4
_symmetry_space_group_name_H-M   'P 1'
_cell_length_a   9.55494000
_cell_length_b   10.56830000
_cell_length_c   18.95970000
_cell_angle_alpha   89.99950000
_cell_angle_beta   89.99990000
_cell_angle_gamma   114.32000000
_symmetry_Int_Tables_number   1
_chemical_formula_structural   CuH12C16NO4
_chemical_formula_sum   'Cu4 H48 C64 N4 O16'
_cell_volume   1744.64336586
_cell_formula_units_Z   4
loop_
 _symmetry_equiv_pos_site_id
 _symmetry_equiv_pos_as_xyz
  1  'x, y, z'
loop_
 _atom_site_type_symbol
 _atom_site_label
 _atom_site_symmetry_multiplicity
 _atom_site_fract_x
 _atom_site_fract_y
 _atom_site_fract_z
 _atom_site_occupancy
  Cu  Cu0  1  0.14079000  0.02152000  0.49714000  1.0
  Cu  Cu1  1  0.35921000  0.47848000  0.99714000  1.0
  Cu  Cu2  1  0.85919000  0.97846000  0.50286000  1.0
  Cu  Cu3  1  0.64081000  0.52154000  0.00286000  1.0
  H  H4  1  0.26668000  0.20207000  0.28889000  1.0
  H  H5  1  0.23331000  0.29793000  0.78889000  1.0
  H  H6  1  0.73329000  0.79792000  0.71112000  1.0
  H  H7  1  0.76672000  0.70207000  0.21111000  1.0
  H  H8  1  0.27486000  0.25806000  0.16038000  1.0
  H  H9  1  0.22515000  0.24194000  0.66038000  1.0
  H  H10  1  0.72514000  0.74194000  0.83963000  1.0
  H  H11  1  0.77489000  0.75806000  0.33962000  1.0
  H  H12  1  0.03377000  0.18497000  0.09228000  1.0
  H  H13  1  0.46626000  0.31502000  0.59228000  1.0
  H  H14  1  0.96625000  0.81504000  0.90772000  1.0
  H  H15  1  0.53378000  0.68498000  0.40772000  1.0
  H  H16  1  0.78072000  0.06670000  0.15292000  1.0
  H  H17  1  0.71929000  0.43329000  0.65293000  1.0
  H  H18  1  0.21928000  0.93331000  0.84707000  1.0
  H  H19  1  0.28075000  0.56672000  0.34707000  1.0
  H  H20  1  0.77314000  0.01461000  0.28160000  1.0
  H  H21  1  0.72685000  0.48539000  0.78160000  1.0
  H  H22  1  0.22684000  0.98538000  0.71839000  1.0
  H  H23  1  0.27318000  0.51463000  0.21840000  1.0
  H  H24  1  0.90012000  0.36816000  0.58993000  1.0
  H  H25  1  0.59987000  0.13184000  0.08994000  1.0
  H  H26  1  0.09985000  0.63182000  0.41006000  1.0
  H  H27  1  0.40013000  0.86818000  0.91007000  1.0
  H  H28  1  0.97527000  0.61576000  0.62659000  1.0
  H  H29  1  0.52472000  0.88423000  0.12660000  1.0
  H  H30  1  0.02470000  0.38421000  0.37340000  1.0
  H  H31  1  0.47529000  0.11579000  0.87340000  1.0
  H  H32  1  0.24188000  0.78805000  0.60972000  1.0
  H  H33  1  0.25811000  0.71194000  0.10972000  1.0
  H  H34  1  0.75810000  0.21193000  0.39029000  1.0
  H  H35  1  0.74190000  0.28807000  0.89028000  1.0
  H  H36  1  0.43891000  0.71497000  0.55802000  1.0
  H  H37  1  0.06109000  0.78504000  0.05801000  1.0
  H  H38  1  0.56107000  0.28502000  0.44200000  1.0
  H  H39  1  0.93893000  0.21497000  0.94199000  1.0
  H  H40  1  0.36271000  0.46827000  0.52292000  1.0
  H  H41  1  0.13730000  0.03173000  0.02291000  1.0
  H  H42  1  0.63728000  0.53172000  0.47709000  1.0
  H  H43  1  0.86271000  0.96828000  0.97709000  1.0
  H  H44  1  0.35639000  0.98000000  0.39135000  1.0
  H  H45  1  0.14359000  0.51998000  0.89135000  1.0
  H  H46  1  0.64359000  0.01997000  0.60865000  1.0
  H  H47  1  0.85642000  0.48003000  0.10865000  1.0
  H  H48  1  0.40511000  0.07116000  0.60499000  1.0
  H  H49  1  0.09490000  0.42884000  0.10499000  1.0
  H  H50  1  0.59487000  0.92882000  0.39501000  1.0
  H  H51  1  0.90512000  0.57118000  0.89501000  1.0
  C  C52  1  0.01502000  0.06659000  0.36878000  1.0
  C  C53  1  0.48496000  0.43341000  0.86878000  1.0
  C  C54  1  0.98495000  0.93340000  0.63122000  1.0
  C  C55  1  0.51506000  0.56660000  0.13122000  1.0
  C  C56  1  0.01947000  0.10412000  0.29259000  1.0
  C  C57  1  0.48054000  0.39589000  0.79259000  1.0
  C  C58  1  0.98051000  0.89587000  0.70741000  1.0
  C  C59  1  0.51949000  0.60412000  0.20741000  1.0
  C  C60  1  0.16114000  0.17324000  0.25857000  1.0
  C  C61  1  0.33885000  0.32676000  0.75857000  1.0
  C  C62  1  0.83884000  0.82676000  0.74144000  1.0
  C  C63  1  0.66118000  0.67324000  0.24143000  1.0
  C  C64  1  0.16536000  0.20393000  0.18697000  1.0
  C  C65  1  0.33465000  0.29607000  0.68697000  1.0
  C  C66  1  0.83463000  0.79607000  0.81303000  1.0
  C  C67  1  0.66539000  0.70393000  0.31303000  1.0
  C  C68  1  0.02873000  0.16420000  0.14874000  1.0
  C  C69  1  0.47129000  0.33579000  0.64874000  1.0
  C  C70  1  0.97128000  0.83581000  0.85126000  1.0
  C  C71  1  0.52875000  0.66421000  0.35126000  1.0
  C  C72  1  0.88734000  0.09723000  0.18266000  1.0
  C  C73  1  0.61268000  0.40277000  0.68267000  1.0
  C  C74  1  0.11265000  0.90278000  0.81733000  1.0
  C  C75  1  0.38736000  0.59724000  0.31733000  1.0
  C  C76  1  0.88243000  0.06801000  0.25458000  1.0
  C  C77  1  0.61756000  0.43199000  0.75459000  1.0
  C  C78  1  0.11756000  0.93199000  0.74541000  1.0
  C  C79  1  0.38246000  0.56802000  0.24541000  1.0
  C  C80  1  0.08261000  0.25614000  0.53433000  1.0
  C  C81  1  0.41739000  0.24386000  0.03434000  1.0
  C  C82  1  0.91738000  0.74385000  0.46566000  1.0
  C  C83  1  0.58261000  0.75615000  0.96567000  1.0
  C  C84  1  0.12739000  0.40407000  0.55505000  1.0
  C  C85  1  0.37260000  0.09593000  0.05506000  1.0
  C  C86  1  0.87259000  0.59592000  0.44494000  1.0
  C  C87  1  0.62740000  0.90408000  0.94494000  1.0
  C  C88  1  0.01789000  0.44532000  0.58420000  1.0
  C  C89  1  0.48210000  0.05468000  0.08420000  1.0
  C  C90  1  0.98208000  0.55467000  0.41579000  1.0
  C  C91  1  0.51790000  0.94534000  0.91580000  1.0
  C  C92  1  0.06022000  0.58296000  0.60425000  1.0
  C  C93  1  0.43977000  0.91704000  0.10426000  1.0
  C  C94  1  0.93976000  0.41702000  0.39574000  1.0
  C  C95  1  0.56024000  0.08298000  0.89574000  1.0
  C  C96  1  0.21134000  0.68036000  0.59480000  1.0
  C  C97  1  0.28865000  0.81964000  0.09481000  1.0
  C  C98  1  0.78864000  0.31962000  0.40520000  1.0
  C  C99  1  0.71136000  0.18038000  0.90519000  1.0
  C  C100  1  0.32063000  0.63976000  0.56539000  1.0
  C  C101  1  0.17937000  0.86024000  0.06538000  1.0
  C  C102  1  0.67935000  0.36022000  0.43462000  1.0
  C  C103  1  0.82064000  0.13978000  0.93461000  1.0
  C  C104  1  0.27899000  0.50190000  0.54571000  1.0
  C  C105  1  0.22101000  0.99810000  0.04571000  1.0
  C  C106  1  0.72099000  0.49809000  0.45429000  1.0
  C  C107  1  0.77899000  0.00192000  0.95429000  1.0
  C  C108  1  0.42157000  0.98880000  0.43976000  1.0
  C  C109  1  0.07842000  0.51118000  0.93975000  1.0
  C  C110  1  0.57841000  0.01117000  0.56024000  1.0
  C  C111  1  0.92159000  0.48883000  0.06024000  1.0
  C  C112  1  0.44878000  0.03985000  0.55811000  1.0
  C  C113  1  0.05122000  0.46015000  0.05810000  1.0
  C  C114  1  0.55119000  0.96013000  0.44189000  1.0
  C  C115  1  0.94880000  0.53986000  0.94189000  1.0
  N  N116  1  0.37103000  0.02904000  0.49789000  1.0
  N  N117  1  0.12896000  0.47095000  0.99790000  1.0
  N  N118  1  0.62895000  0.97094000  0.50211000  1.0
  N  N119  1  0.87105000  0.52907000  0.00210000  1.0
  O  O120  1  0.13946000  0.07183000  0.39596000  1.0
  O  O121  1  0.36053000  0.42818000  0.89596000  1.0
  O  O122  1  0.86049000  0.92814000  0.60404000  1.0
  O  O123  1  0.63950000  0.57185000  0.10403000  1.0
  O  O124  1  0.11340000  0.96898000  0.59930000  1.0
  O  O125  1  0.38660000  0.53102000  0.09930000  1.0
  O  O126  1  0.88656000  0.03102000  0.40070000  1.0
  O  O127  1  0.61342000  0.46899000  0.90070000  1.0
  O  O128  1  0.19153000  0.21853000  0.52204000  1.0
  O  O129  1  0.30847000  0.28147000  0.02204000  1.0
  O  O130  1  0.80846000  0.78146000  0.47796000  1.0
  O  O131  1  0.69153000  0.71854000  0.97796000  1.0
  O  O132  1  0.06065000  0.82167000  0.46884000  1.0
  O  O133  1  0.43934000  0.67834000  0.96885000  1.0
  O  O134  1  0.93934000  0.17832000  0.53116000  1.0
  O  O135  1  0.56066000  0.32168000  0.03116000  1.0
