# generated using pymatgen
data_ZnH14C12N4O4F
_symmetry_space_group_name_H-M   'P 1'
_cell_length_a   9.70928000
_cell_length_b   10.80790000
_cell_length_c   11.00380000
_cell_angle_alpha   84.82710000
_cell_angle_beta   85.11710000
_cell_angle_gamma   77.48650000
_symmetry_Int_Tables_number   1
_chemical_formula_structural   ZnH14C12N4O4F
_chemical_formula_sum   'Zn2 H28 C24 N8 O8 F2'
_cell_volume   1120.12659964
_cell_formula_units_Z   2
loop_
 _symmetry_equiv_pos_site_id
 _symmetry_equiv_pos_as_xyz
  1  'x, y, z'
loop_
 _atom_site_type_symbol
 _atom_site_label
 _atom_site_symmetry_multiplicity
 _atom_site_fract_x
 _atom_site_fract_y
 _atom_site_fract_z
 _atom_site_occupancy
  Zn  Zn0  1  0.64590000  0.50024000  0.48902000  1.0
  Zn  Zn1  1  0.35359000  0.49421000  0.52298000  1.0
  H  H2  1  0.38969000  0.13344000  0.47252000  1.0
  H  H3  1  0.58837000  0.86228000  0.49142000  1.0
  H  H4  1  0.38565000  0.68077000  0.87913000  1.0
  H  H5  1  0.65629000  0.31820000  0.12341000  1.0
  H  H6  1  0.73634000  0.94679000  0.53339000  1.0
  H  H7  1  0.89126000  0.99760000  0.66964000  1.0
  H  H8  1  0.71785000  0.01694000  0.74478000  1.0
  H  H9  1  0.78086000  0.15197000  0.67697000  1.0
  H  H10  1  0.24832000  0.04392000  0.41753000  1.0
  H  H11  1  0.02315000  0.99338000  0.47838000  1.0
  H  H12  1  0.12439000  0.98185000  0.60903000  1.0
  H  H13  1  0.11371000  0.84142000  0.53926000  1.0
  H  H14  1  0.81790000  0.41188000  0.29610000  1.0
  H  H15  1  0.92706000  0.22411000  0.21291000  1.0
  H  H16  1  0.93196000  0.17927000  0.37253000  1.0
  H  H17  1  0.08548000  0.21551000  0.28507000  1.0
  H  H18  1  0.97033000  0.69862000  0.71092000  1.0
  H  H19  1  0.04403000  0.50020000  0.84855000  1.0
  H  H20  1  0.13425000  0.62598000  0.86146000  1.0
  H  H21  1  0.21876000  0.49711000  0.77704000  1.0
  H  H22  1  0.33885000  0.78598000  0.05688000  1.0
  H  H23  1  0.12965000  0.69629000  0.11130000  1.0
  H  H24  1  0.16857000  0.78639000  0.22893000  1.0
  H  H25  1  0.21770000  0.61810000  0.24233000  1.0
  H  H26  1  0.71779000  0.21832000  0.94400000  1.0
  H  H27  1  0.90792000  0.33936000  0.92478000  1.0
  H  H28  1  0.84278000  0.39981000  0.77868000  1.0
  H  H29  1  0.91555000  0.23476000  0.80597000  1.0
  C  C30  1  0.53818000  0.51016000  0.73643000  1.0
  C  C31  1  0.50638000  0.48777000  0.26624000  1.0
  C  C32  1  0.40036000  0.73774000  0.47515000  1.0
  C  C33  1  0.56956000  0.25240000  0.53018000  1.0
  C  C34  1  0.09458000  0.41110000  0.45582000  1.0
  C  C35  1  0.89856000  0.59400000  0.54324000  1.0
  C  C36  1  0.95874000  0.43376000  0.41025000  1.0
  C  C37  1  0.03025000  0.56583000  0.59406000  1.0
  C  C38  1  0.37614000  0.87951000  0.46503000  1.0
  C  C39  1  0.59431000  0.11133000  0.52547000  1.0
  C  C40  1  0.48965000  0.93182000  0.48105000  1.0
  C  C41  1  0.48567000  0.06266000  0.49037000  1.0
  C  C42  1  0.44660000  0.60168000  0.93398000  1.0
  C  C43  1  0.59556000  0.39780000  0.06886000  1.0
  C  C44  1  0.42884000  0.60122000  0.06183000  1.0
  C  C45  1  0.61608000  0.40007000  0.94129000  1.0
  C  C46  1  0.50475000  0.49479000  0.12979000  1.0
  C  C47  1  0.53774000  0.50466000  0.87302000  1.0
  C  C48  1  0.78203000  0.05187000  0.66666667  1.0
  C  C49  1  0.11931000  0.94143000  0.52092000  1.0
  C  C50  1  0.97004000  0.24075000  0.29753000  1.0
  C  C51  1  0.11589000  0.55742000  0.80035000  1.0
  C  C52  1  0.20763000  0.70182000  0.17744000  1.0
  C  C53  1  0.85189000  0.31924000  0.84755000  1.0
  N  N54  1  0.86063000  0.52871000  0.46122000  1.0
  N  N55  1  0.13046000  0.47389000  0.54191000  1.0
  N  N56  1  0.72817000  0.03964000  0.54879000  1.0
  N  N57  1  0.24309000  0.95119000  0.43770000  1.0
  N  N58  1  0.92015000  0.37492000  0.31857000  1.0
  N  N59  1  0.05530000  0.62860000  0.69042000  1.0
  N  N60  1  0.34749000  0.70858000  0.11800000  1.0
  N  N61  1  0.70956000  0.29752000  0.88500000  1.0
  O  O62  1  0.65593000  0.50078000  0.67381000  1.0
  O  O63  1  0.39358000  0.48441000  0.33166000  1.0
  O  O64  1  0.41798000  0.52514000  0.69270000  1.0
  O  O65  1  0.62753000  0.48387000  0.30647000  1.0
  O  O66  1  0.52910000  0.67818000  0.47371000  1.0
  O  O67  1  0.44100000  0.30987000  0.55033000  1.0
  O  O68  1  0.29387000  0.68454000  0.48648000  1.0
  O  O69  1  0.67596000  0.30490000  0.51107000  1.0
  F  F70  1  0.19766000  0.32050000  0.40754000  1.0
  F  F71  1  0.80087000  0.69362000  0.58434000  1.0
