# generated using pymatgen
data_K3H20C22Cl3O5
_symmetry_space_group_name_H-M   'P 1'
_cell_length_a   7.12012000
_cell_length_b   17.99920000
_cell_length_c   20.92700000
_cell_angle_alpha   89.99990000
_cell_angle_beta   90.00000000
_cell_angle_gamma   91.46150000
_symmetry_Int_Tables_number   1
_chemical_formula_structural   K3H20C22Cl3O5
_chemical_formula_sum   'K12 H80 C88 Cl12 O20'
_cell_volume   2681.05785852
_cell_formula_units_Z   4
loop_
 _symmetry_equiv_pos_site_id
 _symmetry_equiv_pos_as_xyz
  1  'x, y, z'
loop_
 _atom_site_type_symbol
 _atom_site_label
 _atom_site_symmetry_multiplicity
 _atom_site_fract_x
 _atom_site_fract_y
 _atom_site_fract_z
 _atom_site_occupancy
  K  K0  1  0.61231000  0.10544000  0.33321000  1.0
  K  K1  1  0.88769000  0.89456000  0.83321000  1.0
  K  K2  1  0.38769000  0.89456000  0.66679000  1.0
  K  K3  1  0.11231000  0.10544000  0.16679000  1.0
  K  K4  1  0.63161000  0.39738000  0.33351000  1.0
  K  K5  1  0.86840000  0.60262000  0.83351000  1.0
  K  K6  1  0.36839000  0.60262000  0.66649000  1.0
  K  K7  1  0.13160000  0.39738000  0.16649000  1.0
  K  K8  1  0.49434000  0.25113000  0.23017000  1.0
  K  K9  1  0.00565000  0.74887000  0.73017000  1.0
  K  K10  1  0.50565000  0.74887000  0.76983000  1.0
  K  K11  1  0.99434000  0.25113000  0.26983000  1.0
  H  H12  1  0.35935000  0.28075000  0.38827000  1.0
  H  H13  1  0.14065000  0.71925000  0.88827000  1.0
  H  H14  1  0.64065000  0.71925000  0.61173000  1.0
  H  H15  1  0.85934000  0.28075000  0.11173000  1.0
  H  H16  1  0.25263000  0.28480000  0.50156000  1.0
  H  H17  1  0.24737000  0.71520000  0.00156000  1.0
  H  H18  1  0.74737000  0.71520000  0.49844000  1.0
  H  H19  1  0.75263000  0.28480000  0.99844000  1.0
  H  H20  1  0.80571000  0.22625000  0.56426000  1.0
  H  H21  1  0.69429000  0.77375000  0.06426000  1.0
  H  H22  1  0.19429000  0.77375000  0.43574000  1.0
  H  H23  1  0.30572000  0.22626000  0.93574000  1.0
  H  H24  1  0.91482000  0.22353000  0.45182000  1.0
  H  H25  1  0.58518000  0.77647000  0.95182000  1.0
  H  H26  1  0.08518000  0.77647000  0.54818000  1.0
  H  H27  1  0.41482000  0.22353000  0.04818000  1.0
  H  H28  1  0.04599000  0.36968000  0.38371000  1.0
  H  H29  1  0.45401000  0.63032000  0.88371000  1.0
  H  H30  1  0.95401000  0.63032000  0.61629000  1.0
  H  H31  1  0.54599000  0.36968000  0.11629000  1.0
  H  H32  1  0.91349000  0.48824000  0.42177000  1.0
  H  H33  1  0.58651000  0.51176000  0.92177000  1.0
  H  H34  1  0.08651000  0.51176000  0.57823000  1.0
  H  H35  1  0.41349000  0.48824000  0.07823000  1.0
  H  H36  1  0.24640000  0.61050000  0.28408000  1.0
  H  H37  1  0.25360000  0.38950000  0.78408000  1.0
  H  H38  1  0.75360000  0.38950000  0.71592000  1.0
  H  H39  1  0.74640000  0.61050000  0.21592000  1.0
  H  H40  1  0.37935000  0.49333000  0.24511000  1.0
  H  H41  1  0.12065000  0.50667000  0.74511000  1.0
  H  H42  1  0.62065000  0.50667000  0.75489000  1.0
  H  H43  1  0.87934000  0.49333000  0.25489000  1.0
  H  H44  1  0.03687000  0.13856000  0.38386000  1.0
  H  H45  1  0.46313000  0.86144000  0.88386000  1.0
  H  H46  1  0.96312000  0.86144000  0.61614000  1.0
  H  H47  1  0.53688000  0.13856000  0.11614000  1.0
  H  H48  1  0.89039000  0.02283000  0.42817000  1.0
  H  H49  1  0.60961000  0.97717000  0.92817000  1.0
  H  H50  1  0.10961000  0.97717000  0.57182000  1.0
  H  H51  1  0.39039000  0.02283000  0.07183000  1.0
  H  H52  1  0.19033000  0.89272000  0.29087000  1.0
  H  H53  1  0.30967000  0.10728000  0.79087000  1.0
  H  H54  1  0.80967000  0.10728000  0.70913000  1.0
  H  H55  1  0.69033000  0.89272000  0.20913000  1.0
  H  H56  1  0.33824000  0.00734000  0.24639000  1.0
  H  H57  1  0.16176000  0.99266000  0.74639000  1.0
  H  H58  1  0.66176000  0.99266000  0.75361000  1.0
  H  H59  1  0.83824000  0.00734000  0.25361000  1.0
  H  H60  1  0.54007000  0.91766000  0.41041000  1.0
  H  H61  1  0.95993000  0.08234000  0.91041000  1.0
  H  H62  1  0.45993000  0.08234000  0.58959000  1.0
  H  H63  1  0.04007000  0.91766000  0.08959000  1.0
  H  H64  1  0.32583000  0.93506000  0.45210000  1.0
  H  H65  1  0.17417000  0.06494000  0.95210000  1.0
  H  H66  1  0.67418000  0.06494000  0.54790000  1.0
  H  H67  1  0.82583000  0.93506000  0.04790000  1.0
  H  H68  1  0.27582000  0.05960000  0.48993000  1.0
  H  H69  1  0.22419000  0.94040000  0.98993000  1.0
  H  H70  1  0.72419000  0.94040000  0.51007000  1.0
  H  H71  1  0.77581000  0.05960000  0.01007000  1.0
  H  H72  1  0.45482000  0.12887000  0.47486000  1.0
  H  H73  1  0.04518000  0.87113000  0.97486000  1.0
  H  H74  1  0.54518000  0.87113000  0.52514000  1.0
  H  H75  1  0.95482000  0.12887000  0.02514000  1.0
  H  H76  1  0.76207000  0.47984000  0.51931000  1.0
  H  H77  1  0.73793000  0.52016000  0.01931000  1.0
  H  H78  1  0.23793000  0.52016000  0.48069000  1.0
  H  H79  1  0.26207000  0.47984000  0.98069000  1.0
  H  H80  1  0.67888000  0.38818000  0.49753000  1.0
  H  H81  1  0.82112000  0.61183000  0.99753000  1.0
  H  H82  1  0.32112000  0.61183000  0.50247000  1.0
  H  H83  1  0.17888000  0.38817000  0.00247000  1.0
  H  H84  1  0.46763000  0.56450000  0.39992000  1.0
  H  H85  1  0.03237000  0.43550000  0.89992000  1.0
  H  H86  1  0.53237000  0.43550000  0.60008000  1.0
  H  H87  1  0.96763000  0.56450000  0.10008000  1.0
  H  H88  1  0.63808000  0.58404000  0.46105000  1.0
  H  H89  1  0.86192000  0.41596000  0.96105000  1.0
  H  H90  1  0.36192000  0.41596000  0.53895000  1.0
  H  H91  1  0.13808000  0.58404000  0.03895000  1.0
  C  C92  1  0.64656000  0.25240000  0.41039000  1.0
  C  C93  1  0.85344000  0.74760000  0.91039000  1.0
  C  C94  1  0.35344000  0.74759000  0.58961000  1.0
  C  C95  1  0.14656000  0.25240000  0.08961000  1.0
  C  C96  1  0.45755000  0.26904000  0.42694000  1.0
  C  C97  1  0.04245000  0.73096000  0.92694000  1.0
  C  C98  1  0.54245000  0.73096000  0.57306000  1.0
  C  C99  1  0.95755000  0.26904000  0.07306000  1.0
  C  C100  1  0.39750000  0.27130000  0.49036000  1.0
  C  C101  1  0.10249000  0.72870000  0.99036000  1.0
  C  C102  1  0.60250000  0.72870000  0.50964000  1.0
  C  C103  1  0.89750000  0.27130000  0.00964000  1.0
  C  C104  1  0.52340000  0.25623000  0.53971000  1.0
  C  C105  1  0.97660000  0.74377000  0.03971000  1.0
  C  C106  1  0.47660000  0.74377000  0.46029000  1.0
  C  C107  1  0.02341000  0.25623000  0.96029000  1.0
  C  C108  1  0.70899000  0.23870000  0.52562000  1.0
  C  C109  1  0.79101000  0.76130000  0.02562000  1.0
  C  C110  1  0.29101000  0.76130000  0.47438000  1.0
  C  C111  1  0.20899000  0.23870000  0.97438000  1.0
  C  C112  1  0.76928000  0.23698000  0.46237000  1.0
  C  C113  1  0.73072000  0.76302000  0.96237000  1.0
  C  C114  1  0.23072000  0.76302000  0.53763000  1.0
  C  C115  1  0.26928000  0.23698000  0.03763000  1.0
  C  C116  1  0.21789000  0.42050000  0.30888000  1.0
  C  C117  1  0.28211000  0.57950000  0.80888000  1.0
  C  C118  1  0.78211000  0.57950000  0.69112000  1.0
  C  C119  1  0.71788000  0.42050000  0.19112000  1.0
  C  C120  1  0.08790000  0.42216000  0.36078000  1.0
  C  C121  1  0.41209000  0.57784000  0.86078000  1.0
  C  C122  1  0.91210000  0.57784000  0.63922000  1.0
  C  C123  1  0.58791000  0.42216000  0.13922000  1.0
  C  C124  1  0.01518000  0.48854000  0.38286000  1.0
  C  C125  1  0.48481000  0.51146000  0.88286000  1.0
  C  C126  1  0.98482000  0.51146000  0.61714000  1.0
  C  C127  1  0.51518000  0.48854000  0.11714000  1.0
  C  C128  1  0.06919000  0.55622000  0.35456000  1.0
  C  C129  1  0.43080000  0.44378000  0.85456000  1.0
  C  C130  1  0.93081000  0.44378000  0.64544000  1.0
  C  C131  1  0.56920000  0.55622000  0.14544000  1.0
  C  C132  1  0.20125000  0.55766000  0.30529000  1.0
  C  C133  1  0.29875000  0.44234000  0.80529000  1.0
  C  C134  1  0.79875000  0.44234000  0.69471000  1.0
  C  C135  1  0.70124000  0.55766000  0.19471000  1.0
  C  C136  1  0.27479000  0.49126000  0.28336000  1.0
  C  C137  1  0.22521000  0.50874000  0.78336000  1.0
  C  C138  1  0.72521000  0.50874000  0.71664000  1.0
  C  C139  1  0.77479000  0.49126000  0.21665000  1.0
  C  C140  1  0.19445000  0.08355000  0.30953000  1.0
  C  C141  1  0.30556000  0.91645000  0.80953000  1.0
  C  C142  1  0.80555000  0.91645000  0.69047000  1.0
  C  C143  1  0.69445000  0.08355000  0.19047000  1.0
  C  C144  1  0.06816000  0.08489000  0.36245000  1.0
  C  C145  1  0.43185000  0.91511000  0.86245000  1.0
  C  C146  1  0.93184000  0.91511000  0.63754000  1.0
  C  C147  1  0.56816000  0.08489000  0.13755000  1.0
  C  C148  1  0.98733000  0.02006000  0.38787000  1.0
  C  C149  1  0.51267000  0.97994000  0.88787000  1.0
  C  C150  1  0.01267000  0.97994000  0.61213000  1.0
  C  C151  1  0.48733000  0.02006000  0.11213000  1.0
  C  C152  1  0.02913000  0.95103000  0.36137000  1.0
  C  C153  1  0.47087000  0.04897000  0.86137000  1.0
  C  C154  1  0.97087000  0.04897000  0.63863000  1.0
  C  C155  1  0.52913000  0.95103000  0.13863000  1.0
  C  C156  1  0.15553000  0.94672000  0.31060000  1.0
  C  C157  1  0.34447000  0.05328000  0.81060000  1.0
  C  C158  1  0.84447000  0.05328000  0.68940000  1.0
  C  C159  1  0.65553000  0.94672000  0.18940000  1.0
  C  C160  1  0.23694000  0.01159000  0.28544000  1.0
  C  C161  1  0.26306000  0.98841000  0.78544000  1.0
  C  C162  1  0.76305000  0.98841000  0.71456000  1.0
  C  C163  1  0.73695000  0.01159000  0.21456000  1.0
  C  C164  1  0.47787000  0.94858000  0.44998000  1.0
  C  C165  1  0.02213000  0.05142000  0.94998000  1.0
  C  C166  1  0.52214000  0.05142000  0.55002000  1.0
  C  C167  1  0.97787000  0.94858000  0.05002000  1.0
  C  C168  1  0.42905000  0.07026000  0.48717000  1.0
  C  C169  1  0.07095000  0.92974000  0.98717000  1.0
  C  C170  1  0.57095000  0.92974000  0.51283000  1.0
  C  C171  1  0.92905000  0.07026000  0.01283000  1.0
  C  C172  1  0.63854000  0.44619000  0.50366000  1.0
  C  C173  1  0.86146000  0.55381000  0.00365000  1.0
  C  C174  1  0.36146000  0.55381000  0.49634000  1.0
  C  C175  1  0.13854000  0.44619000  0.99634000  1.0
  C  C176  1  0.51696000  0.54802000  0.44738000  1.0
  C  C177  1  0.98304000  0.45199000  0.94738000  1.0
  C  C178  1  0.48304000  0.45199000  0.55262000  1.0
  C  C179  1  0.01696000  0.54802000  0.05262000  1.0
  Cl  Cl180  1  0.45175000  0.25952000  0.61918000  1.0
  Cl  Cl181  1  0.04825000  0.74048000  0.11918000  1.0
  Cl  Cl182  1  0.54825000  0.74048000  0.38082000  1.0
  Cl  Cl183  1  0.95175000  0.25952000  0.88082000  1.0
  Cl  Cl184  1  0.97091000  0.63824000  0.38083000  1.0
  Cl  Cl185  1  0.52909000  0.36176000  0.88083000  1.0
  Cl  Cl186  1  0.02909000  0.36176000  0.61917000  1.0
  Cl  Cl187  1  0.47090000  0.63824000  0.11917000  1.0
  Cl  Cl188  1  0.92290000  0.87019000  0.39161000  1.0
  Cl  Cl189  1  0.57710000  0.12981000  0.89161000  1.0
  Cl  Cl190  1  0.07710000  0.12980000  0.60839000  1.0
  Cl  Cl191  1  0.42290000  0.87019000  0.10839000  1.0
  O  O192  1  0.70363000  0.25138000  0.35041000  1.0
  O  O193  1  0.79637000  0.74862000  0.85041000  1.0
  O  O194  1  0.29637000  0.74862000  0.64959000  1.0
  O  O195  1  0.20363000  0.25138000  0.14959000  1.0
  O  O196  1  0.28229000  0.35821000  0.28577000  1.0
  O  O197  1  0.21771000  0.64179000  0.78577000  1.0
  O  O198  1  0.71771000  0.64179000  0.71424000  1.0
  O  O199  1  0.78229000  0.35821000  0.21423000  1.0
  O  O200  1  0.26867000  0.14447000  0.28441000  1.0
  O  O201  1  0.23133000  0.85553000  0.78441000  1.0
  O  O202  1  0.73133000  0.85553000  0.71559000  1.0
  O  O203  1  0.76867000  0.14447000  0.21559000  1.0
  O  O204  1  0.50502000  0.02653000  0.43610000  1.0
  O  O205  1  0.99498000  0.97347000  0.93610000  1.0
  O  O206  1  0.49499000  0.97347000  0.56390000  1.0
  O  O207  1  0.00502000  0.02653000  0.06390000  1.0
  O  O208  1  0.57657000  0.47226000  0.44225000  1.0
  O  O209  1  0.92343000  0.52774000  0.94225000  1.0
  O  O210  1  0.42343000  0.52774000  0.55775000  1.0
  O  O211  1  0.07657000  0.47226000  0.05775000  1.0
