# generated using pymatgen
data_Cd2H16C29N2(O3F2)3
_symmetry_space_group_name_H-M   'P 1'
_cell_length_a   7.59683000
_cell_length_b   15.92860000
_cell_length_c   27.89550000
_cell_angle_alpha   100.01600000
_cell_angle_beta   90.00000000
_cell_angle_gamma   89.99980000
_symmetry_Int_Tables_number   1
_chemical_formula_structural   Cd2H16C29N2(O3F2)3
_chemical_formula_sum   'Cd8 H64 C116 N8 O36 F24'
_cell_volume   3324.10107987
_cell_formula_units_Z   4
loop_
 _symmetry_equiv_pos_site_id
 _symmetry_equiv_pos_as_xyz
  1  'x, y, z'
loop_
 _atom_site_type_symbol
 _atom_site_label
 _atom_site_symmetry_multiplicity
 _atom_site_fract_x
 _atom_site_fract_y
 _atom_site_fract_z
 _atom_site_occupancy
  Cd  Cd0  1  0.47805000  0.78390000  0.91881000  1.0
  Cd  Cd1  1  0.95413000  0.84919000  0.95265000  1.0
  Cd  Cd2  1  0.97805000  0.21609000  0.58119000  1.0
  Cd  Cd3  1  0.45413000  0.15081000  0.54735000  1.0
  Cd  Cd4  1  0.52195000  0.21610000  0.08119000  1.0
  Cd  Cd5  1  0.04587000  0.15081000  0.04735000  1.0
  Cd  Cd6  1  0.02195000  0.78390000  0.41881000  1.0
  Cd  Cd7  1  0.54587000  0.84919000  0.45265000  1.0
  H  H8  1  0.28338000  0.79916000  0.76860000  1.0
  H  H9  1  0.78416000  0.80262000  0.69475000  1.0
  H  H10  1  0.63487000  0.77269000  0.76852000  1.0
  H  H11  1  0.96582000  0.96364000  0.71446000  1.0
  H  H12  1  0.79312000  0.05808000  0.67131000  1.0
  H  H13  1  0.06475000  0.79830000  0.57719000  1.0
  H  H14  1  0.33167000  0.71711000  0.00887000  1.0
  H  H15  1  0.21994000  0.58855000  0.03733000  1.0
  H  H16  1  0.34650000  0.44576000  0.89468000  1.0
  H  H17  1  0.45050000  0.58236000  0.87249000  1.0
  H  H18  1  0.22008000  0.47733000  0.06243000  1.0
  H  H19  1  0.11175000  0.34535000  0.08741000  1.0
  H  H20  1  0.07681000  0.22052000  0.94471000  1.0
  H  H21  1  0.17595000  0.34865000  0.91268000  1.0
  H  H22  1  0.05864000  0.94162000  0.04914000  1.0
  H  H23  1  0.21793000  0.91025000  0.01418000  1.0
  H  H24  1  0.78338000  0.20084000  0.73140000  1.0
  H  H25  1  0.28416000  0.19738000  0.80525000  1.0
  H  H26  1  0.13488000  0.22732000  0.73149000  1.0
  H  H27  1  0.46583000  0.03636000  0.78554000  1.0
  H  H28  1  0.29314000  0.94192000  0.82869000  1.0
  H  H29  1  0.56475000  0.20171000  0.92281000  1.0
  H  H30  1  0.83167000  0.28289000  0.49113000  1.0
  H  H31  1  0.71994000  0.41145000  0.46267000  1.0
  H  H32  1  0.84650000  0.55424000  0.60532000  1.0
  H  H33  1  0.95050000  0.41764000  0.62751000  1.0
  H  H34  1  0.72008000  0.52267000  0.43757000  1.0
  H  H35  1  0.61175000  0.65465000  0.41259000  1.0
  H  H36  1  0.57680000  0.77948000  0.55529000  1.0
  H  H37  1  0.67595000  0.65135000  0.58732000  1.0
  H  H38  1  0.55864000  0.05838000  0.45086000  1.0
  H  H39  1  0.71794000  0.08975000  0.48582000  1.0
  H  H40  1  0.71661000  0.20084000  0.23140000  1.0
  H  H41  1  0.21583000  0.19738000  0.30525000  1.0
  H  H42  1  0.36513000  0.22731000  0.23148000  1.0
  H  H43  1  0.03417000  0.03636000  0.28554000  1.0
  H  H44  1  0.20687000  0.94192000  0.32869000  1.0
  H  H45  1  0.93525000  0.20170000  0.42281000  1.0
  H  H46  1  0.66832000  0.28289000  0.99113000  1.0
  H  H47  1  0.78006000  0.41145000  0.96267000  1.0
  H  H48  1  0.65350000  0.55424000  0.10532000  1.0
  H  H49  1  0.54950000  0.41764000  0.12751000  1.0
  H  H50  1  0.77990000  0.52267000  0.93757000  1.0
  H  H51  1  0.88824000  0.65465000  0.91259000  1.0
  H  H52  1  0.92320000  0.77947000  0.05529000  1.0
  H  H53  1  0.82406000  0.65135000  0.08732000  1.0
  H  H54  1  0.94136000  0.05838000  0.95086000  1.0
  H  H55  1  0.78207000  0.08975000  0.98582000  1.0
  H  H56  1  0.21662000  0.79916000  0.26860000  1.0
  H  H57  1  0.71584000  0.80262000  0.19475000  1.0
  H  H58  1  0.86512000  0.77268000  0.26852000  1.0
  H  H59  1  0.53419000  0.96364000  0.21446000  1.0
  H  H60  1  0.70689000  0.05808000  0.17131000  1.0
  H  H61  1  0.43526000  0.79830000  0.07719000  1.0
  H  H62  1  0.16832000  0.71711000  0.50887000  1.0
  H  H63  1  0.28006000  0.58855000  0.53733000  1.0
  H  H64  1  0.15349000  0.44575000  0.39469000  1.0
  H  H65  1  0.04949000  0.58236000  0.37249000  1.0
  H  H66  1  0.27991000  0.47733000  0.56243000  1.0
  H  H67  1  0.38825000  0.34535000  0.58741000  1.0
  H  H68  1  0.42320000  0.22052000  0.44471000  1.0
  H  H69  1  0.32405000  0.34865000  0.41268000  1.0
  H  H70  1  0.44137000  0.94162000  0.54914000  1.0
  H  H71  1  0.28207000  0.91025000  0.51418000  1.0
  C  C72  1  0.76448000  0.75546000  0.85290000  1.0
  C  C73  1  0.87241000  0.77183000  0.81025000  1.0
  C  C74  1  0.05626000  0.77987000  0.80961000  1.0
  C  C75  1  0.14058000  0.79546000  0.76733000  1.0
  C  C76  1  0.04621000  0.80455000  0.72571000  1.0
  C  C77  1  0.86230000  0.79611000  0.72662000  1.0
  C  C78  1  0.77749000  0.77958000  0.76817000  1.0
  C  C79  1  0.16862000  0.77098000  0.85266000  1.0
  C  C80  1  0.13714000  0.81638000  0.67793000  1.0
  C  C81  1  0.32051000  0.86108000  0.68655000  1.0
  C  C82  1  0.16633000  0.72460000  0.64873000  1.0
  C  C83  1  0.02679000  0.87228000  0.64957000  1.0
  C  C84  1  0.94994000  0.94701000  0.67517000  1.0
  C  C85  1  0.85117000  0.00017000  0.65093000  1.0
  C  C86  1  0.82654000  0.98005000  0.60049000  1.0
  C  C87  1  0.90512000  0.90632000  0.57451000  1.0
  C  C88  1  0.00543000  0.85385000  0.59926000  1.0
  C  C89  1  0.72040000  0.03929000  0.57558000  1.0
  C  C90  1  0.87867000  0.87972000  0.52067000  1.0
  C  C91  1  0.33163000  0.65541000  0.98491000  1.0
  C  C92  1  0.27113000  0.58255000  0.00049000  1.0
  C  C93  1  0.27328000  0.50405000  0.96861000  1.0
  C  C94  1  0.33845000  0.50416000  0.92144000  1.0
  C  C95  1  0.39718000  0.58004000  0.90857000  1.0
  C  C96  1  0.20971000  0.42570000  0.98479000  1.0
  C  C97  1  0.18833000  0.42289000  0.03446000  1.0
  C  C98  1  0.12966000  0.34877000  0.04909000  1.0
  C  C99  1  0.11098000  0.27913000  0.96936000  1.0
  C  C100  1  0.16703000  0.35128000  0.95188000  1.0
  C  C101  1  0.26447000  0.24454000  0.64710000  1.0
  C  C102  1  0.37241000  0.22816000  0.68975000  1.0
  C  C103  1  0.55626000  0.22012000  0.69039000  1.0
  C  C104  1  0.64058000  0.20454000  0.73268000  1.0
  C  C105  1  0.54621000  0.19545000  0.77429000  1.0
  C  C106  1  0.36230000  0.20390000  0.77338000  1.0
  C  C107  1  0.27750000  0.22042000  0.73183000  1.0
  C  C108  1  0.66862000  0.22902000  0.64734000  1.0
  C  C109  1  0.63713000  0.18362000  0.82207000  1.0
  C  C110  1  0.82050000  0.13892000  0.81346000  1.0
  C  C111  1  0.66634000  0.27540000  0.85127000  1.0
  C  C112  1  0.52679000  0.12772000  0.85043000  1.0
  C  C113  1  0.44994000  0.05299000  0.82483000  1.0
  C  C114  1  0.35118000  0.99983000  0.84907000  1.0
  C  C115  1  0.32654000  0.01995000  0.89951000  1.0
  C  C116  1  0.40512000  0.09368000  0.92549000  1.0
  C  C117  1  0.50543000  0.14615000  0.90074000  1.0
  C  C118  1  0.22040000  0.96071000  0.92442000  1.0
  C  C119  1  0.37867000  0.12028000  0.97933000  1.0
  C  C120  1  0.83163000  0.34459000  0.51509000  1.0
  C  C121  1  0.77113000  0.41745000  0.49951000  1.0
  C  C122  1  0.77328000  0.49595000  0.53139000  1.0
  C  C123  1  0.83845000  0.49584000  0.57856000  1.0
  C  C124  1  0.89717000  0.41996000  0.59143000  1.0
  C  C125  1  0.70972000  0.57430000  0.51521000  1.0
  C  C126  1  0.68834000  0.57712000  0.46554000  1.0
  C  C127  1  0.62966000  0.65123000  0.45091000  1.0
  C  C128  1  0.61098000  0.72087000  0.53064000  1.0
  C  C129  1  0.66703000  0.64872000  0.54812000  1.0
  C  C130  1  0.23552000  0.24453000  0.14710000  1.0
  C  C131  1  0.12759000  0.22816000  0.18975000  1.0
  C  C132  1  0.94373000  0.22012000  0.19039000  1.0
  C  C133  1  0.85942000  0.20454000  0.23267000  1.0
  C  C134  1  0.95378000  0.19545000  0.27429000  1.0
  C  C135  1  0.13769000  0.20389000  0.27338000  1.0
  C  C136  1  0.22250000  0.22042000  0.23183000  1.0
  C  C137  1  0.83137000  0.22902000  0.14734000  1.0
  C  C138  1  0.86286000  0.18362000  0.32207000  1.0
  C  C139  1  0.67949000  0.13892000  0.31346000  1.0
  C  C140  1  0.83366000  0.27540000  0.35127000  1.0
  C  C141  1  0.97320000  0.12772000  0.35043000  1.0
  C  C142  1  0.05005000  0.05299000  0.32483000  1.0
  C  C143  1  0.14882000  0.99983000  0.34906000  1.0
  C  C144  1  0.17346000  0.01995000  0.39951000  1.0
  C  C145  1  0.09489000  0.09368000  0.42549000  1.0
  C  C146  1  0.99457000  0.14615000  0.40074000  1.0
  C  C147  1  0.27961000  0.96071000  0.42441000  1.0
  C  C148  1  0.12133000  0.12028000  0.47933000  1.0
  C  C149  1  0.66837000  0.34459000  0.01509000  1.0
  C  C150  1  0.72887000  0.41745000  0.99951000  1.0
  C  C151  1  0.72672000  0.49595000  0.03139000  1.0
  C  C152  1  0.66155000  0.49584000  0.07856000  1.0
  C  C153  1  0.60282000  0.41996000  0.09143000  1.0
  C  C154  1  0.79028000  0.57429000  0.01521000  1.0
  C  C155  1  0.81166000  0.57711000  0.96554000  1.0
  C  C156  1  0.87034000  0.65123000  0.95091000  1.0
  C  C157  1  0.88902000  0.72086000  0.03064000  1.0
  C  C158  1  0.83297000  0.64872000  0.04812000  1.0
  C  C159  1  0.73552000  0.75547000  0.35290000  1.0
  C  C160  1  0.62759000  0.77183000  0.31025000  1.0
  C  C161  1  0.44374000  0.77987000  0.30961000  1.0
  C  C162  1  0.35942000  0.79546000  0.26732000  1.0
  C  C163  1  0.45380000  0.80455000  0.22571000  1.0
  C  C164  1  0.63771000  0.79611000  0.22662000  1.0
  C  C165  1  0.72251000  0.77957000  0.26817000  1.0
  C  C166  1  0.33138000  0.77097000  0.35266000  1.0
  C  C167  1  0.36288000  0.81638000  0.17793000  1.0
  C  C168  1  0.17951000  0.86108000  0.18654000  1.0
  C  C169  1  0.33369000  0.72460000  0.14873000  1.0
  C  C170  1  0.47321000  0.87228000  0.14957000  1.0
  C  C171  1  0.55007000  0.94701000  0.17517000  1.0
  C  C172  1  0.64883000  0.00017000  0.15093000  1.0
  C  C173  1  0.67347000  0.98005000  0.10049000  1.0
  C  C174  1  0.59489000  0.90632000  0.07451000  1.0
  C  C175  1  0.49458000  0.85385000  0.09926000  1.0
  C  C176  1  0.77961000  0.03929000  0.07558000  1.0
  C  C177  1  0.62133000  0.87972000  0.02067000  1.0
  C  C178  1  0.16837000  0.65541000  0.48491000  1.0
  C  C179  1  0.22886000  0.58255000  0.50049000  1.0
  C  C180  1  0.22672000  0.50405000  0.46861000  1.0
  C  C181  1  0.16154000  0.50415000  0.42145000  1.0
  C  C182  1  0.10282000  0.58004000  0.40857000  1.0
  C  C183  1  0.29028000  0.42570000  0.48479000  1.0
  C  C184  1  0.31167000  0.42289000  0.53446000  1.0
  C  C185  1  0.37035000  0.34877000  0.54909000  1.0
  C  C186  1  0.38902000  0.27913000  0.46936000  1.0
  C  C187  1  0.33297000  0.35128000  0.45188000  1.0
  N  N188  1  0.39454000  0.65447000  0.93979000  1.0
  N  N189  1  0.09333000  0.27747000  0.01717000  1.0
  N  N190  1  0.89454000  0.34553000  0.56021000  1.0
  N  N191  1  0.59333000  0.72253000  0.48283000  1.0
  N  N192  1  0.60545000  0.34553000  0.06021000  1.0
  N  N193  1  0.90667000  0.72253000  0.98283000  1.0
  N  N194  1  0.10545000  0.65447000  0.43979000  1.0
  N  N195  1  0.40667000  0.27747000  0.51717000  1.0
  O  O196  1  0.74060000  0.81989000  0.88827000  1.0
  O  O197  1  0.68743000  0.68563000  0.85042000  1.0
  O  O198  1  0.09722000  0.75147000  0.89051000  1.0
  O  O199  1  0.33326000  0.78418000  0.84846000  1.0
  O  O200  1  0.79964000  0.09456000  0.55598000  1.0
  O  O201  1  0.55231000  0.03493000  0.57812000  1.0
  O  O202  1  0.76657000  0.92055000  0.49987000  1.0
  O  O203  1  0.96786000  0.81579000  0.50008000  1.0
  O  O204  1  0.11228000  0.89045000  0.02903000  1.0
  O  O205  1  0.24060000  0.18011000  0.61173000  1.0
  O  O206  1  0.18744000  0.31438000  0.64958000  1.0
  O  O207  1  0.59723000  0.24853000  0.60949000  1.0
  O  O208  1  0.83326000  0.21582000  0.65154000  1.0
  O  O209  1  0.29963000  0.90544000  0.94402000  1.0
  O  O210  1  0.05231000  0.96507000  0.92187000  1.0
  O  O211  1  0.26657000  0.07945000  0.00013000  1.0
  O  O212  1  0.46785000  0.18421000  0.99992000  1.0
  O  O213  1  0.61228000  0.10955000  0.47097000  1.0
  O  O214  1  0.25940000  0.18010000  0.11173000  1.0
  O  O215  1  0.31256000  0.31437000  0.14958000  1.0
  O  O216  1  0.90277000  0.24853000  0.10949000  1.0
  O  O217  1  0.66666667  0.21582000  0.15154000  1.0
  O  O218  1  0.20038000  0.90544000  0.44402000  1.0
  O  O219  1  0.44769000  0.96507000  0.42187000  1.0
  O  O220  1  0.23343000  0.07945000  0.50012000  1.0
  O  O221  1  0.03214000  0.18421000  0.49992000  1.0
  O  O222  1  0.88772000  0.10955000  0.97097000  1.0
  O  O223  1  0.75940000  0.81989000  0.38827000  1.0
  O  O224  1  0.81257000  0.68562000  0.35042000  1.0
  O  O225  1  0.40277000  0.75147000  0.39051000  1.0
  O  O226  1  0.16674000  0.78418000  0.34846000  1.0
  O  O227  1  0.70037000  0.09456000  0.05598000  1.0
  O  O228  1  0.94769000  0.03493000  0.07812000  1.0
  O  O229  1  0.73343000  0.92055000  0.99987000  1.0
  O  O230  1  0.53216000  0.81579000  0.00008000  1.0
  O  O231  1  0.38773000  0.89045000  0.52902000  1.0
  F  F232  1  0.23830000  0.67128000  0.67637000  1.0
  F  F233  1  0.00985000  0.68883000  0.63159000  1.0
  F  F234  1  0.27500000  0.72157000  0.60919000  1.0
  F  F235  1  0.38334000  0.88569000  0.64569000  1.0
  F  F236  1  0.30927000  0.93223000  0.72142000  1.0
  F  F237  1  0.44738000  0.80991000  0.70131000  1.0
  F  F238  1  0.73830000  0.32872000  0.82363000  1.0
  F  F239  1  0.50986000  0.31117000  0.86842000  1.0
  F  F240  1  0.77502000  0.27843000  0.89081000  1.0
  F  F241  1  0.88332000  0.11431000  0.85432000  1.0
  F  F242  1  0.80926000  0.06777000  0.77859000  1.0
  F  F243  1  0.94738000  0.19009000  0.79869000  1.0
  F  F244  1  0.76169000  0.32872000  0.32363000  1.0
  F  F245  1  0.99015000  0.31117000  0.36842000  1.0
  F  F246  1  0.72499000  0.27843000  0.39081000  1.0
  F  F247  1  0.61666000  0.11431000  0.35431000  1.0
  F  F248  1  0.69073000  0.06777000  0.27859000  1.0
  F  F249  1  0.55261000  0.19009000  0.29869000  1.0
  F  F250  1  0.26172000  0.67128000  0.17637000  1.0
  F  F251  1  0.49017000  0.68883000  0.13159000  1.0
  F  F252  1  0.22502000  0.72157000  0.10919000  1.0
  F  F253  1  0.11667000  0.88568000  0.14568000  1.0
  F  F254  1  0.19074000  0.93223000  0.22141000  1.0
  F  F255  1  0.05263000  0.80990000  0.20131000  1.0
