# generated using pymatgen
data_NdH16C22NO12
_symmetry_space_group_name_H-M   'P 1'
_cell_length_a   8.91297000
_cell_length_b   10.94400000
_cell_length_c   12.47080000
_cell_angle_alpha   98.76880000
_cell_angle_beta   105.87900000
_cell_angle_gamma   94.70380000
_symmetry_Int_Tables_number   1
_chemical_formula_structural   NdH16C22NO12
_chemical_formula_sum   'Nd2 H32 C44 N2 O24'
_cell_volume   1146.51788582
_cell_formula_units_Z   2
loop_
 _symmetry_equiv_pos_site_id
 _symmetry_equiv_pos_as_xyz
  1  'x, y, z'
loop_
 _atom_site_type_symbol
 _atom_site_label
 _atom_site_symmetry_multiplicity
 _atom_site_fract_x
 _atom_site_fract_y
 _atom_site_fract_z
 _atom_site_occupancy
  Nd  Nd0  1  0.25882000  0.54463000  0.97571000  1.0
  Nd  Nd1  1  0.74118000  0.45537000  0.02429000  1.0
  H  H2  1  0.21623000  0.67069000  0.72067000  1.0
  H  H3  1  0.78377000  0.32931000  0.27933000  1.0
  H  H4  1  0.14148000  0.65025000  0.17357000  1.0
  H  H5  1  0.85852000  0.34975000  0.82643000  1.0
  H  H6  1  0.32560000  0.68346000  0.22228000  1.0
  H  H7  1  0.67440000  0.31654000  0.77772000  1.0
  H  H8  1  0.40971000  0.79273000  0.95483000  1.0
  H  H9  1  0.59029000  0.20727000  0.04517000  1.0
  H  H10  1  0.55027000  0.73828000  0.04001000  1.0
  H  H11  1  0.44973000  0.26172000  0.95999000  1.0
  H  H12  1  0.37678000  0.32056000  0.64907000  1.0
  H  H13  1  0.62322000  0.67944000  0.35094000  1.0
  H  H14  1  0.53205000  0.24584000  0.52149000  1.0
  H  H15  1  0.46796000  0.75416000  0.47851000  1.0
  H  H16  1  0.76188000  0.38541000  0.50973000  1.0
  H  H17  1  0.23812000  0.61459000  0.49027000  1.0
  H  H18  1  0.82929000  0.59986000  0.62405000  1.0
  H  H19  1  0.17071000  0.40014000  0.37595000  1.0
  H  H20  1  0.47102000  0.77173000  0.66262000  1.0
  H  H21  1  0.52898000  0.22827000  0.33739000  1.0
  H  H22  1  0.53991000  0.99448000  0.75223000  1.0
  H  H23  1  0.46009000  0.00552000  0.24777000  1.0
  H  H24  1  0.79215000  0.06690000  0.90356000  1.0
  H  H25  1  0.20785000  0.93310000  0.09644000  1.0
  H  H26  1  0.97598000  0.90997000  0.96315000  1.0
  H  H27  1  0.02402000  0.09003000  0.03685000  1.0
  H  H28  1  0.87590000  0.22228000  0.64263000  1.0
  H  H29  1  0.12410000  0.77772000  0.35736000  1.0
  H  H30  1  0.93233000  0.83235000  0.58270000  1.0
  H  H31  1  0.06767000  0.16765000  0.41730000  1.0
  H  H32  1  0.26364000  0.08383000  0.86186000  1.0
  H  H33  1  0.73636000  0.91616000  0.13814000  1.0
  C  C34  1  0.43306000  0.53091000  0.79661000  1.0
  C  C35  1  0.56694000  0.46909000  0.20339000  1.0
  C  C36  1  0.51471000  0.50246000  0.70778000  1.0
  C  C37  1  0.48529000  0.49754000  0.29222000  1.0
  C  C38  1  0.47516000  0.38205000  0.64243000  1.0
  C  C39  1  0.52484000  0.61795000  0.35758000  1.0
  C  C40  1  0.56330000  0.33992000  0.57089000  1.0
  C  C41  1  0.43670000  0.66008000  0.42911000  1.0
  C  C42  1  0.69191000  0.41802000  0.56514000  1.0
  C  C43  1  0.30809000  0.58198000  0.43487000  1.0
  C  C44  1  0.72971000  0.53836000  0.62918000  1.0
  C  C45  1  0.27029000  0.46164000  0.37082000  1.0
  C  C46  1  0.64165000  0.58288000  0.70103000  1.0
  C  C47  1  0.35835000  0.41712000  0.29897000  1.0
  C  C48  1  0.68114000  0.71401000  0.76345000  1.0
  C  C49  1  0.31886000  0.28600000  0.23656000  1.0
  C  C50  1  0.58086000  0.80218000  0.72993000  1.0
  C  C51  1  0.41914000  0.19782000  0.27007000  1.0
  C  C52  1  0.62039000  0.92808000  0.77989000  1.0
  C  C53  1  0.37961000  0.07192000  0.22012000  1.0
  C  C54  1  0.76258000  0.96847000  0.86440000  1.0
  C  C55  1  0.23743000  0.03153000  0.13560000  1.0
  C  C56  1  0.86401000  0.88175000  0.89778000  1.0
  C  C57  1  0.13599000  0.11825000  0.10222000  1.0
  C  C58  1  0.82415000  0.75520000  0.84916000  1.0
  C  C59  1  0.17585000  0.24480000  0.15084000  1.0
  C  C60  1  0.93186000  0.66578000  0.89572000  1.0
  C  C61  1  0.06814000  0.33422000  0.10428000  1.0
  C  C62  1  0.13324000  0.29587000  0.82937000  1.0
  C  C63  1  0.86676000  0.70413000  0.17063000  1.0
  C  C64  1  0.07553000  0.16746000  0.76078000  1.0
  C  C65  1  0.92447000  0.83254000  0.23922000  1.0
  C  C66  1  0.94104000  0.14621000  0.66730000  1.0
  C  C67  1  0.05896000  0.85379000  0.33269000  1.0
  C  C68  1  0.89325000  0.02539000  0.60521000  1.0
  C  C69  1  0.10675000  0.97461000  0.39479000  1.0
  C  C70  1  0.97352000  0.92526000  0.63312000  1.0
  C  C71  1  0.02648000  0.07473000  0.36688000  1.0
  C  C72  1  0.10784000  0.94788000  0.72636000  1.0
  C  C73  1  0.89216000  0.05212000  0.27364000  1.0
  C  C74  1  0.15837000  0.06841000  0.78958000  1.0
  C  C75  1  0.84163000  0.93159000  0.21042000  1.0
  C  C76  1  0.20208000  0.84664000  0.76155000  1.0
  C  C77  1  0.79792000  0.15336000  0.23845000  1.0
  N  N78  1  0.75511000  0.00245000  0.50440000  1.0
  N  N79  1  0.24489000  0.99755000  0.49560000  1.0
  O  O80  1  0.50247000  0.51128000  0.89535000  1.0
  O  O81  1  0.49754000  0.48872000  0.10465000  1.0
  O  O82  1  0.29549000  0.56307000  0.77630000  1.0
  O  O83  1  0.70451000  0.43693000  0.22369000  1.0
  O  O84  1  0.04566000  0.38238000  0.81712000  1.0
  O  O85  1  0.95434000  0.61762000  0.18288000  1.0
  O  O86  1  0.27088000  0.31673000  0.89942000  1.0
  O  O87  1  0.72912000  0.68327000  0.10058000  1.0
  O  O88  1  0.69018000  0.09337000  0.47606000  1.0
  O  O89  1  0.30981000  0.90663000  0.52394000  1.0
  O  O90  1  0.71232000  0.89374000  0.45195000  1.0
  O  O91  1  0.28768000  0.10626000  0.54805000  1.0
  O  O92  1  0.15465000  0.73838000  0.68983000  1.0
  O  O93  1  0.84535000  0.26162000  0.31017000  1.0
  O  O94  1  0.31405000  0.86695000  0.84843000  1.0
  O  O95  1  0.68595000  0.13305000  0.15157000  1.0
  O  O96  1  0.87272000  0.57105000  0.92509000  1.0
  O  O97  1  0.12728000  0.42895000  0.07491000  1.0
  O  O98  1  0.23799000  0.68008000  0.15421000  1.0
  O  O99  1  0.76201000  0.31992000  0.84580000  1.0
  O  O100  1  0.43612000  0.74316000  0.01608000  1.0
  O  O101  1  0.56388000  0.25684000  0.98392000  1.0
  O  O102  1  0.07790000  0.68934000  0.90695000  1.0
  O  O103  1  0.92210000  0.31066000  0.09306000  1.0
