# generated using pymatgen
data_CdH19C26(NO2)3
_symmetry_space_group_name_H-M   'P 1'
_cell_length_a   10.05000000
_cell_length_b   10.54010000
_cell_length_c   12.91612968
_cell_angle_alpha   78.80593755
_cell_angle_beta   70.19230415
_cell_angle_gamma   61.65010000
_symmetry_Int_Tables_number   1
_chemical_formula_structural   CdH19C26(NO2)3
_chemical_formula_sum   'Cd2 H38 C52 N6 O12'
_cell_volume   1131.93436240
_cell_formula_units_Z   2
loop_
 _symmetry_equiv_pos_site_id
 _symmetry_equiv_pos_as_xyz
  1  'x, y, z'
loop_
 _atom_site_type_symbol
 _atom_site_label
 _atom_site_symmetry_multiplicity
 _atom_site_fract_x
 _atom_site_fract_y
 _atom_site_fract_z
 _atom_site_occupancy
  Cd  Cd0  1  0.59967000  0.21270000  0.89046000  1.0
  Cd  Cd1  1  0.40035000  0.78729000  0.10953000  1.0
  H  H2  1  0.76347000  0.34566000  0.08182000  1.0
  H  H3  1  0.23655000  0.65433000  0.91818000  1.0
  H  H4  1  0.35758000  0.38642000  0.73709000  1.0
  H  H5  1  0.64240000  0.61358000  0.26291000  1.0
  H  H6  1  0.07748000  0.45514000  0.74473000  1.0
  H  H7  1  0.92250000  0.54484000  0.25528000  1.0
  H  H8  1  0.90527000  0.39012000  0.91028000  1.0
  H  H9  1  0.09474000  0.60985000  0.08973000  1.0
  H  H10  1  0.28833000  0.22184000  0.05814000  1.0
  H  H11  1  0.71170000  0.77813000  0.94185000  1.0
  H  H12  1  0.01544000  0.12409000  0.42199000  1.0
  H  H13  1  0.98456000  0.87588000  0.57802000  1.0
  H  H14  1  0.75207000  0.16940000  0.55331000  1.0
  H  H15  1  0.24793000  0.83059000  0.44670000  1.0
  H  H16  1  0.51347000  0.27921000  0.48859000  1.0
  H  H17  1  0.48653000  0.72082000  0.51141000  1.0
  H  H18  1  0.52836000  0.34595000  0.29168000  1.0
  H  H19  1  0.47164000  0.65408000  0.70832000  1.0
  H  H20  1  0.96347000  0.97116000  0.10912000  1.0
  H  H21  1  0.03654000  0.02881000  0.89087000  1.0
  H  H22  1  0.04619000  0.85788000  0.28032000  1.0
  H  H23  1  0.95381000  0.14213000  0.71967000  1.0
  H  H24  1  0.58204000  0.88893000  0.44643000  1.0
  H  H25  1  0.41793000  0.11112000  0.55358000  1.0
  H  H26  1  0.49841000  0.00256000  0.27843000  1.0
  H  H27  1  0.50159000  0.99745000  0.72156000  1.0
  H  H28  1  0.84921000  0.59404000  0.40765000  1.0
  H  H29  1  0.15075000  0.40601000  0.59235000  1.0
  H  H30  1  0.78048000  0.41256000  0.53998000  1.0
  H  H31  1  0.21949000  0.58747000  0.46003000  1.0
  H  H32  1  0.71537000  0.63787000  0.81043000  1.0
  H  H33  1  0.28461000  0.36215000  0.18958000  1.0
  H  H34  1  0.78135000  0.82091000  0.67772000  1.0
  H  H35  1  0.21863000  0.17911000  0.32229000  1.0
  H  H36  1  0.77262000  0.92508000  0.81131000  1.0
  H  H37  1  0.22740000  0.07490000  0.18869000  1.0
  H  H38  1  0.58653000  0.96888000  0.85045000  1.0
  H  H39  1  0.41349000  0.03109000  0.14954000  1.0
  C  C40  1  0.27668000  0.36343000  0.81026000  1.0
  C  C41  1  0.72332000  0.63656000  0.18974000  1.0
  C  C42  1  0.12254000  0.39907000  0.81451000  1.0
  C  C43  1  0.87746000  0.60092000  0.18549000  1.0
  C  C44  1  0.02475000  0.36459000  0.90888000  1.0
  C  C45  1  0.97525000  0.63539000  0.09113000  1.0
  C  C46  1  0.08319000  0.29835000  0.99979000  1.0
  C  C47  1  0.91684000  0.70163000  0.00021000  1.0
  C  C48  1  0.23847000  0.26984000  0.98949000  1.0
  C  C49  1  0.76155000  0.73015000  0.01051000  1.0
  C  C50  1  0.98994000  0.26719000  0.10639000  1.0
  C  C51  1  0.01007000  0.73279000  0.89362000  1.0
  C  C52  1  0.91897000  0.21574000  0.28215000  1.0
  C  C53  1  0.08104000  0.78424000  0.71785000  1.0
  C  C54  1  0.91099000  0.17277000  0.39311000  1.0
  C  C55  1  0.08903000  0.82720000  0.60689000  1.0
  C  C56  1  0.76355000  0.19706000  0.46589000  1.0
  C  C57  1  0.23646000  0.80293000  0.53411000  1.0
  C  C58  1  0.62751000  0.25991000  0.42917000  1.0
  C  C59  1  0.37249000  0.74010000  0.57083000  1.0
  C  C60  1  0.63367000  0.29993000  0.31897000  1.0
  C  C61  1  0.36633000  0.70008000  0.68103000  1.0
  C  C62  1  0.78096000  0.27829000  0.24646000  1.0
  C  C63  1  0.21904000  0.72171000  0.75355000  1.0
  C  C64  1  0.67297000  0.07182000  0.08331000  1.0
  C  C65  1  0.32705000  0.92817000  0.91667000  1.0
  C  C66  1  0.72481000  0.99594000  0.18244000  1.0
  C  C67  1  0.27520000  0.00405000  0.81755000  1.0
  C  C68  1  0.87978000  0.95379000  0.18321000  1.0
  C  C69  1  0.12022000  0.04620000  0.81679000  1.0
  C  C70  1  0.92715000  0.88994000  0.27754000  1.0
  C  C71  1  0.07285000  0.11006000  0.72245000  1.0
  C  C72  1  0.81901000  0.86748000  0.37166000  1.0
  C  C73  1  0.18099000  0.13254000  0.62834000  1.0
  C  C74  1  0.66519000  0.90608000  0.37199000  1.0
  C  C75  1  0.33480000  0.09395000  0.62801000  1.0
  C  C76  1  0.61894000  0.97020000  0.27744000  1.0
  C  C77  1  0.38106000  0.02982000  0.72255000  1.0
  C  C78  1  0.81985000  0.71672000  0.53577000  1.0
  C  C79  1  0.18012000  0.28330000  0.46424000  1.0
  C  C80  1  0.81868000  0.60315000  0.49594000  1.0
  C  C81  1  0.18128000  0.39687000  0.50407000  1.0
  C  C82  1  0.78191000  0.50167000  0.56971000  1.0
  C  C83  1  0.21807000  0.49835000  0.43030000  1.0
  C  C84  1  0.74671000  0.51224000  0.68355000  1.0
  C  C85  1  0.25328000  0.48777000  0.31645000  1.0
  C  C86  1  0.74832000  0.62700000  0.72199000  1.0
  C  C87  1  0.25166000  0.37301000  0.27802000  1.0
  C  C88  1  0.78381000  0.72958000  0.64862000  1.0
  C  C89  1  0.21617000  0.27043000  0.35139000  1.0
  C  C90  1  0.69602000  0.40925000  0.76272000  1.0
  C  C91  1  0.30398000  0.59075000  0.23728000  1.0
  N  N92  1  0.33328000  0.29977000  0.89746000  1.0
  N  N93  1  0.66672000  0.70023000  0.10254000  1.0
  N  N94  1  0.83071000  0.30838000  0.13467000  1.0
  N  N95  1  0.16930000  0.69161000  0.86533000  1.0
  N  N96  1  0.04623000  0.20936000  0.19314000  1.0
  N  N97  1  0.95379000  0.79061000  0.80686000  1.0
  O  O98  1  0.66568000  0.00720000  0.81046000  1.0
  O  O99  1  0.33434000  0.99278000  0.18954000  1.0
  O  O100  1  0.76734000  0.10617000  0.00230000  1.0
  O  O101  1  0.23268000  0.89381000  0.99769000  1.0
  O  O102  1  0.53356000  0.10441000  0.08033000  1.0
  O  O103  1  0.46646000  0.89559000  0.91964000  1.0
  O  O104  1  0.86687000  0.81459000  0.46617000  1.0
  O  O105  1  0.13310000  0.18544000  0.53384000  1.0
  O  O106  1  0.66662000  0.41754000  0.86598000  1.0
  O  O107  1  0.33334000  0.58249000  0.13403000  1.0
  O  O108  1  0.67991000  0.31606000  0.72308000  1.0
  O  O109  1  0.32013000  0.68392000  0.27692000  1.0
