# generated using pymatgen
data_FePH3CO7
_symmetry_space_group_name_H-M   'P 1'
_cell_length_a   6.49725000
_cell_length_b   8.42653000
_cell_length_c   11.11630000
_cell_angle_alpha   104.93100000
_cell_angle_beta   89.99930000
_cell_angle_gamma   89.99990000
_symmetry_Int_Tables_number   1
_chemical_formula_structural   FePH3CO7
_chemical_formula_sum   'Fe4 P4 H12 C4 O28'
_cell_volume   588.06074365
_cell_formula_units_Z   4
loop_
 _symmetry_equiv_pos_site_id
 _symmetry_equiv_pos_as_xyz
  1  'x, y, z'
loop_
 _atom_site_type_symbol
 _atom_site_label
 _atom_site_symmetry_multiplicity
 _atom_site_fract_x
 _atom_site_fract_y
 _atom_site_fract_z
 _atom_site_occupancy
  Fe  Fe0  1  0.80600000  0.24832000  0.42180000  1.0
  Fe  Fe1  1  0.30599000  0.25168000  0.07820000  1.0
  Fe  Fe2  1  0.19399000  0.75168000  0.57819000  1.0
  Fe  Fe3  1  0.69397000  0.74833000  0.92182000  1.0
  P  P4  1  0.55390000  0.99164000  0.19673000  1.0
  P  P5  1  0.05387000  0.50837000  0.30327000  1.0
  P  P6  1  0.44613000  0.00836000  0.80326000  1.0
  P  P7  1  0.94610000  0.49166000  0.69675000  1.0
  H  H8  1  0.36601000  0.87109000  0.31173000  1.0
  H  H9  1  0.86600000  0.62890000  0.18825000  1.0
  H  H10  1  0.63400000  0.12891000  0.68825000  1.0
  H  H11  1  0.13398000  0.37110000  0.81174000  1.0
  H  H12  1  0.41052000  0.36902000  0.49116000  1.0
  H  H13  1  0.91061000  0.13069000  0.00884000  1.0
  H  H14  1  0.58941000  0.63077000  0.50885000  1.0
  H  H15  1  0.08950000  0.86894000  0.99116000  1.0
  H  H16  1  0.42469000  0.26854000  0.34713000  1.0
  H  H17  1  0.92461000  0.23150000  0.15281000  1.0
  H  H18  1  0.57538000  0.73149000  0.65284000  1.0
  H  H19  1  0.07528000  0.76855000  0.84712000  1.0
  C  C20  1  0.90419000  0.98510000  0.53673000  1.0
  C  C21  1  0.40420000  0.51494000  0.96328000  1.0
  C  C22  1  0.09582000  0.01492000  0.46327000  1.0
  C  C23  1  0.59582000  0.48512000  0.03674000  1.0
  O  O24  1  0.43091000  0.84485000  0.22706000  1.0
  O  O25  1  0.93092000  0.65517000  0.27293000  1.0
  O  O26  1  0.56910000  0.15515000  0.77293000  1.0
  O  O27  1  0.06909000  0.34486000  0.72707000  1.0
  O  O28  1  0.64760000  0.92554000  0.06753000  1.0
  O  O29  1  0.14756000  0.57448000  0.43248000  1.0
  O  O30  1  0.35245000  0.07448000  0.93248000  1.0
  O  O31  1  0.85241000  0.42554000  0.56753000  1.0
  O  O32  1  0.40116000  0.13467000  0.19890000  1.0
  O  O33  1  0.90113000  0.36535000  0.30111000  1.0
  O  O34  1  0.59888000  0.86535000  0.80112000  1.0
  O  O35  1  0.09884000  0.63469000  0.69890000  1.0
  O  O36  1  0.72178000  0.05319000  0.29438000  1.0
  O  O37  1  0.22178000  0.44680000  0.20564000  1.0
  O  O38  1  0.27822000  0.94681000  0.70563000  1.0
  O  O39  1  0.77821000  0.55319000  0.79438000  1.0
  O  O40  1  0.76005000  0.08963000  0.54920000  1.0
  O  O41  1  0.26004000  0.41039000  0.95081000  1.0
  O  O42  1  0.23996000  0.91039000  0.45081000  1.0
  O  O43  1  0.73994000  0.58963000  0.04918000  1.0
  O  O44  1  0.90543000  0.85969000  0.57901000  1.0
  O  O45  1  0.40542000  0.64035000  0.92102000  1.0
  O  O46  1  0.09459000  0.14036000  0.42100000  1.0
  O  O47  1  0.59458000  0.35967000  0.07901000  1.0
  O  O48  1  0.50374000  0.33066000  0.42118000  1.0
  O  O49  1  0.00373000  0.16943000  0.07881000  1.0
  O  O50  1  0.49624000  0.66940000  0.57881000  1.0
  O  O51  1  0.99627000  0.83066000  0.92117000  1.0
