# generated using pymatgen
data_CdH19C29(NO2)3
_symmetry_space_group_name_H-M   'P 1'
_cell_length_a   10.34680000
_cell_length_b   16.53260000
_cell_length_c   17.38560000
_cell_angle_alpha   89.99980000
_cell_angle_beta   91.49850000
_cell_angle_gamma   89.99960000
_symmetry_Int_Tables_number   1
_chemical_formula_structural   CdH19C29(NO2)3
_chemical_formula_sum   'Cd4 H76 C116 N12 O24'
_cell_volume   2972.95507296
_cell_formula_units_Z   4
loop_
 _symmetry_equiv_pos_site_id
 _symmetry_equiv_pos_as_xyz
  1  'x, y, z'
loop_
 _atom_site_type_symbol
 _atom_site_label
 _atom_site_symmetry_multiplicity
 _atom_site_fract_x
 _atom_site_fract_y
 _atom_site_fract_z
 _atom_site_occupancy
  Cd  Cd0  1  0.82035000  0.37146000  0.02868000  1.0
  Cd  Cd1  1  0.17965000  0.87146000  0.47131000  1.0
  Cd  Cd2  1  0.17964000  0.62854000  0.97132000  1.0
  Cd  Cd3  1  0.82034000  0.12854000  0.52869000  1.0
  H  H4  1  0.62172000  0.35498000  0.88604000  1.0
  H  H5  1  0.37828000  0.85498000  0.61396000  1.0
  H  H6  1  0.37827000  0.64502000  0.11396000  1.0
  H  H7  1  0.62171000  0.14502000  0.38604000  1.0
  H  H8  1  0.60244000  0.37747000  0.74447000  1.0
  H  H9  1  0.39757000  0.87747000  0.75552000  1.0
  H  H10  1  0.39756000  0.62254000  0.25552000  1.0
  H  H11  1  0.60244000  0.12254000  0.24447000  1.0
  H  H12  1  0.98318000  0.48517000  0.75680000  1.0
  H  H13  1  0.01682000  0.98517000  0.74319000  1.0
  H  H14  1  0.01682000  0.51482000  0.24320000  1.0
  H  H15  1  0.98318000  0.01483000  0.25680000  1.0
  H  H16  1  0.99117000  0.45094000  0.89700000  1.0
  H  H17  1  0.00882000  0.95094000  0.60300000  1.0
  H  H18  1  0.00882000  0.54905000  0.10300000  1.0
  H  H19  1  0.99117000  0.04907000  0.39700000  1.0
  H  H20  1  0.64320000  0.36413000  0.62270000  1.0
  H  H21  1  0.35680000  0.86413000  0.87730000  1.0
  H  H22  1  0.35680000  0.63587000  0.37730000  1.0
  H  H23  1  0.64320000  0.13588000  0.12269000  1.0
  H  H24  1  0.76980000  0.52707000  0.44682000  1.0
  H  H25  1  0.23021000  0.02707000  0.05318000  1.0
  H  H26  1  0.23020000  0.47293000  0.55318000  1.0
  H  H27  1  0.76980000  0.97292000  0.94683000  1.0
  H  H28  1  0.13623000  0.75117000  0.62436000  1.0
  H  H29  1  0.86378000  0.25117000  0.87565000  1.0
  H  H30  1  0.86379000  0.24882000  0.37566000  1.0
  H  H31  1  0.13624000  0.74884000  0.12436000  1.0
  H  H32  1  0.99710000  0.63362000  0.65876000  1.0
  H  H33  1  0.00291000  0.13362000  0.84124000  1.0
  H  H34  1  0.00292000  0.36638000  0.34125000  1.0
  H  H35  1  0.99710000  0.86638000  0.15876000  1.0
  H  H36  1  0.92156000  0.59867000  0.41552000  1.0
  H  H37  1  0.07844000  0.09867000  0.08448000  1.0
  H  H38  1  0.07845000  0.40133000  0.58449000  1.0
  H  H39  1  0.92156000  0.90132000  0.91553000  1.0
  H  H40  1  0.06263000  0.71637000  0.39154000  1.0
  H  H41  1  0.93738000  0.21637000  0.10846000  1.0
  H  H42  1  0.93739000  0.28363000  0.60847000  1.0
  H  H43  1  0.06263000  0.78363000  0.89154000  1.0
  H  H44  1  0.58886000  0.28937000  0.53081000  1.0
  H  H45  1  0.41114000  0.78937000  0.96918000  1.0
  H  H46  1  0.41114000  0.71063000  0.46918000  1.0
  H  H47  1  0.58887000  0.21063000  0.03081000  1.0
  H  H48  1  0.43065000  0.22825000  0.43877000  1.0
  H  H49  1  0.56936000  0.72825000  0.06122000  1.0
  H  H50  1  0.56935000  0.77175000  0.56123000  1.0
  H  H51  1  0.43065000  0.27175000  0.93876000  1.0
  H  H52  1  0.43654000  0.44548000  0.30189000  1.0
  H  H53  1  0.56347000  0.94548000  0.19810000  1.0
  H  H54  1  0.56346000  0.55452000  0.69811000  1.0
  H  H55  1  0.43653000  0.05451000  0.80190000  1.0
  H  H56  1  0.58803000  0.50812000  0.39547000  1.0
  H  H57  1  0.41198000  0.00812000  0.10453000  1.0
  H  H58  1  0.41197000  0.49188000  0.60453000  1.0
  H  H59  1  0.58802000  0.99188000  0.89547000  1.0
  H  H60  1  0.12485000  0.33403000  0.23621000  1.0
  H  H61  1  0.87515000  0.83403000  0.26379000  1.0
  H  H62  1  0.87514000  0.66598000  0.76379000  1.0
  H  H63  1  0.12484000  0.16598000  0.73621000  1.0
  H  H64  1  0.32058000  0.37560000  0.02385000  1.0
  H  H65  1  0.67941000  0.87559000  0.47615000  1.0
  H  H66  1  0.67941000  0.62440000  0.97615000  1.0
  H  H67  1  0.32058000  0.12441000  0.52385000  1.0
  H  H68  1  0.53978000  0.30743000  0.22611000  1.0
  H  H69  1  0.46022000  0.80742000  0.27388000  1.0
  H  H70  1  0.46022000  0.69258000  0.77389000  1.0
  H  H71  1  0.53977000  0.19257000  0.72612000  1.0
  H  H72  1  0.81428000  0.54541000  0.02662000  1.0
  H  H73  1  0.18572000  0.04542000  0.47337000  1.0
  H  H74  1  0.18571000  0.45459000  0.97337000  1.0
  H  H75  1  0.81428000  0.95459000  0.52663000  1.0
  H  H76  1  0.67494000  0.50539000  0.03804000  1.0
  H  H77  1  0.32506000  0.00540000  0.46195000  1.0
  H  H78  1  0.32505000  0.49460000  0.96195000  1.0
  H  H79  1  0.67494000  0.99461000  0.53805000  1.0
  C  C80  1  0.70089000  0.38148000  0.85438000  1.0
  C  C81  1  0.29911000  0.88148000  0.64562000  1.0
  C  C82  1  0.29910000  0.61851000  0.14562000  1.0
  C  C83  1  0.70089000  0.11852000  0.35438000  1.0
  C  C84  1  0.69099000  0.39498000  0.77548000  1.0
  C  C85  1  0.30901000  0.89498000  0.72451000  1.0
  C  C86  1  0.30901000  0.60502000  0.22452000  1.0
  C  C87  1  0.69099000  0.10503000  0.27548000  1.0
  C  C88  1  0.79314000  0.43297000  0.73806000  1.0
  C  C89  1  0.20686000  0.93297000  0.76194000  1.0
  C  C90  1  0.20686000  0.56703000  0.26194000  1.0
  C  C91  1  0.79314000  0.06703000  0.23806000  1.0
  C  C92  1  0.90267000  0.45408000  0.78287000  1.0
  C  C93  1  0.09733000  0.95408000  0.71712000  1.0
  C  C94  1  0.09733000  0.54592000  0.21713000  1.0
  C  C95  1  0.90267000  0.04592000  0.28288000  1.0
  C  C96  1  0.90673000  0.43639000  0.86098000  1.0
  C  C97  1  0.09327000  0.93639000  0.63901000  1.0
  C  C98  1  0.09326000  0.56361000  0.13902000  1.0
  C  C99  1  0.90673000  0.06361000  0.36099000  1.0
  C  C100  1  0.78584000  0.45416000  0.65516000  1.0
  C  C101  1  0.21416000  0.95416000  0.84483000  1.0
  C  C102  1  0.21416000  0.54583000  0.34484000  1.0
  C  C103  1  0.78584000  0.04584000  0.15517000  1.0
  C  C104  1  0.70163000  0.41458000  0.60333000  1.0
  C  C105  1  0.29838000  0.91458000  0.89667000  1.0
  C  C106  1  0.29838000  0.58542000  0.39667000  1.0
  C  C107  1  0.70162000  0.08542000  0.10333000  1.0
  C  C108  1  0.69216000  0.44061000  0.52647000  1.0
  C  C109  1  0.30785000  0.94061000  0.97353000  1.0
  C  C110  1  0.30785000  0.55938000  0.47354000  1.0
  C  C111  1  0.69216000  0.05938000  0.02646000  1.0
  C  C112  1  0.77242000  0.50490000  0.50576000  1.0
  C  C113  1  0.22758000  0.00490000  0.99424000  1.0
  C  C114  1  0.22758000  0.49509000  0.49425000  1.0
  C  C115  1  0.77242000  0.99509000  0.00576000  1.0
  C  C116  1  0.85689000  0.53985000  0.56038000  1.0
  C  C117  1  0.14311000  0.03984000  0.93962000  1.0
  C  C118  1  0.14311000  0.46015000  0.43963000  1.0
  C  C119  1  0.85689000  0.96016000  0.06038000  1.0
  C  C120  1  0.08689000  0.71565000  0.57969000  1.0
  C  C121  1  0.91312000  0.21565000  0.92032000  1.0
  C  C122  1  0.91313000  0.28435000  0.42033000  1.0
  C  C123  1  0.08689000  0.78436000  0.07969000  1.0
  C  C124  1  0.00917000  0.65071000  0.59894000  1.0
  C  C125  1  0.99083000  0.15071000  0.90106000  1.0
  C  C126  1  0.99084000  0.34929000  0.40107000  1.0
  C  C127  1  0.00918000  0.84929000  0.09894000  1.0
  C  C128  1  0.94397000  0.60739000  0.54041000  1.0
  C  C129  1  0.05603000  0.10739000  0.95959000  1.0
  C  C130  1  0.05604000  0.39261000  0.45960000  1.0
  C  C131  1  0.94397000  0.89261000  0.04041000  1.0
  C  C132  1  0.96518000  0.63084000  0.46426000  1.0
  C  C133  1  0.03482000  0.13084000  0.03574000  1.0
  C  C134  1  0.03483000  0.36916000  0.53575000  1.0
  C  C135  1  0.96518000  0.86916000  0.96427000  1.0
  C  C136  1  0.04575000  0.69606000  0.45006000  1.0
  C  C137  1  0.95425000  0.19606000  0.04994000  1.0
  C  C138  1  0.95426000  0.30394000  0.54995000  1.0
  C  C139  1  0.04576000  0.80394000  0.95007000  1.0
  C  C140  1  0.60088000  0.40351000  0.47059000  1.0
  C  C141  1  0.39912000  0.90351000  0.02940000  1.0
  C  C142  1  0.39912000  0.59649000  0.52941000  1.0
  C  C143  1  0.60088000  0.09648000  0.97059000  1.0
  C  C144  1  0.55340000  0.32481000  0.48186000  1.0
  C  C145  1  0.44660000  0.82480000  0.01814000  1.0
  C  C146  1  0.44659000  0.67519000  0.51814000  1.0
  C  C147  1  0.55342000  0.17520000  0.98185000  1.0
  C  C148  1  0.46571000  0.28963000  0.42997000  1.0
  C  C149  1  0.53429000  0.78963000  0.07003000  1.0
  C  C150  1  0.53428000  0.71037000  0.57003000  1.0
  C  C151  1  0.46573000  0.21037000  0.92997000  1.0
  C  C152  1  0.42419000  0.33308000  0.36492000  1.0
  C  C153  1  0.57581000  0.83308000  0.13508000  1.0
  C  C154  1  0.57581000  0.66692000  0.63508000  1.0
  C  C155  1  0.42419000  0.16691000  0.86491000  1.0
  C  C156  1  0.47009000  0.41154000  0.35220000  1.0
  C  C157  1  0.52992000  0.91153000  0.14779000  1.0
  C  C158  1  0.52992000  0.58847000  0.64780000  1.0
  C  C159  1  0.47008000  0.08846000  0.85221000  1.0
  C  C160  1  0.55702000  0.44596000  0.40484000  1.0
  C  C161  1  0.44299000  0.94596000  0.09515000  1.0
  C  C162  1  0.44299000  0.55404000  0.59516000  1.0
  C  C163  1  0.55702000  0.05403000  0.90485000  1.0
  C  C164  1  0.33221000  0.31860000  0.23940000  1.0
  C  C165  1  0.66778000  0.81860000  0.26059000  1.0
  C  C166  1  0.66778000  0.68140000  0.76060000  1.0
  C  C167  1  0.33221000  0.18140000  0.73940000  1.0
  C  C168  1  0.21338000  0.33590000  0.20388000  1.0
  C  C169  1  0.78661000  0.83590000  0.29611000  1.0
  C  C170  1  0.78661000  0.66410000  0.79612000  1.0
  C  C171  1  0.21338000  0.16411000  0.70388000  1.0
  C  C172  1  0.20851000  0.35656000  0.12561000  1.0
  C  C173  1  0.79148000  0.85656000  0.37439000  1.0
  C  C174  1  0.79148000  0.64344000  0.87439000  1.0
  C  C175  1  0.20851000  0.14344000  0.62561000  1.0
  C  C176  1  0.32268000  0.36009000  0.08462000  1.0
  C  C177  1  0.67731000  0.86009000  0.41537000  1.0
  C  C178  1  0.67731000  0.63991000  0.91538000  1.0
  C  C179  1  0.32268000  0.13991000  0.58463000  1.0
  C  C180  1  0.44158000  0.34275000  0.12092000  1.0
  C  C181  1  0.55842000  0.84274000  0.37907000  1.0
  C  C182  1  0.55841000  0.65726000  0.87907000  1.0
  C  C183  1  0.44157000  0.15726000  0.62093000  1.0
  C  C184  1  0.44641000  0.32061000  0.19848000  1.0
  C  C185  1  0.55359000  0.82061000  0.30152000  1.0
  C  C186  1  0.55358000  0.67939000  0.80153000  1.0
  C  C187  1  0.44641000  0.17939000  0.69848000  1.0
  C  C188  1  0.08066000  0.37479000  0.08680000  1.0
  C  C189  1  0.91933000  0.87480000  0.41319000  1.0
  C  C190  1  0.91933000  0.62521000  0.91319000  1.0
  C  C191  1  0.08066000  0.12520000  0.58681000  1.0
  C  C192  1  0.56482000  0.35113000  0.07806000  1.0
  C  C193  1  0.43517000  0.85113000  0.42192000  1.0
  C  C194  1  0.43517000  0.64887000  0.92193000  1.0
  C  C195  1  0.56482000  0.14887000  0.57807000  1.0
  N  N196  1  0.80718000  0.40137000  0.89663000  1.0
  N  N197  1  0.19282000  0.90137000  0.60337000  1.0
  N  N198  1  0.19281000  0.59862000  0.10337000  1.0
  N  N199  1  0.80717000  0.09863000  0.39663000  1.0
  N  N200  1  0.86319000  0.51507000  0.63400000  1.0
  N  N201  1  0.13681000  0.01507000  0.86600000  1.0
  N  N202  1  0.13681000  0.48493000  0.36600000  1.0
  N  N203  1  0.86320000  0.98493000  0.13400000  1.0
  N  N204  1  0.10435000  0.73908000  0.50665000  1.0
  N  N205  1  0.89566000  0.23908000  0.99335000  1.0
  N  N206  1  0.89567000  0.26091000  0.49336000  1.0
  N  N207  1  0.10435000  0.76092000  0.00665000  1.0
  O  O208  1  0.07699000  0.39973000  0.01729000  1.0
  O  O209  1  0.92299000  0.89973000  0.48271000  1.0
  O  O210  1  0.92300000  0.60027000  0.98271000  1.0
  O  O211  1  0.07700000  0.10027000  0.51729000  1.0
  O  O212  1  0.76372000  0.50643000  0.05874000  1.0
  O  O213  1  0.23628000  0.00643000  0.44126000  1.0
  O  O214  1  0.23627000  0.49357000  0.94126000  1.0
  O  O215  1  0.76372000  0.99357000  0.55874000  1.0
  O  O216  1  0.97893000  0.36267000  0.12507000  1.0
  O  O217  1  0.02106000  0.86268000  0.37493000  1.0
  O  O218  1  0.02106000  0.63733000  0.87493000  1.0
  O  O219  1  0.97893000  0.13732000  0.62507000  1.0
  O  O220  1  0.56275000  0.38871000  0.01444000  1.0
  O  O221  1  0.43724000  0.88870000  0.48555000  1.0
  O  O222  1  0.43724000  0.61129000  0.98556000  1.0
  O  O223  1  0.56276000  0.11129000  0.51445000  1.0
  O  O224  1  0.66719000  0.32017000  0.10929000  1.0
  O  O225  1  0.33280000  0.82016000  0.39070000  1.0
  O  O226  1  0.33280000  0.67983000  0.89070000  1.0
  O  O227  1  0.66719000  0.17984000  0.60930000  1.0
  O  O228  1  0.33409000  0.29632000  0.31668000  1.0
  O  O229  1  0.66592000  0.79632000  0.18332000  1.0
  O  O230  1  0.66591000  0.70369000  0.68332000  1.0
  O  O231  1  0.33408000  0.20368000  0.81668000  1.0
