# generated using pymatgen
data_Zn2H21C18NO9
_symmetry_space_group_name_H-M   'P 1'
_cell_length_a   10.29580000
_cell_length_b   13.71360000
_cell_length_c   18.05840000
_cell_angle_alpha   89.99990000
_cell_angle_beta   90.00020000
_cell_angle_gamma   89.99990000
_symmetry_Int_Tables_number   1
_chemical_formula_structural   Zn2H21C18NO9
_chemical_formula_sum   'Zn8 H84 C72 N4 O36'
_cell_volume   2549.71033282
_cell_formula_units_Z   4
loop_
 _symmetry_equiv_pos_site_id
 _symmetry_equiv_pos_as_xyz
  1  'x, y, z'
loop_
 _atom_site_type_symbol
 _atom_site_label
 _atom_site_symmetry_multiplicity
 _atom_site_fract_x
 _atom_site_fract_y
 _atom_site_fract_z
 _atom_site_occupancy
  Zn  Zn0  1  0.44050000  0.52902000  0.41086000  1.0
  Zn  Zn1  1  0.05950000  0.47099000  0.91085000  1.0
  Zn  Zn2  1  0.55950000  0.02902000  0.08914000  1.0
  Zn  Zn3  1  0.94050000  0.97098000  0.58915000  1.0
  Zn  Zn4  1  0.25150000  0.36452000  0.34261000  1.0
  Zn  Zn5  1  0.24850000  0.63548000  0.84260000  1.0
  Zn  Zn6  1  0.74850000  0.86452000  0.15740000  1.0
  Zn  Zn7  1  0.75150000  0.13549000  0.65740000  1.0
  H  H8  1  0.61942000  0.23725000  0.23360000  1.0
  H  H9  1  0.88058000  0.76276000  0.73360000  1.0
  H  H10  1  0.38058000  0.73724000  0.26640000  1.0
  H  H11  1  0.11942000  0.26276000  0.76641000  1.0
  H  H12  1  0.53838000  0.16057000  0.29805000  1.0
  H  H13  1  0.96162000  0.83944000  0.79805000  1.0
  H  H14  1  0.46162000  0.66056000  0.20195000  1.0
  H  H15  1  0.03838000  0.33944000  0.70195000  1.0
  H  H16  1  0.77350000  0.36972000  0.28204000  1.0
  H  H17  1  0.72651000  0.63028000  0.78203000  1.0
  H  H18  1  0.22651000  0.86972000  0.21797000  1.0
  H  H19  1  0.27349000  0.13028000  0.71797000  1.0
  H  H20  1  0.79944000  0.38184000  0.37812000  1.0
  H  H21  1  0.70056000  0.61815000  0.87812000  1.0
  H  H22  1  0.20056000  0.88185000  0.12189000  1.0
  H  H23  1  0.29943000  0.11816000  0.62189000  1.0
  H  H24  1  0.68142000  0.27031000  0.46899000  1.0
  H  H25  1  0.81858000  0.72968000  0.96899000  1.0
  H  H26  1  0.31858000  0.77032000  0.03102000  1.0
  H  H27  1  0.18142000  0.22968000  0.53102000  1.0
  H  H28  1  0.57316000  0.18016000  0.43540000  1.0
  H  H29  1  0.92684000  0.81984000  0.93539000  1.0
  H  H30  1  0.42684000  0.68016000  0.06460000  1.0
  H  H31  1  0.07316000  0.31984000  0.56460000  1.0
  H  H32  1  0.95251000  0.13097000  0.26312000  1.0
  H  H33  1  0.54748000  0.86903000  0.76312000  1.0
  H  H34  1  0.04748000  0.63097000  0.23688000  1.0
  H  H35  1  0.45251000  0.36903000  0.73688000  1.0
  H  H36  1  0.86242000  0.22036000  0.21346000  1.0
  H  H37  1  0.63758000  0.77964000  0.71346000  1.0
  H  H38  1  0.13758000  0.72036000  0.28654000  1.0
  H  H39  1  0.36242000  0.27964000  0.78654000  1.0
  H  H40  1  0.83494000  0.01964000  0.35433000  1.0
  H  H41  1  0.66504000  0.98036000  0.85434000  1.0
  H  H42  1  0.16505000  0.51964000  0.14566000  1.0
  H  H43  1  0.33495000  0.48036000  0.64566000  1.0
  H  H44  1  0.66494000  0.03018000  0.36700000  1.0
  H  H45  1  0.83505000  0.96982000  0.86700000  1.0
  H  H46  1  0.33506000  0.53018000  0.13299000  1.0
  H  H47  1  0.16494000  0.46982000  0.63300000  1.0
  H  H48  1  0.92488000  0.25280000  0.44913000  1.0
  H  H49  1  0.57512000  0.74719000  0.94913000  1.0
  H  H50  1  0.07512000  0.75281000  0.05087000  1.0
  H  H51  1  0.42488000  0.24720000  0.55087000  1.0
  H  H52  1  0.98677000  0.14909000  0.40169000  1.0
  H  H53  1  0.51322000  0.85091000  0.90169000  1.0
  H  H54  1  0.01322000  0.64910000  0.09831000  1.0
  H  H55  1  0.48678000  0.35091000  0.59831000  1.0
  H  H56  1  0.76249000  0.67806000  0.29853000  1.0
  H  H57  1  0.73752000  0.32194000  0.79853000  1.0
  H  H58  1  0.23752000  0.17807000  0.20147000  1.0
  H  H59  1  0.26250000  0.82193000  0.70147000  1.0
  H  H60  1  0.59477000  0.64845000  0.29297000  1.0
  H  H61  1  0.90524000  0.35154000  0.79296000  1.0
  H  H62  1  0.40524000  0.14846000  0.20704000  1.0
  H  H63  1  0.09478000  0.85154000  0.70704000  1.0
  H  H64  1  0.70498000  0.56137000  0.32859000  1.0
  H  H65  1  0.79503000  0.43863000  0.82859000  1.0
  H  H66  1  0.29503000  0.06138000  0.17141000  1.0
  H  H67  1  0.20498000  0.93862000  0.67141000  1.0
  H  H68  1  0.87797000  0.84485000  0.43389000  1.0
  H  H69  1  0.62204000  0.15515000  0.93389000  1.0
  H  H70  1  0.12203000  0.34485000  0.06610000  1.0
  H  H71  1  0.37797000  0.65515000  0.56610000  1.0
  H  H72  1  0.79678000  0.83120000  0.34776000  1.0
  H  H73  1  0.70323000  0.16879000  0.84777000  1.0
  H  H74  1  0.20322000  0.33120000  0.15223000  1.0
  H  H75  1  0.29678000  0.66879000  0.65223000  1.0
  H  H76  1  0.90980000  0.74054000  0.37785000  1.0
  H  H77  1  0.59021000  0.25946000  0.87785000  1.0
  H  H78  1  0.09020000  0.24054000  0.12215000  1.0
  H  H79  1  0.40980000  0.75946000  0.62214000  1.0
  H  H80  1  0.79874000  0.78379000  0.54010000  1.0
  H  H81  1  0.70128000  0.21621000  0.04010000  1.0
  H  H82  1  0.20127000  0.28379000  0.95989000  1.0
  H  H83  1  0.29871000  0.71620000  0.45989000  1.0
  H  H84  1  0.65459000  0.71076000  0.54136000  1.0
  H  H85  1  0.84542000  0.28924000  0.04136000  1.0
  H  H86  1  0.34541000  0.21076000  0.95863000  1.0
  H  H87  1  0.15457000  0.78923000  0.45863000  1.0
  H  H88  1  0.64642000  0.83630000  0.51545000  1.0
  H  H89  1  0.85360000  0.16370000  0.01545000  1.0
  H  H90  1  0.35359000  0.33630000  0.98455000  1.0
  H  H91  1  0.14639000  0.66369000  0.48455000  1.0
  C  C92  1  0.53697000  0.34074000  0.35547000  1.0
  C  C93  1  0.96303000  0.65927000  0.85547000  1.0
  C  C94  1  0.46303000  0.84073000  0.14453000  1.0
  C  C95  1  0.03697000  0.15927000  0.64454000  1.0
  C  C96  1  0.71285000  0.05560000  0.22027000  1.0
  C  C97  1  0.78715000  0.94440000  0.72026000  1.0
  C  C98  1  0.28715000  0.55560000  0.27974000  1.0
  C  C99  1  0.21285000  0.44440000  0.77974000  1.0
  C  C100  1  0.02277000  0.31085000  0.32189000  1.0
  C  C101  1  0.47723000  0.68915000  0.82189000  1.0
  C  C102  1  0.97724000  0.81086000  0.17811000  1.0
  C  C103  1  0.52277000  0.18915000  0.67812000  1.0
  C  C104  1  0.79362000  0.09161000  0.49334000  1.0
  C  C105  1  0.70637000  0.90838000  0.99334000  1.0
  C  C106  1  0.20637000  0.59162000  0.00666000  1.0
  C  C107  1  0.29362000  0.40838000  0.50666000  1.0
  C  C108  1  0.65388000  0.27335000  0.34909000  1.0
  C  C109  1  0.84612000  0.72665000  0.84909000  1.0
  C  C110  1  0.34612000  0.77335000  0.15091000  1.0
  C  C111  1  0.15388000  0.22665000  0.65091000  1.0
  C  C112  1  0.74277000  0.12643000  0.28269000  1.0
  C  C113  1  0.75723000  0.87357000  0.78269000  1.0
  C  C114  1  0.25724000  0.62643000  0.21731000  1.0
  C  C115  1  0.24277000  0.37357000  0.71731000  1.0
  C  C116  1  0.89431000  0.25620000  0.32977000  1.0
  C  C117  1  0.60569000  0.74381000  0.82977000  1.0
  C  C118  1  0.10569000  0.75620000  0.17023000  1.0
  C  C119  1  0.39431000  0.24380000  0.67023000  1.0
  C  C120  1  0.77734000  0.14502000  0.41982000  1.0
  C  C121  1  0.72266000  0.85497000  0.91982000  1.0
  C  C122  1  0.22265000  0.64503000  0.08018000  1.0
  C  C123  1  0.27734000  0.35497000  0.58018000  1.0
  C  C124  1  0.62966000  0.19946000  0.28699000  1.0
  C  C125  1  0.87034000  0.80055000  0.78699000  1.0
  C  C126  1  0.37034000  0.69945000  0.21301000  1.0
  C  C127  1  0.12966000  0.30055000  0.71301000  1.0
  C  C128  1  0.78061000  0.32849000  0.33419000  1.0
  C  C129  1  0.71939000  0.67152000  0.83418000  1.0
  C  C130  1  0.21939000  0.82849000  0.16582000  1.0
  C  C131  1  0.28061000  0.17152000  0.66582000  1.0
  C  C132  1  0.66482000  0.21828000  0.42367000  1.0
  C  C133  1  0.83518000  0.78172000  0.92367000  1.0
  C  C134  1  0.33518000  0.71828000  0.07633000  1.0
  C  C135  1  0.16482000  0.28172000  0.57633000  1.0
  C  C136  1  0.87067000  0.18220000  0.26692000  1.0
  C  C137  1  0.62933000  0.81780000  0.76692000  1.0
  C  C138  1  0.12933000  0.68219000  0.23308000  1.0
  C  C139  1  0.37067000  0.31781000  0.73308000  1.0
  C  C140  1  0.75444000  0.07191000  0.35666000  1.0
  C  C141  1  0.74555000  0.92809000  0.85666000  1.0
  C  C142  1  0.24556000  0.57191000  0.14334000  1.0
  C  C143  1  0.25444000  0.42809000  0.64334000  1.0
  C  C144  1  0.90510000  0.20048000  0.40424000  1.0
  C  C145  1  0.59490000  0.79952000  0.90423000  1.0
  C  C146  1  0.09490000  0.70048000  0.09577000  1.0
  C  C147  1  0.40510000  0.29952000  0.59577000  1.0
  C  C148  1  0.65461000  0.67342000  0.40367000  1.0
  C  C149  1  0.84540000  0.32658000  0.90367000  1.0
  C  C150  1  0.34539000  0.17342000  0.09633000  1.0
  C  C151  1  0.15462000  0.82658000  0.59633000  1.0
  C  C152  1  0.68312000  0.63983000  0.32639000  1.0
  C  C153  1  0.81689000  0.36017000  0.82639000  1.0
  C  C154  1  0.31689000  0.13984000  0.17361000  1.0
  C  C155  1  0.18312000  0.86016000  0.67361000  1.0
  C  C156  1  0.83437000  0.79176000  0.39611000  1.0
  C  C157  1  0.66564000  0.20824000  0.89611000  1.0
  C  C158  1  0.16563000  0.29176000  0.10388000  1.0
  C  C159  1  0.33437000  0.70824000  0.60388000  1.0
  C  C160  1  0.70570000  0.76963000  0.51271000  1.0
  C  C161  1  0.79432000  0.23037000  0.01271000  1.0
  C  C162  1  0.29431000  0.26964000  0.98729000  1.0
  C  C163  1  0.20568000  0.73036000  0.48729000  1.0
  N  N164  1  0.72986000  0.74086000  0.43590000  1.0
  N  N165  1  0.77016000  0.25914000  0.93590000  1.0
  N  N166  1  0.27015000  0.24086000  0.06409000  1.0
  N  N167  1  0.22985000  0.75914000  0.56409000  1.0
  O  O168  1  0.55867000  0.43070000  0.36957000  1.0
  O  O169  1  0.94132000  0.56930000  0.86957000  1.0
  O  O170  1  0.44133000  0.93069000  0.13043000  1.0
  O  O171  1  0.05867000  0.06931000  0.63043000  1.0
  O  O172  1  0.42623000  0.30127000  0.34830000  1.0
  O  O173  1  0.07377000  0.69873000  0.84830000  1.0
  O  O174  1  0.57377000  0.80127000  0.15170000  1.0
  O  O175  1  0.92623000  0.19874000  0.65171000  1.0
  O  O176  1  0.68219000  0.09268000  0.15726000  1.0
  O  O177  1  0.81780000  0.90732000  0.65726000  1.0
  O  O178  1  0.31781000  0.59268000  0.34273000  1.0
  O  O179  1  0.18221000  0.40732000  0.84274000  1.0
  O  O180  1  0.71605000  0.96509000  0.23434000  1.0
  O  O181  1  0.78394000  0.03491000  0.73433000  1.0
  O  O182  1  0.28394000  0.46509000  0.26567000  1.0
  O  O183  1  0.21605000  0.53491000  0.76567000  1.0
  O  O184  1  0.12702000  0.25940000  0.31025000  1.0
  O  O185  1  0.37298000  0.74059000  0.81024000  1.0
  O  O186  1  0.87298000  0.75941000  0.18976000  1.0
  O  O187  1  0.62702000  0.24060000  0.68976000  1.0
  O  O188  1  0.02829000  0.40127000  0.33316000  1.0
  O  O189  1  0.47171000  0.59873000  0.83316000  1.0
  O  O190  1  0.97171000  0.90128000  0.16685000  1.0
  O  O191  1  0.52828000  0.09872000  0.66684000  1.0
  O  O192  1  0.87603000  0.02115000  0.49465000  1.0
  O  O193  1  0.62396000  0.97884000  0.99465000  1.0
  O  O194  1  0.12397000  0.52116000  0.00535000  1.0
  O  O195  1  0.37603000  0.47884000  0.50535000  1.0
  O  O196  1  0.72802000  0.12099000  0.54809000  1.0
  O  O197  1  0.77199000  0.87900000  0.04809000  1.0
  O  O198  1  0.27198000  0.62100000  0.95190000  1.0
  O  O199  1  0.22801000  0.37900000  0.45191000  1.0
  O  O200  1  0.55928000  0.63757000  0.44011000  1.0
  O  O201  1  0.94073000  0.36243000  0.94011000  1.0
  O  O202  1  0.44073000  0.13758000  0.05989000  1.0
  O  O203  1  0.05927000  0.86242000  0.55990000  1.0
