# generated using pymatgen
data_CoH20C24(N5O3)2
_symmetry_space_group_name_H-M   'P 1'
_cell_length_a   8.77437000
_cell_length_b   9.54438000
_cell_length_c   10.31760000
_cell_angle_alpha   100.79800000
_cell_angle_beta   100.94900000
_cell_angle_gamma   108.48800000
_symmetry_Int_Tables_number   1
_chemical_formula_structural   CoH20C24(N5O3)2
_chemical_formula_sum   'Co1 H20 C24 N10 O6'
_cell_volume   775.58522391
_cell_formula_units_Z   1
loop_
 _symmetry_equiv_pos_site_id
 _symmetry_equiv_pos_as_xyz
  1  'x, y, z'
loop_
 _atom_site_type_symbol
 _atom_site_label
 _atom_site_symmetry_multiplicity
 _atom_site_fract_x
 _atom_site_fract_y
 _atom_site_fract_z
 _atom_site_occupancy
  Co  Co0  1  0.00000000  0.50000000  0.00000000  1.0
  H  H1  1  0.14901000  0.50257000  0.30051000  1.0
  H  H2  1  0.85098000  0.49743000  0.69948000  1.0
  H  H3  1  0.15021000  0.41636000  0.49715000  1.0
  H  H4  1  0.84979000  0.58364000  0.50285000  1.0
  H  H5  1  0.43496000  0.17635000  0.31845000  1.0
  H  H6  1  0.56504000  0.82366000  0.68155000  1.0
  H  H7  1  0.59750000  0.20001000  0.55140000  1.0
  H  H8  1  0.40251000  0.80000000  0.44860000  1.0
  H  H9  1  0.53993000  0.33257000  0.75731000  1.0
  H  H10  1  0.46007000  0.66744000  0.24269000  1.0
  H  H11  1  0.21160000  0.08767000  0.13768000  1.0
  H  H12  1  0.78840000  0.91233000  0.86233000  1.0
  H  H13  1  0.06193000  0.18264000  0.92626000  1.0
  H  H14  1  0.93808000  0.81736000  0.07375000  1.0
  H  H15  1  0.04786000  0.31713000  0.72676000  1.0
  H  H16  1  0.95214000  0.68286000  0.27324000  1.0
  H  H17  1  0.54642000  0.63825000  0.85619000  1.0
  H  H18  1  0.45357000  0.36175000  0.14380000  1.0
  H  H19  1  0.36995000  0.71609000  0.03697000  1.0
  H  H20  1  0.63005000  0.28390000  0.96303000  1.0
  C  C21  1  0.13832000  0.40032000  0.22747000  1.0
  C  C22  1  0.86167000  0.59967000  0.77253000  1.0
  C  C23  1  0.28463000  0.29713000  0.39318000  1.0
  C  C24  1  0.71537000  0.70287000  0.60682000  1.0
  C  C25  1  0.24850000  0.36925000  0.50787000  1.0
  C  C26  1  0.75150000  0.63074000  0.49213000  1.0
  C  C27  1  0.40981000  0.23540000  0.40828000  1.0
  C  C28  1  0.59020000  0.76461000  0.59173000  1.0
  C  C29  1  0.50024000  0.24838000  0.53926000  1.0
  C  C30  1  0.49977000  0.75163000  0.46074000  1.0
  C  C31  1  0.46815000  0.32231000  0.65525000  1.0
  C  C32  1  0.53186000  0.67771000  0.34476000  1.0
  C  C33  1  0.17421000  0.18580000  0.13863000  1.0
  C  C34  1  0.82580000  0.81421000  0.86137000  1.0
  C  C35  1  0.10028000  0.23447000  0.03571000  1.0
  C  C36  1  0.89971000  0.76553000  0.96429000  1.0
  C  C37  1  0.15652000  0.41790000  0.78545000  1.0
  C  C38  1  0.84348000  0.58209000  0.21455000  1.0
  C  C39  1  0.34163000  0.38160000  0.63802000  1.0
  C  C40  1  0.65837000  0.61839000  0.36198000  1.0
  C  C41  1  0.41816000  0.58454000  0.85730000  1.0
  C  C42  1  0.58183000  0.41546000  0.14270000  1.0
  C  C43  1  0.33093000  0.62056000  0.94702000  1.0
  C  C44  1  0.66907000  0.37944000  0.05297000  1.0
  N  N45  1  0.77648000  0.15884000  0.78764000  1.0
  N  N46  1  0.22351000  0.84116000  0.21236000  1.0
  N  N47  1  0.07914000  0.36853000  0.09242000  1.0
  N  N48  1  0.92086000  0.63147000  0.90758000  1.0
  N  N49  1  0.19788000  0.29181000  0.26008000  1.0
  N  N50  1  0.80212000  0.70819000  0.73993000  1.0
  N  N51  1  0.16883000  0.51492000  0.90191000  1.0
  N  N52  1  0.83117000  0.48507000  0.09809000  1.0
  N  N53  1  0.30664000  0.45727000  0.75527000  1.0
  N  N54  1  0.69336000  0.54272000  0.24473000  1.0
  O  O55  1  0.80991000  0.30443000  0.81194000  1.0
  O  O56  1  0.19009000  0.69556000  0.18806000  1.0
  O  O57  1  0.85364000  0.09942000  0.71629000  1.0
  O  O58  1  0.14635000  0.90057000  0.28371000  1.0
  O  O59  1  0.66810000  0.07902000  0.83567000  1.0
  O  O60  1  0.33189000  0.92098000  0.16433000  1.0
