# generated using pymatgen
data_DyH8(C3O5)2
_symmetry_space_group_name_H-M   'P 1'
_cell_length_a   10.42490000
_cell_length_b   10.75320000
_cell_length_c   10.75320000
_cell_angle_alpha   70.63730000
_cell_angle_beta   61.00500000
_cell_angle_gamma   61.00500000
_symmetry_Int_Tables_number   1
_chemical_formula_structural   DyH8(C3O5)2
_chemical_formula_sum   'Dy4 H32 C24 O40'
_cell_volume   914.82752458
_cell_formula_units_Z   4
loop_
 _symmetry_equiv_pos_site_id
 _symmetry_equiv_pos_as_xyz
  1  'x, y, z'
loop_
 _atom_site_type_symbol
 _atom_site_label
 _atom_site_symmetry_multiplicity
 _atom_site_fract_x
 _atom_site_fract_y
 _atom_site_fract_z
 _atom_site_occupancy
  Dy  Dy0  1  0.85174000  0.12010000  0.38156000  1.0
  Dy  Dy1  1  0.35339000  0.87990000  0.61844000  1.0
  Dy  Dy2  1  0.35174000  0.38156000  0.12010000  1.0
  Dy  Dy3  1  0.85339000  0.61844000  0.87990000  1.0
  H  H4  1  0.79384000  0.76541000  0.11517000  1.0
  H  H5  1  0.67442000  0.23459000  0.88483000  1.0
  H  H6  1  0.29384000  0.11517000  0.76541000  1.0
  H  H7  1  0.17442000  0.88483000  0.23459000  1.0
  H  H8  1  0.08178000  0.31474000  0.16962000  1.0
  H  H9  1  0.56614000  0.68526000  0.83038000  1.0
  H  H10  1  0.58178000  0.16962000  0.31474000  1.0
  H  H11  1  0.06614000  0.83038000  0.68526000  1.0
  H  H12  1  0.82760000  0.00274000  0.17024000  1.0
  H  H13  1  0.00058000  0.99726000  0.82976000  1.0
  H  H14  1  0.32760000  0.17024000  0.00274000  1.0
  H  H15  1  0.50058000  0.82976000  0.99726000  1.0
  H  H16  1  0.93900000  0.21772000  0.55311000  1.0
  H  H17  1  0.70983000  0.78228000  0.44689000  1.0
  H  H18  1  0.43900000  0.55311000  0.21772000  1.0
  H  H19  1  0.20983000  0.44689000  0.78228000  1.0
  H  H20  1  0.09777000  0.11949000  0.44607000  1.0
  H  H21  1  0.66334000  0.88051000  0.55393000  1.0
  H  H22  1  0.59777000  0.44607000  0.11950000  1.0
  H  H23  1  0.16334000  0.55393000  0.88051000  1.0
  H  H24  1  0.71114000  0.62974000  0.30953000  1.0
  H  H25  1  0.65041000  0.37026000  0.69047000  1.0
  H  H26  1  0.21114000  0.30953000  0.62974000  1.0
  H  H27  1  0.15041000  0.69047000  0.37026000  1.0
  H  H28  1  0.92770000  0.43402000  0.37013000  1.0
  H  H29  1  0.73185000  0.56598000  0.62987000  1.0
  H  H30  1  0.42770000  0.37013000  0.43402000  1.0
  H  H31  1  0.23185000  0.62987000  0.56598000  1.0
  H  H32  1  0.94552000  0.15073000  0.96310000  1.0
  H  H33  1  0.05935000  0.84927000  0.03690000  1.0
  H  H34  1  0.44552000  0.96310000  0.15073000  1.0
  H  H35  1  0.55935000  0.03690000  0.84927000  1.0
  C  C36  1  0.77554000  0.45854000  0.20605000  1.0
  C  C37  1  0.44014000  0.54146000  0.79395000  1.0
  C  C38  1  0.27554000  0.20605000  0.45854000  1.0
  C  C39  1  0.94014000  0.79395000  0.54146000  1.0
  C  C40  1  0.81529000  0.56972000  0.22219000  1.0
  C  C41  1  0.60721000  0.43028000  0.77781000  1.0
  C  C42  1  0.31529000  0.22219000  0.56972000  1.0
  C  C43  1  0.10721000  0.77781000  0.43028000  1.0
  C  C44  1  0.95970000  0.49646000  0.26331000  1.0
  C  C45  1  0.71947000  0.50354000  0.73669000  1.0
  C  C46  1  0.45970000  0.26331000  0.49646000  1.0
  C  C47  1  0.21947000  0.73669000  0.50354000  1.0
  C  C48  1  0.00395000  0.60954000  0.27188000  1.0
  C  C49  1  0.88536000  0.39046000  0.72813000  1.0
  C  C50  1  0.50395000  0.27188000  0.60954000  1.0
  C  C51  1  0.38536000  0.72813000  0.39046000  1.0
  C  C52  1  0.10009000  0.13642000  0.04595000  1.0
  C  C53  1  0.28245000  0.86358000  0.95405000  1.0
  C  C54  1  0.60009000  0.04595000  0.13642000  1.0
  C  C55  1  0.78245000  0.95405000  0.86358000  1.0
  C  C56  1  0.00492000  0.07077000  0.03463000  1.0
  C  C57  1  0.11031000  0.92924000  0.96537000  1.0
  C  C58  1  0.50492000  0.03462000  0.07077000  1.0
  C  C59  1  0.61031000  0.96538000  0.92923000  1.0
  O  O60  1  0.74950000  0.36521000  0.31201000  1.0
  O  O61  1  0.42671000  0.63479000  0.68799000  1.0
  O  O62  1  0.24950000  0.31201000  0.36521000  1.0
  O  O63  1  0.92671000  0.68799000  0.63479000  1.0
  O  O64  1  0.77436000  0.46426000  0.08589000  1.0
  O  O65  1  0.32450000  0.53574000  0.91411000  1.0
  O  O66  1  0.27436000  0.08589000  0.46426000  1.0
  O  O67  1  0.82450000  0.91411000  0.53574000  1.0
  O  O68  1  0.84365000  0.66536000  0.09172000  1.0
  O  O69  1  0.60073000  0.33464000  0.90828000  1.0
  O  O70  1  0.34365000  0.09172000  0.66536000  1.0
  O  O71  1  0.10073000  0.90828000  0.33464000  1.0
  O  O72  1  0.09641000  0.40307000  0.16162000  1.0
  O  O73  1  0.66110000  0.59693000  0.83838000  1.0
  O  O74  1  0.59641000  0.16162000  0.40307000  1.0
  O  O75  1  0.16110000  0.83838000  0.59693000  1.0
  O  O76  1  0.15115000  0.59028000  0.20990000  1.0
  O  O77  1  0.95132000  0.40972000  0.79010000  1.0
  O  O78  1  0.65114000  0.20990000  0.59028000  1.0
  O  O79  1  0.45132000  0.79010000  0.40972000  1.0
  O  O80  1  0.89455000  0.71384000  0.33821000  1.0
  O  O81  1  0.94660000  0.28616000  0.66179000  1.0
  O  O82  1  0.39455000  0.33821000  0.71384000  1.0
  O  O83  1  0.44660000  0.66179000  0.28616000  1.0
  O  O84  1  0.88862000  0.05043000  0.17385000  1.0
  O  O85  1  0.11290000  0.94957000  0.82615000  1.0
  O  O86  1  0.38862000  0.17385000  0.05043000  1.0
  O  O87  1  0.61290000  0.82615000  0.94957000  1.0
  O  O88  1  0.05159000  0.17510000  0.16652000  1.0
  O  O89  1  0.39321000  0.82490000  0.83348000  1.0
  O  O90  1  0.55159000  0.16652000  0.17510000  1.0
  O  O91  1  0.89321000  0.83348000  0.82490000  1.0
  O  O92  1  0.22015000  0.15004000  0.93751000  1.0
  O  O93  1  0.30769000  0.84996000  0.06249000  1.0
  O  O94  1  0.72015000  0.93751000  0.15004000  1.0
  O  O95  1  0.80769000  0.06249000  0.84996000  1.0
  O  O96  1  0.98112000  0.16327000  0.47235000  1.0
  O  O97  1  0.61675000  0.83673000  0.52765000  1.0
  O  O98  1  0.48112000  0.47235000  0.16327000  1.0
  O  O99  1  0.11674000  0.52765000  0.83673000  1.0
