# generated using pymatgen
data_ZnH25C23N4O7
_symmetry_space_group_name_H-M   'P 1'
_cell_length_a   9.66436000
_cell_length_b   9.85636000
_cell_length_c   14.53100000
_cell_angle_alpha   80.15730000
_cell_angle_beta   76.84080000
_cell_angle_gamma   61.82890000
_symmetry_Int_Tables_number   1
_chemical_formula_structural   ZnH25C23N4O7
_chemical_formula_sum   'Zn2 H50 C46 N8 O14'
_cell_volume   1184.89898105
_cell_formula_units_Z   2
loop_
 _symmetry_equiv_pos_site_id
 _symmetry_equiv_pos_as_xyz
  1  'x, y, z'
loop_
 _atom_site_type_symbol
 _atom_site_label
 _atom_site_symmetry_multiplicity
 _atom_site_fract_x
 _atom_site_fract_y
 _atom_site_fract_z
 _atom_site_occupancy
  Zn  Zn0  1  0.84351000  0.81364000  0.51512000  1.0
  Zn  Zn1  1  0.15649000  0.18636000  0.48488000  1.0
  H  H2  1  0.83488000  0.93437000  0.33610000  1.0
  H  H3  1  0.16512000  0.06563000  0.66390000  1.0
  H  H4  1  0.81814000  0.05778000  0.40345000  1.0
  H  H5  1  0.18187000  0.94222000  0.59655000  1.0
  H  H6  1  0.24976000  0.41069000  0.71405000  1.0
  H  H7  1  0.75024000  0.58931000  0.28595000  1.0
  H  H8  1  0.55002000  0.24362000  0.98334000  1.0
  H  H9  1  0.44998000  0.75637000  0.01667000  1.0
  H  H10  1  0.40907000  0.77852000  0.50865000  1.0
  H  H11  1  0.59093000  0.22148000  0.49135000  1.0
  H  H12  1  0.89986000  0.00740000  0.62852000  1.0
  H  H13  1  0.10014000  0.99260000  0.37148000  1.0
  H  H14  1  0.73213000  0.21345000  0.74285000  1.0
  H  H15  1  0.26787000  0.78655000  0.25715000  1.0
  H  H16  1  0.33588000  0.12969000  0.73204000  1.0
  H  H17  1  0.66412000  0.87032000  0.26796000  1.0
  H  H18  1  0.51949000  0.92627000  0.62147000  1.0
  H  H19  1  0.48051000  0.07373000  0.37853000  1.0
  H  H20  1  0.22101000  0.65509000  0.79686000  1.0
  H  H21  1  0.77899000  0.34491000  0.20314000  1.0
  H  H22  1  0.17582000  0.54398000  0.89691000  1.0
  H  H23  1  0.82418000  0.45603000  0.10309000  1.0
  H  H24  1  0.96135000  0.54874000  0.82218000  1.0
  H  H25  1  0.03865000  0.45127000  0.17782000  1.0
  H  H26  1  0.00818000  0.65862000  0.72262000  1.0
  H  H27  1  0.99182000  0.34138000  0.27738000  1.0
  H  H28  1  0.93480000  0.87095000  0.82468000  1.0
  H  H29  1  0.06520000  0.12906000  0.17531000  1.0
  H  H30  1  0.77485000  0.83062000  0.82609000  1.0
  H  H31  1  0.22516000  0.16938000  0.17390000  1.0
  H  H32  1  0.84090000  0.66012000  0.97898000  1.0
  H  H33  1  0.15910000  0.33989000  0.02101000  1.0
  H  H34  1  0.97610000  0.73049000  0.98340000  1.0
  H  H35  1  0.02390000  0.26951000  0.01659000  1.0
  H  H36  1  0.62179000  0.93407000  0.97537000  1.0
  H  H37  1  0.37821000  0.06594000  0.02463000  1.0
  H  H38  1  0.70054000  0.86914000  0.08181000  1.0
  H  H39  1  0.29946000  0.13085000  0.91819000  1.0
  H  H40  1  0.85695000  0.01317000  0.03676000  1.0
  H  H41  1  0.14304000  0.98683000  0.96324000  1.0
  H  H42  1  0.80193000  0.06799000  0.92194000  1.0
  H  H43  1  0.19808000  0.93202000  0.07807000  1.0
  H  H44  1  0.20120000  0.54818000  0.34360000  1.0
  H  H45  1  0.79880000  0.45182000  0.65641000  1.0
  H  H46  1  0.44627000  0.30622000  0.29770000  1.0
  H  H47  1  0.55373000  0.69377000  0.70230000  1.0
  H  H48  1  0.38577000  0.45694000  0.00551000  1.0
  H  H49  1  0.61423000  0.54305000  0.99450000  1.0
  H  H50  1  0.15638000  0.69606000  0.06280000  1.0
  H  H51  1  0.84361000  0.30394000  0.93720000  1.0
  C  C52  1  0.16362000  0.71388000  0.53134000  1.0
  C  C53  1  0.83638000  0.28611000  0.46866000  1.0
  C  C54  1  0.33627000  0.60049000  0.51824000  1.0
  C  C55  1  0.66374000  0.39950000  0.48175000  1.0
  C  C56  1  0.44907000  0.65580000  0.50536000  1.0
  C  C57  1  0.55093000  0.34420000  0.49464000  1.0
  C  C58  1  0.61210000  0.55802000  0.48633000  1.0
  C  C59  1  0.38791000  0.44197000  0.51367000  1.0
  C  C60  1  0.72284000  0.63144000  0.46515000  1.0
  C  C61  1  0.27717000  0.36856000  0.53484000  1.0
  C  C62  1  0.77430000  0.03986000  0.65392000  1.0
  C  C63  1  0.22570000  0.96014000  0.34608000  1.0
  C  C64  1  0.68039000  0.15358000  0.71652000  1.0
  C  C65  1  0.31961000  0.84642000  0.28348000  1.0
  C  C66  1  0.51850000  0.19252000  0.74311000  1.0
  C  C67  1  0.48150000  0.80749000  0.25689000  1.0
  C  C68  1  0.45946000  0.10788000  0.71049000  1.0
  C  C69  1  0.54054000  0.89213000  0.28951000  1.0
  C  C70  1  0.56143000  0.99357000  0.64913000  1.0
  C  C71  1  0.43857000  0.00643000  0.35087000  1.0
  C  C72  1  0.41553000  0.32580000  0.80351000  1.0
  C  C73  1  0.58447000  0.67420000  0.19649000  1.0
  C  C74  1  0.17362000  0.57016000  0.82054000  1.0
  C  C75  1  0.82638000  0.42985000  0.17946000  1.0
  C  C76  1  0.00528000  0.63586000  0.79969000  1.0
  C  C77  1  0.99471000  0.36414000  0.20030000  1.0
  C  C78  1  0.89108000  0.78367000  0.84902000  1.0
  C  C79  1  0.10892000  0.21634000  0.15098000  1.0
  C  C80  1  0.86590000  0.76023000  0.95741000  1.0
  C  C81  1  0.13410000  0.23977000  0.04259000  1.0
  C  C82  1  0.72886000  0.90001000  0.00594000  1.0
  C  C83  1  0.27114000  0.09999000  0.99406000  1.0
  C  C84  1  0.76250000  0.03940000  0.99657000  1.0
  C  C85  1  0.23750000  0.96060000  0.00343000  1.0
  C  C86  1  0.58768000  0.21299000  0.12250000  1.0
  C  C87  1  0.41232000  0.78700000  0.87750000  1.0
  C  C88  1  0.24750000  0.52522000  0.26903000  1.0
  C  C89  1  0.75250000  0.47478000  0.73097000  1.0
  C  C90  1  0.38304000  0.38884000  0.24366000  1.0
  C  C91  1  0.61696000  0.61116000  0.75634000  1.0
  C  C92  1  0.43793000  0.35945000  0.14792000  1.0
  C  C93  1  0.56207000  0.64054000  0.85209000  1.0
  C  C94  1  0.35206000  0.47066000  0.08153000  1.0
  C  C95  1  0.64794000  0.52934000  0.91848000  1.0
  C  C96  1  0.22113000  0.60576000  0.11391000  1.0
  C  C97  1  0.77887000  0.39423000  0.88609000  1.0
  N  N98  1  0.71587000  0.96210000  0.61954000  1.0
  N  N99  1  0.28413000  0.03790000  0.38046000  1.0
  N  N100  1  0.27872000  0.42776000  0.77428000  1.0
  N  N101  1  0.72128000  0.57224000  0.22572000  1.0
  N  N102  1  0.62261000  0.17662000  0.03171000  1.0
  N  N103  1  0.37740000  0.82338000  0.96829000  1.0
  N  N104  1  0.16775000  0.63524000  0.20557000  1.0
  N  N105  1  0.83225000  0.36476000  0.79443000  1.0
  O  O106  1  0.07216000  0.67813000  0.49937000  1.0
  O  O107  1  0.92784000  0.32187000  0.50063000  1.0
  O  O108  1  0.11567000  0.83765000  0.56937000  1.0
  O  O109  1  0.88433000  0.16234000  0.43063000  1.0
  O  O110  1  0.80665000  0.62615000  0.38517000  1.0
  O  O111  1  0.19335000  0.37385000  0.61483000  1.0
  O  O112  1  0.71232000  0.70635000  0.53337000  1.0
  O  O113  1  0.28768000  0.29365000  0.46663000  1.0
  O  O114  1  0.46158000  0.33972000  0.87361000  1.0
  O  O115  1  0.53841000  0.66027000  0.12639000  1.0
  O  O116  1  0.67319000  0.13269000  0.18317000  1.0
  O  O117  1  0.32681000  0.86730000  0.81683000  1.0
  O  O118  1  0.79220000  0.97067000  0.39959000  1.0
  O  O119  1  0.20780000  0.02933000  0.60041000  1.0
