# generated using pymatgen
data_NiH8C9NO5
_symmetry_space_group_name_H-M   'P 1'
_cell_length_a   6.74155000
_cell_length_b   7.57670000
_cell_length_c   22.32110000
_cell_angle_alpha   89.99970000
_cell_angle_beta   90.00020000
_cell_angle_gamma   89.99970000
_symmetry_Int_Tables_number   1
_chemical_formula_structural   NiH8C9NO5
_chemical_formula_sum   'Ni4 H32 C36 N4 O20'
_cell_volume   1140.13281261
_cell_formula_units_Z   4
loop_
 _symmetry_equiv_pos_site_id
 _symmetry_equiv_pos_as_xyz
  1  'x, y, z'
loop_
 _atom_site_type_symbol
 _atom_site_label
 _atom_site_symmetry_multiplicity
 _atom_site_fract_x
 _atom_site_fract_y
 _atom_site_fract_z
 _atom_site_occupancy
  Ni  Ni0  1  0.44580000  0.75006000  0.28957000  1.0
  Ni  Ni1  1  0.55420000  0.75004000  0.71043000  1.0
  Ni  Ni2  1  0.94580000  0.24995000  0.21043000  1.0
  Ni  Ni3  1  0.05420000  0.24994000  0.78957000  1.0
  H  H4  1  0.37375000  0.61638000  0.11260000  1.0
  H  H5  1  0.16147000  0.75218000  0.11720000  1.0
  H  H6  1  0.47855000  0.91931000  0.12685000  1.0
  H  H7  1  0.67221000  0.87173000  0.21149000  1.0
  H  H8  1  0.02594000  0.66853000  0.32336000  1.0
  H  H9  1  0.81600000  0.67895000  0.41495000  1.0
  H  H10  1  0.32615000  0.88199000  0.51015000  1.0
  H  H11  1  0.51166000  0.86923000  0.41213000  1.0
  H  H12  1  0.62625000  0.61638000  0.88740000  1.0
  H  H13  1  0.83854000  0.75217000  0.88280000  1.0
  H  H14  1  0.52145000  0.91930000  0.87315000  1.0
  H  H15  1  0.32779000  0.87172000  0.78851000  1.0
  H  H16  1  0.97406000  0.66853000  0.67664000  1.0
  H  H17  1  0.18401000  0.67895000  0.58505000  1.0
  H  H18  1  0.67385000  0.88198000  0.48985000  1.0
  H  H19  1  0.48834000  0.86922000  0.58787000  1.0
  H  H20  1  0.87375000  0.38363000  0.38739000  1.0
  H  H21  1  0.66147000  0.24783000  0.38279000  1.0
  H  H22  1  0.97855000  0.08070000  0.37315000  1.0
  H  H23  1  0.17221000  0.12827000  0.28850000  1.0
  H  H24  1  0.52595000  0.33148000  0.17664000  1.0
  H  H25  1  0.31600000  0.32106000  0.08505000  1.0
  H  H26  1  0.82615000  0.11802000  0.98985000  1.0
  H  H27  1  0.01166000  0.13078000  0.08787000  1.0
  H  H28  1  0.12625000  0.38362000  0.61261000  1.0
  H  H29  1  0.33853000  0.24783000  0.61721000  1.0
  H  H30  1  0.02146000  0.08069000  0.62685000  1.0
  H  H31  1  0.82779000  0.12826000  0.71149000  1.0
  H  H32  1  0.47405000  0.33147000  0.82336000  1.0
  H  H33  1  0.68400000  0.32106000  0.91495000  1.0
  H  H34  1  0.17385000  0.11802000  0.01015000  1.0
  H  H35  1  0.98834000  0.13077000  0.91213000  1.0
  C  C36  1  0.19804000  0.57645000  0.19124000  1.0
  C  C37  1  0.28598000  0.69853000  0.14330000  1.0
  C  C38  1  0.41551000  0.84945000  0.16579000  1.0
  C  C39  1  0.28961000  0.98392000  0.20063000  1.0
  C  C40  1  0.08529000  0.71556000  0.36586000  1.0
  C  C41  1  0.97037000  0.72097000  0.41767000  1.0
  C  C42  1  0.05621000  0.77698000  0.47166000  1.0
  C  C43  1  0.25485000  0.83173000  0.46991000  1.0
  C  C44  1  0.35846000  0.82542000  0.41630000  1.0
  C  C45  1  0.80197000  0.57644000  0.80876000  1.0
  C  C46  1  0.71402000  0.69852000  0.85670000  1.0
  C  C47  1  0.58449000  0.84944000  0.83421000  1.0
  C  C48  1  0.71039000  0.98391000  0.79937000  1.0
  C  C49  1  0.91471000  0.71556000  0.63415000  1.0
  C  C50  1  0.02963000  0.72097000  0.58233000  1.0
  C  C51  1  0.94379000  0.77698000  0.52834000  1.0
  C  C52  1  0.74515000  0.83173000  0.53009000  1.0
  C  C53  1  0.64153000  0.82542000  0.58370000  1.0
  C  C54  1  0.69802000  0.42357000  0.30876000  1.0
  C  C55  1  0.78598000  0.30148000  0.35670000  1.0
  C  C56  1  0.91551000  0.15056000  0.33421000  1.0
  C  C57  1  0.78959000  0.01608000  0.29938000  1.0
  C  C58  1  0.58529000  0.28444000  0.13415000  1.0
  C  C59  1  0.47037000  0.27904000  0.08233000  1.0
  C  C60  1  0.55621000  0.22302000  0.02834000  1.0
  C  C61  1  0.75485000  0.16828000  0.03009000  1.0
  C  C62  1  0.85847000  0.17458000  0.08370000  1.0
  C  C63  1  0.30198000  0.42356000  0.69124000  1.0
  C  C64  1  0.21402000  0.30147000  0.64330000  1.0
  C  C65  1  0.08449000  0.15055000  0.66579000  1.0
  C  C66  1  0.21040000  0.01607000  0.70062000  1.0
  C  C67  1  0.41471000  0.28444000  0.86585000  1.0
  C  C68  1  0.52963000  0.27903000  0.91767000  1.0
  C  C69  1  0.44379000  0.22302000  0.97166000  1.0
  C  C70  1  0.24515000  0.16827000  0.96991000  1.0
  C  C71  1  0.14153000  0.17457000  0.91630000  1.0
  N  N72  1  0.27655000  0.76613000  0.36515000  1.0
  N  N73  1  0.72344000  0.76612000  0.63486000  1.0
  N  N74  1  0.77656000  0.23388000  0.13486000  1.0
  N  N75  1  0.22344000  0.23387000  0.86514000  1.0
  O  O76  1  0.23011000  0.59775000  0.24672000  1.0
  O  O77  1  0.09118000  0.45368000  0.16932000  1.0
  O  O78  1  0.57195000  0.77627000  0.20130000  1.0
  O  O79  1  0.31098000  0.98634000  0.25764000  1.0
  O  O80  1  0.17352000  0.08091000  0.17099000  1.0
  O  O81  1  0.76990000  0.59774000  0.75328000  1.0
  O  O82  1  0.90882000  0.45367000  0.83068000  1.0
  O  O83  1  0.42805000  0.77627000  0.79870000  1.0
  O  O84  1  0.68903000  0.98633000  0.74235000  1.0
  O  O85  1  0.82647000  0.08090000  0.82901000  1.0
  O  O86  1  0.73012000  0.40225000  0.25327000  1.0
  O  O87  1  0.59120000  0.54631000  0.33068000  1.0
  O  O88  1  0.07195000  0.22373000  0.29869000  1.0
  O  O89  1  0.81098000  0.01367000  0.24235000  1.0
  O  O90  1  0.67354000  0.91912000  0.32900000  1.0
  O  O91  1  0.26988000  0.40224000  0.74673000  1.0
  O  O92  1  0.40881000  0.54629000  0.66932000  1.0
  O  O93  1  0.92804000  0.22373000  0.70130000  1.0
  O  O94  1  0.18901000  0.01366000  0.75765000  1.0
  O  O95  1  0.32646000  0.91911000  0.67100000  1.0
