# generated using pymatgen
data_Cd2H40C30N2O11
_symmetry_space_group_name_H-M   'P 1'
_cell_length_a   7.55976000
_cell_length_b   20.75710000
_cell_length_c   21.74910000
_cell_angle_alpha   89.99950000
_cell_angle_beta   89.99980000
_cell_angle_gamma   89.99980000
_symmetry_Int_Tables_number   1
_chemical_formula_structural   Cd2H40C30N2O11
_chemical_formula_sum   'Cd8 H160 C120 N8 O44'
_cell_volume   3412.84037394
_cell_formula_units_Z   4
loop_
 _symmetry_equiv_pos_site_id
 _symmetry_equiv_pos_as_xyz
  1  'x, y, z'
loop_
 _atom_site_type_symbol
 _atom_site_label
 _atom_site_symmetry_multiplicity
 _atom_site_fract_x
 _atom_site_fract_y
 _atom_site_fract_z
 _atom_site_occupancy
  Cd  Cd0  1  0.67157000  0.12370000  0.95492000  1.0
  Cd  Cd1  1  0.32843000  0.62370000  0.04508000  1.0
  Cd  Cd2  1  0.32843000  0.12369000  0.45492000  1.0
  Cd  Cd3  1  0.67157000  0.62370000  0.54508000  1.0
  Cd  Cd4  1  0.80551000  0.16504000  0.50119000  1.0
  Cd  Cd5  1  0.19450000  0.66504000  0.49880000  1.0
  Cd  Cd6  1  0.19450000  0.16505000  0.00119000  1.0
  Cd  Cd7  1  0.80551000  0.66504000  0.99881000  1.0
  H  H8  1  0.61420000  0.14929000  0.08301000  1.0
  H  H9  1  0.38580000  0.64929000  0.91699000  1.0
  H  H10  1  0.38581000  0.14930000  0.58301000  1.0
  H  H11  1  0.61419000  0.64930000  0.41699000  1.0
  H  H12  1  0.82534000  0.15413000  0.07946000  1.0
  H  H13  1  0.17466000  0.65413000  0.92054000  1.0
  H  H14  1  0.17466000  0.15413000  0.57946000  1.0
  H  H15  1  0.82533000  0.65413000  0.42054000  1.0
  H  H16  1  0.73135000  0.31423000  0.10658000  1.0
  H  H17  1  0.26866000  0.81422000  0.89342000  1.0
  H  H18  1  0.26867000  0.31423000  0.60657000  1.0
  H  H19  1  0.73134000  0.81423000  0.39343000  1.0
  H  H20  1  0.52781000  0.27753000  0.08647000  1.0
  H  H21  1  0.47219000  0.77753000  0.91353000  1.0
  H  H22  1  0.47220000  0.27753000  0.58647000  1.0
  H  H23  1  0.52782000  0.77753000  0.41353000  1.0
  H  H24  1  0.52917000  0.34608000  0.13448000  1.0
  H  H25  1  0.47083000  0.84608000  0.86552000  1.0
  H  H26  1  0.47083000  0.34608000  0.63449000  1.0
  H  H27  1  0.52918000  0.84608000  0.36552000  1.0
  H  H28  1  0.70159000  0.42920000  0.13831000  1.0
  H  H29  1  0.29840000  0.92920000  0.86169000  1.0
  H  H30  1  0.29841000  0.42920000  0.63831000  1.0
  H  H31  1  0.70159000  0.92920000  0.36169000  1.0
  H  H32  1  0.58742000  0.50059000  0.11616000  1.0
  H  H33  1  0.41258000  0.00059000  0.88384000  1.0
  H  H34  1  0.41257000  0.50059000  0.61616000  1.0
  H  H35  1  0.58742000  0.00059000  0.38384000  1.0
  H  H36  1  0.80981000  0.48910000  0.09436000  1.0
  H  H37  1  0.19019000  0.98910000  0.90564000  1.0
  H  H38  1  0.19019000  0.48909000  0.59435000  1.0
  H  H39  1  0.80981000  0.98910000  0.40564000  1.0
  H  H40  1  0.58225000  0.53763000  0.88563000  1.0
  H  H41  1  0.41776000  0.03763000  0.11437000  1.0
  H  H42  1  0.41777000  0.53763000  0.38563000  1.0
  H  H43  1  0.58224000  0.03763000  0.61437000  1.0
  H  H44  1  0.38789000  0.49500000  0.86577000  1.0
  H  H45  1  0.61211000  0.99500000  0.13423000  1.0
  H  H46  1  0.61213000  0.49500000  0.36577000  1.0
  H  H47  1  0.38789000  0.99500000  0.63423000  1.0
  H  H48  1  0.59441000  0.46938000  0.83658000  1.0
  H  H49  1  0.40560000  0.96938000  0.16342000  1.0
  H  H50  1  0.40560000  0.46938000  0.33658000  1.0
  H  H51  1  0.59441000  0.96939000  0.66342000  1.0
  H  H52  1  0.38364000  0.30427000  0.87526000  1.0
  H  H53  1  0.61635000  0.80427000  0.12475000  1.0
  H  H54  1  0.61636000  0.30427000  0.37525000  1.0
  H  H55  1  0.38364000  0.80427000  0.62475000  1.0
  H  H56  1  0.52910000  0.35501000  0.83291000  1.0
  H  H57  1  0.47089000  0.85502000  0.16709000  1.0
  H  H58  1  0.47090000  0.35501000  0.33291000  1.0
  H  H59  1  0.52911000  0.85502000  0.66709000  1.0
  H  H60  1  0.31719000  0.38297000  0.85354000  1.0
  H  H61  1  0.68280000  0.88297000  0.14646000  1.0
  H  H62  1  0.68281000  0.38297000  0.35354000  1.0
  H  H63  1  0.31720000  0.88297000  0.64646000  1.0
  H  H64  1  0.02667000  0.05557000  0.86633000  1.0
  H  H65  1  0.97332000  0.55557000  0.13368000  1.0
  H  H66  1  0.97331000  0.05557000  0.36632000  1.0
  H  H67  1  0.02667000  0.55557000  0.63368000  1.0
  H  H68  1  0.12910000  0.02843000  0.79745000  1.0
  H  H69  1  0.87089000  0.52843000  0.20255000  1.0
  H  H70  1  0.87089000  0.02843000  0.29745000  1.0
  H  H71  1  0.12910000  0.52843000  0.70255000  1.0
  H  H72  1  0.89992000  0.01600000  0.80992000  1.0
  H  H73  1  0.10006000  0.51600000  0.19009000  1.0
  H  H74  1  0.10006000  0.01600000  0.30992000  1.0
  H  H75  1  0.89993000  0.51601000  0.69008000  1.0
  H  H76  1  0.89856000  0.06205000  0.63789000  1.0
  H  H77  1  0.10144000  0.56204000  0.36211000  1.0
  H  H78  1  0.10144000  0.06205000  0.13789000  1.0
  H  H79  1  0.89855000  0.56204000  0.86211000  1.0
  H  H80  1  0.84696000  0.01773000  0.70535000  1.0
  H  H81  1  0.15304000  0.51773000  0.29466000  1.0
  H  H82  1  0.15304000  0.01773000  0.20535000  1.0
  H  H83  1  0.84696000  0.51773000  0.79465000  1.0
  H  H84  1  0.06906000  0.03436000  0.68698000  1.0
  H  H85  1  0.93094000  0.53436000  0.31302000  1.0
  H  H86  1  0.93094000  0.03436000  0.18698000  1.0
  H  H87  1  0.06905000  0.53436000  0.81302000  1.0
  H  H88  1  0.78512000  0.28973000  0.65396000  1.0
  H  H89  1  0.21489000  0.78972000  0.34603000  1.0
  H  H90  1  0.21488000  0.28973000  0.15396000  1.0
  H  H91  1  0.78511000  0.78973000  0.84604000  1.0
  H  H92  1  0.93114000  0.33062000  0.70473000  1.0
  H  H93  1  0.06887000  0.83061000  0.29527000  1.0
  H  H94  1  0.06886000  0.33062000  0.20473000  1.0
  H  H95  1  0.93113000  0.83062000  0.79528000  1.0
  H  H96  1  0.70895000  0.31777000  0.72629000  1.0
  H  H97  1  0.29105000  0.81776000  0.27370000  1.0
  H  H98  1  0.29105000  0.31777000  0.22629000  1.0
  H  H99  1  0.70894000  0.81777000  0.77371000  1.0
  H  H100  1  0.94709000  0.28175000  0.88055000  1.0
  H  H101  1  0.05290000  0.78174000  0.11945000  1.0
  H  H102  1  0.05291000  0.28174000  0.38055000  1.0
  H  H103  1  0.94709000  0.78175000  0.61944000  1.0
  H  H104  1  0.79202000  0.31629000  0.82966000  1.0
  H  H105  1  0.20798000  0.81628000  0.17033000  1.0
  H  H106  1  0.20799000  0.31629000  0.32967000  1.0
  H  H107  1  0.79201000  0.81629000  0.67034000  1.0
  H  H108  1  0.02037000  0.32561000  0.81503000  1.0
  H  H109  1  0.97963000  0.82561000  0.18496000  1.0
  H  H110  1  0.97964000  0.32561000  0.31504000  1.0
  H  H111  1  0.02036000  0.82562000  0.68496000  1.0
  H  H112  1  0.51736000  0.20837000  0.84656000  1.0
  H  H113  1  0.48262000  0.70836000  0.15344000  1.0
  H  H114  1  0.48264000  0.20836000  0.34655000  1.0
  H  H115  1  0.51737000  0.70837000  0.65345000  1.0
  H  H116  1  0.51411000  0.05870000  0.76373000  1.0
  H  H117  1  0.48589000  0.55870000  0.23627000  1.0
  H  H118  1  0.48591000  0.05870000  0.26372000  1.0
  H  H119  1  0.51410000  0.55870000  0.73627000  1.0
  H  H120  1  0.52428000  0.10192000  0.69213000  1.0
  H  H121  1  0.47571000  0.60192000  0.30788000  1.0
  H  H122  1  0.47573000  0.10192000  0.19212000  1.0
  H  H123  1  0.52427000  0.60192000  0.80788000  1.0
  H  H124  1  0.31439000  0.08282000  0.72534000  1.0
  H  H125  1  0.68560000  0.58281000  0.27466000  1.0
  H  H126  1  0.68562000  0.08281000  0.22533000  1.0
  H  H127  1  0.31439000  0.58282000  0.77466000  1.0
  H  H128  1  0.39600000  0.25471000  0.76827000  1.0
  H  H129  1  0.60399000  0.75471000  0.23173000  1.0
  H  H130  1  0.60400000  0.25471000  0.26827000  1.0
  H  H131  1  0.39599000  0.75471000  0.73173000  1.0
  H  H132  1  0.24469000  0.20490000  0.72701000  1.0
  H  H133  1  0.75531000  0.70489000  0.27299000  1.0
  H  H134  1  0.75532000  0.20489000  0.22701000  1.0
  H  H135  1  0.24468000  0.70489000  0.77299000  1.0
  H  H136  1  0.45924000  0.22151000  0.69527000  1.0
  H  H137  1  0.54076000  0.72150000  0.30473000  1.0
  H  H138  1  0.54077000  0.22151000  0.19527000  1.0
  H  H139  1  0.45923000  0.72151000  0.80473000  1.0
  H  H140  1  0.84128000  0.00997000  0.03948000  1.0
  H  H141  1  0.15872000  0.50997000  0.96051000  1.0
  H  H142  1  0.15871000  0.00996000  0.53949000  1.0
  H  H143  1  0.84129000  0.50997000  0.46051000  1.0
  H  H144  1  0.80906000  0.91954000  0.89871000  1.0
  H  H145  1  0.19093000  0.41954000  0.10129000  1.0
  H  H146  1  0.19093000  0.91954000  0.39870000  1.0
  H  H147  1  0.80908000  0.41954000  0.60129000  1.0
  H  H148  1  0.81985000  0.84503000  0.94126000  1.0
  H  H149  1  0.18014000  0.34504000  0.05874000  1.0
  H  H150  1  0.18014000  0.84503000  0.44125000  1.0
  H  H151  1  0.81986000  0.34504000  0.55875000  1.0
  H  H152  1  0.01869000  0.88319000  0.91544000  1.0
  H  H153  1  0.98130000  0.38319000  0.08456000  1.0
  H  H154  1  0.98129000  0.88319000  0.41544000  1.0
  H  H155  1  0.01871000  0.38319000  0.58456000  1.0
  H  H156  1  0.95928000  0.92717000  0.08289000  1.0
  H  H157  1  0.04071000  0.42717000  0.91711000  1.0
  H  H158  1  0.04073000  0.92717000  0.58289000  1.0
  H  H159  1  0.95928000  0.42718000  0.41711000  1.0
  H  H160  1  0.10205000  0.88175000  0.03423000  1.0
  H  H161  1  0.89796000  0.38176000  0.96577000  1.0
  H  H162  1  0.89796000  0.88175000  0.53423000  1.0
  H  H163  1  0.10205000  0.38176000  0.46577000  1.0
  H  H164  1  0.88695000  0.85098000  0.05225000  1.0
  H  H165  1  0.11304000  0.35099000  0.94775000  1.0
  H  H166  1  0.11306000  0.85098000  0.55225000  1.0
  H  H167  1  0.88695000  0.35098000  0.44775000  1.0
  C  C168  1  0.46696000  0.27279000  0.97891000  1.0
  C  C169  1  0.53305000  0.77279000  0.02110000  1.0
  C  C170  1  0.53306000  0.27279000  0.47891000  1.0
  C  C171  1  0.46697000  0.77279000  0.52110000  1.0
  C  C172  1  0.52250000  0.34234000  0.98160000  1.0
  C  C173  1  0.47749000  0.84234000  0.01840000  1.0
  C  C174  1  0.47750000  0.34234000  0.48160000  1.0
  C  C175  1  0.52251000  0.84234000  0.51840000  1.0
  C  C176  1  0.57974000  0.36731000  0.03845000  1.0
  C  C177  1  0.42024000  0.86731000  0.96155000  1.0
  C  C178  1  0.42028000  0.36730000  0.53845000  1.0
  C  C179  1  0.57975000  0.86731000  0.46155000  1.0
  C  C180  1  0.59261000  0.32407000  0.09417000  1.0
  C  C181  1  0.40739000  0.82407000  0.90583000  1.0
  C  C182  1  0.40740000  0.32407000  0.59417000  1.0
  C  C183  1  0.59261000  0.82407000  0.40583000  1.0
  C  C184  1  0.62486000  0.43288000  0.04197000  1.0
  C  C185  1  0.37513000  0.93288000  0.95803000  1.0
  C  C186  1  0.37516000  0.43288000  0.54197000  1.0
  C  C187  1  0.62485000  0.93288000  0.45803000  1.0
  C  C188  1  0.68354000  0.46403000  0.10099000  1.0
  C  C189  1  0.31646000  0.96403000  0.89901000  1.0
  C  C190  1  0.31647000  0.46403000  0.60099000  1.0
  C  C191  1  0.68353000  0.96403000  0.39901000  1.0
  C  C192  1  0.61511000  0.47076000  0.98837000  1.0
  C  C193  1  0.38488000  0.97075000  0.01163000  1.0
  C  C194  1  0.38491000  0.47075000  0.48838000  1.0
  C  C195  1  0.61511000  0.97075000  0.51163000  1.0
  C  C196  1  0.68812000  0.53793000  0.99042000  1.0
  C  C197  1  0.31187000  0.03792000  0.00958000  1.0
  C  C198  1  0.31189000  0.53792000  0.49042000  1.0
  C  C199  1  0.68813000  0.03792000  0.50958000  1.0
  C  C200  1  0.55116000  0.44639000  0.93255000  1.0
  C  C201  1  0.44883000  0.94638000  0.06745000  1.0
  C  C202  1  0.44885000  0.44638000  0.43255000  1.0
  C  C203  1  0.55117000  0.94638000  0.56745000  1.0
  C  C204  1  0.52889000  0.48933000  0.87753000  1.0
  C  C205  1  0.47111000  0.98933000  0.12247000  1.0
  C  C206  1  0.47112000  0.48933000  0.37754000  1.0
  C  C207  1  0.52890000  0.98933000  0.62246000  1.0
  C  C208  1  0.50323000  0.38096000  0.92914000  1.0
  C  C209  1  0.49676000  0.88096000  0.07086000  1.0
  C  C210  1  0.49678000  0.38096000  0.42915000  1.0
  C  C211  1  0.50324000  0.88096000  0.57086000  1.0
  C  C212  1  0.42977000  0.35408000  0.87001000  1.0
  C  C213  1  0.57023000  0.85408000  0.12999000  1.0
  C  C214  1  0.57023000  0.35407000  0.37001000  1.0
  C  C215  1  0.42977000  0.85408000  0.62999000  1.0
  C  C216  1  0.04228000  0.17036000  0.88457000  1.0
  C  C217  1  0.95772000  0.67035000  0.11543000  1.0
  C  C218  1  0.95771000  0.17036000  0.38457000  1.0
  C  C219  1  0.04229000  0.67035000  0.61543000  1.0
  C  C220  1  0.96683000  0.17130000  0.82069000  1.0
  C  C221  1  0.03316000  0.67129000  0.17931000  1.0
  C  C222  1  0.03316000  0.17130000  0.32069000  1.0
  C  C223  1  0.96684000  0.67130000  0.67931000  1.0
  C  C224  1  0.96685000  0.11378000  0.78666000  1.0
  C  C225  1  0.03314000  0.61378000  0.21334000  1.0
  C  C226  1  0.03314000  0.11378000  0.28666000  1.0
  C  C227  1  0.96685000  0.61378000  0.71334000  1.0
  C  C228  1  0.00876000  0.05049000  0.81667000  1.0
  C  C229  1  0.99122000  0.55049000  0.18333000  1.0
  C  C230  1  0.99122000  0.05049000  0.31667000  1.0
  C  C231  1  0.00878000  0.55050000  0.68333000  1.0
  C  C232  1  0.92614000  0.11591000  0.72362000  1.0
  C  C233  1  0.07385000  0.61591000  0.27639000  1.0
  C  C234  1  0.07386000  0.11591000  0.22362000  1.0
  C  C235  1  0.92613000  0.61591000  0.77638000  1.0
  C  C236  1  0.93466000  0.05495000  0.68618000  1.0
  C  C237  1  0.06534000  0.55494000  0.31383000  1.0
  C  C238  1  0.06535000  0.05495000  0.18617000  1.0
  C  C239  1  0.93465000  0.55495000  0.81383000  1.0
  C  C240  1  0.87964000  0.17530000  0.69695000  1.0
  C  C241  1  0.12035000  0.67530000  0.30305000  1.0
  C  C242  1  0.12036000  0.17530000  0.19695000  1.0
  C  C243  1  0.87963000  0.67530000  0.80305000  1.0
  C  C244  1  0.83351000  0.17618000  0.62965000  1.0
  C  C245  1  0.16647000  0.67618000  0.37035000  1.0
  C  C246  1  0.16647000  0.17618000  0.12965000  1.0
  C  C247  1  0.83351000  0.67618000  0.87035000  1.0
  C  C248  1  0.87276000  0.23239000  0.73158000  1.0
  C  C249  1  0.12724000  0.73238000  0.26842000  1.0
  C  C250  1  0.12725000  0.23239000  0.23158000  1.0
  C  C251  1  0.87276000  0.73239000  0.76842000  1.0
  C  C252  1  0.82196000  0.29551000  0.70237000  1.0
  C  C253  1  0.17805000  0.79550000  0.29763000  1.0
  C  C254  1  0.17805000  0.29551000  0.20237000  1.0
  C  C255  1  0.82196000  0.79551000  0.79763000  1.0
  C  C256  1  0.91883000  0.23051000  0.79434000  1.0
  C  C257  1  0.08117000  0.73050000  0.20566000  1.0
  C  C258  1  0.08118000  0.23051000  0.29434000  1.0
  C  C259  1  0.91883000  0.73050000  0.70566000  1.0
  C  C260  1  0.92016000  0.29138000  0.83194000  1.0
  C  C261  1  0.07984000  0.79138000  0.16805000  1.0
  C  C262  1  0.07984000  0.29138000  0.33194000  1.0
  C  C263  1  0.92016000  0.79139000  0.66806000  1.0
  C  C264  1  0.51907000  0.15986000  0.82629000  1.0
  C  C265  1  0.48094000  0.65986000  0.17371000  1.0
  C  C266  1  0.48095000  0.15986000  0.32629000  1.0
  C  C267  1  0.51906000  0.65986000  0.67371000  1.0
  C  C268  1  0.45217000  0.09609000  0.73553000  1.0
  C  C269  1  0.54783000  0.59609000  0.26447000  1.0
  C  C270  1  0.54785000  0.09609000  0.23553000  1.0
  C  C271  1  0.45216000  0.59609000  0.76447000  1.0
  C  C272  1  0.38524000  0.21267000  0.73799000  1.0
  C  C273  1  0.61476000  0.71267000  0.26201000  1.0
  C  C274  1  0.61477000  0.21267000  0.23799000  1.0
  C  C275  1  0.38523000  0.71267000  0.76201000  1.0
  C  C276  1  0.83422000  0.98867000  0.99326000  1.0
  C  C277  1  0.16578000  0.48868000  0.00674000  1.0
  C  C278  1  0.16577000  0.98867000  0.49326000  1.0
  C  C279  1  0.83423000  0.48868000  0.50674000  1.0
  C  C280  1  0.88383000  0.89165000  0.93260000  1.0
  C  C281  1  0.11616000  0.39165000  0.06740000  1.0
  C  C282  1  0.11616000  0.89165000  0.43260000  1.0
  C  C283  1  0.88385000  0.39165000  0.56740000  1.0
  C  C284  1  0.96336000  0.89490000  0.04302000  1.0
  C  C285  1  0.03664000  0.39490000  0.95698000  1.0
  C  C286  1  0.03664000  0.89489000  0.54302000  1.0
  C  C287  1  0.96337000  0.39490000  0.45698000  1.0
  N  N288  1  0.88971000  0.92776000  0.98987000  1.0
  N  N289  1  0.11028000  0.42776000  0.01013000  1.0
  N  N290  1  0.11028000  0.92775000  0.48987000  1.0
  N  N291  1  0.88972000  0.42776000  0.51014000  1.0
  N  N292  1  0.45676000  0.15650000  0.76905000  1.0
  N  N293  1  0.54324000  0.65650000  0.23095000  1.0
  N  N294  1  0.54325000  0.15650000  0.26904000  1.0
  N  N295  1  0.45676000  0.65650000  0.73096000  1.0
  O  O296  1  0.57567000  0.23140000  0.95910000  1.0
  O  O297  1  0.42435000  0.73140000  0.04091000  1.0
  O  O298  1  0.42434000  0.23140000  0.45910000  1.0
  O  O299  1  0.57569000  0.73141000  0.54091000  1.0
  O  O300  1  0.71938000  0.13055000  0.06402000  1.0
  O  O301  1  0.28062000  0.63056000  0.93598000  1.0
  O  O302  1  0.28063000  0.13056000  0.56402000  1.0
  O  O303  1  0.71937000  0.63055000  0.43598000  1.0
  O  O304  1  0.30957000  0.26308000  0.99806000  1.0
  O  O305  1  0.69043000  0.76308000  0.00195000  1.0
  O  O306  1  0.69044000  0.26307000  0.49806000  1.0
  O  O307  1  0.30958000  0.76307000  0.50194000  1.0
  O  O308  1  0.84378000  0.54749000  0.97183000  1.0
  O  O309  1  0.15621000  0.04749000  0.02817000  1.0
  O  O310  1  0.15623000  0.54749000  0.47183000  1.0
  O  O311  1  0.84378000  0.04749000  0.52818000  1.0
  O  O312  1  0.59453000  0.58484000  0.01174000  1.0
  O  O313  1  0.40546000  0.08483000  0.98826000  1.0
  O  O314  1  0.40548000  0.58483000  0.51174000  1.0
  O  O315  1  0.59455000  0.08483000  0.48825000  1.0
  O  O316  1  0.57737000  0.11212000  0.85554000  1.0
  O  O317  1  0.42261000  0.61212000  0.14446000  1.0
  O  O318  1  0.42264000  0.11211000  0.35554000  1.0
  O  O319  1  0.57737000  0.61212000  0.64446000  1.0
  O  O320  1  0.77812000  0.02010000  0.94778000  1.0
  O  O321  1  0.22185000  0.52010000  0.05222000  1.0
  O  O322  1  0.22184000  0.02010000  0.44778000  1.0
  O  O323  1  0.77816000  0.52010000  0.55222000  1.0
  O  O324  1  0.20703000  0.17667000  0.88951000  1.0
  O  O325  1  0.79297000  0.67666000  0.11049000  1.0
  O  O326  1  0.79296000  0.17668000  0.38950000  1.0
  O  O327  1  0.20704000  0.67667000  0.61049000  1.0
  O  O328  1  0.67447000  0.16885000  0.61327000  1.0
  O  O329  1  0.32551000  0.66884000  0.38673000  1.0
  O  O330  1  0.32551000  0.16885000  0.11326000  1.0
  O  O331  1  0.67447000  0.66885000  0.88673000  1.0
  O  O332  1  0.96165000  0.18329000  0.59102000  1.0
  O  O333  1  0.03832000  0.68330000  0.40898000  1.0
  O  O334  1  0.03833000  0.18330000  0.09102000  1.0
  O  O335  1  0.96166000  0.68330000  0.90898000  1.0
  O  O336  1  0.94468000  0.16368000  0.93309000  1.0
  O  O337  1  0.05533000  0.66369000  0.06691000  1.0
  O  O338  1  0.05530000  0.16368000  0.43308000  1.0
  O  O339  1  0.94469000  0.66368000  0.56691000  1.0
