# generated using pymatgen
data_CdH4C8O5
_symmetry_space_group_name_H-M   'P 1'
_cell_length_a   19.89868339
_cell_length_b   19.89840000
_cell_length_c   19.89860000
_cell_angle_alpha   109.47100000
_cell_angle_beta   109.47198421
_cell_angle_gamma   109.47116980
_symmetry_Int_Tables_number   1
_chemical_formula_structural   CdH4C8O5
_chemical_formula_sum   'Cd24 H96 C192 O120'
_cell_volume   6065.13528662
_cell_formula_units_Z   24
loop_
 _symmetry_equiv_pos_site_id
 _symmetry_equiv_pos_as_xyz
  1  'x, y, z'
loop_
 _atom_site_type_symbol
 _atom_site_label
 _atom_site_symmetry_multiplicity
 _atom_site_fract_x
 _atom_site_fract_y
 _atom_site_fract_z
 _atom_site_occupancy
  Cd  Cd0  1  0.12255000  0.19337000  0.55401000  1.0
  Cd  Cd1  1  0.19337000  0.55401000  0.12255000  1.0
  Cd  Cd2  1  0.55401000  0.12255000  0.19337000  1.0
  Cd  Cd3  1  0.92918000  0.86064000  0.30664000  1.0
  Cd  Cd4  1  0.06854000  0.94599000  0.63936000  1.0
  Cd  Cd5  1  0.94599000  0.63936000  0.06854000  1.0
  Cd  Cd6  1  0.43146000  0.57082000  0.37746000  1.0
  Cd  Cd7  1  0.30663000  0.92918000  0.86064000  1.0
  Cd  Cd8  1  0.57082000  0.37745000  0.43146000  1.0
  Cd  Cd9  1  0.86064000  0.30663000  0.92918000  1.0
  Cd  Cd10  1  0.37745000  0.43145000  0.57082000  1.0
  Cd  Cd11  1  0.63936000  0.06854000  0.94599000  1.0
  Cd  Cd12  1  0.87745000  0.80663000  0.44599000  1.0
  Cd  Cd13  1  0.80663000  0.44599000  0.87745000  1.0
  Cd  Cd14  1  0.44600000  0.87746000  0.80664000  1.0
  Cd  Cd15  1  0.07082000  0.13936000  0.69337000  1.0
  Cd  Cd16  1  0.93146000  0.05401000  0.36064000  1.0
  Cd  Cd17  1  0.05401000  0.36064000  0.93146000  1.0
  Cd  Cd18  1  0.56854000  0.42918000  0.62254000  1.0
  Cd  Cd19  1  0.69337000  0.07082000  0.13937000  1.0
  Cd  Cd20  1  0.42918000  0.62255000  0.56854000  1.0
  Cd  Cd21  1  0.13936000  0.69337000  0.07082000  1.0
  Cd  Cd22  1  0.62255000  0.56855000  0.42918000  1.0
  Cd  Cd23  1  0.36064000  0.93146000  0.05401000  1.0
  H  H24  1  0.41690000  0.07796000  0.63095000  1.0
  H  H25  1  0.07796000  0.63095000  0.41690000  1.0
  H  H26  1  0.63095000  0.41690000  0.07797000  1.0
  H  H27  1  0.33894000  0.05299000  0.42204000  1.0
  H  H28  1  0.28595000  0.86905000  0.44701000  1.0
  H  H29  1  0.86905000  0.44701000  0.28594000  1.0
  H  H30  1  0.21405000  0.16106000  0.08310000  1.0
  H  H31  1  0.42204000  0.33894000  0.05299000  1.0
  H  H32  1  0.16106000  0.08310000  0.21405000  1.0
  H  H33  1  0.05299000  0.42204000  0.33894000  1.0
  H  H34  1  0.08310000  0.21405000  0.16106000  1.0
  H  H35  1  0.44701000  0.28595000  0.86905000  1.0
  H  H36  1  0.58310000  0.92204000  0.36905000  1.0
  H  H37  1  0.92204000  0.36905000  0.58310000  1.0
  H  H38  1  0.36905000  0.58310000  0.92203000  1.0
  H  H39  1  0.66106000  0.94701000  0.57796000  1.0
  H  H40  1  0.71405000  0.13095000  0.55299000  1.0
  H  H41  1  0.13095000  0.55299000  0.71406000  1.0
  H  H42  1  0.78595000  0.83894000  0.91690000  1.0
  H  H43  1  0.57796000  0.66106000  0.94701000  1.0
  H  H44  1  0.83894000  0.91690000  0.78595000  1.0
  H  H45  1  0.94701000  0.57796000  0.66106000  1.0
  H  H46  1  0.91690000  0.78595000  0.83894000  1.0
  H  H47  1  0.55299000  0.71405000  0.13095000  1.0
  H  H48  1  0.47834000  0.21349000  0.63521000  1.0
  H  H49  1  0.21348000  0.63520000  0.47833000  1.0
  H  H50  1  0.63520000  0.47833000  0.21348000  1.0
  H  H51  1  0.26485000  0.92172000  0.28651000  1.0
  H  H52  1  0.34313000  0.86479000  0.57828000  1.0
  H  H53  1  0.86480000  0.57828000  0.34314000  1.0
  H  H54  1  0.15687000  0.23515000  0.02167000  1.0
  H  H55  1  0.28652000  0.26486000  0.92172000  1.0
  H  H56  1  0.23515000  0.02167000  0.15687000  1.0
  H  H57  1  0.92172000  0.28652000  0.26485000  1.0
  H  H58  1  0.02166000  0.15686000  0.23514000  1.0
  H  H59  1  0.57828000  0.34313000  0.86480000  1.0
  H  H60  1  0.52166000  0.78652000  0.36479000  1.0
  H  H61  1  0.78652000  0.36480000  0.52167000  1.0
  H  H62  1  0.36480000  0.52167000  0.78652000  1.0
  H  H63  1  0.73514000  0.07827000  0.71348000  1.0
  H  H64  1  0.65686000  0.13520000  0.42171000  1.0
  H  H65  1  0.13520000  0.42172000  0.65686000  1.0
  H  H66  1  0.84313000  0.76485000  0.97833000  1.0
  H  H67  1  0.71348000  0.73514000  0.07828000  1.0
  H  H68  1  0.76485000  0.97833000  0.84313000  1.0
  H  H69  1  0.07828000  0.71348000  0.73515000  1.0
  H  H70  1  0.97834000  0.84314000  0.76485000  1.0
  H  H71  1  0.42172000  0.65687000  0.13520000  1.0
  H  H72  1  0.28544000  0.02921000  0.63293000  1.0
  H  H73  1  0.02920000  0.63293000  0.28543000  1.0
  H  H74  1  0.63293000  0.28544000  0.02921000  1.0
  H  H75  1  0.25624000  0.10373000  0.47080000  1.0
  H  H76  1  0.15251000  0.86707000  0.39628000  1.0
  H  H77  1  0.86707000  0.39627000  0.15250000  1.0
  H  H78  1  0.34749000  0.24376000  0.21456000  1.0
  H  H79  1  0.47080000  0.25624000  0.10373000  1.0
  H  H80  1  0.24377000  0.21457000  0.34750000  1.0
  H  H81  1  0.10373000  0.47080000  0.25624000  1.0
  H  H82  1  0.21456000  0.34749000  0.24376000  1.0
  H  H83  1  0.39627000  0.15251000  0.86707000  1.0
  H  H84  1  0.71456000  0.97079000  0.36707000  1.0
  H  H85  1  0.97080000  0.36707000  0.71457000  1.0
  H  H86  1  0.36707000  0.71456000  0.97079000  1.0
  H  H87  1  0.74377000  0.89628000  0.52921000  1.0
  H  H88  1  0.84749000  0.13293000  0.60372000  1.0
  H  H89  1  0.13293000  0.60373000  0.84750000  1.0
  H  H90  1  0.65251000  0.75624000  0.78544000  1.0
  H  H91  1  0.52920000  0.74376000  0.89627000  1.0
  H  H92  1  0.75623000  0.78543000  0.65250000  1.0
  H  H93  1  0.89627000  0.52920000  0.74376000  1.0
  H  H94  1  0.78544000  0.65251000  0.75624000  1.0
  H  H95  1  0.60373000  0.84750000  0.13293000  1.0
  H  H96  1  0.30979000  0.30585000  0.64286000  1.0
  H  H97  1  0.30585000  0.64286000  0.30979000  1.0
  H  H98  1  0.64286000  0.30979000  0.30585000  1.0
  H  H99  1  0.00394000  0.83702000  0.19415000  1.0
  H  H100  1  0.16692000  0.85713000  0.66298000  1.0
  H  H101  1  0.85714000  0.66299000  0.16693000  1.0
  H  H102  1  0.33308000  0.49607000  0.19022000  1.0
  H  H103  1  0.19415000  0.00394000  0.83701000  1.0
  H  H104  1  0.49606000  0.19021000  0.33307000  1.0
  H  H105  1  0.83701000  0.19415000  0.00394000  1.0
  H  H106  1  0.19021000  0.33307000  0.49606000  1.0
  H  H107  1  0.66299000  0.16693000  0.85714000  1.0
  H  H108  1  0.69021000  0.69415000  0.35714000  1.0
  H  H109  1  0.69415000  0.35714000  0.69021000  1.0
  H  H110  1  0.35714000  0.69021000  0.69415000  1.0
  H  H111  1  0.99606000  0.16298000  0.80584000  1.0
  H  H112  1  0.83308000  0.14287000  0.33702000  1.0
  H  H113  1  0.14286000  0.33701000  0.83307000  1.0
  H  H114  1  0.66692000  0.50393000  0.80978000  1.0
  H  H115  1  0.80585000  0.99606000  0.16299000  1.0
  H  H116  1  0.50394000  0.80979000  0.66693000  1.0
  H  H117  1  0.16299000  0.80585000  0.99606000  1.0
  H  H118  1  0.80979000  0.66693000  0.50394000  1.0
  H  H119  1  0.33701000  0.83307000  0.14286000  1.0
  C  C120  1  0.30605000  0.20770000  0.63831000  1.0
  C  C121  1  0.20770000  0.63832000  0.30605000  1.0
  C  C122  1  0.63831000  0.30605000  0.20769000  1.0
  C  C123  1  0.09835000  0.93061000  0.29230000  1.0
  C  C124  1  0.16774000  0.86169000  0.56939000  1.0
  C  C125  1  0.86169000  0.56939000  0.16774000  1.0
  C  C126  1  0.33226000  0.40164000  0.19395000  1.0
  C  C127  1  0.29230000  0.09835000  0.93061000  1.0
  C  C128  1  0.40165000  0.19396000  0.33227000  1.0
  C  C129  1  0.93062000  0.29231000  0.09836000  1.0
  C  C130  1  0.19395000  0.33226000  0.40165000  1.0
  C  C131  1  0.56938000  0.16773000  0.86169000  1.0
  C  C132  1  0.69395000  0.79230000  0.36169000  1.0
  C  C133  1  0.79230000  0.36168000  0.69395000  1.0
  C  C134  1  0.36169000  0.69395000  0.79231000  1.0
  C  C135  1  0.90165000  0.06939000  0.70770000  1.0
  C  C136  1  0.83226000  0.13831000  0.43061000  1.0
  C  C137  1  0.13831000  0.43061000  0.83226000  1.0
  C  C138  1  0.66774000  0.59836000  0.80605000  1.0
  C  C139  1  0.70770000  0.90165000  0.06939000  1.0
  C  C140  1  0.59835000  0.80605000  0.66773000  1.0
  C  C141  1  0.06938000  0.70769000  0.90164000  1.0
  C  C142  1  0.80605000  0.66774000  0.59835000  1.0
  C  C143  1  0.43062000  0.83227000  0.13831000  1.0
  C  C144  1  0.38145000  0.23621000  0.63803000  1.0
  C  C145  1  0.23621000  0.63803000  0.38145000  1.0
  C  C146  1  0.63803000  0.38145000  0.23621000  1.0
  C  C147  1  0.14524000  0.90182000  0.26379000  1.0
  C  C148  1  0.24342000  0.86197000  0.59818000  1.0
  C  C149  1  0.86196000  0.59817000  0.24341000  1.0
  C  C150  1  0.25658000  0.35476000  0.11855000  1.0
  C  C151  1  0.26379000  0.14524000  0.90182000  1.0
  C  C152  1  0.35476000  0.11855000  0.25658000  1.0
  C  C153  1  0.90182000  0.26379000  0.14523000  1.0
  C  C154  1  0.11855000  0.25658000  0.35476000  1.0
  C  C155  1  0.59818000  0.24342000  0.86197000  1.0
  C  C156  1  0.61855000  0.76379000  0.36197000  1.0
  C  C157  1  0.76379000  0.36197000  0.61855000  1.0
  C  C158  1  0.36196000  0.61854000  0.76378000  1.0
  C  C159  1  0.85476000  0.09818000  0.73621000  1.0
  C  C160  1  0.75658000  0.13803000  0.40182000  1.0
  C  C161  1  0.13804000  0.40183000  0.75659000  1.0
  C  C162  1  0.74341000  0.64523000  0.88144000  1.0
  C  C163  1  0.73621000  0.85476000  0.09818000  1.0
  C  C164  1  0.64524000  0.88145000  0.74342000  1.0
  C  C165  1  0.09818000  0.73621000  0.85477000  1.0
  C  C166  1  0.88145000  0.74341000  0.64524000  1.0
  C  C167  1  0.40182000  0.75658000  0.13803000  1.0
  C  C168  1  0.38655000  0.11458000  0.63306000  1.0
  C  C169  1  0.11457000  0.63305000  0.38654000  1.0
  C  C170  1  0.63306000  0.38655000  0.11458000  1.0
  C  C171  1  0.27197000  0.01848000  0.38542000  1.0
  C  C172  1  0.25349000  0.86694000  0.48152000  1.0
  C  C173  1  0.86694000  0.48151000  0.25349000  1.0
  C  C174  1  0.24651000  0.22803000  0.11346000  1.0
  C  C175  1  0.38543000  0.27198000  0.01849000  1.0
  C  C176  1  0.22803000  0.11346000  0.24651000  1.0
  C  C177  1  0.01848000  0.38542000  0.27197000  1.0
  C  C178  1  0.11345000  0.24650000  0.22803000  1.0
  C  C179  1  0.48152000  0.25349000  0.86695000  1.0
  C  C180  1  0.61345000  0.88542000  0.36694000  1.0
  C  C181  1  0.88543000  0.36695000  0.61346000  1.0
  C  C182  1  0.36695000  0.61346000  0.88543000  1.0
  C  C183  1  0.72803000  0.98152000  0.61458000  1.0
  C  C184  1  0.74651000  0.13306000  0.51848000  1.0
  C  C185  1  0.13305000  0.51848000  0.74650000  1.0
  C  C186  1  0.75349000  0.77197000  0.88655000  1.0
  C  C187  1  0.61457000  0.72802000  0.98151000  1.0
  C  C188  1  0.77197000  0.88654000  0.75349000  1.0
  C  C189  1  0.98152000  0.61458000  0.72803000  1.0
  C  C190  1  0.88655000  0.75349000  0.77197000  1.0
  C  C191  1  0.51848000  0.74651000  0.13305000  1.0
  C  C192  1  0.42065000  0.18931000  0.63549000  1.0
  C  C193  1  0.18932000  0.63550000  0.42065000  1.0
  C  C194  1  0.63549000  0.42065000  0.18932000  1.0
  C  C195  1  0.23134000  0.94618000  0.31069000  1.0
  C  C196  1  0.28516000  0.86451000  0.55383000  1.0
  C  C197  1  0.86451000  0.55383000  0.28516000  1.0
  C  C198  1  0.21484000  0.26866000  0.07935000  1.0
  C  C199  1  0.31068000  0.23133000  0.94617000  1.0
  C  C200  1  0.26867000  0.07935000  0.21485000  1.0
  C  C201  1  0.94618000  0.31069000  0.23134000  1.0
  C  C202  1  0.07935000  0.21484000  0.26867000  1.0
  C  C203  1  0.55383000  0.28516000  0.86451000  1.0
  C  C204  1  0.57935000  0.81068000  0.36451000  1.0
  C  C205  1  0.81068000  0.36450000  0.57935000  1.0
  C  C206  1  0.36451000  0.57935000  0.81068000  1.0
  C  C207  1  0.76867000  0.05383000  0.68932000  1.0
  C  C208  1  0.71484000  0.13549000  0.44617000  1.0
  C  C209  1  0.13549000  0.44617000  0.71484000  1.0
  C  C210  1  0.78516000  0.73134000  0.92065000  1.0
  C  C211  1  0.68932000  0.76867000  0.05383000  1.0
  C  C212  1  0.73133000  0.92065000  0.78516000  1.0
  C  C213  1  0.05382000  0.68931000  0.76866000  1.0
  C  C214  1  0.92065000  0.78516000  0.73133000  1.0
  C  C215  1  0.44617000  0.71484000  0.13549000  1.0
  C  C216  1  0.27134000  0.13195000  0.63644000  1.0
  C  C217  1  0.13194000  0.63643000  0.27133000  1.0
  C  C218  1  0.63644000  0.27134000  0.13195000  1.0
  C  C219  1  0.13939000  0.00449000  0.36805000  1.0
  C  C220  1  0.13490000  0.86356000  0.49551000  1.0
  C  C221  1  0.86356000  0.49550000  0.13490000  1.0
  C  C222  1  0.36510000  0.36061000  0.22866000  1.0
  C  C223  1  0.36806000  0.13940000  0.00450000  1.0
  C  C224  1  0.36061000  0.22867000  0.36510000  1.0
  C  C225  1  0.00449000  0.36805000  0.13939000  1.0
  C  C226  1  0.22866000  0.36509000  0.36060000  1.0
  C  C227  1  0.49551000  0.13490000  0.86357000  1.0
  C  C228  1  0.72866000  0.86805000  0.36356000  1.0
  C  C229  1  0.86806000  0.36357000  0.72867000  1.0
  C  C230  1  0.36356000  0.72866000  0.86805000  1.0
  C  C231  1  0.86061000  0.99551000  0.63195000  1.0
  C  C232  1  0.86510000  0.13644000  0.50449000  1.0
  C  C233  1  0.13644000  0.50450000  0.86510000  1.0
  C  C234  1  0.63490000  0.63939000  0.77134000  1.0
  C  C235  1  0.63194000  0.86060000  0.99550000  1.0
  C  C236  1  0.63939000  0.77133000  0.63490000  1.0
  C  C237  1  0.99551000  0.63195000  0.86061000  1.0
  C  C238  1  0.77134000  0.63490000  0.63940000  1.0
  C  C239  1  0.50449000  0.86510000  0.13643000  1.0
  C  C240  1  0.31297000  0.08707000  0.63392000  1.0
  C  C241  1  0.08707000  0.63392000  0.31296000  1.0
  C  C242  1  0.63392000  0.31297000  0.08708000  1.0
  C  C243  1  0.22590000  0.04685000  0.41294000  1.0
  C  C244  1  0.17905000  0.86609000  0.45316000  1.0
  C  C245  1  0.86608000  0.45315000  0.17904000  1.0
  C  C246  1  0.32095000  0.27410000  0.18703000  1.0
  C  C247  1  0.41293000  0.22589000  0.04685000  1.0
  C  C248  1  0.27410000  0.18703000  0.32095000  1.0
  C  C249  1  0.04685000  0.41293000  0.22590000  1.0
  C  C250  1  0.18704000  0.32096000  0.27411000  1.0
  C  C251  1  0.45315000  0.17905000  0.86608000  1.0
  C  C252  1  0.68703000  0.91293000  0.36608000  1.0
  C  C253  1  0.91293000  0.36608000  0.68704000  1.0
  C  C254  1  0.36608000  0.68703000  0.91292000  1.0
  C  C255  1  0.77410000  0.95315000  0.58706000  1.0
  C  C256  1  0.82095000  0.13391000  0.54684000  1.0
  C  C257  1  0.13392000  0.54685000  0.82096000  1.0
  C  C258  1  0.67905000  0.72590000  0.81297000  1.0
  C  C259  1  0.58707000  0.77410000  0.95315000  1.0
  C  C260  1  0.72590000  0.81297000  0.67905000  1.0
  C  C261  1  0.95315000  0.58707000  0.77410000  1.0
  C  C262  1  0.81296000  0.67904000  0.72589000  1.0
  C  C263  1  0.54685000  0.82095000  0.13392000  1.0
  C  C264  1  0.41919000  0.31485000  0.63845000  1.0
  C  C265  1  0.31485000  0.63845000  0.41918000  1.0
  C  C266  1  0.63845000  0.41919000  0.31485000  1.0
  C  C267  1  0.10434000  0.82360000  0.18515000  1.0
  C  C268  1  0.28074000  0.86155000  0.67640000  1.0
  C  C269  1  0.86155000  0.67640000  0.28073000  1.0
  C  C270  1  0.21926000  0.39567000  0.08081000  1.0
  C  C271  1  0.18515000  0.10433000  0.82359000  1.0
  C  C272  1  0.39567000  0.08082000  0.21926000  1.0
  C  C273  1  0.82360000  0.18515000  0.10434000  1.0
  C  C274  1  0.08081000  0.21926000  0.39566000  1.0
  C  C275  1  0.67641000  0.28074000  0.86156000  1.0
  C  C276  1  0.58082000  0.68516000  0.36156000  1.0
  C  C277  1  0.68515000  0.36155000  0.58082000  1.0
  C  C278  1  0.36155000  0.58081000  0.68515000  1.0
  C  C279  1  0.89566000  0.17640000  0.81485000  1.0
  C  C280  1  0.71926000  0.13845000  0.32360000  1.0
  C  C281  1  0.13845000  0.32360000  0.71927000  1.0
  C  C282  1  0.78074000  0.60434000  0.91919000  1.0
  C  C283  1  0.81485000  0.89567000  0.17641000  1.0
  C  C284  1  0.60434000  0.91919000  0.78075000  1.0
  C  C285  1  0.17641000  0.81486000  0.89567000  1.0
  C  C286  1  0.91919000  0.78074000  0.60434000  1.0
  C  C287  1  0.32359000  0.71926000  0.13844000  1.0
  C  C288  1  0.19410000  0.09636000  0.63924000  1.0
  C  C289  1  0.09636000  0.63924000  0.19410000  1.0
  C  C290  1  0.63924000  0.19410000  0.09636000  1.0
  C  C291  1  0.09774000  0.04288000  0.40364000  1.0
  C  C292  1  0.05486000  0.86076000  0.45712000  1.0
  C  C293  1  0.86076000  0.45712000  0.05486000  1.0
  C  C294  1  0.44514000  0.40226000  0.30590000  1.0
  C  C295  1  0.40364000  0.09774000  0.04288000  1.0
  C  C296  1  0.40226000  0.30590000  0.44514000  1.0
  C  C297  1  0.04288000  0.40364000  0.09774000  1.0
  C  C298  1  0.30590000  0.44514000  0.40226000  1.0
  C  C299  1  0.45712000  0.05486000  0.86076000  1.0
  C  C300  1  0.80590000  0.90364000  0.36076000  1.0
  C  C301  1  0.90364000  0.36076000  0.80590000  1.0
  C  C302  1  0.36076000  0.80590000  0.90364000  1.0
  C  C303  1  0.90226000  0.95712000  0.59636000  1.0
  C  C304  1  0.94514000  0.13924000  0.54288000  1.0
  C  C305  1  0.13924000  0.54288000  0.94514000  1.0
  C  C306  1  0.55486000  0.59774000  0.69410000  1.0
  C  C307  1  0.59636000  0.90226000  0.95712000  1.0
  C  C308  1  0.59774000  0.69410000  0.55486000  1.0
  C  C309  1  0.95712000  0.59636000  0.90226000  1.0
  C  C310  1  0.69410000  0.55486000  0.59774000  1.0
  C  C311  1  0.54288000  0.94514000  0.13924000  1.0
  O  O312  1  0.18274000  0.03959000  0.65698000  1.0
  O  O313  1  0.03959000  0.65698000  0.18274000  1.0
  O  O314  1  0.65698000  0.18274000  0.03959000  1.0
  O  O315  1  0.14315000  0.11739000  0.46041000  1.0
  O  O316  1  0.02576000  0.84302000  0.38261000  1.0
  O  O317  1  0.84301000  0.38260000  0.02575000  1.0
  O  O318  1  0.47424000  0.35685000  0.31725000  1.0
  O  O319  1  0.46040000  0.14314000  0.11738000  1.0
  O  O320  1  0.35685000  0.31726000  0.47424000  1.0
  O  O321  1  0.11739000  0.46040000  0.14315000  1.0
  O  O322  1  0.31726000  0.47424000  0.35686000  1.0
  O  O323  1  0.38261000  0.02576000  0.84302000  1.0
  O  O324  1  0.81726000  0.96041000  0.34302000  1.0
  O  O325  1  0.96041000  0.34302000  0.81726000  1.0
  O  O326  1  0.34302000  0.81726000  0.96041000  1.0
  O  O327  1  0.85685000  0.88261000  0.53959000  1.0
  O  O328  1  0.97424000  0.15698000  0.61739000  1.0
  O  O329  1  0.15699000  0.61740000  0.97425000  1.0
  O  O330  1  0.52576000  0.64315000  0.68275000  1.0
  O  O331  1  0.53960000  0.85686000  0.88262000  1.0
  O  O332  1  0.64315000  0.68274000  0.52576000  1.0
  O  O333  1  0.88261000  0.53959000  0.85685000  1.0
  O  O334  1  0.68274000  0.52576000  0.64315000  1.0
  O  O335  1  0.61739000  0.97424000  0.15698000  1.0
  O  O336  1  0.14271000  0.12273000  0.62419000  1.0
  O  O337  1  0.12273000  0.62419000  0.14271000  1.0
  O  O338  1  0.62419000  0.14271000  0.12273000  1.0
  O  O339  1  0.01998000  0.00146000  0.37727000  1.0
  O  O340  1  0.01852000  0.87581000  0.49854000  1.0
  O  O341  1  0.87581000  0.49854000  0.01852000  1.0
  O  O342  1  0.48148000  0.48002000  0.35729000  1.0
  O  O343  1  0.37727000  0.01998000  0.00146000  1.0
  O  O344  1  0.48002000  0.35730000  0.48148000  1.0
  O  O345  1  0.00146000  0.37727000  0.01998000  1.0
  O  O346  1  0.35729000  0.48148000  0.48002000  1.0
  O  O347  1  0.49854000  0.01853000  0.87582000  1.0
  O  O348  1  0.85729000  0.87727000  0.37581000  1.0
  O  O349  1  0.87727000  0.37581000  0.85729000  1.0
  O  O350  1  0.37581000  0.85729000  0.87727000  1.0
  O  O351  1  0.98002000  0.99854000  0.62273000  1.0
  O  O352  1  0.98148000  0.12419000  0.50146000  1.0
  O  O353  1  0.12419000  0.50146000  0.98148000  1.0
  O  O354  1  0.51852000  0.51998000  0.64271000  1.0
  O  O355  1  0.62273000  0.98002000  0.99854000  1.0
  O  O356  1  0.51998000  0.64271000  0.51852000  1.0
  O  O357  1  0.99854000  0.62273000  0.98002000  1.0
  O  O358  1  0.64271000  0.51852000  0.51998000  1.0
  O  O359  1  0.50146000  0.98148000  0.12418000  1.0
  O  O360  1  0.27002000  0.25487000  0.64183000  1.0
  O  O361  1  0.25488000  0.64184000  0.27003000  1.0
  O  O362  1  0.64183000  0.27002000  0.25487000  1.0
  O  O363  1  0.01515000  0.88696000  0.24513000  1.0
  O  O364  1  0.12819000  0.85816000  0.61304000  1.0
  O  O365  1  0.85817000  0.61304000  0.12820000  1.0
  O  O366  1  0.37181000  0.48485000  0.22998000  1.0
  O  O367  1  0.24512000  0.01514000  0.88695000  1.0
  O  O368  1  0.48485000  0.22997000  0.37181000  1.0
  O  O369  1  0.88696000  0.24513000  0.01515000  1.0
  O  O370  1  0.22998000  0.37181000  0.48485000  1.0
  O  O371  1  0.61304000  0.12819000  0.85817000  1.0
  O  O372  1  0.72998000  0.74513000  0.35817000  1.0
  O  O373  1  0.74512000  0.35816000  0.72997000  1.0
  O  O374  1  0.35817000  0.72998000  0.74513000  1.0
  O  O375  1  0.98485000  0.11304000  0.75487000  1.0
  O  O376  1  0.87181000  0.14184000  0.38696000  1.0
  O  O377  1  0.14183000  0.38696000  0.87181000  1.0
  O  O378  1  0.62819000  0.51515000  0.77002000  1.0
  O  O379  1  0.75488000  0.98486000  0.11305000  1.0
  O  O380  1  0.51515000  0.77003000  0.62819000  1.0
  O  O381  1  0.11304000  0.75487000  0.98485000  1.0
  O  O382  1  0.77002000  0.62819000  0.51515000  1.0
  O  O383  1  0.38696000  0.87181000  0.14183000  1.0
  O  O384  1  0.38141000  0.35698000  0.64085000  1.0
  O  O385  1  0.35699000  0.64086000  0.38142000  1.0
  O  O386  1  0.64085000  0.38141000  0.35698000  1.0
  O  O387  1  0.02443000  0.78387000  0.14302000  1.0
  O  O388  1  0.24056000  0.85915000  0.71613000  1.0
  O  O389  1  0.85915000  0.71614000  0.24056000  1.0
  O  O390  1  0.25944000  0.47557000  0.11859000  1.0
  O  O391  1  0.14301000  0.02442000  0.78386000  1.0
  O  O392  1  0.47557000  0.11858000  0.25943000  1.0
  O  O393  1  0.78387000  0.14302000  0.02443000  1.0
  O  O394  1  0.11859000  0.25944000  0.47558000  1.0
  O  O395  1  0.71613000  0.24056000  0.85914000  1.0
  O  O396  1  0.61859000  0.64302000  0.35915000  1.0
  O  O397  1  0.64301000  0.35914000  0.61858000  1.0
  O  O398  1  0.35915000  0.61859000  0.64302000  1.0
  O  O399  1  0.97557000  0.21613000  0.85698000  1.0
  O  O400  1  0.75944000  0.14085000  0.28387000  1.0
  O  O401  1  0.14085000  0.28386000  0.75944000  1.0
  O  O402  1  0.74056000  0.52443000  0.88141000  1.0
  O  O403  1  0.85699000  0.97558000  0.21614000  1.0
  O  O404  1  0.52443000  0.88142000  0.74057000  1.0
  O  O405  1  0.21614000  0.85699000  0.97558000  1.0
  O  O406  1  0.88141000  0.74056000  0.52442000  1.0
  O  O407  1  0.28387000  0.75944000  0.14086000  1.0
  O  O408  1  0.48520000  0.33520000  0.63619000  1.0
  O  O409  1  0.33520000  0.63619000  0.48520000  1.0
  O  O410  1  0.63618000  0.48519000  0.33519000  1.0
  O  O411  1  0.15000000  0.80099000  0.16480000  1.0
  O  O412  1  0.34901000  0.86381000  0.69901000  1.0
  O  O413  1  0.86382000  0.69902000  0.34902000  1.0
  O  O414  1  0.15099000  0.35000000  0.01481000  1.0
  O  O415  1  0.16480000  0.15000000  0.80098000  1.0
  O  O416  1  0.35000000  0.01481000  0.15099000  1.0
  O  O417  1  0.80099000  0.16481000  0.15000000  1.0
  O  O418  1  0.01480000  0.15098000  0.35000000  1.0
  O  O419  1  0.69901000  0.34901000  0.86381000  1.0
  O  O420  1  0.51480000  0.66480000  0.36381000  1.0
  O  O421  1  0.66480000  0.36381000  0.51480000  1.0
  O  O422  1  0.36382000  0.51481000  0.66481000  1.0
  O  O423  1  0.85000000  0.19901000  0.83520000  1.0
  O  O424  1  0.65099000  0.13619000  0.30099000  1.0
  O  O425  1  0.13618000  0.30098000  0.65098000  1.0
  O  O426  1  0.84901000  0.65000000  0.98519000  1.0
  O  O427  1  0.83520000  0.85000000  0.19902000  1.0
  O  O428  1  0.65000000  0.98520000  0.84901000  1.0
  O  O429  1  0.19901000  0.83519000  0.85000000  1.0
  O  O430  1  0.98520000  0.84902000  0.65000000  1.0
  O  O431  1  0.30099000  0.65099000  0.13619000  1.0
