# generated using pymatgen
data_MnZn2H36C72(N2O3)4
_symmetry_space_group_name_H-M   'P 1'
_cell_length_a   13.83780000
_cell_length_b   13.83720000
_cell_length_c   14.15000000
_cell_angle_alpha   110.09100000
_cell_angle_beta   112.84200000
_cell_angle_gamma   104.58700000
_symmetry_Int_Tables_number   1
_chemical_formula_structural   MnZn2H36C72(N2O3)4
_chemical_formula_sum   'Mn1 Zn2 H36 C72 N8 O12'
_cell_volume   2099.92861200
_cell_formula_units_Z   1
loop_
 _symmetry_equiv_pos_site_id
 _symmetry_equiv_pos_as_xyz
  1  'x, y, z'
loop_
 _atom_site_type_symbol
 _atom_site_label
 _atom_site_symmetry_multiplicity
 _atom_site_fract_x
 _atom_site_fract_y
 _atom_site_fract_z
 _atom_site_occupancy
  Mn  Mn0  1  0.50000000  0.50000000  0.00000000  1.0
  Zn  Zn1  1  0.90609000  0.52065000  0.42685000  1.0
  Zn  Zn2  1  0.09391000  0.47936000  0.57315000  1.0
  H  H3  1  0.77039000  0.87938000  0.05182000  1.0
  H  H4  1  0.82754000  0.71840000  0.94808000  1.0
  H  H5  1  0.22961000  0.12062000  0.94818000  1.0
  H  H6  1  0.17245000  0.28160000  0.05191000  1.0
  H  H7  1  0.47564000  0.88373000  0.19964000  1.0
  H  H8  1  0.68406000  0.27589000  0.80043000  1.0
  H  H9  1  0.52436000  0.11628000  0.80037000  1.0
  H  H10  1  0.31593000  0.72410000  0.19956000  1.0
  H  H11  1  0.80984000  0.92436000  0.27715000  1.0
  H  H12  1  0.64702000  0.53240000  0.72278000  1.0
  H  H13  1  0.19016000  0.07565000  0.72286000  1.0
  H  H14  1  0.35296000  0.46757000  0.27720000  1.0
  H  H15  1  0.91621000  0.13773000  0.38726000  1.0
  H  H16  1  0.74972000  0.52793000  0.61210000  1.0
  H  H17  1  0.08379000  0.86227000  0.61276000  1.0
  H  H18  1  0.25028000  0.47206000  0.38788000  1.0
  H  H19  1  0.61359000  0.15539000  0.16269000  1.0
  H  H20  1  0.99223000  0.45015000  0.83675000  1.0
  H  H21  1  0.38641000  0.84462000  0.83731000  1.0
  H  H22  1  0.00777000  0.54985000  0.16326000  1.0
  H  H23  1  0.50482000  0.94018000  0.05144000  1.0
  H  H24  1  0.88870000  0.45319000  0.94843000  1.0
  H  H25  1  0.49518000  0.05983000  0.94856000  1.0
  H  H26  1  0.11129000  0.54681000  0.05157000  1.0
  H  H27  1  0.70469000  0.53616000  0.24042000  1.0
  H  H28  1  0.29531000  0.46384000  0.75958000  1.0
  H  H29  1  0.59461000  0.65599000  0.25013000  1.0
  H  H30  1  0.40538000  0.34400000  0.74986000  1.0
  H  H31  1  0.80521000  0.82264000  0.62908000  1.0
  H  H32  1  0.19480000  0.17736000  0.37092000  1.0
  H  H33  1  0.90671000  0.69640000  0.60428000  1.0
  H  H34  1  0.09330000  0.30361000  0.39572000  1.0
  H  H35  1  0.34878000  0.73559000  0.48408000  1.0
  H  H36  1  0.25223000  0.86549000  0.51725000  1.0
  H  H37  1  0.65121000  0.26440000  0.51591000  1.0
  H  H38  1  0.74778000  0.13451000  0.48276000  1.0
  C  C39  1  0.73435000  0.78914000  0.02642000  1.0
  C  C40  1  0.76277000  0.70784000  0.97356000  1.0
  C  C41  1  0.26565000  0.21086000  0.97358000  1.0
  C  C42  1  0.23724000  0.29217000  0.02644000  1.0
  C  C43  1  0.64436000  0.73354000  0.04326000  1.0
  C  C44  1  0.69038000  0.60106000  0.95682000  1.0
  C  C45  1  0.35565000  0.26646000  0.95675000  1.0
  C  C46  1  0.30962000  0.39894000  0.04317000  1.0
  C  C47  1  0.59345000  0.79050000  0.09514000  1.0
  C  C48  1  0.69540000  0.49824000  0.90492000  1.0
  C  C49  1  0.40655000  0.20950000  0.90485000  1.0
  C  C50  1  0.30459000  0.50176000  0.09508000  1.0
  C  C51  1  0.50048000  0.73484000  0.10413000  1.0
  C  C52  1  0.63070000  0.39628000  0.89589000  1.0
  C  C53  1  0.49952000  0.26516000  0.89587000  1.0
  C  C54  1  0.36929000  0.60372000  0.10410000  1.0
  C  C55  1  0.45072000  0.79235000  0.16196000  1.0
  C  C56  1  0.63032000  0.28865000  0.83805000  1.0
  C  C57  1  0.54927000  0.20765000  0.83803000  1.0
  C  C58  1  0.36967000  0.71135000  0.16194000  1.0
  C  C59  1  0.65103000  0.91810000  0.15571000  1.0
  C  C60  1  0.76230000  0.49512000  0.84420000  1.0
  C  C61  1  0.34896000  0.08190000  0.84429000  1.0
  C  C62  1  0.23770000  0.50488000  0.15580000  1.0
  C  C63  1  0.76740000  0.97468000  0.25044000  1.0
  C  C64  1  0.72401000  0.51661000  0.74938000  1.0
  C  C65  1  0.23259000  0.02532000  0.74957000  1.0
  C  C66  1  0.27598000  0.48338000  0.25060000  1.0
  C  C67  1  0.82681000  0.09364000  0.31221000  1.0
  C  C68  1  0.78092000  0.51385000  0.68731000  1.0
  C  C69  1  0.17319000  0.90637000  0.68780000  1.0
  C  C70  1  0.21908000  0.48614000  0.31269000  1.0
  C  C71  1  0.77196000  0.15921000  0.28040000  1.0
  C  C72  1  0.87827000  0.49075000  0.71901000  1.0
  C  C73  1  0.22804000  0.84079000  0.71961000  1.0
  C  C74  1  0.12173000  0.50925000  0.28099000  1.0
  C  C75  1  0.65562000  0.10349000  0.18634000  1.0
  C  C76  1  0.91675000  0.46865000  0.81319000  1.0
  C  C77  1  0.34438000  0.89651000  0.81366000  1.0
  C  C78  1  0.08325000  0.53135000  0.18681000  1.0
  C  C79  1  0.59537000  0.98369000  0.12474000  1.0
  C  C80  1  0.85881000  0.47035000  0.87507000  1.0
  C  C81  1  0.40463000  0.01631000  0.87526000  1.0
  C  C82  1  0.14119000  0.52965000  0.12493000  1.0
  C  C83  1  0.84106000  0.28755000  0.34961000  1.0
  C  C84  1  0.93701000  0.49023000  0.64939000  1.0
  C  C85  1  0.15895000  0.71245000  0.65040000  1.0
  C  C86  1  0.06299000  0.50978000  0.35062000  1.0
  C  C87  1  0.72396000  0.60081000  0.32468000  1.0
  C  C88  1  0.27604000  0.39919000  0.67532000  1.0
  C  C89  1  0.66332000  0.66698000  0.33020000  1.0
  C  C90  1  0.33668000  0.33302000  0.66980000  1.0
  C  C91  1  0.69276000  0.74769000  0.44075000  1.0
  C  C92  1  0.30724000  0.25230000  0.55925000  1.0
  C  C93  1  0.78091000  0.76004000  0.54179000  1.0
  C  C94  1  0.21910000  0.23997000  0.45821000  1.0
  C  C95  1  0.83710000  0.69079000  0.52871000  1.0
  C  C96  1  0.16290000  0.30921000  0.47129000  1.0
  C  C97  1  0.53697000  0.77813000  0.46450000  1.0
  C  C98  1  0.31401000  0.07289000  0.53596000  1.0
  C  C99  1  0.46303000  0.22187000  0.53549000  1.0
  C  C100  1  0.68600000  0.92712000  0.46405000  1.0
  C  C101  1  0.38256000  0.81971000  0.49143000  1.0
  C  C102  1  0.32884000  0.89170000  0.50962000  1.0
  C  C103  1  0.61745000  0.18029000  0.50857000  1.0
  C  C104  1  0.67117000  0.10830000  0.49039000  1.0
  C  C105  1  0.48058000  0.85437000  0.48171000  1.0
  C  C106  1  0.37303000  0.99924000  0.51886000  1.0
  C  C107  1  0.51942000  0.14562000  0.51829000  1.0
  C  C108  1  0.62698000  0.00076000  0.48116000  1.0
  C  C109  1  0.52719000  0.96311000  0.49034000  1.0
  C  C110  1  0.47282000  0.03689000  0.50967000  1.0
  N  N111  1  0.61742000  0.61735000  0.00007000  1.0
  N  N112  1  0.38258000  0.38266000  0.99993000  1.0
  N  N113  1  0.44931000  0.61779000  0.06708000  1.0
  N  N114  1  0.55068000  0.38221000  0.93291000  1.0
  N  N115  1  0.80920000  0.61244000  0.42199000  1.0
  N  N116  1  0.19080000  0.38756000  0.57800000  1.0
  N  N117  1  0.63342000  0.81864000  0.45224000  1.0
  N  N118  1  0.36659000  0.18136000  0.54776000  1.0
  O  O119  1  0.79474000  0.34847000  0.31800000  1.0
  O  O120  1  0.02968000  0.47576000  0.68105000  1.0
  O  O121  1  0.20527000  0.65154000  0.68200000  1.0
  O  O122  1  0.97032000  0.52424000  0.31895000  1.0
  O  O123  1  0.94329000  0.32588000  0.43627000  1.0
  O  O124  1  0.88826000  0.50544000  0.56256000  1.0
  O  O125  1  0.05672000  0.67413000  0.56374000  1.0
  O  O126  1  0.11175000  0.49458000  0.43746000  1.0
  O  O127  1  0.50651000  0.68527000  0.46224000  1.0
  O  O128  1  0.22354000  0.04485000  0.53847000  1.0
  O  O129  1  0.49347000  0.31471000  0.53773000  1.0
  O  O130  1  0.77647000  0.95516000  0.46155000  1.0
