# generated using pymatgen
data_ZnH16(C9N2)2
_symmetry_space_group_name_H-M   'P 1'
_cell_length_a   14.86170000
_cell_length_b   14.88850000
_cell_length_c   15.09780000
_cell_angle_alpha   108.68400000
_cell_angle_beta   110.34100000
_cell_angle_gamma   108.22100000
_symmetry_Int_Tables_number   1
_chemical_formula_structural   ZnH16(C9N2)2
_chemical_formula_sum   'Zn4 H64 C72 N16'
_cell_volume   2607.29948287
_cell_formula_units_Z   4
loop_
 _symmetry_equiv_pos_site_id
 _symmetry_equiv_pos_as_xyz
  1  'x, y, z'
loop_
 _atom_site_type_symbol
 _atom_site_label
 _atom_site_symmetry_multiplicity
 _atom_site_fract_x
 _atom_site_fract_y
 _atom_site_fract_z
 _atom_site_occupancy
  Zn  Zn0  1  0.62088000  0.11850000  0.99497000  1.0
  Zn  Zn1  1  0.36716000  0.86779000  0.00710000  1.0
  Zn  Zn2  1  0.63502000  0.00187000  0.14374000  1.0
  Zn  Zn3  1  0.35478000  0.99863000  0.87248000  1.0
  H  H4  1  0.64247000  0.96862000  0.81141000  1.0
  H  H5  1  0.10966000  0.78678000  0.97268000  1.0
  H  H6  1  0.62376000  0.37788000  0.78014000  1.0
  H  H7  1  0.34411000  0.84633000  0.28653000  1.0
  H  H8  1  0.75166000  0.17776000  0.65508000  1.0
  H  H9  1  0.18607000  0.04412000  0.30224000  1.0
  H  H10  1  0.92102000  0.27923000  0.83441000  1.0
  H  H11  1  0.01192000  0.88649000  0.14318000  1.0
  H  H12  1  0.63684000  0.24266000  0.50944000  1.0
  H  H13  1  0.31347000  0.00162000  0.49856000  1.0
  H  H14  1  0.90276000  0.42884000  0.43866000  1.0
  H  H15  1  0.28934000  0.56043000  0.53318000  1.0
  H  H16  1  0.33073000  0.35554000  0.08019000  1.0
  H  H17  1  0.68597000  0.68155000  0.25164000  1.0
  H  H18  1  0.33490000  0.52627000  0.09965000  1.0
  H  H19  1  0.68209000  0.51138000  0.23493000  1.0
  H  H20  1  0.75922000  0.72820000  0.91990000  1.0
  H  H21  1  0.93103000  0.93690000  0.77206000  1.0
  H  H22  1  0.29139000  0.63509000  0.81788000  1.0
  H  H23  1  0.87344000  0.33343000  0.15117000  1.0
  H  H24  1  0.91907000  0.72351000  0.90954000  1.0
  H  H25  1  0.77111000  0.94015000  0.78044000  1.0
  H  H26  1  0.68679000  0.83850000  0.24406000  1.0
  H  H27  1  0.32211000  0.18790000  0.01068000  1.0
  H  H28  1  0.30674000  0.04493000  0.65770000  1.0
  H  H29  1  0.66035000  0.15715000  0.36602000  1.0
  H  H30  1  0.33435000  0.65971000  0.05208000  1.0
  H  H31  1  0.67625000  0.34299000  0.17659000  1.0
  H  H32  1  0.65861000  0.17987000  0.81695000  1.0
  H  H33  1  0.30857000  0.99659000  0.16285000  1.0
  H  H34  1  0.29494000  0.82067000  0.64827000  1.0
  H  H35  1  0.87900000  0.18533000  0.35546000  1.0
  H  H36  1  0.67738000  0.81545000  0.01304000  1.0
  H  H37  1  0.09387000  0.94943000  0.78050000  1.0
  H  H38  1  0.94009000  0.42765000  0.98652000  1.0
  H  H39  1  0.00327000  0.70925000  0.06069000  1.0
  H  H40  1  0.92880000  0.67347000  0.20214000  1.0
  H  H41  1  0.78888000  0.62350000  0.16645000  1.0
  H  H42  1  0.87562000  0.59724000  0.25830000  1.0
  H  H43  1  0.75845000  0.43152000  0.07633000  1.0
  H  H44  1  0.89714000  0.48452000  0.11097000  1.0
  H  H45  1  0.86198000  0.58432000  0.00327000  1.0
  H  H46  1  0.72215000  0.51487000  0.95977000  1.0
  H  H47  1  0.20934000  0.51164000  0.96704000  1.0
  H  H48  1  0.09107000  0.44511000  0.97169000  1.0
  H  H49  1  0.07887000  0.45933000  0.85650000  1.0
  H  H50  1  0.04149000  0.59380000  0.95269000  1.0
  H  H51  1  0.17407000  0.66551000  0.97764000  1.0
  H  H52  1  0.24971000  0.66433000  0.15768000  1.0
  H  H53  1  0.11457000  0.59838000  0.13030000  1.0
  H  H54  1  0.84276000  0.43982000  0.59317000  1.0
  H  H55  1  0.93522000  0.38751000  0.59453000  1.0
  H  H56  1  0.90634000  0.41849000  0.70203000  1.0
  H  H57  1  0.08993000  0.56391000  0.75697000  1.0
  H  H58  1  0.99784000  0.61423000  0.76017000  1.0
  H  H59  1  0.09355000  0.69300000  0.68344000  1.0
  H  H60  1  0.95593000  0.60340000  0.58159000  1.0
  H  H61  1  0.27136000  0.28054000  0.27173000  1.0
  H  H62  1  0.22513000  0.33517000  0.18765000  1.0
  H  H63  1  0.36608000  0.39706000  0.28225000  1.0
  H  H64  1  0.28385000  0.50519000  0.35307000  1.0
  H  H65  1  0.32693000  0.44838000  0.43475000  1.0
  H  H66  1  0.13448000  0.29577000  0.33520000  1.0
  H  H67  1  0.09214000  0.35043000  0.25255000  1.0
  C  C68  1  0.64345000  0.93878000  0.86843000  1.0
  C  C69  1  0.12259000  0.82852000  0.92753000  1.0
  C  C70  1  0.26326000  0.68472000  0.68853000  1.0
  C  C71  1  0.92042000  0.30019000  0.29149000  1.0
  C  C72  1  0.51061000  0.71024000  0.15943000  1.0
  C  C73  1  0.50139000  0.31223000  0.11646000  1.0
  C  C74  1  0.48275000  0.12109000  0.69744000  1.0
  C  C75  1  0.47928000  0.09139000  0.30726000  1.0
  C  C76  1  0.78452000  0.41571000  0.89334000  1.0
  C  C77  1  0.17316000  0.76450000  0.16729000  1.0
  C  C78  1  0.69017000  0.35783000  0.79190000  1.0
  C  C79  1  0.27052000  0.85435000  0.25519000  1.0
  C  C80  1  0.67686000  0.27144000  0.70603000  1.0
  C  C81  1  0.27601000  0.95493000  0.30506000  1.0
  C  C82  1  0.76205000  0.24543000  0.72139000  1.0
  C  C83  1  0.18224000  0.96608000  0.26437000  1.0
  C  C84  1  0.85620000  0.30165000  0.82223000  1.0
  C  C85  1  0.08470000  0.87762000  0.17590000  1.0
  C  C86  1  0.86672000  0.38521000  0.90765000  1.0
  C  C87  1  0.08031000  0.77793000  0.12878000  1.0
  C  C88  1  0.56474000  0.18928000  0.50638000  1.0
  C  C89  1  0.38430000  0.05769000  0.50208000  1.0
  C  C90  1  0.30274000  0.69668000  0.79285000  1.0
  C  C91  1  0.85881000  0.28126000  0.18670000  1.0
  C  C92  1  0.47170000  0.11167000  0.40523000  1.0
  C  C93  1  0.47956000  0.12960000  0.60250000  1.0
  C  C94  1  0.37860000  0.04586000  0.40448000  1.0
  C  C95  1  0.57118000  0.19867000  0.60366000  1.0
  C  C96  1  0.06804000  0.55005000  0.55961000  1.0
  C  C97  1  0.12362000  0.43669000  0.41301000  1.0
  C  C98  1  0.98867000  0.45767000  0.46107000  1.0
  C  C99  1  0.20363000  0.52979000  0.51148000  1.0
  C  C100  1  0.01382000  0.39998000  0.38862000  1.0
  C  C101  1  0.17835000  0.58594000  0.58529000  1.0
  C  C102  1  0.40936000  0.42676000  0.11818000  1.0
  C  C103  1  0.60734000  0.61036000  0.21422000  1.0
  C  C104  1  0.41172000  0.52368000  0.12860000  1.0
  C  C105  1  0.60508000  0.51358000  0.20474000  1.0
  C  C106  1  0.51032000  0.61643000  0.17087000  1.0
  C  C107  1  0.50562000  0.41774000  0.15071000  1.0
  C  C108  1  0.79661000  0.77455000  0.88740000  1.0
  C  C109  1  0.89351000  0.88997000  0.80399000  1.0
  C  C110  1  0.88766000  0.77239000  0.88210000  1.0
  C  C111  1  0.80238000  0.89159000  0.80857000  1.0
  C  C112  1  0.59988000  0.80838000  0.19435000  1.0
  C  C113  1  0.40820000  0.21026000  0.04386000  1.0
  C  C114  1  0.94275000  0.83577000  0.84689000  1.0
  C  C115  1  0.75585000  0.83980000  0.85699000  1.0
  C  C116  1  0.39302000  0.07512000  0.71049000  1.0
  C  C117  1  0.57590000  0.11281000  0.30137000  1.0
  C  C118  1  0.42041000  0.71782000  0.09725000  1.0
  C  C119  1  0.58867000  0.28942000  0.12857000  1.0
  C  C120  1  0.57236000  0.14499000  0.79164000  1.0
  C  C121  1  0.39637000  0.03011000  0.19837000  1.0
  C  C122  1  0.30497000  0.79128000  0.70641000  1.0
  C  C123  1  0.86091000  0.20555000  0.29050000  1.0
  C  C124  1  0.66066000  0.86031000  0.97083000  1.0
  C  C125  1  0.11473000  0.91269000  0.83083000  1.0
  C  C126  1  0.68288000  0.86916000  0.88963000  1.0
  C  C127  1  0.05114000  0.85401000  0.86344000  1.0
  C  C128  1  0.79767000  0.50819000  0.98537000  1.0
  C  C129  1  0.82748000  0.50105000  0.09018000  1.0
  C  C130  1  0.85677000  0.60451000  0.18456000  1.0
  C  C131  1  0.16794000  0.65603000  0.11615000  1.0
  C  C132  1  0.12542000  0.60694000  0.99417000  1.0
  C  C133  1  0.12642000  0.50034000  0.94487000  1.0
  C  C134  1  0.03271000  0.60721000  0.63227000  1.0
  C  C135  1  0.01368000  0.56027000  0.70549000  1.0
  C  C136  1  0.91969000  0.44522000  0.64562000  1.0
  C  C137  1  0.15102000  0.37354000  0.33516000  1.0
  C  C138  1  0.26678000  0.42800000  0.35403000  1.0
  C  C139  1  0.28352000  0.35648000  0.26957000  1.0
  N  N140  1  0.60470000  0.97073000  0.93421000  1.0
  N  N141  1  0.21973000  0.86804000  0.93210000  1.0
  N  N142  1  0.36174000  0.80262000  0.86658000  1.0
  N  N143  1  0.76924000  0.18314000  0.12828000  1.0
  N  N144  1  0.56500000  0.86839000  0.15611000  1.0
  N  N145  1  0.43865000  0.13461000  0.01408000  1.0
  N  N146  1  0.42660000  0.07254000  0.80427000  1.0
  N  N147  1  0.55138000  0.06504000  0.19790000  1.0
  N  N148  1  0.45306000  0.81196000  0.09549000  1.0
  N  N149  1  0.54953000  0.18316000  0.06627000  1.0
  N  N150  1  0.53820000  0.11605000  0.85442000  1.0
  N  N151  1  0.44084000  0.01394000  0.13440000  1.0
  N  N152  1  0.36267000  0.86096000  0.81337000  1.0
  N  N153  1  0.77099000  0.13596000  0.19305000  1.0
  N  N154  1  0.61502000  0.92258000  0.99713000  1.0
  N  N155  1  0.21490000  0.92076000  0.87199000  1.0
