# generated using pymatgen
data_CoHC4O3
_symmetry_space_group_name_H-M   'P 1'
_cell_length_a   6.77183000
_cell_length_b   15.25010000
_cell_length_c   15.25129191
_cell_angle_alpha   117.84337103
_cell_angle_beta   98.50372963
_cell_angle_gamma   98.50050000
_symmetry_Int_Tables_number   1
_chemical_formula_structural   CoHC4O3
_chemical_formula_sum   'Co6 H6 C24 O18'
_cell_volume   1334.33221325
_cell_formula_units_Z   6
loop_
 _symmetry_equiv_pos_site_id
 _symmetry_equiv_pos_as_xyz
  1  'x, y, z'
loop_
 _atom_site_type_symbol
 _atom_site_label
 _atom_site_symmetry_multiplicity
 _atom_site_fract_x
 _atom_site_fract_y
 _atom_site_fract_z
 _atom_site_occupancy
  Co  Co0  1  0.51775000  0.40015000  0.72839000  1.0
  Co  Co1  1  0.78924000  0.27153000  0.67189000  1.0
  Co  Co2  1  0.11760000  0.32824000  0.59976000  1.0
  Co  Co3  1  0.48225000  0.59985000  0.27161000  1.0
  Co  Co4  1  0.21076000  0.72847000  0.32811000  1.0
  Co  Co5  1  0.88240000  0.67176000  0.40024000  1.0
  H  H6  1  0.37576000  0.55541000  0.02392000  1.0
  H  H7  1  0.35181000  0.97600000  0.53144000  1.0
  H  H8  1  0.82035000  0.46850000  0.44452000  1.0
  H  H9  1  0.62424000  0.44460000  0.97609000  1.0
  H  H10  1  0.64819000  0.02400000  0.46856000  1.0
  H  H11  1  0.17964000  0.53149000  0.55547000  1.0
  C  C12  1  0.18605000  0.43503000  0.82872000  1.0
  C  C13  1  0.35720000  0.17125000  0.60643000  1.0
  C  C14  1  0.75098000  0.39363000  0.56491000  1.0
  C  C15  1  0.81395000  0.56497000  0.17129000  1.0
  C  C16  1  0.64280000  0.82875000  0.39357000  1.0
  C  C17  1  0.24902000  0.60636000  0.43508000  1.0
  C  C18  1  0.08600000  0.46584000  0.91453000  1.0
  C  C19  1  0.17137000  0.08545000  0.55140000  1.0
  C  C20  1  0.62017000  0.44868000  0.53417000  1.0
  C  C21  1  0.91401000  0.53417000  0.08548000  1.0
  C  C22  1  0.82864000  0.91455000  0.44860000  1.0
  C  C23  1  0.37982000  0.55130000  0.46582000  1.0
  C  C24  1  0.86822000  0.43339000  0.89939000  1.0
  C  C25  1  0.96874000  0.10065000  0.53406000  1.0
  C  C26  1  0.43491000  0.46605000  0.56668000  1.0
  C  C27  1  0.13178000  0.56661000  0.10061000  1.0
  C  C28  1  0.03125000  0.89935000  0.46593000  1.0
  C  C29  1  0.56510000  0.53394000  0.43331000  1.0
  C  C30  1  0.21065000  0.53094000  0.01366000  1.0
  C  C31  1  0.19697000  0.98628000  0.51728000  1.0
  C  C32  1  0.67966000  0.48268000  0.46900000  1.0
  C  C33  1  0.78935000  0.46906000  0.98635000  1.0
  C  C34  1  0.80303000  0.01373000  0.48272000  1.0
  C  C35  1  0.32033000  0.51731000  0.53099000  1.0
  O  O36  1  0.37918000  0.46614000  0.84314000  1.0
  O  O37  1  0.53586000  0.15681000  0.62330000  1.0
  O  O38  1  0.91312000  0.37702000  0.53383000  1.0
  O  O39  1  0.62081000  0.53386000  0.15686000  1.0
  O  O40  1  0.46413000  0.84319000  0.37670000  1.0
  O  O41  1  0.08687000  0.62296000  0.46616000  1.0
  O  O42  1  0.06869000  0.37542000  0.73761000  1.0
  O  O43  1  0.33102000  0.26236000  0.63766000  1.0
  O  O44  1  0.69311000  0.36200000  0.62442000  1.0
  O  O45  1  0.93131000  0.62459000  0.26239000  1.0
  O  O46  1  0.66898000  0.73763000  0.36234000  1.0
  O  O47  1  0.30690000  0.63800000  0.37558000  1.0
  O  O48  1  0.73482000  0.37031000  0.80732000  1.0
  O  O49  1  0.92743000  0.19276000  0.56314000  1.0
  O  O50  1  0.36465000  0.43711000  0.62983000  1.0
  O  O51  1  0.26518000  0.62969000  0.19269000  1.0
  O  O52  1  0.07257000  0.80725000  0.43686000  1.0
  O  O53  1  0.63535000  0.56288000  0.37017000  1.0
