# generated using pymatgen
data_CuH28C28S(N2O)4
_symmetry_space_group_name_H-M   'P 1'
_cell_length_a   14.82980000
_cell_length_b   14.82980000
_cell_length_c   16.03300000
_cell_angle_alpha   79.88840000
_cell_angle_beta   79.88850000
_cell_angle_gamma   77.20740000
_symmetry_Int_Tables_number   1
_chemical_formula_structural   CuH28C28S(N2O)4
_chemical_formula_sum   'Cu4 H112 C112 S4 N32 O16'
_cell_volume   3350.60631410
_cell_formula_units_Z   4
loop_
 _symmetry_equiv_pos_site_id
 _symmetry_equiv_pos_as_xyz
  1  'x, y, z'
loop_
 _atom_site_type_symbol
 _atom_site_label
 _atom_site_symmetry_multiplicity
 _atom_site_fract_x
 _atom_site_fract_y
 _atom_site_fract_z
 _atom_site_occupancy
  Cu  Cu0  1  0.23332000  0.76669000  0.74999000  1.0
  Cu  Cu1  1  0.76668000  0.23332000  0.24998000  1.0
  Cu  Cu2  1  0.50004000  0.00002000  0.49998000  1.0
  Cu  Cu3  1  0.00000000  0.50000000  0.00002000  1.0
  H  H4  1  0.44487000  0.72559000  0.66914000  1.0
  H  H5  1  0.72560000  0.44487000  0.16914000  1.0
  H  H6  1  0.55515000  0.27434000  0.33082000  1.0
  H  H7  1  0.27437000  0.55515000  0.83084000  1.0
  H  H8  1  0.51706000  0.64316000  0.92005000  1.0
  H  H9  1  0.64315000  0.51705000  0.42004000  1.0
  H  H10  1  0.48291000  0.35695000  0.07995000  1.0
  H  H11  1  0.35691000  0.48293000  0.57996000  1.0
  H  H12  1  0.32450000  0.71338000  0.92871000  1.0
  H  H13  1  0.71336000  0.32449000  0.42870000  1.0
  H  H14  1  0.67548000  0.28675000  0.07123000  1.0
  H  H15  1  0.28670000  0.67550000  0.57125000  1.0
  H  H16  1  0.02854000  0.79141000  0.84473000  1.0
  H  H17  1  0.79140000  0.02854000  0.34472000  1.0
  H  H18  1  0.97147000  0.20857000  0.15526000  1.0
  H  H19  1  0.20857000  0.97148000  0.65527000  1.0
  H  H20  1  0.93427000  0.90526000  0.60567000  1.0
  H  H21  1  0.90528000  0.93427000  0.10567000  1.0
  H  H22  1  0.06572000  0.09473000  0.39433000  1.0
  H  H23  1  0.09473000  0.06572000  0.89436000  1.0
  H  H24  1  0.12710000  0.83659000  0.57960000  1.0
  H  H25  1  0.83660000  0.12710000  0.07959000  1.0
  H  H26  1  0.87289000  0.16341000  0.42038000  1.0
  H  H27  1  0.16341000  0.87289000  0.92040000  1.0
  H  H28  1  0.60693000  0.63849000  0.68193000  1.0
  H  H29  1  0.63851000  0.60693000  0.18192000  1.0
  H  H30  1  0.39309000  0.36146000  0.31810000  1.0
  H  H31  1  0.36147000  0.39309000  0.81809000  1.0
  H  H32  1  0.63001000  0.57075000  0.78178000  1.0
  H  H33  1  0.57076000  0.63002000  0.28177000  1.0
  H  H34  1  0.36996000  0.42924000  0.21827000  1.0
  H  H35  1  0.42924000  0.36998000  0.71825000  1.0
  H  H36  1  0.86461000  0.87878000  0.84852000  1.0
  H  H37  1  0.87880000  0.86462000  0.34850000  1.0
  H  H38  1  0.13540000  0.12118000  0.15149000  1.0
  H  H39  1  0.12117000  0.13541000  0.65152000  1.0
  H  H40  1  0.83098000  0.95386000  0.75544000  1.0
  H  H41  1  0.95387000  0.83099000  0.25543000  1.0
  H  H42  1  0.16901000  0.04611000  0.24458000  1.0
  H  H43  1  0.04611000  0.16902000  0.74461000  1.0
  H  H44  1  0.76483000  0.59323000  0.82514000  1.0
  H  H45  1  0.59323000  0.76483000  0.32514000  1.0
  H  H46  1  0.23517000  0.40676000  0.17487000  1.0
  H  H47  1  0.40676000  0.23517000  0.67486000  1.0
  H  H48  1  0.59038000  0.82992000  0.69577000  1.0
  H  H49  1  0.82993000  0.59039000  0.19577000  1.0
  H  H50  1  0.40960000  0.17006000  0.30424000  1.0
  H  H51  1  0.17007000  0.40963000  0.80425000  1.0
  H  H52  1  0.87373000  0.69356000  0.83624000  1.0
  H  H53  1  0.69358000  0.87373000  0.33625000  1.0
  H  H54  1  0.12628000  0.30642000  0.16376000  1.0
  H  H55  1  0.30640000  0.12628000  0.66378000  1.0
  H  H56  1  0.70029000  0.92991000  0.70556000  1.0
  H  H57  1  0.92993000  0.70029000  0.20556000  1.0
  H  H58  1  0.29971000  0.07006000  0.29444000  1.0
  H  H59  1  0.07007000  0.29973000  0.79446000  1.0
  H  H60  1  0.70910000  0.91900000  0.52107000  1.0
  H  H61  1  0.91900000  0.70911000  0.02108000  1.0
  H  H62  1  0.29088000  0.08100000  0.47891000  1.0
  H  H63  1  0.08099000  0.29090000  0.97894000  1.0
  H  H64  1  0.66195000  0.64471000  0.52641000  1.0
  H  H65  1  0.64471000  0.66195000  0.02640000  1.0
  H  H66  1  0.33804000  0.35528000  0.47361000  1.0
  H  H67  1  0.35529000  0.33803000  0.97360000  1.0
  H  H68  1  0.49930000  0.77667000  0.49884000  1.0
  H  H69  1  0.77669000  0.49929000  0.99884000  1.0
  H  H70  1  0.50069000  0.22330000  0.50116000  1.0
  H  H71  1  0.22332000  0.50070000  0.00116000  1.0
  H  H72  1  0.08436000  0.56520000  0.14364000  1.0
  H  H73  1  0.56518000  0.08434000  0.64362000  1.0
  H  H74  1  0.91566000  0.43484000  0.85637000  1.0
  H  H75  1  0.43481000  0.91564000  0.35636000  1.0
  H  H76  1  0.90241000  0.37794000  0.15894000  1.0
  H  H77  1  0.37792000  0.90239000  0.65891000  1.0
  H  H78  1  0.09764000  0.62207000  0.84110000  1.0
  H  H79  1  0.62207000  0.09759000  0.34106000  1.0
  H  H80  1  0.94823000  0.37096000  0.32186000  1.0
  H  H81  1  0.37096000  0.94818000  0.82185000  1.0
  H  H82  1  0.05186000  0.62903000  0.67816000  1.0
  H  H83  1  0.62905000  0.05177000  0.17814000  1.0
  H  H84  1  0.83747000  0.79243000  0.55730000  1.0
  H  H85  1  0.79244000  0.83749000  0.05729000  1.0
  H  H86  1  0.16250000  0.20753000  0.44273000  1.0
  H  H87  1  0.20754000  0.16251000  0.94272000  1.0
  H  H88  1  0.79996000  0.69233000  0.61711000  1.0
  H  H89  1  0.69233000  0.79998000  0.11711000  1.0
  H  H90  1  0.20001000  0.30765000  0.38289000  1.0
  H  H91  1  0.30764000  0.20002000  0.88289000  1.0
  H  H92  1  0.12613000  0.53218000  0.29174000  1.0
  H  H93  1  0.53213000  0.12611000  0.79174000  1.0
  H  H94  1  0.87391000  0.46790000  0.70825000  1.0
  H  H95  1  0.46785000  0.87386000  0.20825000  1.0
  H  H96  1  0.09594000  0.43202000  0.35998000  1.0
  H  H97  1  0.43198000  0.09590000  0.85996000  1.0
  H  H98  1  0.90413000  0.56803000  0.64003000  1.0
  H  H99  1  0.56799000  0.90407000  0.14001000  1.0
  H  H100  1  0.79663000  0.56028000  0.51719000  1.0
  H  H101  1  0.56029000  0.79662000  0.01717000  1.0
  H  H102  1  0.20339000  0.43970000  0.48280000  1.0
  H  H103  1  0.43970000  0.20337000  0.98281000  1.0
  H  H104  1  0.90410000  0.46312000  0.42007000  1.0
  H  H105  1  0.46312000  0.90406000  0.92006000  1.0
  H  H106  1  0.09595000  0.53689000  0.57991000  1.0
  H  H107  1  0.53688000  0.09591000  0.07992000  1.0
  H  H108  1  0.07988000  0.66859000  0.35621000  1.0
  H  H109  1  0.66855000  0.07989000  0.85618000  1.0
  H  H110  1  0.92012000  0.33147000  0.64382000  1.0
  H  H111  1  0.33142000  0.92011000  0.14379000  1.0
  H  H112  1  0.97118000  0.76672000  0.45544000  1.0
  H  H113  1  0.76669000  0.97122000  0.95542000  1.0
  H  H114  1  0.02878000  0.23331000  0.54459000  1.0
  H  H115  1  0.23328000  0.02879000  0.04456000  1.0
  C  C116  1  0.43824000  0.71355000  0.73858000  1.0
  C  C117  1  0.71356000  0.43824000  0.23857000  1.0
  C  C118  1  0.56176000  0.28643000  0.26140000  1.0
  C  C119  1  0.28644000  0.56177000  0.76141000  1.0
  C  C120  1  0.47322000  0.67211000  0.87055000  1.0
  C  C121  1  0.67209000  0.47322000  0.37055000  1.0
  C  C122  1  0.52676000  0.32798000  0.12943000  1.0
  C  C123  1  0.32795000  0.52677000  0.62944000  1.0
  C  C124  1  0.37913000  0.70868000  0.87389000  1.0
  C  C125  1  0.70866000  0.37911000  0.37388000  1.0
  C  C126  1  0.62086000  0.29139000  0.12607000  1.0
  C  C127  1  0.29137000  0.62087000  0.62608000  1.0
  C  C128  1  0.02893000  0.81046000  0.77605000  1.0
  C  C129  1  0.81046000  0.02892000  0.27603000  1.0
  C  C130  1  0.97108000  0.18952000  0.22394000  1.0
  C  C131  1  0.18952000  0.97109000  0.72396000  1.0
  C  C132  1  0.98212000  0.86790000  0.64990000  1.0
  C  C133  1  0.86791000  0.98212000  0.14989000  1.0
  C  C134  1  0.01787000  0.13210000  0.35010000  1.0
  C  C135  1  0.13209000  0.01788000  0.85013000  1.0
  C  C136  1  0.07669000  0.83226000  0.63800000  1.0
  C  C137  1  0.83226000  0.07670000  0.13799000  1.0
  C  C138  1  0.92330000  0.16774000  0.36198000  1.0
  C  C139  1  0.16774000  0.92330000  0.86201000  1.0
  C  C140  1  0.60650000  0.64200000  0.74991000  1.0
  C  C141  1  0.64202000  0.60650000  0.24990000  1.0
  C  C142  1  0.39350000  0.35797000  0.25012000  1.0
  C  C143  1  0.35799000  0.39351000  0.75011000  1.0
  C  C144  1  0.85864000  0.88109000  0.78086000  1.0
  C  C145  1  0.88110000  0.85864000  0.28085000  1.0
  C  C146  1  0.14137000  0.11889000  0.21915000  1.0
  C  C147  1  0.11889000  0.14137000  0.71918000  1.0
  C  C148  1  0.67073000  0.70456000  0.75913000  1.0
  C  C149  1  0.70457000  0.67073000  0.25913000  1.0
  C  C150  1  0.32926000  0.29543000  0.24089000  1.0
  C  C151  1  0.29543000  0.32927000  0.74088000  1.0
  C  C152  1  0.75077000  0.66708000  0.79834000  1.0
  C  C153  1  0.66708000  0.75077000  0.29833000  1.0
  C  C154  1  0.24922000  0.33291000  0.20168000  1.0
  C  C155  1  0.33290000  0.24923000  0.70167000  1.0
  C  C156  1  0.65240000  0.79975000  0.72665000  1.0
  C  C157  1  0.79977000  0.65239000  0.22664000  1.0
  C  C158  1  0.34760000  0.20023000  0.27337000  1.0
  C  C159  1  0.20023000  0.34761000  0.77337000  1.0
  C  C160  1  0.79387000  0.81882000  0.77218000  1.0
  C  C161  1  0.81883000  0.79387000  0.27217000  1.0
  C  C162  1  0.20613000  0.18116000  0.22783000  1.0
  C  C163  1  0.18116000  0.20614000  0.72785000  1.0
  C  C164  1  0.81198000  0.72373000  0.80500000  1.0
  C  C165  1  0.72374000  0.81198000  0.30500000  1.0
  C  C166  1  0.18802000  0.27625000  0.19500000  1.0
  C  C167  1  0.27625000  0.18803000  0.69502000  1.0
  C  C168  1  0.71403000  0.85616000  0.73265000  1.0
  C  C169  1  0.85617000  0.71403000  0.23264000  1.0
  C  C170  1  0.28597000  0.14382000  0.26736000  1.0
  C  C171  1  0.14381000  0.28598000  0.76738000  1.0
  C  C172  1  0.67564000  0.86133000  0.51848000  1.0
  C  C173  1  0.86134000  0.67565000  0.01847000  1.0
  C  C174  1  0.32434000  0.13865000  0.48153000  1.0
  C  C175  1  0.13866000  0.32435000  0.98154000  1.0
  C  C176  1  0.64745000  0.71994000  0.52285000  1.0
  C  C177  1  0.71994000  0.64747000  0.02284000  1.0
  C  C178  1  0.35253000  0.28005000  0.47715000  1.0
  C  C179  1  0.28006000  0.35253000  0.97716000  1.0
  C  C180  1  0.56766000  0.78543000  0.50927000  1.0
  C  C181  1  0.78543000  0.56767000  0.00927000  1.0
  C  C182  1  0.43233000  0.21457000  0.49073000  1.0
  C  C183  1  0.21458000  0.43233000  0.99074000  1.0
  C  C184  1  0.03963000  0.51487000  0.17042000  1.0
  C  C185  1  0.51485000  0.03962000  0.67041000  1.0
  C  C186  1  0.96038000  0.48518000  0.82960000  1.0
  C  C187  1  0.48514000  0.96036000  0.32958000  1.0
  C  C188  1  0.94570000  0.41660000  0.18149000  1.0
  C  C189  1  0.41659000  0.94567000  0.68146000  1.0
  C  C190  1  0.05435000  0.58341000  0.81855000  1.0
  C  C191  1  0.58340000  0.05430000  0.31851000  1.0
  C  C192  1  0.96774000  0.41325000  0.26191000  1.0
  C  C193  1  0.41324000  0.96769000  0.76189000  1.0
  C  C194  1  0.03235000  0.58675000  0.73811000  1.0
  C  C195  1  0.58675000  0.03227000  0.23809000  1.0
  C  C196  1  0.80858000  0.73195000  0.55226000  1.0
  C  C197  1  0.73195000  0.80860000  0.05224000  1.0
  C  C198  1  0.19139000  0.26803000  0.44776000  1.0
  C  C199  1  0.26803000  0.19140000  0.94776000  1.0
  C  C200  1  0.06758000  0.49812000  0.32202000  1.0
  C  C201  1  0.49809000  0.06756000  0.82201000  1.0
  C  C202  1  0.93246000  0.50193000  0.67798000  1.0
  C  C203  1  0.50189000  0.93241000  0.17797000  1.0
  C  C204  1  0.87414000  0.67254000  0.49111000  1.0
  C  C205  1  0.67253000  0.87415000  0.99110000  1.0
  C  C206  1  0.12585000  0.32746000  0.50889000  1.0
  C  C207  1  0.32745000  0.12585000  0.00889000  1.0
  C  C208  1  0.85726000  0.58616000  0.48049000  1.0
  C  C209  1  0.58616000  0.85726000  0.98048000  1.0
  C  C210  1  0.14274000  0.41384000  0.51950000  1.0
  C  C211  1  0.41383000  0.14274000  0.01951000  1.0
  C  C212  1  0.91873000  0.53045000  0.42565000  1.0
  C  C213  1  0.53045000  0.91872000  0.92563000  1.0
  C  C214  1  0.08130000  0.46956000  0.57434000  1.0
  C  C215  1  0.46954000  0.08126000  0.07436000  1.0
  C  C216  1  0.99915000  0.55973000  0.37973000  1.0
  C  C217  1  0.55971000  0.99913000  0.87972000  1.0
  C  C218  1  0.00088000  0.44031000  0.62028000  1.0
  C  C219  1  0.44027000  0.00085000  0.12027000  1.0
  C  C220  1  0.01702000  0.64511000  0.39091000  1.0
  C  C221  1  0.64508000  0.01703000  0.89089000  1.0
  C  C222  1  0.98298000  0.35493000  0.60911000  1.0
  C  C223  1  0.35489000  0.98297000  0.10909000  1.0
  C  C224  1  0.95534000  0.70084000  0.44650000  1.0
  C  C225  1  0.70083000  0.95536000  0.94648000  1.0
  C  C226  1  0.04465000  0.29917000  0.55352000  1.0
  C  C227  1  0.29916000  0.04464000  0.05351000  1.0
  S  S228  1  0.31213000  0.86441000  0.51195000  1.0
  S  S229  1  0.86443000  0.31215000  0.01196000  1.0
  S  S230  1  0.68785000  0.13557000  0.48804000  1.0
  S  S231  1  0.13560000  0.68786000  0.98806000  1.0
  N  N232  1  0.35902000  0.73417000  0.79107000  1.0
  N  N233  1  0.73416000  0.35902000  0.29106000  1.0
  N  N234  1  0.64097000  0.26584000  0.20888000  1.0
  N  N235  1  0.26584000  0.64098000  0.70889000  1.0
  N  N236  1  0.50937000  0.67493000  0.78465000  1.0
  N  N237  1  0.67492000  0.50937000  0.28464000  1.0
  N  N238  1  0.49062000  0.32509000  0.21533000  1.0
  N  N239  1  0.32509000  0.49063000  0.71534000  1.0
  N  N240  1  0.10414000  0.79665000  0.71731000  1.0
  N  N241  1  0.79664000  0.10413000  0.21730000  1.0
  N  N242  1  0.89586000  0.20335000  0.28267000  1.0
  N  N243  1  0.20334000  0.89587000  0.78269000  1.0
  N  N244  1  0.95335000  0.85397000  0.73739000  1.0
  N  N245  1  0.85398000  0.95335000  0.23737000  1.0
  N  N246  1  0.04665000  0.14602000  0.26261000  1.0
  N  N247  1  0.14601000  0.04666000  0.76263000  1.0
  N  N248  1  0.58694000  0.87271000  0.50708000  1.0
  N  N249  1  0.87271000  0.58695000  0.00707000  1.0
  N  N250  1  0.41304000  0.12729000  0.49292000  1.0
  N  N251  1  0.12729000  0.41305000  0.99293000  1.0
  N  N252  1  0.71523000  0.76900000  0.52823000  1.0
  N  N253  1  0.76900000  0.71524000  0.02821000  1.0
  N  N254  1  0.28475000  0.23098000  0.47179000  1.0
  N  N255  1  0.23099000  0.28476000  0.97179000  1.0
  N  N256  1  0.99119000  0.47976000  0.12607000  1.0
  N  N257  1  0.47975000  0.99117000  0.62605000  1.0
  N  N258  1  0.00883000  0.52026000  0.87396000  1.0
  N  N259  1  0.52025000  0.00880000  0.37393000  1.0
  N  N260  1  0.02691000  0.47561000  0.25384000  1.0
  N  N261  1  0.47560000  0.02688000  0.75382000  1.0
  N  N262  1  0.97315000  0.52441000  0.74618000  1.0
  N  N263  1  0.52441000  0.97309000  0.24616000  1.0
  O  O264  1  0.36249000  0.94465000  0.49766000  1.0
  O  O265  1  0.94465000  0.36254000  0.99766000  1.0
  O  O266  1  0.63749000  0.05533000  0.50231000  1.0
  O  O267  1  0.05533000  0.63754000  0.00231000  1.0
  O  O268  1  0.21658000  0.89980000  0.48875000  1.0
  O  O269  1  0.89986000  0.21660000  0.98878000  1.0
  O  O270  1  0.78340000  0.10017000  0.51120000  1.0
  O  O271  1  0.10024000  0.78341000  0.01125000  1.0
  O  O272  1  0.30673000  0.82465000  0.60580000  1.0
  O  O273  1  0.82467000  0.30675000  0.10582000  1.0
  O  O274  1  0.69323000  0.17536000  0.39419000  1.0
  O  O275  1  0.17539000  0.69326000  0.89421000  1.0
  O  O276  1  0.36658000  0.79113000  0.45969000  1.0
  O  O277  1  0.79114000  0.36656000  0.95971000  1.0
  O  O278  1  0.63341000  0.20883000  0.54031000  1.0
  O  O279  1  0.20884000  0.63338000  0.04033000  1.0
