# generated using pymatgen
data_H22PbC20S2(NO3)2
_symmetry_space_group_name_H-M   'P 1'
_cell_length_a   9.51231000
_cell_length_b   11.51870000
_cell_length_c   12.26160000
_cell_angle_alpha   66.11480000
_cell_angle_beta   71.74640000
_cell_angle_gamma   67.26070000
_symmetry_Int_Tables_number   1
_chemical_formula_structural   H22PbC20S2(NO3)2
_chemical_formula_sum   'H44 Pb2 C40 S4 N4 O12'
_cell_volume   1113.22035027
_cell_formula_units_Z   2
loop_
 _symmetry_equiv_pos_site_id
 _symmetry_equiv_pos_as_xyz
  1  'x, y, z'
loop_
 _atom_site_type_symbol
 _atom_site_label
 _atom_site_symmetry_multiplicity
 _atom_site_fract_x
 _atom_site_fract_y
 _atom_site_fract_z
 _atom_site_occupancy
  H  H0  1  0.14033000  0.49643000  0.41597000  1.0
  H  H1  1  0.85972000  0.50358000  0.58406000  1.0
  H  H2  1  0.04447000  0.30909000  0.56568000  1.0
  H  H3  1  0.95550000  0.69093000  0.43427000  1.0
  H  H4  1  0.19268000  0.07634000  0.56834000  1.0
  H  H5  1  0.80732000  0.92367000  0.43163000  1.0
  H  H6  1  0.43654000  0.03579000  0.41484000  1.0
  H  H7  1  0.56348000  0.96421000  0.58518000  1.0
  H  H8  1  0.36777000  0.53429000  0.44699000  1.0
  H  H9  1  0.63230000  0.46573000  0.55297000  1.0
  H  H10  1  0.35983000  0.60976000  0.61261000  1.0
  H  H11  1  0.64013000  0.39023000  0.38739000  1.0
  H  H12  1  0.23019000  0.84658000  0.60154000  1.0
  H  H13  1  0.76981000  0.15341000  0.39845000  1.0
  H  H14  1  0.10629000  0.00752000  0.42179000  1.0
  H  H15  1  0.89372000  0.99248000  0.57821000  1.0
  H  H16  1  0.72301000  0.48573000  0.03741000  1.0
  H  H17  1  0.27701000  0.51426000  0.96264000  1.0
  H  H18  1  0.06396000  0.51970000  0.80673000  1.0
  H  H19  1  0.93603000  0.48029000  0.19329000  1.0
  H  H20  1  0.02847000  0.68519000  0.80582000  1.0
  H  H21  1  0.97153000  0.31480000  0.19420000  1.0
  H  H22  1  0.94317000  0.66021000  0.71006000  1.0
  H  H23  1  0.05681000  0.33978000  0.28997000  1.0
  H  H24  1  0.63248000  0.69785000  0.98611000  1.0
  H  H25  1  0.36752000  0.30216000  0.01391000  1.0
  H  H26  1  0.68170000  0.78676000  0.82894000  1.0
  H  H27  1  0.31832000  0.21324000  0.17108000  1.0
  H  H28  1  0.77903000  0.78031000  0.93508000  1.0
  H  H29  1  0.22099000  0.21967000  0.06494000  1.0
  H  H30  1  0.89655000  0.75233000  0.17493000  1.0
  H  H31  1  0.10345000  0.24764000  0.82508000  1.0
  H  H32  1  0.76926000  0.63843000  0.32251000  1.0
  H  H33  1  0.23076000  0.36158000  0.67751000  1.0
  H  H34  1  0.59460000  0.64035000  0.29426000  1.0
  H  H35  1  0.40545000  0.35964000  0.70574000  1.0
  H  H36  1  0.58527000  0.73035000  0.38681000  1.0
  H  H37  1  0.41472000  0.26962000  0.61322000  1.0
  H  H38  1  0.54104000  0.99844000  0.09166000  1.0
  H  H39  1  0.45895000  0.00155000  0.90837000  1.0
  H  H40  1  0.43959000  0.94243000  0.24349000  1.0
  H  H41  1  0.56039000  0.05756000  0.75654000  1.0
  H  H42  1  0.45434000  0.86867000  0.13582000  1.0
  H  H43  1  0.54569000  0.13130000  0.86421000  1.0
  Pb  Pb44  1  0.86393000  0.14340000  0.06626000  1.0
  Pb  Pb45  1  0.13602000  0.85657000  0.93372000  1.0
  C  C46  1  0.57967000  0.20832000  0.25027000  1.0
  C  C47  1  0.42029000  0.79170000  0.74968000  1.0
  C  C48  1  0.42977000  0.24008000  0.33545000  1.0
  C  C49  1  0.57022000  0.75994000  0.66452000  1.0
  C  C50  1  0.34655000  0.37203000  0.33480000  1.0
  C  C51  1  0.65345000  0.62798000  0.66518000  1.0
  C  C52  1  0.20660000  0.39486000  0.41737000  1.0
  C  C53  1  0.79342000  0.60516000  0.58263000  1.0
  C  C54  1  0.15176000  0.28944000  0.50056000  1.0
  C  C55  1  0.84823000  0.71057000  0.49941000  1.0
  C  C56  1  0.23372000  0.15896000  0.50177000  1.0
  C  C57  1  0.76628000  0.84106000  0.49821000  1.0
  C  C58  1  0.37037000  0.13586000  0.41805000  1.0
  C  C59  1  0.62964000  0.86415000  0.58194000  1.0
  C  C60  1  0.23385000  0.72619000  0.34496000  1.0
  C  C61  1  0.76621000  0.27383000  0.65500000  1.0
  C  C62  1  0.30772000  0.63751000  0.44314000  1.0
  C  C63  1  0.69232000  0.36250000  0.55682000  1.0
  C  C64  1  0.30516000  0.68052000  0.53518000  1.0
  C  C65  1  0.69484000  0.31948000  0.46481000  1.0
  C  C66  1  0.23390000  0.81381000  0.52874000  1.0
  C  C67  1  0.76610000  0.18619000  0.47126000  1.0
  C  C68  1  0.16289000  0.90280000  0.43040000  1.0
  C  C69  1  0.83713000  0.09721000  0.56958000  1.0
  C  C70  1  0.15742000  0.86031000  0.34017000  1.0
  C  C71  1  0.84261000  0.13971000  0.65980000  1.0
  C  C72  1  0.06101000  0.95446000  0.24646000  1.0
  C  C73  1  0.93895000  0.04556000  0.75354000  1.0
  C  C74  1  0.83018000  0.48310000  0.96797000  1.0
  C  C75  1  0.16982000  0.51688000  0.03206000  1.0
  C  C76  1  0.97855000  0.61779000  0.79878000  1.0
  C  C77  1  0.02144000  0.38220000  0.20124000  1.0
  C  C78  1  0.72792000  0.72390000  0.91269000  1.0
  C  C79  1  0.27209000  0.27609000  0.08734000  1.0
  C  C80  1  0.79731000  0.83126000  0.13603000  1.0
  C  C81  1  0.20269000  0.16871000  0.86398000  1.0
  C  C82  1  0.65167000  0.69968000  0.30681000  1.0
  C  C83  1  0.34834000  0.30031000  0.69321000  1.0
  C  C84  1  0.51507000  0.91183000  0.16539000  1.0
  C  C85  1  0.48493000  0.08816000  0.83464000  1.0
  S  S86  1  0.42100000  0.50518000  0.22980000  1.0
  S  S87  1  0.57899000  0.49483000  0.77015000  1.0
  S  S88  1  0.23113000  0.67361000  0.22758000  1.0
  S  S89  1  0.76889000  0.32642000  0.77239000  1.0
  N  N90  1  0.84478000  0.60279000  0.89585000  1.0
  N  N91  1  0.15522000  0.39720000  0.10418000  1.0
  N  N92  1  0.65988000  0.81541000  0.19977000  1.0
  N  N93  1  0.34012000  0.18459000  0.80027000  1.0
  O  O94  1  0.64432000  0.30062000  0.18968000  1.0
  O  O95  1  0.35565000  0.69939000  0.81026000  1.0
  O  O96  1  0.63718000  0.09185000  0.24118000  1.0
  O  O97  1  0.36277000  0.90816000  0.75876000  1.0
  O  O98  1  0.01127000  0.07890000  0.23200000  1.0
  O  O99  1  0.98858000  0.92111000  0.76807000  1.0
  O  O100  1  0.02581000  0.90395000  0.18688000  1.0
  O  O101  1  0.97420000  0.09607000  0.81309000  1.0
  O  O102  1  0.92807000  0.37449000  0.96042000  1.0
  O  O103  1  0.07192000  0.62550000  0.03960000  1.0
  O  O104  1  0.81634000  0.92489000  0.03937000  1.0
  O  O105  1  0.18366000  0.07506000  0.96061000  1.0
