# generated using pymatgen
data_Zn4H57C88N27O22
_symmetry_space_group_name_H-M   'P 1'
_cell_length_a   19.32840000
_cell_length_b   19.63760000
_cell_length_c   20.11660000
_cell_angle_alpha   106.97400000
_cell_angle_beta   106.27900000
_cell_angle_gamma   113.59500000
_symmetry_Int_Tables_number   1
_chemical_formula_structural   Zn4H57C88N27O22
_chemical_formula_sum   'Zn4 H57 C88 N27 O22'
_cell_volume   5965.82749748
_cell_formula_units_Z   1
loop_
 _symmetry_equiv_pos_site_id
 _symmetry_equiv_pos_as_xyz
  1  'x, y, z'
loop_
 _atom_site_type_symbol
 _atom_site_label
 _atom_site_symmetry_multiplicity
 _atom_site_fract_x
 _atom_site_fract_y
 _atom_site_fract_z
 _atom_site_occupancy
  Zn  Zn0  1  0.12952000  0.12802000  0.50524000  1.0
  Zn  Zn1  1  0.89743000  0.88835000  0.50263000  1.0
  Zn  Zn2  1  0.99416000  0.90166000  0.38348000  1.0
  Zn  Zn3  1  0.00281000  0.08970000  0.59223000  1.0
  H  H4  1  0.72589000  0.85860000  0.39139000  1.0
  H  H5  1  0.74166000  0.66649000  0.39146000  1.0
  H  H6  1  0.87773000  0.12825000  0.49284000  1.0
  H  H7  1  0.85023000  0.90094000  0.26636000  1.0
  H  H8  1  0.28753000  0.14177000  0.63200000  1.0
  H  H9  1  0.00764000  0.85214000  0.61881000  1.0
  H  H10  1  0.14747000  0.87373000  0.34379000  1.0
  H  H11  1  0.93688000  0.11672000  0.72777000  1.0
  H  H12  1  0.80667000  0.84613000  0.61732000  1.0
  H  H13  1  0.11242000  0.07316000  0.72992000  1.0
  H  H14  1  0.15351000  0.80892000  0.66666667  1.0
  H  H15  1  0.95687000  0.64031000  0.43122000  1.0
  H  H16  1  0.89696000  0.48826000  0.37877000  1.0
  H  H17  1  0.89724000  0.36853000  0.39366000  1.0
  H  H18  1  0.21551000  0.63531000  0.76496000  1.0
  H  H19  1  0.21139000  0.75332000  0.74927000  1.0
  H  H20  1  0.34304000  0.06573000  0.34279000  1.0
  H  H21  1  0.58475000  0.09313000  0.30345000  1.0
  H  H22  1  0.69202000  0.05939000  0.35005000  1.0
  H  H23  1  0.67808000  0.93614000  0.49476000  1.0
  H  H24  1  0.43907000  0.91368000  0.53981000  1.0
  H  H25  1  0.79616000  0.55595000  0.18048000  1.0
  H  H26  1  0.68719000  0.41110000  0.07682000  1.0
  H  H27  1  0.38707000  0.14617000  0.73160000  1.0
  H  H28  1  0.62259000  0.55476000  0.27713000  1.0
  H  H29  1  0.37698000  0.24350000  0.98273000  1.0
  H  H30  1  0.51678000  0.40737000  0.17641000  1.0
  H  H31  1  0.88727000  0.17456000  0.14230000  1.0
  H  H32  1  0.93784000  0.17351000  0.27026000  1.0
  H  H33  1  0.82561000  0.86776000  0.74955000  1.0
  H  H34  1  0.75087000  0.90575000  0.02398000  1.0
  H  H35  1  0.78784000  0.87056000  0.85843000  1.0
  H  H36  1  0.80178000  0.90376000  0.15019000  1.0
  H  H37  1  0.11039000  0.14779000  0.31285000  1.0
  H  H38  1  0.17326000  0.21348000  0.41678000  1.0
  H  H39  1  0.14178000  0.25590000  0.35485000  1.0
  H  H40  1  0.12863000  0.72942000  0.45652000  1.0
  H  H41  1  0.19623000  0.83024000  0.46479000  1.0
  H  H42  1  0.13274000  0.73906000  0.37181000  1.0
  H  H43  1  0.41990000  0.03920000  0.61599000  1.0
  H  H44  1  0.31787000  0.97129000  0.60645000  1.0
  H  H45  1  0.33207000  0.05048000  0.57524000  1.0
  H  H46  1  0.43998000  0.14987000  0.21698000  1.0
  H  H47  1  0.48044000  0.08186000  0.20247000  1.0
  H  H48  1  0.54532000  0.18517000  0.28362000  1.0
  H  H49  1  0.92617000  0.31177000  0.61739000  1.0
  H  H50  1  0.01648000  0.37111000  0.71271000  1.0
  H  H51  1  0.91869000  0.28643000  0.69482000  1.0
  H  H52  1  0.25327000  0.24011000  0.95887000  1.0
  H  H53  1  0.24758000  0.14854000  0.96498000  1.0
  H  H54  1  0.15273000  0.14421000  0.91235000  1.0
  H  H55  1  0.87516000  0.21226000  0.92615000  1.0
  H  H56  1  0.85578000  0.17504000  0.99568000  1.0
  H  H57  1  0.79332000  0.21216000  0.95175000  1.0
  H  H58  1  0.19921000  0.44332000  0.55952000  1.0
  H  H59  1  0.11693000  0.36005000  0.46378000  1.0
  H  H60  1  0.22644000  0.39815000  0.48801000  1.0
  C  C61  1  0.99773000  0.09973000  0.35597000  1.0
  C  C62  1  0.77581000  0.92412000  0.42005000  1.0
  C  C63  1  0.83593000  0.72555000  0.28987000  1.0
  C  C64  1  0.03920000  0.26057000  0.61674000  1.0
  C  C65  1  0.77682000  0.69496000  0.36365000  1.0
  C  C66  1  0.12569000  0.29238000  0.56324000  1.0
  C  C67  1  0.85335000  0.06181000  0.47107000  1.0
  C  C68  1  0.90326000  0.96508000  0.30216000  1.0
  C  C69  1  0.91966000  0.03584000  0.28992000  1.0
  C  C70  1  0.76906000  0.99463000  0.43057000  1.0
  C  C71  1  0.77416000  0.65597000  0.29142000  1.0
  C  C72  1  0.07750000  0.32007000  0.59233000  1.0
  C  C73  1  0.23339000  0.11922000  0.64378000  1.0
  C  C74  1  0.02141000  0.84839000  0.56948000  1.0
  C  C75  1  0.17042000  0.93888000  0.37911000  1.0
  C  C76  1  0.91102000  0.05076000  0.69231000  1.0
  C  C77  1  0.84592000  0.91270000  0.63675000  1.0
  C  C78  1  0.24144000  0.07418000  0.45166000  1.0
  C  C79  1  0.14461000  0.08602000  0.69488000  1.0
  C  C80  1  0.05185000  0.81743000  0.47098000  1.0
  C  C81  1  0.22998000  0.11392000  0.71147000  1.0
  C  C82  1  0.04995000  0.79985000  0.53405000  1.0
  C  C83  1  0.25270000  0.00833000  0.41611000  1.0
  C  C84  1  0.85495000  0.98037000  0.69549000  1.0
  C  C85  1  0.11016000  0.74537000  0.61902000  1.0
  C  C86  1  0.05546000  0.73231000  0.54763000  1.0
  C  C87  1  0.00044000  0.65051000  0.48639000  1.0
  C  C88  1  0.99888000  0.58175000  0.49479000  1.0
  C  C89  1  0.05575000  0.59529000  0.56703000  1.0
  C  C90  1  0.11172000  0.67825000  0.62972000  1.0
  C  C91  1  0.94124000  0.49804000  0.43328000  1.0
  C  C92  1  0.94115000  0.43153000  0.44164000  1.0
  C  C93  1  0.00018000  0.44385000  0.51243000  1.0
  C  C94  1  0.05703000  0.52651000  0.57585000  1.0
  C  C95  1  0.11601000  0.54082000  0.64755000  1.0
  C  C96  1  0.17118000  0.62439000  0.70996000  1.0
  C  C97  1  0.16874000  0.69000000  0.70123000  1.0
  C  C98  1  0.00599000  0.37855000  0.52344000  1.0
  C  C99  1  0.06656000  0.38965000  0.59031000  1.0
  C  C100  1  0.11898000  0.47147000  0.65107000  1.0
  C  C101  1  0.36331000  0.97557000  0.46219000  1.0
  C  C102  1  0.32972000  0.00878000  0.41859000  1.0
  C  C103  1  0.36905000  0.03978000  0.37642000  1.0
  C  C104  1  0.44059000  0.03774000  0.37606000  1.0
  C  C105  1  0.47433000  0.00298000  0.41937000  1.0
  C  C106  1  0.43489000  0.97180000  0.46294000  1.0
  C  C107  1  0.48177000  0.06956000  0.33286000  1.0
  C  C108  1  0.55285000  0.06832000  0.33515000  1.0
  C  C109  1  0.58741000  0.03378000  0.37875000  1.0
  C  C110  1  0.54656000  0.99932000  0.42023000  1.0
  C  C111  1  0.57921000  0.96253000  0.46235000  1.0
  C  C112  1  0.53667000  0.93202000  0.50523000  1.0
  C  C113  1  0.46854000  0.93735000  0.50628000  1.0
  C  C114  1  0.66026000  0.03250000  0.38103000  1.0
  C  C115  1  0.69187000  0.99657000  0.42198000  1.0
  C  C116  1  0.65121000  0.96197000  0.46194000  1.0
  C  C117  1  0.30297000  0.14567000  0.78386000  1.0
  C  C118  1  0.30133000  0.16869000  0.85741000  1.0
  C  C119  1  0.37616000  0.21751000  0.92658000  1.0
  C  C120  1  0.45547000  0.24201000  0.92731000  1.0
  C  C121  1  0.45619000  0.21034000  0.85495000  1.0
  C  C122  1  0.38180000  0.16488000  0.78560000  1.0
  C  C123  1  0.67462000  0.44321000  0.12176000  1.0
  C  C124  1  0.73488000  0.52433000  0.17961000  1.0
  C  C125  1  0.59461000  0.40202000  0.11922000  1.0
  C  C126  1  0.71668000  0.56744000  0.23512000  1.0
  C  C127  1  0.63827000  0.52317000  0.23482000  1.0
  C  C128  1  0.57859000  0.44103000  0.17856000  1.0
  C  C129  1  0.87718000  0.03883000  0.21955000  1.0
  C  C130  1  0.81985000  0.96348000  0.14912000  1.0
  C  C131  1  0.79095000  0.96389000  0.07830000  1.0
  C  C132  1  0.81848000  0.04068000  0.07525000  1.0
  C  C133  1  0.86818000  0.11562000  0.14531000  1.0
  C  C134  1  0.89703000  0.11492000  0.21655000  1.0
  C  C135  1  0.78729000  0.04221000  0.85328000  1.0
  C  C136  1  0.80465000  0.03625000  0.78931000  1.0
  C  C137  1  0.78522000  0.98233000  0.88038000  1.0
  C  C138  1  0.82247000  0.97710000  0.75238000  1.0
  C  C139  1  0.81306000  0.91526000  0.77689000  1.0
  C  C140  1  0.79291000  0.91702000  0.83781000  1.0
  C  C141  1  0.12260000  0.19992000  0.36367000  1.0
  C  C142  1  0.13569000  0.77027000  0.42832000  1.0
  C  C143  1  0.35096000  0.00549000  0.57993000  1.0
  C  C144  1  0.48025000  0.13082000  0.24632000  1.0
  C  C145  1  0.96069000  0.30907000  0.66927000  1.0
  C  C146  1  0.22012000  0.17144000  0.92770000  1.0
  C  C147  1  0.82734000  0.17983000  0.94305000  1.0
  C  C148  1  0.17968000  0.38518000  0.51051000  1.0
  N  N149  1  0.02424000  0.06927000  0.40259000  1.0
  N  N150  1  0.85808000  0.94815000  0.45288000  1.0
  N  N151  1  0.86864000  0.79734000  0.35373000  1.0
  N  N152  1  0.06253000  0.20426000  0.60337000  1.0
  N  N153  1  0.83295000  0.77862000  0.39918000  1.0
  N  N154  1  0.11557000  0.22302000  0.56873000  1.0
  N  N155  1  0.90604000  0.03310000  0.48534000  1.0
  N  N156  1  0.96618000  0.98525000  0.36845000  1.0
  N  N157  1  0.15724000  0.09752000  0.59275000  1.0
  N  N158  1  0.00657000  0.89047000  0.53038000  1.0
  N  N159  1  0.11642000  0.96274000  0.39252000  1.0
  N  N160  1  0.93357000  0.02657000  0.63655000  1.0
  N  N161  1  0.89301000  0.94079000  0.60190000  1.0
  N  N162  1  0.16025000  0.04536000  0.43728000  1.0
  N  N163  1  0.10263000  0.07695000  0.62419000  1.0
  N  N164  1  0.02855000  0.87352000  0.47129000  1.0
  N  N165  1  0.53023000  0.30802000  0.99374000  1.0
  N  N166  1  0.52500000  0.32486000  0.05740000  1.0
  N  N167  1  0.80940000  0.04832000  0.00620000  1.0
  N  N168  1  0.78085000  0.97957000  0.94789000  1.0
  N  N169  1  0.29913000  0.16137000  0.50023000  1.0
  N  N170  1  0.94521000  0.29275000  0.45968000  1.0
  N  N171  1  0.18443000  0.48615000  0.72209000  1.0
  N  N172  1  0.87001000  0.73451000  0.23647000  1.0
  N  N173  1  0.56280000  0.89146000  0.55002000  1.0
  N  N174  1  0.53504000  0.22610000  0.85066000  1.0
  N  N175  1  0.80208000  0.09528000  0.75810000  1.0
  O  O176  1  0.04560000  0.18058000  0.37150000  1.0
  O  O177  1  0.37477000  0.19181000  0.51578000  1.0
  O  O178  1  0.26970000  0.20483000  0.52655000  1.0
  O  O179  1  0.06602000  0.78406000  0.41084000  1.0
  O  O180  1  0.89152000  0.24450000  0.47217000  1.0
  O  O181  1  0.95031000  0.27542000  0.39763000  1.0
  O  O182  1  0.24783000  0.48775000  0.71867000  1.0
  O  O183  1  0.17093000  0.49621000  0.77988000  1.0
  O  O184  1  0.32559000  0.94365000  0.50383000  1.0
  O  O185  1  0.44398000  0.09975000  0.29170000  1.0
  O  O186  1  0.93782000  0.80342000  0.26081000  1.0
  O  O187  1  0.83424000  0.67734000  0.16962000  1.0
  O  O188  1  0.59796000  0.85457000  0.52855000  1.0
  O  O189  1  0.54633000  0.89469000  0.60577000  1.0
  O  O190  1  0.53738000  0.22145000  0.78830000  1.0
  O  O191  1  0.59477000  0.24269000  0.90939000  1.0
  O  O192  1  0.98466000  0.24843000  0.64811000  1.0
  O  O193  1  0.22389000  0.14460000  0.85522000  1.0
  O  O194  1  0.86231000  0.16912000  0.79643000  1.0
  O  O195  1  0.74094000  0.06691000  0.69552000  1.0
  O  O196  1  0.76313000  0.09678000  0.87982000  1.0
  O  O197  1  0.18058000  0.32433000  0.53585000  1.0
