# generated using pymatgen
data_Cu4SiH8(C3N2)4
_symmetry_space_group_name_H-M   'P 1'
_cell_length_a   15.53530000
_cell_length_b   15.56940000
_cell_length_c   15.68900000
_cell_angle_alpha   89.94430000
_cell_angle_beta   89.92830000
_cell_angle_gamma   89.90560000
_symmetry_Int_Tables_number   1
_chemical_formula_structural   Cu4SiH8(C3N2)4
_chemical_formula_sum   'Cu12 Si3 H24 C36 N24'
_cell_volume   3794.77167141
_cell_formula_units_Z   3
loop_
 _symmetry_equiv_pos_site_id
 _symmetry_equiv_pos_as_xyz
  1  'x, y, z'
loop_
 _atom_site_type_symbol
 _atom_site_label
 _atom_site_symmetry_multiplicity
 _atom_site_fract_x
 _atom_site_fract_y
 _atom_site_fract_z
 _atom_site_occupancy
  Cu  Cu0  1  0.73846000  0.73641000  0.87966000  1.0
  Cu  Cu1  1  0.90192000  0.75772000  0.76078000  1.0
  Cu  Cu2  1  0.74006000  0.87816000  0.73360000  1.0
  Cu  Cu3  1  0.73919000  0.25099000  0.10809000  1.0
  Cu  Cu4  1  0.87048000  0.25807000  0.26222000  1.0
  Cu  Cu5  1  0.74933000  0.09611000  0.23936000  1.0
  Cu  Cu6  1  0.26009000  0.73741000  0.12224000  1.0
  Cu  Cu7  1  0.11943000  0.74111000  0.26912000  1.0
  Cu  Cu8  1  0.25586000  0.89257000  0.25185000  1.0
  Cu  Cu9  1  0.25520000  0.26077000  0.88491000  1.0
  Cu  Cu10  1  0.10415000  0.26277000  0.74838000  1.0
  Cu  Cu11  1  0.25833000  0.12868000  0.73273000  1.0
  Si  Si12  1  0.00068000  0.00531000  0.49988000  1.0
  Si  Si13  1  0.99823000  0.50109000  0.01333000  1.0
  Si  Si14  1  0.49557000  0.99462000  0.98587000  1.0
  H  H15  1  0.79993000  0.58202000  0.99829000  1.0
  H  H16  1  0.02898000  0.62374000  0.84711000  1.0
  H  H17  1  0.59046000  0.99945000  0.79792000  1.0
  H  H18  1  0.58432000  0.80255000  0.99245000  1.0
  H  H19  1  0.03107000  0.83891000  0.62625000  1.0
  H  H20  1  0.80212000  0.98829000  0.57393000  1.0
  H  H21  1  0.81370000  0.39890000  0.99097000  1.0
  H  H22  1  0.99053000  0.41092000  0.20343000  1.0
  H  H23  1  0.60846000  0.97140000  0.16099000  1.0
  H  H24  1  0.58814000  0.18676000  0.98783000  1.0
  H  H25  1  0.97924000  0.20154000  0.42303000  1.0
  H  H26  1  0.83192000  0.97058000  0.37691000  1.0
  H  H27  1  0.19173000  0.58527000  0.00976000  1.0
  H  H28  1  0.99147000  0.59784000  0.20147000  1.0
  H  H29  1  0.39747000  0.01456000  0.16963000  1.0
  H  H30  1  0.40195000  0.80233000  0.99182000  1.0
  H  H31  1  0.00656000  0.80950000  0.42301000  1.0
  H  H32  1  0.18237000  0.02218000  0.38890000  1.0
  H  H33  1  0.18916000  0.40283000  0.01281000  1.0
  H  H34  1  0.98306000  0.40727000  0.82765000  1.0
  H  H35  1  0.40359000  0.00005000  0.79601000  1.0
  H  H36  1  0.40111000  0.18349000  0.00304000  1.0
  H  H37  1  0.97669000  0.18638000  0.60974000  1.0
  H  H38  1  0.19623000  0.01809000  0.57697000  1.0
  C  C39  1  0.84866000  0.60211000  0.95282000  1.0
  C  C40  1  0.93437000  0.57440000  0.94458000  1.0
  C  C41  1  0.96533000  0.62343000  0.87578000  1.0
  C  C42  1  0.59848000  0.94282000  0.83762000  1.0
  C  C43  1  0.55897000  0.92254000  0.91573000  1.0
  C  C44  1  0.59538000  0.84260000  0.93678000  1.0
  C  C45  1  0.96734000  0.86756000  0.62336000  1.0
  C  C46  1  0.93696000  0.93462000  0.57127000  1.0
  C  C47  1  0.85071000  0.94371000  0.59686000  1.0
  C  C48  1  0.84861000  0.39226000  0.05057000  1.0
  C  C49  1  0.92426000  0.43358000  0.07750000  1.0
  C  C50  1  0.93866000  0.39841000  0.15881000  1.0
  C  C51  1  0.61362000  0.03170000  0.12649000  1.0
  C  C52  1  0.56917000  0.05919000  0.05333000  1.0
  C  C53  1  0.60316000  0.14141000  0.03831000  1.0
  C  C54  1  0.93482000  0.15217000  0.40188000  1.0
  C  C55  1  0.92711000  0.06654000  0.42918000  1.0
  C  C56  1  0.85978000  0.03453000  0.37845000  1.0
  C  C57  1  0.15087000  0.59762000  0.06469000  1.0
  C  C58  1  0.06942000  0.56381000  0.08465000  1.0
  C  C59  1  0.04888000  0.60403000  0.16232000  1.0
  C  C60  1  0.38907000  0.95500000  0.13461000  1.0
  C  C61  1  0.42681000  0.92884000  0.05733000  1.0
  C  C62  1  0.39145000  0.84692000  0.04402000  1.0
  C  C63  1  0.05746000  0.85375000  0.40499000  1.0
  C  C64  1  0.07329000  0.93768000  0.43400000  1.0
  C  C65  1  0.14698000  0.96207000  0.38785000  1.0
  C  C66  1  0.14602000  0.39438000  0.95905000  1.0
  C  C67  1  0.06567000  0.43265000  0.94298000  1.0
  C  C68  1  0.04113000  0.39639000  0.86464000  1.0
  C  C69  1  0.39371000  0.05377000  0.83909000  1.0
  C  C70  1  0.42967000  0.06861000  0.91993000  1.0
  C  C71  1  0.39237000  0.14711000  0.94464000  1.0
  C  C72  1  0.03826000  0.15320000  0.61108000  1.0
  C  C73  1  0.06563000  0.08056000  0.56503000  1.0
  C  C74  1  0.15005000  0.06751000  0.59450000  1.0
  N  N75  1  0.90316000  0.67578000  0.84570000  1.0
  N  N76  1  0.83022000  0.66245000  0.89366000  1.0
  N  N77  1  0.65188000  0.81755000  0.87623000  1.0
  N  N78  1  0.65372000  0.88009000  0.81428000  1.0
  N  N79  1  0.83146000  0.88677000  0.65897000  1.0
  N  N80  1  0.90431000  0.83927000  0.67545000  1.0
  N  N81  1  0.87662000  0.34109000  0.17852000  1.0
  N  N82  1  0.82049000  0.33718000  0.11094000  1.0
  N  N83  1  0.66267000  0.16117000  0.09773000  1.0
  N  N84  1  0.66925000  0.09261000  0.15271000  1.0
  N  N85  1  0.83007000  0.09616000  0.32555000  1.0
  N  N86  1  0.87688000  0.16958000  0.34013000  1.0
  N  N87  1  0.11291000  0.65726000  0.18637000  1.0
  N  N88  1  0.17646000  0.65339000  0.12538000  1.0
  N  N89  1  0.33734000  0.82616000  0.10818000  1.0
  N  N90  1  0.33567000  0.89370000  0.16458000  1.0
  N  N91  1  0.17271000  0.89792000  0.33585000  1.0
  N  N92  1  0.11674000  0.83037000  0.34639000  1.0
  N  N93  1  0.10184000  0.34108000  0.83661000  1.0
  N  N94  1  0.16742000  0.34003000  0.89543000  1.0
  N  N95  1  0.33871000  0.17636000  0.88354000  1.0
  N  N96  1  0.33966000  0.11823000  0.81762000  1.0
  N  N97  1  0.17103000  0.12729000  0.65316000  1.0
  N  N98  1  0.10128000  0.18082000  0.66344000  1.0
