# generated using pymatgen
data_AlH12C24(NO2)3
_symmetry_space_group_name_H-M   'P 1'
_cell_length_a   3.97041000
_cell_length_b   15.78180000
_cell_length_c   15.81401997
_cell_angle_alpha   60.11254069
_cell_angle_beta   89.39721001
_cell_angle_gamma   87.28040000
_symmetry_Int_Tables_number   1
_chemical_formula_structural   AlH12C24(NO2)3
_chemical_formula_sum   'Al1 H12 C24 N3 O6'
_cell_volume   858.05852250
_cell_formula_units_Z   1
loop_
 _symmetry_equiv_pos_site_id
 _symmetry_equiv_pos_as_xyz
  1  'x, y, z'
loop_
 _atom_site_type_symbol
 _atom_site_label
 _atom_site_symmetry_multiplicity
 _atom_site_fract_x
 _atom_site_fract_y
 _atom_site_fract_z
 _atom_site_occupancy
  Al  Al0  1  0.96892000  0.00123000  0.50024000  1.0
  H  H1  1  0.21791000  0.98672000  0.24848000  1.0
  H  H2  1  0.23814000  0.89824000  0.15320000  1.0
  H  H3  1  0.22785000  0.75110000  0.76804000  1.0
  H  H4  1  0.25104000  0.65636000  0.95118000  1.0
  H  H5  1  0.14230000  0.27574000  0.47646000  1.0
  H  H6  1  0.16419000  0.45893000  0.38774000  1.0
  H  H7  1  0.71422000  0.26620000  0.24894000  1.0
  H  H8  1  0.69432000  0.44992000  0.15375000  1.0
  H  H9  1  0.74268000  0.98336000  0.77040000  1.0
  H  H10  1  0.72593000  0.89425000  0.95349000  1.0
  H  H11  1  0.76589000  0.74367000  0.48433000  1.0
  H  H12  1  0.74046000  0.64944000  0.39520000  1.0
  C  C13  1  0.48581000  0.92468000  0.42604000  1.0
  C  C14  1  0.44310000  0.15186000  0.42388000  1.0
  C  C15  1  0.47783000  0.92695000  0.65041000  1.0
  C  C16  1  0.49146000  0.87028000  0.37156000  1.0
  C  C17  1  0.48410000  0.87249000  0.75894000  1.0
  C  C18  1  0.43101000  0.26069000  0.36821000  1.0
  C  C19  1  0.33970000  0.91393000  0.27865000  1.0
  C  C20  1  0.34816000  0.86465000  0.22632000  1.0
  C  C21  1  0.34361000  0.78056000  0.80945000  1.0
  C  C22  1  0.35404000  0.72848000  0.91072000  1.0
  C  C23  1  0.27010000  0.31457000  0.40698000  1.0
  C  C24  1  0.27972000  0.41602000  0.35749000  1.0
  C  C25  1  0.58644000  0.30937000  0.27718000  1.0
  C  C26  1  0.57806000  0.41094000  0.22498000  1.0
  C  C27  1  0.62834000  0.91280000  0.81078000  1.0
  C  C28  1  0.62173000  0.86308000  0.91214000  1.0
  C  C29  1  0.64335000  0.77578000  0.41288000  1.0
  C  C30  1  0.63209000  0.72396000  0.36314000  1.0
  C  C31  1  0.48829000  0.76861000  0.26905000  1.0
  C  C32  1  0.48051000  0.71501000  0.21479000  1.0
  C  C33  1  0.48760000  0.77007000  0.96281000  1.0
  C  C34  1  0.48172000  0.71604000  0.07046000  1.0
  C  C35  1  0.43258000  0.46483000  0.26596000  1.0
  C  C36  1  0.44921000  0.57238000  0.21322000  1.0
  N  N37  1  0.49529000  0.76778000  0.11688000  1.0
  N  N38  1  0.46007000  0.61829000  0.11530000  1.0
  N  N39  1  0.45673000  0.61727000  0.26659000  1.0
  O  O40  1  0.70233000  0.98925000  0.60699000  1.0
  O  O41  1  0.72337000  0.90569000  0.48763000  1.0
  O  O42  1  0.68641000  0.10740000  0.40607000  1.0
  O  O43  1  0.24765000  0.90783000  0.60746000  1.0
  O  O44  1  0.21250000  0.10983000  0.48584000  1.0
  O  O45  1  0.24132000  0.98740000  0.40724000  1.0
