# generated using pymatgen
data_FeHC3N3Cl
_symmetry_space_group_name_H-M   'P 1'
_cell_length_a   8.10227000
_cell_length_b   14.64221510
_cell_length_c   14.64580000
_cell_angle_alpha   116.21151104
_cell_angle_beta   100.63300000
_cell_angle_gamma   100.48930122
_symmetry_Int_Tables_number   1
_chemical_formula_structural   FeHC3N3Cl
_chemical_formula_sum   'Fe6 H6 C18 N18 Cl6'
_cell_volume   1462.03740997
_cell_formula_units_Z   6
loop_
 _symmetry_equiv_pos_site_id
 _symmetry_equiv_pos_as_xyz
  1  'x, y, z'
loop_
 _atom_site_type_symbol
 _atom_site_label
 _atom_site_symmetry_multiplicity
 _atom_site_fract_x
 _atom_site_fract_y
 _atom_site_fract_z
 _atom_site_occupancy
  Fe  Fe0  1  0.99877000  0.28638000  0.71267000  1.0
  Fe  Fe1  1  0.70021000  0.41667000  0.70624000  1.0
  Fe  Fe2  1  0.30045000  0.29349000  0.58414000  1.0
  Fe  Fe3  1  0.99957000  0.71030000  0.29036000  1.0
  Fe  Fe4  1  0.29291000  0.58250000  0.29186000  1.0
  Fe  Fe5  1  0.70866000  0.70904000  0.41869000  1.0
  H  H6  1  0.80499000  0.99914000  0.58068000  1.0
  H  H7  1  0.77244000  0.57926000  0.58080000  1.0
  H  H8  1  0.22719000  0.41690000  0.41842000  1.0
  H  H9  1  0.80970000  0.58529000  0.00173000  1.0
  H  H10  1  0.19497000  0.41928000  0.00277000  1.0
  H  H11  1  0.18982000  0.99965000  0.41387000  1.0
  C  C12  1  0.63013000  0.09270000  0.56663000  1.0
  C  C13  1  0.93613000  0.47361000  0.56935000  1.0
  C  C14  1  0.06367000  0.42813000  0.52392000  1.0
  C  C15  1  0.54134000  0.47983000  0.90831000  1.0
  C  C16  1  0.36915000  0.43303000  0.90888000  1.0
  C  C17  1  0.45782000  0.09298000  0.51944000  1.0
  C  C18  1  0.36507000  0.90611000  0.42772000  1.0
  C  C19  1  0.06363000  0.52252000  0.42987000  1.0
  C  C20  1  0.93618000  0.56816000  0.47551000  1.0
  C  C21  1  0.46232000  0.52519000  0.09559000  1.0
  C  C22  1  0.63487000  0.57180000  0.09515000  1.0
  C  C23  1  0.53781000  0.90592000  0.47417000  1.0
  C  C24  1  0.67461000  0.99926000  0.54561000  1.0
  C  C25  1  0.86975000  0.54543000  0.54706000  1.0
  C  C26  1  0.12989000  0.45061000  0.45226000  1.0
  C  C27  1  0.67892000  0.55076000  0.00164000  1.0
  C  C28  1  0.32531000  0.45406000  0.00260000  1.0
  C  C29  1  0.32070000  0.99980000  0.44859000  1.0
  N  N30  1  0.72958000  0.19753000  0.63197000  1.0
  N  N31  1  0.90073000  0.43261000  0.63443000  1.0
  N  N32  1  0.09968000  0.36329000  0.56524000  1.0
  N  N33  1  0.53509000  0.43994000  0.80311000  1.0
  N  N34  1  0.26926000  0.36797000  0.80429000  1.0
  N  N35  1  0.46331000  0.19838000  0.55945000  1.0
  N  N36  1  0.26535000  0.80124000  0.36393000  1.0
  N  N37  1  0.09962000  0.56377000  0.36518000  1.0
  N  N38  1  0.90052000  0.63340000  0.43483000  1.0
  N  N39  1  0.46706000  0.56516000  0.20081000  1.0
  N  N40  1  0.73476000  0.63625000  0.20015000  1.0
  N  N41  1  0.53366000  0.80098000  0.43473000  1.0
  N  N42  1  0.62638000  0.25669000  0.62508000  1.0
  N  N43  1  0.00016000  0.36849000  0.62962000  1.0
  N  N44  1  0.37231000  0.37478000  0.74540000  1.0
  N  N45  1  0.37055000  0.74239000  0.37042000  1.0
  N  N46  1  0.00003000  0.62825000  0.37061000  1.0
  N  N47  1  0.63009000  0.62996000  0.25920000  1.0
  Cl  Cl48  1  0.91719000  0.41660000  0.84519000  1.0
  Cl  Cl49  1  0.08412000  0.15440000  0.58572000  1.0
  Cl  Cl50  1  0.50050000  0.42657000  0.57281000  1.0
  Cl  Cl51  1  0.07644000  0.57658000  0.14986000  1.0
  Cl  Cl52  1  0.92551000  0.85050000  0.42543000  1.0
  Cl  Cl53  1  0.50112000  0.57647000  0.42801000  1.0
