# generated using pymatgen
data_CuH12C20(NO2)2
_symmetry_space_group_name_H-M   'P 1'
_cell_length_a   9.15866000
_cell_length_b   9.15866000
_cell_length_c   10.25540000
_cell_angle_alpha   88.22990000
_cell_angle_beta   88.22970000
_cell_angle_gamma   66.95660000
_symmetry_Int_Tables_number   1
_chemical_formula_structural   CuH12C20(NO2)2
_chemical_formula_sum   'Cu2 H24 C40 N4 O8'
_cell_volume   791.05144834
_cell_formula_units_Z   2
loop_
 _symmetry_equiv_pos_site_id
 _symmetry_equiv_pos_as_xyz
  1  'x, y, z'
loop_
 _atom_site_type_symbol
 _atom_site_label
 _atom_site_symmetry_multiplicity
 _atom_site_fract_x
 _atom_site_fract_y
 _atom_site_fract_z
 _atom_site_occupancy
  Cu  Cu0  1  0.68817000  0.58268000  0.78336000  1.0
  Cu  Cu1  1  0.58268000  0.68817000  0.28336000  1.0
  H  H2  1  0.85763000  0.65548000  0.53070000  1.0
  H  H3  1  0.65548000  0.85763000  0.03070000  1.0
  H  H4  1  0.12498000  0.51833000  0.42915000  1.0
  H  H5  1  0.51833000  0.12498000  0.92916000  1.0
  H  H6  1  0.31006000  0.25674000  0.52236000  1.0
  H  H7  1  0.25674000  0.31005000  0.02236000  1.0
  H  H8  1  0.34761000  0.02880000  0.68922000  1.0
  H  H9  1  0.02880000  0.34761000  0.18922000  1.0
  H  H10  1  0.24287000  0.92338000  0.87636000  1.0
  H  H11  1  0.92338000  0.24287000  0.37636000  1.0
  H  H12  1  0.01499000  0.95973000  0.04288000  1.0
  H  H13  1  0.95973000  0.01499000  0.54288000  1.0
  H  H14  1  0.75328000  0.14411000  0.13634000  1.0
  H  H15  1  0.14411000  0.75328000  0.63634000  1.0
  H  H16  1  0.61586000  0.41190000  0.03563000  1.0
  H  H17  1  0.41190000  0.61586000  0.53563000  1.0
  H  H18  1  0.36871000  0.67840000  0.11221000  1.0
  H  H19  1  0.67840000  0.36871000  0.61221000  1.0
  H  H20  1  0.13822000  0.70926000  0.26419000  1.0
  H  H21  1  0.70925000  0.13821000  0.76419000  1.0
  H  H22  1  0.90250000  0.59198000  0.95413000  1.0
  H  H23  1  0.59197000  0.90250000  0.45413000  1.0
  H  H24  1  0.13264000  0.56194000  0.80194000  1.0
  H  H25  1  0.56194000  0.13264000  0.30194000  1.0
  C  C26  1  0.94043000  0.54404000  0.57236000  1.0
  C  C27  1  0.54404000  0.94043000  0.07236000  1.0
  C  C28  1  0.09149000  0.46443000  0.51479000  1.0
  C  C29  1  0.46443000  0.09148000  0.01479000  1.0
  C  C30  1  0.19248000  0.31970000  0.56562000  1.0
  C  C31  1  0.31970000  0.19248000  0.06563000  1.0
  C  C32  1  0.14107000  0.25167000  0.67397000  1.0
  C  C33  1  0.25167000  0.14108000  0.17397000  1.0
  C  C34  1  0.23113000  0.09908000  0.73103000  1.0
  C  C35  1  0.09908000  0.23113000  0.23103000  1.0
  C  C36  1  0.17224000  0.03978000  0.83457000  1.0
  C  C37  1  0.03978000  0.17224000  0.33457000  1.0
  C  C38  1  0.01963000  0.12944000  0.89176000  1.0
  C  C39  1  0.12944000  0.01963000  0.39176000  1.0
  C  C40  1  0.95180000  0.07745000  0.99988000  1.0
  C  C41  1  0.07745000  0.95180000  0.49988000  1.0
  C  C42  1  0.80704000  0.17812000  0.05088000  1.0
  C  C43  1  0.17812000  0.80704000  0.55088000  1.0
  C  C44  1  0.72723000  0.32936000  0.99371000  1.0
  C  C45  1  0.32936000  0.72723000  0.49371000  1.0
  C  C46  1  0.92967000  0.28176000  0.83853000  1.0
  C  C47  1  0.28176000  0.92966000  0.33853000  1.0
  C  C48  1  0.98880000  0.34132000  0.72742000  1.0
  C  C49  1  0.34132000  0.98880000  0.22742000  1.0
  C  C50  1  0.40132000  0.59897000  0.85771000  1.0
  C  C51  1  0.59897000  0.40132000  0.35771000  1.0
  C  C52  1  0.26293000  0.62041000  0.94818000  1.0
  C  C53  1  0.62040000  0.26293000  0.44818000  1.0
  C  C54  1  0.26505000  0.66180000  0.07836000  1.0
  C  C55  1  0.66181000  0.26505000  0.57836000  1.0
  C  C56  1  0.13854000  0.67676000  0.16281000  1.0
  C  C57  1  0.67676000  0.13854000  0.66282000  1.0
  C  C58  1  0.00809000  0.65040000  0.11809000  1.0
  C  C59  1  0.65040000  0.00809000  0.61808000  1.0
  C  C60  1  0.00602000  0.60889000  0.98790000  1.0
  C  C61  1  0.60889000  0.00602000  0.48790000  1.0
  C  C62  1  0.13242000  0.59417000  0.90337000  1.0
  C  C63  1  0.59417000  0.13242000  0.40337000  1.0
  C  C64  1  0.86985000  0.67180000  0.20877000  1.0
  C  C65  1  0.67180000  0.86985000  0.70877000  1.0
  N  N66  1  0.89209000  0.48502000  0.67769000  1.0
  N  N67  1  0.48502000  0.89209000  0.17769000  1.0
  N  N68  1  0.78606000  0.37821000  0.88855000  1.0
  N  N69  1  0.37821000  0.78606000  0.38855000  1.0
  O  O70  1  0.41856000  0.52539000  0.75378000  1.0
  O  O71  1  0.52539000  0.41856000  0.25378000  1.0
  O  O72  1  0.49942000  0.65864000  0.89766000  1.0
  O  O73  1  0.65864000  0.49942000  0.39766000  1.0
  O  O74  1  0.85279000  0.74573000  0.31251000  1.0
  O  O75  1  0.74573000  0.85279000  0.81250000  1.0
  O  O76  1  0.77184000  0.61179000  0.16929000  1.0
  O  O77  1  0.61179000  0.77184000  0.66929000  1.0
