# generated using pymatgen
data_Zr6H15C52S10O32F5
_symmetry_space_group_name_H-M   'P 1'
_cell_length_a   16.45390000
_cell_length_b   16.45292117
_cell_length_c   16.46400000
_cell_angle_alpha   119.75006654
_cell_angle_beta   119.74940000
_cell_angle_gamma   88.77537328
_symmetry_Int_Tables_number   1
_chemical_formula_structural   Zr6H15C52S10O32F5
_chemical_formula_sum   'Zr6 H15 C52 S10 O32 F5'
_cell_volume   3206.64147021
_cell_formula_units_Z   1
loop_
 _symmetry_equiv_pos_site_id
 _symmetry_equiv_pos_as_xyz
  1  'x, y, z'
loop_
 _atom_site_type_symbol
 _atom_site_label
 _atom_site_symmetry_multiplicity
 _atom_site_fract_x
 _atom_site_fract_y
 _atom_site_fract_z
 _atom_site_occupancy
  Zr  Zr0  1  0.90253000  0.40244000  0.51469000  1.0
  Zr  Zr1  1  0.10181000  0.60165000  0.48991000  1.0
  Zr  Zr2  1  0.89288000  0.39243000  0.29039000  1.0
  Zr  Zr3  1  0.11144000  0.61085000  0.71341000  1.0
  Zr  Zr4  1  0.89283000  0.61078000  0.50190000  1.0
  Zr  Zr5  1  0.11097000  0.39241000  0.50186000  1.0
  H  H6  1  0.75210000  0.42284000  0.34537000  1.0
  H  H7  1  0.08133000  0.75184000  0.65913000  1.0
  H  H8  1  0.08109000  0.40986000  0.32657000  1.0
  H  H9  1  0.09403000  0.42279000  0.67792000  1.0
  H  H10  1  0.61144000  0.63792000  0.51240000  1.0
  H  H11  1  0.12647000  0.10015000  0.48960000  1.0
  H  H12  1  0.12459000  0.88197000  0.01387000  1.0
  H  H13  1  0.39451000  0.63544000  0.01309000  1.0
  H  H14  1  0.63607000  0.12902000  0.02778000  1.0
  H  H15  1  0.65499000  0.14837000  0.30701000  1.0
  H  H16  1  0.50739000  0.00169000  0.17428000  1.0
  H  H17  1  0.37504000  0.86827000  0.97713000  1.0
  H  H18  1  0.35574000  0.84887000  0.69777000  1.0
  H  H19  1  0.50256000  0.99651000  0.83054000  1.0
  H  H20  1  0.87593000  0.38952000  0.76788000  1.0
  C  C21  1  0.73899000  0.51568000  0.52159000  1.0
  C  C22  1  0.98741000  0.76453000  0.48263000  1.0
  C  C23  1  0.27215000  0.49487000  0.49750000  1.0
  C  C24  1  0.00833000  0.23157000  0.50722000  1.0
  C  C25  1  0.74041000  0.23424000  0.25382000  1.0
  C  C26  1  0.00674000  0.51409000  0.78302000  1.0
  C  C27  1  0.26995000  0.76364000  0.75122000  1.0
  C  C28  1  0.99082000  0.49828000  0.22253000  1.0
  C  C29  1  0.73002000  0.50380000  0.23135000  1.0
  C  C30  1  0.99671000  0.22200000  0.23191000  1.0
  C  C31  1  0.28150000  0.50632000  0.77216000  1.0
  C  C32  1  0.99952000  0.77356000  0.77282000  1.0
  C  C33  1  0.42277000  0.43749000  0.51056000  1.0
  C  C34  1  0.59257000  0.57653000  0.51476000  1.0
  C  C35  1  0.36396000  0.49867000  0.50375000  1.0
  C  C36  1  0.64941000  0.51398000  0.52079000  1.0
  C  C37  1  0.50999000  0.54845000  0.51153000  1.0
  C  C38  1  0.50627000  0.46478000  0.51511000  1.0
  C  C39  1  0.92655000  0.91195000  0.48876000  1.0
  C  C40  1  0.06490000  0.08118000  0.49165000  1.0
  C  C41  1  0.98773000  0.85314000  0.48203000  1.0
  C  C42  1  0.00345000  0.13898000  0.49989000  1.0
  C  C43  1  0.03618000  0.99803000  0.48718000  1.0
  C  C44  1  0.95313000  0.99486000  0.49196000  1.0
  C  C45  1  0.93007000  0.08296000  0.02629000  1.0
  C  C46  1  0.06273000  0.90688000  0.97766000  1.0
  C  C47  1  0.99546000  0.13256000  0.14255000  1.0
  C  C48  1  0.99690000  0.85979000  0.86227000  1.0
  C  C49  1  0.03785000  0.98825000  0.03734000  1.0
  C  C50  1  0.95311000  0.00087000  0.96519000  1.0
  C  C51  1  0.59465000  0.44020000  0.02540000  1.0
  C  C52  1  0.41931000  0.57357000  0.97667000  1.0
  C  C53  1  0.64404000  0.50561000  0.14163000  1.0
  C  C54  1  0.37116000  0.50681000  0.86127000  1.0
  C  C55  1  0.50109000  0.54907000  0.03626000  1.0
  C  C56  1  0.51313000  0.46374000  0.96414000  1.0
  C  C57  1  0.60708000  0.10013000  0.05830000  1.0
  C  C58  1  0.61701000  0.11032000  0.21594000  1.0
  C  C59  1  0.53583000  0.02955000  0.14254000  1.0
  C  C60  1  0.48720000  0.98062000  0.02389000  1.0
  C  C61  1  0.40399000  0.89715000  0.94657000  1.0
  C  C62  1  0.39386000  0.88692000  0.78888000  1.0
  C  C63  1  0.47463000  0.96813000  0.86226000  1.0
  C  C64  1  0.52354000  0.01692000  0.98097000  1.0
  C  C65  1  0.65313000  0.14601000  0.17345000  1.0
  C  C66  1  0.35814000  0.85091000  0.83140000  1.0
  C  C67  1  0.05656000  0.56947000  0.15181000  1.0
  C  C68  1  0.93502000  0.44886000  0.85226000  1.0
  C  C69  1  0.99050000  0.50285000  0.13582000  1.0
  C  C70  1  0.00299000  0.51520000  0.87085000  1.0
  C  C71  1  0.95463000  0.46928000  0.95528000  1.0
  C  C72  1  0.03725000  0.55129000  0.04992000  1.0
  S  S73  1  0.41152000  0.59169000  0.50295000  1.0
  S  S74  1  0.60381000  0.42085000  0.52273000  1.0
  S  S75  1  0.07946000  0.89957000  0.47870000  1.0
  S  S76  1  0.91028000  0.09334000  0.50173000  1.0
  S  S77  1  0.08724000  0.07726000  0.17795000  1.0
  S  S78  1  0.90405000  0.91325000  0.82489000  1.0
  S  S79  1  0.58991000  0.59849000  0.17691000  1.0
  S  S80  1  0.42457000  0.41390000  0.82384000  1.0
  S  S81  1  0.90241000  0.41654000  0.99313000  1.0
  S  S82  1  0.09073000  0.60326000  0.01290000  1.0
  O  O83  1  0.77729000  0.44813000  0.52556000  1.0
  O  O84  1  0.05582000  0.72731000  0.47973000  1.0
  O  O85  1  0.23329000  0.56148000  0.49109000  1.0
  O  O86  1  0.94252000  0.27138000  0.51465000  1.0
  O  O87  1  0.77079000  0.26545000  0.21352000  1.0
  O  O88  1  0.07516000  0.57996000  0.81405000  1.0
  O  O89  1  0.23883000  0.73320000  0.79167000  1.0
  O  O90  1  0.92459000  0.42969000  0.19071000  1.0
  O  O91  1  0.76208000  0.57287000  0.33330000  1.0
  O  O92  1  0.06752000  0.25620000  0.33387000  1.0
  O  O93  1  0.24656000  0.43565000  0.67013000  1.0
  O  O94  1  0.93061000  0.74079000  0.67075000  1.0
  O  O95  1  0.92769000  0.25925000  0.20036000  1.0
  O  O96  1  0.24528000  0.57606000  0.80488000  1.0
  O  O97  1  0.07152000  0.73972000  0.80526000  1.0
  O  O98  1  0.76506000  0.43259000  0.20017000  1.0
  O  O99  1  0.77812000  0.27375000  0.35900000  1.0
  O  O100  1  0.05998000  0.56405000  0.32444000  1.0
  O  O101  1  0.23038000  0.72592000  0.64615000  1.0
  O  O102  1  0.94048000  0.44467000  0.68155000  1.0
  O  O103  1  0.07740000  0.26491000  0.50669000  1.0
  O  O104  1  0.76979000  0.58212000  0.51587000  1.0
  O  O105  1  0.92128000  0.73294000  0.48831000  1.0
  O  O106  1  0.23804000  0.42601000  0.49786000  1.0
  O  O107  1  0.06900000  0.44572000  0.62848000  1.0
  O  O108  1  0.05818000  0.43485000  0.37605000  1.0
  O  O109  1  0.05805000  0.68079000  0.61426000  1.0
  O  O110  1  0.82316000  0.44602000  0.39057000  1.0
  O  O111  1  0.95274000  0.54302000  0.40939000  1.0
  O  O112  1  0.96090000  0.55150000  0.59557000  1.0
  O  O113  1  0.13374000  0.54276000  0.58460000  1.0
  O  O114  1  0.96097000  0.37017000  0.41990000  1.0
  F  F115  1  0.40353000  0.35954000  0.51227000  1.0
  F  F116  1  0.84991000  0.89383000  0.49298000  1.0
  F  F117  1  0.85234000  0.10920000  0.97456000  1.0
  F  F118  1  0.61999000  0.36144000  0.97400000  1.0
  F  F119  1  0.13248000  0.64396000  0.25274000  1.0
