# generated using pymatgen
data_Zn4H6C24S4Br2O13
_symmetry_space_group_name_H-M   'P 1'
_cell_length_a   19.66310000
_cell_length_b   19.68240000
_cell_length_c   33.35900000
_cell_angle_alpha   79.21080000
_cell_angle_beta   79.26500000
_cell_angle_gamma   63.98850000
_symmetry_Int_Tables_number   1
_chemical_formula_structural   Zn4H6C24S4Br2O13
_chemical_formula_sum   'Zn16 H24 C96 S16 Br8 O52'
_cell_volume   11318.01056316
_cell_formula_units_Z   4
loop_
 _symmetry_equiv_pos_site_id
 _symmetry_equiv_pos_as_xyz
  1  'x, y, z'
loop_
 _atom_site_type_symbol
 _atom_site_label
 _atom_site_symmetry_multiplicity
 _atom_site_fract_x
 _atom_site_fract_y
 _atom_site_fract_z
 _atom_site_occupancy
  Zn  Zn0  1  0.05649000  0.40005000  0.47816000  1.0
  Zn  Zn1  1  0.98476000  0.48420000  0.55964000  1.0
  Zn  Zn2  1  0.05834000  0.56223000  0.48336000  1.0
  Zn  Zn3  1  0.90040000  0.55352000  0.47901000  1.0
  Zn  Zn4  1  0.69424000  0.34977000  0.27142000  1.0
  Zn  Zn5  1  0.68884000  0.18983000  0.26691000  1.0
  Zn  Zn6  1  0.76828000  0.26434000  0.18999000  1.0
  Zn  Zn7  1  0.84711000  0.19495000  0.27281000  1.0
  Zn  Zn8  1  0.26676000  0.76730000  0.68945000  1.0
  Zn  Zn9  1  0.34880000  0.69672000  0.77130000  1.0
  Zn  Zn10  1  0.19366000  0.84921000  0.77213000  1.0
  Zn  Zn11  1  0.19200000  0.68815000  0.76647000  1.0
  Zn  Zn12  1  0.56062000  0.06003000  0.98317000  1.0
  Zn  Zn13  1  0.40118000  0.05536000  0.97827000  1.0
  Zn  Zn14  1  0.55532000  0.90108000  0.97824000  1.0
  Zn  Zn15  1  0.48356000  0.98281000  0.06034000  1.0
  H  H16  1  0.79624000  0.50202000  0.39905000  1.0
  H  H17  1  0.95389000  0.24797000  0.35079000  1.0
  H  H18  1  0.74781000  0.45420000  0.35088000  1.0
  H  H19  1  0.00233000  0.29581000  0.39894000  1.0
  H  H20  1  0.15275000  0.65267000  0.54929000  1.0
  H  H21  1  0.09778000  0.59781000  0.70063000  1.0
  H  H22  1  0.20097000  0.70082000  0.59746000  1.0
  H  H23  1  0.04957000  0.54970000  0.65248000  1.0
  H  H24  1  0.46294000  0.24026000  0.34108000  1.0
  H  H25  1  0.47955000  0.70256000  0.60135000  1.0
  H  H26  1  0.20251000  0.97954000  0.60161000  1.0
  H  H27  1  0.94855000  0.97000000  0.34794000  1.0
  H  H28  1  0.70041000  0.20060000  0.09761000  1.0
  H  H29  1  0.54919000  0.04923000  0.15243000  1.0
  H  H30  1  0.65232000  0.15260000  0.04939000  1.0
  H  H31  1  0.59729000  0.09726000  0.20065000  1.0
  H  H32  1  0.54761000  0.77015000  0.14844000  1.0
  H  H33  1  0.16265000  0.14144000  0.04055000  1.0
  H  H34  1  0.24763000  0.95438000  0.85097000  1.0
  H  H35  1  0.50204000  0.79620000  0.89918000  1.0
  H  H36  1  0.29588000  0.00239000  0.89912000  1.0
  H  H37  1  0.45383000  0.74825000  0.85103000  1.0
  H  H38  1  0.30107000  0.28005000  0.90203000  1.0
  H  H39  1  0.78697000  0.00981000  0.90891000  1.0
  C  C40  1  0.06144000  0.31655000  0.56152000  1.0
  C  C41  1  0.06943000  0.57014000  0.56951000  1.0
  C  C42  1  0.18351000  0.43965000  0.43888000  1.0
  C  C43  1  0.93741000  0.68382000  0.43896000  1.0
  C  C44  1  0.93059000  0.43004000  0.43067000  1.0
  C  C45  1  0.81667000  0.56095000  0.56176000  1.0
  C  C46  1  0.56549000  0.31143000  0.31146000  1.0
  C  C47  1  0.68063000  0.17991000  0.18065000  1.0
  C  C48  1  0.68941000  0.43294000  0.18836000  1.0
  C  C49  1  0.93428000  0.18777000  0.18944000  1.0
  C  C50  1  0.81912000  0.31958000  0.31959000  1.0
  C  C51  1  0.81099000  0.06565000  0.31166000  1.0
  C  C52  1  0.43418000  0.68916000  0.68827000  1.0
  C  C53  1  0.31935000  0.82001000  0.81944000  1.0
  C  C54  1  0.18871000  0.93432000  0.68851000  1.0
  C  C55  1  0.06649000  0.81030000  0.81122000  1.0
  C  C56  1  0.18124000  0.68042000  0.68038000  1.0
  C  C57  1  0.31254000  0.56620000  0.81110000  1.0
  C  C58  1  0.43848000  0.18419000  0.93858000  1.0
  C  C59  1  0.43043000  0.93075000  0.93061000  1.0
  C  C60  1  0.68434000  0.93862000  0.93857000  1.0
  C  C61  1  0.56150000  0.81563000  0.06153000  1.0
  C  C62  1  0.56956000  0.06928000  0.06941000  1.0
  C  C63  1  0.31578000  0.06143000  0.06137000  1.0
  C  C64  1  0.90204000  0.40164000  0.40176000  1.0
  C  C65  1  0.84808000  0.34836000  0.34808000  1.0
  C  C66  1  0.83028000  0.44654000  0.38827000  1.0
  C  C67  1  0.91990000  0.30350000  0.36152000  1.0
  C  C68  1  0.80345000  0.42005000  0.36156000  1.0
  C  C69  1  0.94675000  0.33002000  0.38821000  1.0
  C  C70  1  0.09840000  0.59852000  0.59816000  1.0
  C  C71  1  0.15220000  0.65200000  0.65176000  1.0
  C  C72  1  0.14107000  0.64107000  0.58246000  1.0
  C  C73  1  0.10950000  0.60945000  0.66747000  1.0
  C  C74  1  0.16780000  0.66769000  0.60914000  1.0
  C  C75  1  0.08277000  0.58282000  0.64079000  1.0
  C  C76  1  0.30440000  0.45526000  0.40101000  1.0
  C  C77  1  0.44590000  0.29706000  0.34902000  1.0
  C  C78  1  0.25829000  0.41632000  0.41403000  1.0
  C  C79  1  0.49070000  0.33702000  0.33651000  1.0
  C  C80  1  0.37778000  0.34014000  0.37258000  1.0
  C  C81  1  0.37247000  0.41203000  0.37741000  1.0
  C  C82  1  0.72627000  0.57561000  0.62998000  1.0
  C  C83  1  0.52436000  0.67356000  0.62132000  1.0
  C  C84  1  0.74282000  0.58510000  0.58744000  1.0
  C  C85  1  0.50936000  0.66353000  0.66370000  1.0
  C  C86  1  0.60357000  0.64146000  0.60893000  1.0
  C  C87  1  0.64695000  0.60768000  0.64231000  1.0
  C  C88  1  0.07564000  0.22624000  0.62980000  1.0
  C  C89  1  0.17353000  0.02440000  0.62150000  1.0
  C  C90  1  0.08523000  0.24270000  0.58725000  1.0
  C  C91  1  0.16342000  0.00950000  0.66389000  1.0
  C  C92  1  0.14149000  0.10353000  0.60897000  1.0
  C  C93  1  0.10768000  0.14699000  0.64226000  1.0
  C  C94  1  0.84270000  0.80066000  0.39717000  1.0
  C  C95  1  0.90421000  0.94953000  0.35251000  1.0
  C  C96  1  0.91117000  0.75819000  0.41376000  1.0
  C  C97  1  0.83548000  0.99066000  0.33644000  1.0
  C  C98  1  0.90705000  0.88002000  0.37470000  1.0
  C  C99  1  0.84019000  0.87006000  0.37492000  1.0
  C  C100  1  0.65167000  0.15160000  0.15190000  1.0
  C  C101  1  0.59806000  0.09809000  0.09814000  1.0
  C  C102  1  0.66729000  0.16741000  0.10927000  1.0
  C  C103  1  0.58234000  0.08240000  0.14076000  1.0
  C  C104  1  0.64061000  0.14080000  0.08254000  1.0
  C  C105  1  0.60898000  0.10903000  0.16749000  1.0
  C  C106  1  0.67442000  0.52352000  0.12007000  1.0
  C  C107  1  0.57659000  0.72535000  0.12852000  1.0
  C  C108  1  0.66508000  0.50686000  0.16262000  1.0
  C  C109  1  0.58670000  0.74040000  0.08614000  1.0
  C  C110  1  0.60857000  0.64617000  0.14099000  1.0
  C  C111  1  0.64231000  0.60279000  0.10767000  1.0
  C  C112  1  0.08193000  0.12377000  0.17821000  1.0
  C  C113  1  0.17014000  0.12490000  0.07295000  1.0
  C  C114  1  0.00979000  0.16263000  0.16528000  1.0
  C  C115  1  0.24121000  0.08608000  0.08667000  1.0
  C  C116  1  0.11180000  0.13877000  0.10633000  1.0
  C  C117  1  0.14011000  0.11007000  0.14472000  1.0
  C  C118  1  0.34800000  0.84863000  0.84819000  1.0
  C  C119  1  0.40173000  0.90211000  0.90190000  1.0
  C  C120  1  0.30324000  0.92029000  0.86169000  1.0
  C  C121  1  0.44647000  0.83040000  0.88843000  1.0
  C  C122  1  0.32997000  0.94689000  0.88839000  1.0
  C  C123  1  0.41976000  0.80381000  0.86172000  1.0
  C  C124  1  0.40725000  0.44912000  0.85281000  1.0
  C  C125  1  0.34550000  0.30038000  0.89751000  1.0
  C  C126  1  0.33875000  0.49171000  0.83623000  1.0
  C  C127  1  0.41416000  0.25911000  0.91363000  1.0
  C  C128  1  0.34282000  0.36981000  0.87525000  1.0
  C  C129  1  0.40973000  0.37968000  0.87504000  1.0
  C  C130  1  0.94548000  0.79474000  0.84900000  1.0
  C  C131  1  0.80397000  0.95299000  0.90102000  1.0
  C  C132  1  0.99160000  0.83368000  0.83599000  1.0
  C  C133  1  0.75919000  0.91301000  0.91359000  1.0
  C  C134  1  0.87206000  0.90991000  0.87742000  1.0
  C  C135  1  0.87737000  0.83800000  0.87261000  1.0
  S  S136  1  0.29873000  0.32651000  0.39722000  1.0
  S  S137  1  0.45080000  0.42678000  0.35309000  1.0
  S  S138  1  0.66093000  0.63336000  0.56264000  1.0
  S  S139  1  0.59072000  0.61524000  0.68878000  1.0
  S  S140  1  0.13350000  0.16075000  0.56261000  1.0
  S  S141  1  0.11513000  0.09091000  0.68881000  1.0
  S  S142  1  0.97249000  0.80358000  0.40193000  1.0
  S  S143  1  0.77403000  0.94567000  0.34800000  1.0
  S  S144  1  0.61670000  0.58878000  0.18733000  1.0
  S  S145  1  0.63488000  0.65902000  0.06114000  1.0
  S  S146  1  0.01360000  0.18244000  0.11191000  1.0
  S  S147  1  0.23795000  0.06612000  0.13991000  1.0
  S  S148  1  0.27740000  0.44633000  0.84804000  1.0
  S  S149  1  0.47577000  0.30396000  0.90201000  1.0
  S  S150  1  0.95110000  0.92353000  0.85276000  1.0
  S  S151  1  0.79908000  0.82324000  0.89700000  1.0
  Br  Br152  1  0.28432000  0.55307000  0.41172000  1.0
  Br  Br153  1  0.79608000  0.52717000  0.66884000  1.0
  Br  Br154  1  0.02720000  0.29602000  0.66860000  1.0
  Br  Br155  1  0.76032000  0.77437000  0.40191000  1.0
  Br  Br156  1  0.72263000  0.45378000  0.08125000  1.0
  Br  Br157  1  0.10550000  0.09098000  0.23252000  1.0
  Br  Br158  1  0.48968000  0.47531000  0.84809000  1.0
  Br  Br159  1  0.96574000  0.69692000  0.83825000  1.0
  O  O160  1  0.00055000  0.49940000  0.49941000  1.0
  O  O161  1  0.07860000  0.31435000  0.52262000  1.0
  O  O162  1  0.03148000  0.53132000  0.58588000  1.0
  O  O163  1  0.15433000  0.50561000  0.45058000  1.0
  O  O164  1  0.02621000  0.37576000  0.58001000  1.0
  O  O165  1  0.15463000  0.39079000  0.44644000  1.0
  O  O166  1  0.08476000  0.58697000  0.53106000  1.0
  O  O167  1  0.00420000  0.65864000  0.44994000  1.0
  O  O168  1  0.88650000  0.49536000  0.44205000  1.0
  O  O169  1  0.89214000  0.65130000  0.44769000  1.0
  O  O170  1  0.99648000  0.38673000  0.44167000  1.0
  O  O171  1  0.87614000  0.52605000  0.58014000  1.0
  O  O172  1  0.81421000  0.57747000  0.52284000  1.0
  O  O173  1  0.74903000  0.25021000  0.25032000  1.0
  O  O174  1  0.59638000  0.35849000  0.30323000  1.0
  O  O175  1  0.66372000  0.16425000  0.21908000  1.0
  O  O176  1  0.72539000  0.37351000  0.17009000  1.0
  O  O177  1  0.59254000  0.24496000  0.30030000  1.0
  O  O178  1  0.67187000  0.43546000  0.22724000  1.0
  O  O179  1  0.71999000  0.21736000  0.16444000  1.0
  O  O180  1  0.87715000  0.22291000  0.16876000  1.0
  O  O181  1  0.86235000  0.25342000  0.30901000  1.0
  O  O182  1  0.93203000  0.17260000  0.22835000  1.0
  O  O183  1  0.75364000  0.36323000  0.30818000  1.0
  O  O184  1  0.74442000  0.09330000  0.30020000  1.0
  O  O185  1  0.85815000  0.09620000  0.30390000  1.0
  O  O186  1  0.24977000  0.75100000  0.74973000  1.0
  O  O187  1  0.37602000  0.72482000  0.66866000  1.0
  O  O188  1  0.36333000  0.75460000  0.80816000  1.0
  O  O189  1  0.17225000  0.93420000  0.72748000  1.0
  O  O190  1  0.43432000  0.67317000  0.72726000  1.0
  O  O191  1  0.22459000  0.87640000  0.66880000  1.0
  O  O192  1  0.25340000  0.86318000  0.80850000  1.0
  O  O193  1  0.09536000  0.85917000  0.80373000  1.0
  O  O194  1  0.16580000  0.66348000  0.71880000  1.0
  O  O195  1  0.09594000  0.74432000  0.79950000  1.0
  O  O196  1  0.21925000  0.71926000  0.66407000  1.0
  O  O197  1  0.35780000  0.59874000  0.80251000  1.0
  O  O198  1  0.24576000  0.59164000  0.80005000  1.0
  O  O199  1  0.50008000  0.99992000  0.00001000  1.0
  O  O200  1  0.50528000  0.15636000  0.94975000  1.0
  O  O201  1  0.38688000  0.99645000  0.94171000  1.0
  O  O202  1  0.65351000  0.89149000  0.94679000  1.0
  O  O203  1  0.39105000  0.15390000  0.94680000  1.0
  O  O204  1  0.65706000  0.00511000  0.94973000  1.0
  O  O205  1  0.49617000  0.88719000  0.94170000  1.0
  O  O206  1  0.57785000  0.81572000  0.02255000  1.0
  O  O207  1  0.53121000  0.03077000  0.08565000  1.0
  O  O208  1  0.52580000  0.87369000  0.08115000  1.0
  O  O209  1  0.58591000  0.08544000  0.03098000  1.0
  O  O210  1  0.31538000  0.07824000  0.02251000  1.0
  O  O211  1  0.37427000  0.02529000  0.08086000  1.0
