# generated using pymatgen
data_CaH12(C8O5)2
_symmetry_space_group_name_H-M   'P 1'
_cell_length_a   7.51049000
_cell_length_b   10.51000000
_cell_length_c   10.51000000
_cell_angle_alpha   65.58220000
_cell_angle_beta   78.57660000
_cell_angle_gamma   78.57650000
_symmetry_Int_Tables_number   1
_chemical_formula_structural   CaH12(C8O5)2
_chemical_formula_sum   'Ca2 H24 C32 O20'
_cell_volume   734.14044875
_cell_formula_units_Z   2
loop_
 _symmetry_equiv_pos_site_id
 _symmetry_equiv_pos_as_xyz
  1  'x, y, z'
loop_
 _atom_site_type_symbol
 _atom_site_label
 _atom_site_symmetry_multiplicity
 _atom_site_fract_x
 _atom_site_fract_y
 _atom_site_fract_z
 _atom_site_occupancy
  Ca  Ca0  1  0.25000000  0.55705000  0.44295000  1.0
  Ca  Ca1  1  0.75000000  0.44295000  0.55705000  1.0
  H  H2  1  0.18636000  0.39786000  0.00052000  1.0
  H  H3  1  0.31365000  0.99948000  0.60214000  1.0
  H  H4  1  0.81364000  0.60214000  0.99948000  1.0
  H  H5  1  0.68636000  0.00052000  0.39786000  1.0
  H  H6  1  0.07756000  0.96905000  0.21812000  1.0
  H  H7  1  0.42245000  0.78188000  0.03095000  1.0
  H  H8  1  0.92245000  0.03095000  0.78188000  1.0
  H  H9  1  0.57756000  0.21812000  0.96905000  1.0
  H  H10  1  0.98294000  0.19856000  0.78450000  1.0
  H  H11  1  0.51705000  0.21550000  0.80145000  1.0
  H  H12  1  0.01705000  0.80144000  0.21550000  1.0
  H  H13  1  0.48294000  0.78451000  0.19855000  1.0
  H  H14  1  0.25574000  0.28176000  0.34227000  1.0
  H  H15  1  0.24427000  0.65773000  0.71825000  1.0
  H  H16  1  0.74427000  0.71825000  0.65773000  1.0
  H  H17  1  0.75574000  0.34226000  0.28176000  1.0
  H  H18  1  0.95379000  0.78243000  0.45637000  1.0
  H  H19  1  0.54621000  0.54363000  0.21757000  1.0
  H  H20  1  0.04621000  0.21757000  0.54363000  1.0
  H  H21  1  0.45379000  0.45637000  0.78243000  1.0
  H  H22  1  0.11690000  0.87090000  0.42940000  1.0
  H  H23  1  0.38310000  0.57060000  0.12911000  1.0
  H  H24  1  0.88310000  0.12910000  0.57060000  1.0
  H  H25  1  0.61690000  0.42940000  0.87089000  1.0
  C  C26  1  0.10665000  0.43134000  0.74337000  1.0
  C  C27  1  0.39334000  0.25663000  0.56866000  1.0
  C  C28  1  0.89334000  0.56866000  0.25663000  1.0
  C  C29  1  0.60666000  0.74337000  0.43134000  1.0
  C  C30  1  0.08412000  0.30886000  0.88045000  1.0
  C  C31  1  0.41588000  0.11955000  0.69114000  1.0
  C  C32  1  0.91587000  0.69114000  0.11955000  1.0
  C  C33  1  0.58412000  0.88045000  0.30886000  1.0
  C  C34  1  0.13824000  0.30602000  0.00163000  1.0
  C  C35  1  0.36176000  0.99837000  0.69397000  1.0
  C  C36  1  0.86176000  0.69397000  0.99837000  1.0
  C  C37  1  0.63824000  0.00163000  0.30603000  1.0
  C  C38  1  0.12859000  0.18281000  0.12405000  1.0
  C  C39  1  0.37142000  0.87595000  0.81719000  1.0
  C  C40  1  0.87142000  0.81719000  0.87594000  1.0
  C  C41  1  0.62858000  0.12405000  0.18281000  1.0
  C  C42  1  0.17772000  0.17201000  0.25893000  1.0
  C  C43  1  0.32228000  0.74107000  0.82799000  1.0
  C  C44  1  0.82228000  0.82799000  0.74107000  1.0
  C  C45  1  0.67772000  0.25893000  0.17201000  1.0
  C  C46  1  0.07640000  0.06356000  0.12192000  1.0
  C  C47  1  0.42361000  0.87808000  0.93644000  1.0
  C  C48  1  0.92361000  0.93644000  0.87808000  1.0
  C  C49  1  0.57639000  0.12192000  0.06356000  1.0
  C  C50  1  0.02504000  0.06426000  0.00074000  1.0
  C  C51  1  0.47496000  0.99927000  0.93574000  1.0
  C  C52  1  0.97496000  0.93574000  0.99927000  1.0
  C  C53  1  0.52504000  0.00074000  0.06426000  1.0
  C  C54  1  0.02338000  0.19095000  0.88152000  1.0
  C  C55  1  0.47662000  0.11848000  0.80905000  1.0
  C  C56  1  0.97661000  0.80906000  0.11848000  1.0
  C  C57  1  0.52338000  0.88152000  0.19095000  1.0
  O  O58  1  0.01187000  0.45208000  0.64683000  1.0
  O  O59  1  0.48812000  0.35317000  0.54792000  1.0
  O  O60  1  0.98812000  0.54792000  0.35317000  1.0
  O  O61  1  0.51188000  0.64683000  0.45208000  1.0
  O  O62  1  0.23406000  0.50635000  0.71969000  1.0
  O  O63  1  0.26594000  0.28031000  0.49365000  1.0
  O  O64  1  0.76594000  0.49365000  0.28031000  1.0
  O  O65  1  0.73406000  0.71969000  0.50635000  1.0
  O  O66  1  0.22708000  0.29150000  0.24860000  1.0
  O  O67  1  0.27292000  0.75140000  0.70850000  1.0
  O  O68  1  0.77292000  0.70850000  0.75140000  1.0
  O  O69  1  0.72708000  0.24859000  0.29150000  1.0
  O  O70  1  0.17340000  0.06431000  0.36851000  1.0
  O  O71  1  0.32660000  0.63148000  0.93570000  1.0
  O  O72  1  0.82660000  0.93570000  0.63148000  1.0
  O  O73  1  0.67341000  0.36851000  0.06431000  1.0
  O  O74  1  0.08808000  0.78291000  0.43054000  1.0
  O  O75  1  0.41192000  0.56946000  0.21710000  1.0
  O  O76  1  0.91192000  0.21710000  0.56946000  1.0
  O  O77  1  0.58807000  0.43054000  0.78290000  1.0
