# generated using pymatgen
data_Zn3H14C14(N2O3)3
_symmetry_space_group_name_H-M   'P 1'
_cell_length_a   11.81520000
_cell_length_b   14.33860000
_cell_length_c   17.84890000
_cell_angle_alpha   89.99930000
_cell_angle_beta   89.99990000
_cell_angle_gamma   111.11800000
_symmetry_Int_Tables_number   1
_chemical_formula_structural   Zn3H14C14(N2O3)3
_chemical_formula_sum   'Zn12 H56 C56 N24 O36'
_cell_volume   2820.76318179
_cell_formula_units_Z   4
loop_
 _symmetry_equiv_pos_site_id
 _symmetry_equiv_pos_as_xyz
  1  'x, y, z'
loop_
 _atom_site_type_symbol
 _atom_site_label
 _atom_site_symmetry_multiplicity
 _atom_site_fract_x
 _atom_site_fract_y
 _atom_site_fract_z
 _atom_site_occupancy
  Zn  Zn0  1  0.93175000  0.11358000  0.16619000  1.0
  Zn  Zn1  1  0.85212000  0.86503000  0.14483000  1.0
  Zn  Zn2  1  0.88111000  0.39684000  0.40734000  1.0
  Zn  Zn3  1  0.56825000  0.38642000  0.66619000  1.0
  Zn  Zn4  1  0.64787000  0.63497000  0.64482000  1.0
  Zn  Zn5  1  0.61889000  0.10316000  0.90734000  1.0
  Zn  Zn6  1  0.06825000  0.88642000  0.83381000  1.0
  Zn  Zn7  1  0.14787000  0.13497000  0.85518000  1.0
  Zn  Zn8  1  0.11888000  0.60316000  0.59266000  1.0
  Zn  Zn9  1  0.43174000  0.61358000  0.33381000  1.0
  Zn  Zn10  1  0.35212000  0.36503000  0.35518000  1.0
  Zn  Zn11  1  0.38112000  0.89685000  0.09266000  1.0
  H  H12  1  0.95921000  0.98387000  0.23723000  1.0
  H  H13  1  0.80152000  0.25515000  0.24621000  1.0
  H  H14  1  0.01772000  0.58057000  0.41814000  1.0
  H  H15  1  0.82785000  0.59258000  0.44922000  1.0
  H  H16  1  0.77946000  0.56391000  0.35429000  1.0
  H  H17  1  0.15099000  0.12764000  0.03819000  1.0
  H  H18  1  0.91638000  0.51605000  0.26737000  1.0
  H  H19  1  0.06379000  0.52886000  0.30010000  1.0
  H  H20  1  0.84494000  0.74644000  0.37490000  1.0
  H  H21  1  0.99103000  0.75074000  0.40643000  1.0
  H  H22  1  0.12478000  0.70896000  0.31196000  1.0
  H  H23  1  0.06856000  0.67580000  0.21927000  1.0
  H  H24  1  0.99989000  0.79407000  0.27138000  1.0
  H  H25  1  0.87935000  0.69580000  0.25617000  1.0
  H  H26  1  0.54080000  0.51612000  0.73723000  1.0
  H  H27  1  0.69848000  0.24484000  0.74621000  1.0
  H  H28  1  0.48227000  0.91942000  0.91813000  1.0
  H  H29  1  0.67215000  0.90742000  0.94922000  1.0
  H  H30  1  0.72054000  0.93610000  0.85429000  1.0
  H  H31  1  0.34901000  0.37235000  0.53819000  1.0
  H  H32  1  0.58363000  0.98395000  0.76737000  1.0
  H  H33  1  0.43622000  0.97114000  0.80009000  1.0
  H  H34  1  0.65506000  0.75357000  0.87490000  1.0
  H  H35  1  0.50897000  0.74926000  0.90643000  1.0
  H  H36  1  0.37522000  0.79104000  0.81196000  1.0
  H  H37  1  0.43144000  0.82420000  0.71927000  1.0
  H  H38  1  0.50011000  0.70593000  0.77138000  1.0
  H  H39  1  0.62065000  0.80420000  0.75617000  1.0
  H  H40  1  0.04080000  0.01612000  0.76277000  1.0
  H  H41  1  0.19847000  0.74484000  0.75380000  1.0
  H  H42  1  0.98227000  0.41942000  0.58186000  1.0
  H  H43  1  0.17214000  0.40742000  0.55077000  1.0
  H  H44  1  0.22054000  0.43610000  0.64570000  1.0
  H  H45  1  0.84901000  0.87235000  0.96181000  1.0
  H  H46  1  0.08363000  0.48395000  0.73263000  1.0
  H  H47  1  0.93622000  0.47114000  0.69991000  1.0
  H  H48  1  0.15506000  0.25357000  0.62510000  1.0
  H  H49  1  0.00897000  0.24926000  0.59357000  1.0
  H  H50  1  0.87522000  0.29104000  0.68805000  1.0
  H  H51  1  0.93145000  0.32420000  0.78073000  1.0
  H  H52  1  0.00011000  0.20593000  0.72862000  1.0
  H  H53  1  0.12066000  0.30420000  0.74383000  1.0
  H  H54  1  0.45921000  0.48388000  0.26277000  1.0
  H  H55  1  0.30152000  0.75516000  0.25379000  1.0
  H  H56  1  0.51773000  0.08059000  0.08186000  1.0
  H  H57  1  0.32785000  0.09258000  0.05078000  1.0
  H  H58  1  0.27947000  0.06391000  0.14571000  1.0
  H  H59  1  0.65099000  0.62765000  0.46181000  1.0
  H  H60  1  0.41638000  0.01605000  0.23263000  1.0
  H  H61  1  0.56379000  0.02887000  0.19990000  1.0
  H  H62  1  0.34493000  0.24643000  0.12510000  1.0
  H  H63  1  0.49103000  0.25074000  0.09357000  1.0
  H  H64  1  0.62478000  0.20896000  0.18804000  1.0
  H  H65  1  0.56857000  0.17581000  0.28073000  1.0
  H  H66  1  0.49989000  0.29407000  0.22862000  1.0
  H  H67  1  0.37935000  0.19580000  0.24383000  1.0
  C  C68  1  0.06710000  0.25098000  0.28471000  1.0
  C  C69  1  0.88944000  0.26391000  0.26943000  1.0
  C  C70  1  0.11334000  0.36487000  0.40916000  1.0
  C  C71  1  0.04875000  0.31204000  0.34147000  1.0
  C  C72  1  0.88233000  0.13410000  0.85933000  1.0
  C  C73  1  0.92672000  0.13188000  0.93691000  1.0
  C  C74  1  0.85794000  0.60053000  0.39077000  1.0
  C  C75  1  0.16236000  0.21046000  0.26298000  1.0
  C  C76  1  0.06605000  0.12882000  0.01631000  1.0
  C  C77  1  0.99192000  0.56018000  0.30373000  1.0
  C  C78  1  0.91291000  0.71100000  0.37054000  1.0
  C  C79  1  0.04356000  0.66849000  0.27875000  1.0
  C  C80  1  0.76802000  0.12833000  0.04762000  1.0
  C  C81  1  0.88059000  0.12774000  0.01012000  1.0
  C  C82  1  0.43291000  0.24902000  0.78472000  1.0
  C  C83  1  0.61056000  0.23609000  0.76944000  1.0
  C  C84  1  0.38668000  0.13512000  0.90917000  1.0
  C  C85  1  0.45125000  0.18796000  0.84148000  1.0
  C  C86  1  0.61765000  0.36589000  0.35934000  1.0
  C  C87  1  0.57328000  0.36812000  0.43690000  1.0
  C  C88  1  0.64206000  0.89946000  0.89077000  1.0
  C  C89  1  0.33765000  0.28954000  0.76298000  1.0
  C  C90  1  0.43395000  0.37118000  0.51631000  1.0
  C  C91  1  0.50808000  0.93982000  0.80373000  1.0
  C  C92  1  0.58709000  0.78900000  0.87054000  1.0
  C  C93  1  0.45644000  0.83152000  0.77874000  1.0
  C  C94  1  0.73198000  0.37167000  0.54761000  1.0
  C  C95  1  0.61942000  0.37225000  0.51012000  1.0
  C  C96  1  0.93289000  0.74902000  0.71529000  1.0
  C  C97  1  0.11055000  0.73608000  0.73057000  1.0
  C  C98  1  0.88665000  0.63513000  0.59084000  1.0
  C  C99  1  0.95124000  0.68796000  0.65853000  1.0
  C  C100  1  0.11767000  0.86590000  0.14067000  1.0
  C  C101  1  0.07329000  0.86812000  0.06310000  1.0
  C  C102  1  0.14206000  0.39946000  0.60923000  1.0
  C  C103  1  0.83763000  0.78954000  0.73702000  1.0
  C  C104  1  0.93396000  0.87119000  0.98369000  1.0
  C  C105  1  0.00808000  0.43981000  0.69627000  1.0
  C  C106  1  0.08709000  0.28900000  0.62946000  1.0
  C  C107  1  0.95645000  0.33151000  0.72126000  1.0
  C  C108  1  0.23198000  0.87167000  0.95238000  1.0
  C  C109  1  0.11942000  0.87226000  0.98988000  1.0
  C  C110  1  0.56709000  0.75098000  0.21528000  1.0
  C  C111  1  0.38944000  0.76391000  0.23057000  1.0
  C  C112  1  0.61332000  0.86488000  0.09083000  1.0
  C  C113  1  0.54876000  0.81204000  0.15852000  1.0
  C  C114  1  0.38235000  0.63411000  0.64067000  1.0
  C  C115  1  0.42671000  0.63188000  0.56310000  1.0
  C  C116  1  0.35794000  0.10054000  0.10923000  1.0
  C  C117  1  0.66236000  0.71046000  0.23702000  1.0
  C  C118  1  0.56605000  0.62882000  0.48369000  1.0
  C  C119  1  0.49193000  0.06019000  0.19627000  1.0
  C  C120  1  0.41290000  0.21100000  0.12946000  1.0
  C  C121  1  0.54356000  0.16849000  0.22125000  1.0
  C  C122  1  0.26801000  0.62833000  0.45239000  1.0
  C  C123  1  0.38058000  0.62774000  0.48988000  1.0
  N  N124  1  0.96425000  0.22184000  0.24049000  1.0
  N  N125  1  0.04330000  0.13296000  0.94313000  1.0
  N  N126  1  0.93648000  0.31820000  0.33043000  1.0
  N  N127  1  0.94598000  0.54951000  0.38161000  1.0
  N  N128  1  0.95586000  0.72050000  0.29120000  1.0
  N  N129  1  0.97093000  0.12559000  0.05824000  1.0
  N  N130  1  0.53575000  0.27816000  0.74049000  1.0
  N  N131  1  0.45669000  0.36703000  0.44313000  1.0
  N  N132  1  0.56352000  0.18180000  0.83044000  1.0
  N  N133  1  0.55402000  0.95049000  0.88161000  1.0
  N  N134  1  0.54415000  0.77949000  0.79120000  1.0
  N  N135  1  0.52907000  0.37442000  0.55824000  1.0
  N  N136  1  0.03574000  0.77815000  0.75952000  1.0
  N  N137  1  0.95670000  0.86704000  0.05687000  1.0
  N  N138  1  0.06350000  0.68180000  0.66957000  1.0
  N  N139  1  0.05402000  0.45049000  0.61839000  1.0
  N  N140  1  0.04415000  0.27949000  0.70880000  1.0
  N  N141  1  0.02907000  0.87441000  0.94176000  1.0
  N  N142  1  0.46425000  0.72185000  0.25951000  1.0
  N  N143  1  0.54330000  0.63297000  0.55687000  1.0
  N  N144  1  0.43649000  0.81821000  0.16956000  1.0
  N  N145  1  0.44598000  0.04951000  0.11839000  1.0
  N  N146  1  0.45586000  0.22051000  0.20880000  1.0
  N  N147  1  0.47093000  0.62558000  0.44176000  1.0
  O  O148  1  0.88479000  0.98051000  0.21178000  1.0
  O  O149  1  0.13659000  0.14702000  0.21059000  1.0
  O  O150  1  0.21930000  0.36749000  0.42570000  1.0
  O  O151  1  0.05568000  0.40517000  0.45026000  1.0
  O  O152  1  0.67875000  0.13648000  0.01101000  1.0
  O  O153  1  0.26690000  0.23919000  0.29635000  1.0
  O  O154  1  0.77763000  0.13647000  0.84651000  1.0
  O  O155  1  0.95658000  0.13449000  0.80693000  1.0
  O  O156  1  0.76623000  0.12320000  0.11883000  1.0
  O  O157  1  0.61522000  0.51949000  0.71178000  1.0
  O  O158  1  0.36343000  0.35298000  0.71059000  1.0
  O  O159  1  0.28070000  0.13250000  0.92571000  1.0
  O  O160  1  0.44432000  0.09482000  0.95027000  1.0
  O  O161  1  0.82125000  0.36352000  0.51101000  1.0
  O  O162  1  0.23311000  0.26081000  0.79636000  1.0
  O  O163  1  0.72237000  0.36352000  0.34651000  1.0
  O  O164  1  0.54342000  0.36550000  0.30693000  1.0
  O  O165  1  0.73378000  0.37680000  0.61883000  1.0
  O  O166  1  0.11522000  0.01949000  0.78822000  1.0
  O  O167  1  0.86342000  0.85298000  0.78941000  1.0
  O  O168  1  0.78070000  0.63251000  0.57430000  1.0
  O  O169  1  0.94431000  0.59483000  0.54974000  1.0
  O  O170  1  0.32126000  0.86352000  0.98899000  1.0
  O  O171  1  0.73310000  0.76081000  0.70365000  1.0
  O  O172  1  0.22237000  0.86353000  0.15349000  1.0
  O  O173  1  0.04342000  0.86550000  0.19307000  1.0
  O  O174  1  0.23378000  0.87680000  0.88117000  1.0
  O  O175  1  0.38479000  0.48051000  0.28823000  1.0
  O  O176  1  0.63658000  0.64702000  0.28941000  1.0
  O  O177  1  0.71931000  0.86750000  0.07429000  1.0
  O  O178  1  0.55568000  0.90518000  0.04974000  1.0
  O  O179  1  0.17874000  0.63648000  0.48899000  1.0
  O  O180  1  0.76690000  0.73919000  0.20365000  1.0
  O  O181  1  0.27761000  0.63647000  0.65350000  1.0
  O  O182  1  0.45658000  0.63450000  0.69307000  1.0
  O  O183  1  0.26622000  0.62320000  0.38117000  1.0
