# generated using pymatgen
data_LiBH28(C5N2)4
_symmetry_space_group_name_H-M   'P 1'
_cell_length_a   16.29870000
_cell_length_b   16.29870000
_cell_length_c   16.29870000
_cell_angle_alpha   90.00000000
_cell_angle_beta   90.00000000
_cell_angle_gamma   90.00000000
_symmetry_Int_Tables_number   1
_chemical_formula_structural   LiBH28(C5N2)4
_chemical_formula_sum   'Li6 B6 H168 C120 N48'
_cell_volume   4329.71089164
_cell_formula_units_Z   6
loop_
 _symmetry_equiv_pos_site_id
 _symmetry_equiv_pos_as_xyz
  1  'x, y, z'
loop_
 _atom_site_type_symbol
 _atom_site_label
 _atom_site_symmetry_multiplicity
 _atom_site_fract_x
 _atom_site_fract_y
 _atom_site_fract_z
 _atom_site_occupancy
  Li  Li0  1  0.75000000  0.50000000  0.00000000  1.0
  Li  Li1  1  0.25000000  0.50000000  0.00000000  1.0
  Li  Li2  1  0.00000000  0.75000000  0.50000000  1.0
  Li  Li3  1  0.00000000  0.25000000  0.50000000  1.0
  Li  Li4  1  0.50000000  0.00000000  0.75000000  1.0
  Li  Li5  1  0.50000000  0.00000000  0.25000000  1.0
  B  B6  1  0.50000000  0.25000000  0.00000000  1.0
  B  B7  1  0.50000000  0.75000000  0.00000000  1.0
  B  B8  1  0.00000000  0.50000000  0.25000000  1.0
  B  B9  1  0.00000000  0.50000000  0.75000000  1.0
  B  B10  1  0.25000000  0.00000000  0.50000000  1.0
  B  B11  1  0.75000000  0.00000000  0.50000000  1.0
  H  H12  1  0.57608000  0.26712000  0.15731000  1.0
  H  H13  1  0.42392000  0.73288000  0.15731000  1.0
  H  H14  1  0.42392000  0.26712000  0.84269000  1.0
  H  H15  1  0.57608000  0.73288000  0.84269000  1.0
  H  H16  1  0.15731000  0.57608000  0.26712000  1.0
  H  H17  1  0.15731000  0.42392000  0.73288000  1.0
  H  H18  1  0.84269000  0.42392000  0.26712000  1.0
  H  H19  1  0.84269000  0.57608000  0.73288000  1.0
  H  H20  1  0.26712000  0.15731000  0.57608000  1.0
  H  H21  1  0.73288000  0.15731000  0.42392000  1.0
  H  H22  1  0.26712000  0.84269000  0.42392000  1.0
  H  H23  1  0.73288000  0.84269000  0.57608000  1.0
  H  H24  1  0.76712000  0.07608000  0.65731000  1.0
  H  H25  1  0.23288000  0.92392000  0.65731000  1.0
  H  H26  1  0.76712000  0.92392000  0.34269000  1.0
  H  H27  1  0.23288000  0.07608000  0.34269000  1.0
  H  H28  1  0.07608000  0.65731000  0.76712000  1.0
  H  H29  1  0.92392000  0.65731000  0.23288000  1.0
  H  H30  1  0.92392000  0.34269000  0.76712000  1.0
  H  H31  1  0.07608000  0.34269000  0.23288000  1.0
  H  H32  1  0.65731000  0.76712000  0.07608000  1.0
  H  H33  1  0.65731000  0.23288000  0.92392000  1.0
  H  H34  1  0.34269000  0.76712000  0.92392000  1.0
  H  H35  1  0.34269000  0.23288000  0.07608000  1.0
  H  H36  1  0.53104000  0.43385000  0.90639000  1.0
  H  H37  1  0.46896000  0.56615000  0.90639000  1.0
  H  H38  1  0.46896000  0.43385000  0.09361000  1.0
  H  H39  1  0.53104000  0.56615000  0.09361000  1.0
  H  H40  1  0.90639000  0.53104000  0.43385000  1.0
  H  H41  1  0.90639000  0.46896000  0.56615000  1.0
  H  H42  1  0.09361000  0.46896000  0.43385000  1.0
  H  H43  1  0.09361000  0.53104000  0.56615000  1.0
  H  H44  1  0.43385000  0.90639000  0.53104000  1.0
  H  H45  1  0.56615000  0.90639000  0.46896000  1.0
  H  H46  1  0.43385000  0.09361000  0.46896000  1.0
  H  H47  1  0.56615000  0.09361000  0.53104000  1.0
  H  H48  1  0.93385000  0.03104000  0.40639000  1.0
  H  H49  1  0.06615000  0.96896000  0.40639000  1.0
  H  H50  1  0.93385000  0.96896000  0.59361000  1.0
  H  H51  1  0.06615000  0.03104000  0.59361000  1.0
  H  H52  1  0.03104000  0.40639000  0.93385000  1.0
  H  H53  1  0.96896000  0.40639000  0.06615000  1.0
  H  H54  1  0.96896000  0.59361000  0.93385000  1.0
  H  H55  1  0.03104000  0.59361000  0.06615000  1.0
  H  H56  1  0.40639000  0.93385000  0.03104000  1.0
  H  H57  1  0.40639000  0.06615000  0.96896000  1.0
  H  H58  1  0.59361000  0.93385000  0.96896000  1.0
  H  H59  1  0.59361000  0.06615000  0.03104000  1.0
  H  H60  1  0.58007000  0.34697000  0.86377000  1.0
  H  H61  1  0.41993000  0.65303000  0.86377000  1.0
  H  H62  1  0.41993000  0.34697000  0.13623000  1.0
  H  H63  1  0.58007000  0.65303000  0.13623000  1.0
  H  H64  1  0.86377000  0.58007000  0.34697000  1.0
  H  H65  1  0.86377000  0.41993000  0.65303000  1.0
  H  H66  1  0.13623000  0.41993000  0.34697000  1.0
  H  H67  1  0.13623000  0.58007000  0.65303000  1.0
  H  H68  1  0.34697000  0.86377000  0.58007000  1.0
  H  H69  1  0.65303000  0.86377000  0.41993000  1.0
  H  H70  1  0.34697000  0.13623000  0.41993000  1.0
  H  H71  1  0.65303000  0.13623000  0.58007000  1.0
  H  H72  1  0.84697000  0.08007000  0.36377000  1.0
  H  H73  1  0.15303000  0.91993000  0.36377000  1.0
  H  H74  1  0.84697000  0.91993000  0.63623000  1.0
  H  H75  1  0.15303000  0.08007000  0.63623000  1.0
  H  H76  1  0.08007000  0.36377000  0.84697000  1.0
  H  H77  1  0.91993000  0.36377000  0.15303000  1.0
  H  H78  1  0.91993000  0.63623000  0.84697000  1.0
  H  H79  1  0.08007000  0.63623000  0.15303000  1.0
  H  H80  1  0.36377000  0.84697000  0.08007000  1.0
  H  H81  1  0.36377000  0.15303000  0.91993000  1.0
  H  H82  1  0.63623000  0.84697000  0.91993000  1.0
  H  H83  1  0.63623000  0.15303000  0.08007000  1.0
  H  H84  1  0.63740000  0.43842000  0.88396000  1.0
  H  H85  1  0.36260000  0.56158000  0.88396000  1.0
  H  H86  1  0.36260000  0.43842000  0.11604000  1.0
  H  H87  1  0.63740000  0.56158000  0.11604000  1.0
  H  H88  1  0.88396000  0.63740000  0.43841000  1.0
  H  H89  1  0.88396000  0.36260000  0.56158000  1.0
  H  H90  1  0.11603000  0.36260000  0.43842000  1.0
  H  H91  1  0.11604000  0.63740000  0.56158000  1.0
  H  H92  1  0.43842000  0.88396000  0.63740000  1.0
  H  H93  1  0.56158000  0.88396000  0.36260000  1.0
  H  H94  1  0.43842000  0.11603000  0.36260000  1.0
  H  H95  1  0.56158000  0.11604000  0.63740000  1.0
  H  H96  1  0.93841000  0.13740000  0.38396000  1.0
  H  H97  1  0.06158000  0.86260000  0.38396000  1.0
  H  H98  1  0.93842000  0.86260000  0.61604000  1.0
  H  H99  1  0.06158000  0.13740000  0.61604000  1.0
  H  H100  1  0.13740000  0.38396000  0.93842000  1.0
  H  H101  1  0.86260000  0.38396000  0.06158000  1.0
  H  H102  1  0.86260000  0.61604000  0.93841000  1.0
  H  H103  1  0.13740000  0.61604000  0.06158000  1.0
  H  H104  1  0.38396000  0.93842000  0.13740000  1.0
  H  H105  1  0.38396000  0.06158000  0.86260000  1.0
  H  H106  1  0.61604000  0.93842000  0.86260000  1.0
  H  H107  1  0.61604000  0.06158000  0.13740000  1.0
  H  H108  1  0.68026000  0.36946000  0.24468000  1.0
  H  H109  1  0.31974000  0.63054000  0.24468000  1.0
  H  H110  1  0.31974000  0.36946000  0.75532000  1.0
  H  H111  1  0.68026000  0.63054000  0.75532000  1.0
  H  H112  1  0.24468000  0.68026000  0.36946000  1.0
  H  H113  1  0.24468000  0.31974000  0.63054000  1.0
  H  H114  1  0.75532000  0.31974000  0.36946000  1.0
  H  H115  1  0.75532000  0.68026000  0.63054000  1.0
  H  H116  1  0.36946000  0.24468000  0.68026000  1.0
  H  H117  1  0.63054000  0.24468000  0.31974000  1.0
  H  H118  1  0.36946000  0.75532000  0.31974000  1.0
  H  H119  1  0.63054000  0.75532000  0.68026000  1.0
  H  H120  1  0.86946000  0.18026000  0.74468000  1.0
  H  H121  1  0.13054000  0.81974000  0.74468000  1.0
  H  H122  1  0.86946000  0.81974000  0.25532000  1.0
  H  H123  1  0.13054000  0.18026000  0.25532000  1.0
  H  H124  1  0.18026000  0.74468000  0.86946000  1.0
  H  H125  1  0.81974000  0.74468000  0.13054000  1.0
  H  H126  1  0.81974000  0.25532000  0.86946000  1.0
  H  H127  1  0.18026000  0.25532000  0.13054000  1.0
  H  H128  1  0.74468000  0.86946000  0.18026000  1.0
  H  H129  1  0.74468000  0.13054000  0.81974000  1.0
  H  H130  1  0.25532000  0.86946000  0.81974000  1.0
  H  H131  1  0.25532000  0.13054000  0.18026000  1.0
  H  H132  1  0.71377000  0.45997000  0.19307000  1.0
  H  H133  1  0.28623000  0.54003000  0.19307000  1.0
  H  H134  1  0.28623000  0.45997000  0.80693000  1.0
  H  H135  1  0.71377000  0.54003000  0.80693000  1.0
  H  H136  1  0.19307000  0.71377000  0.45997000  1.0
  H  H137  1  0.19307000  0.28623000  0.54003000  1.0
  H  H138  1  0.80693000  0.28623000  0.45997000  1.0
  H  H139  1  0.80693000  0.71377000  0.54003000  1.0
  H  H140  1  0.45997000  0.19307000  0.71377000  1.0
  H  H141  1  0.54003000  0.19307000  0.28623000  1.0
  H  H142  1  0.45997000  0.80693000  0.28623000  1.0
  H  H143  1  0.54003000  0.80693000  0.71377000  1.0
  H  H144  1  0.95997000  0.21377000  0.69307000  1.0
  H  H145  1  0.04003000  0.78623000  0.69307000  1.0
  H  H146  1  0.95997000  0.78623000  0.30693000  1.0
  H  H147  1  0.04003000  0.21377000  0.30693000  1.0
  H  H148  1  0.21377000  0.69307000  0.95997000  1.0
  H  H149  1  0.78623000  0.69307000  0.04003000  1.0
  H  H150  1  0.78623000  0.30693000  0.95997000  1.0
  H  H151  1  0.21377000  0.30693000  0.04003000  1.0
  H  H152  1  0.69307000  0.95997000  0.21377000  1.0
  H  H153  1  0.69307000  0.04003000  0.78623000  1.0
  H  H154  1  0.30693000  0.95997000  0.78623000  1.0
  H  H155  1  0.30693000  0.04003000  0.21377000  1.0
  H  H156  1  0.77022000  0.36764000  0.18366000  1.0
  H  H157  1  0.22979000  0.63236000  0.18366000  1.0
  H  H158  1  0.22979000  0.36764000  0.81634000  1.0
  H  H159  1  0.77022000  0.63236000  0.81634000  1.0
  H  H160  1  0.18366000  0.77021000  0.36764000  1.0
  H  H161  1  0.18366000  0.22978000  0.63236000  1.0
  H  H162  1  0.81634000  0.22979000  0.36764000  1.0
  H  H163  1  0.81634000  0.77022000  0.63236000  1.0
  H  H164  1  0.36764000  0.18366000  0.77022000  1.0
  H  H165  1  0.63236000  0.18366000  0.22978000  1.0
  H  H166  1  0.36764000  0.81634000  0.22978000  1.0
  H  H167  1  0.63236000  0.81634000  0.77022000  1.0
  H  H168  1  0.86764000  0.27022000  0.68366000  1.0
  H  H169  1  0.13236000  0.72978000  0.68366000  1.0
  H  H170  1  0.86764000  0.72978000  0.31634000  1.0
  H  H171  1  0.13236000  0.27022000  0.31634000  1.0
  H  H172  1  0.27022000  0.68366000  0.86764000  1.0
  H  H173  1  0.72978000  0.68366000  0.13236000  1.0
  H  H174  1  0.72978000  0.31634000  0.86764000  1.0
  H  H175  1  0.27022000  0.31634000  0.13236000  1.0
  H  H176  1  0.68366000  0.86764000  0.27022000  1.0
  H  H177  1  0.68366000  0.13236000  0.72978000  1.0
  H  H178  1  0.31634000  0.86764000  0.72978000  1.0
  H  H179  1  0.31634000  0.13236000  0.27022000  1.0
  C  C180  1  0.60885000  0.37015000  0.99112000  1.0
  C  C181  1  0.39115000  0.62985000  0.99112000  1.0
  C  C182  1  0.39115000  0.37015000  0.00888000  1.0
  C  C183  1  0.60885000  0.62985000  0.00888000  1.0
  C  C184  1  0.99112000  0.60885000  0.37015000  1.0
  C  C185  1  0.99112000  0.39115000  0.62985000  1.0
  C  C186  1  0.00888000  0.39115000  0.37015000  1.0
  C  C187  1  0.00888000  0.60885000  0.62985000  1.0
  C  C188  1  0.37015000  0.99112000  0.60884000  1.0
  C  C189  1  0.62985000  0.99112000  0.39115000  1.0
  C  C190  1  0.37015000  0.00888000  0.39115000  1.0
  C  C191  1  0.62985000  0.00888000  0.60885000  1.0
  C  C192  1  0.87015000  0.10884000  0.49112000  1.0
  C  C193  1  0.12985000  0.89115000  0.49112000  1.0
  C  C194  1  0.87015000  0.89115000  0.50888000  1.0
  C  C195  1  0.12985000  0.10885000  0.50888000  1.0
  C  C196  1  0.10885000  0.49112000  0.87015000  1.0
  C  C197  1  0.89115000  0.49112000  0.12985000  1.0
  C  C198  1  0.89115000  0.50888000  0.87015000  1.0
  C  C199  1  0.10884000  0.50888000  0.12985000  1.0
  C  C200  1  0.49112000  0.87015000  0.10885000  1.0
  C  C201  1  0.49112000  0.12985000  0.89115000  1.0
  C  C202  1  0.50888000  0.87015000  0.89115000  1.0
  C  C203  1  0.50888000  0.12985000  0.10885000  1.0
  C  C204  1  0.65772000  0.36911000  0.11560000  1.0
  C  C205  1  0.34228000  0.63089000  0.11560000  1.0
  C  C206  1  0.34228000  0.36911000  0.88440000  1.0
  C  C207  1  0.65772000  0.63089000  0.88440000  1.0
  C  C208  1  0.11560000  0.65772000  0.36911000  1.0
  C  C209  1  0.11560000  0.34228000  0.63089000  1.0
  C  C210  1  0.88440000  0.34228000  0.36911000  1.0
  C  C211  1  0.88440000  0.65772000  0.63089000  1.0
  C  C212  1  0.36911000  0.11560000  0.65772000  1.0
  C  C213  1  0.63089000  0.11560000  0.34228000  1.0
  C  C214  1  0.36911000  0.88440000  0.34228000  1.0
  C  C215  1  0.63089000  0.88440000  0.65772000  1.0
  C  C216  1  0.86911000  0.15772000  0.61560000  1.0
  C  C217  1  0.13089000  0.84228000  0.61560000  1.0
  C  C218  1  0.86911000  0.84228000  0.38440000  1.0
  C  C219  1  0.13089000  0.15772000  0.38440000  1.0
  C  C220  1  0.15772000  0.61560000  0.86911000  1.0
  C  C221  1  0.84228000  0.61560000  0.13089000  1.0
  C  C222  1  0.84228000  0.38440000  0.86911000  1.0
  C  C223  1  0.15772000  0.38440000  0.13089000  1.0
  C  C224  1  0.61560000  0.86911000  0.15772000  1.0
  C  C225  1  0.61560000  0.13089000  0.84228000  1.0
  C  C226  1  0.38440000  0.86911000  0.84228000  1.0
  C  C227  1  0.38440000  0.13089000  0.15772000  1.0
  C  C228  1  0.59992000  0.30798000  0.11091000  1.0
  C  C229  1  0.40008000  0.69202000  0.11091000  1.0
  C  C230  1  0.40008000  0.30798000  0.88909000  1.0
  C  C231  1  0.59992000  0.69202000  0.88909000  1.0
  C  C232  1  0.11091000  0.59992000  0.30798000  1.0
  C  C233  1  0.11091000  0.40008000  0.69202000  1.0
  C  C234  1  0.88909000  0.40008000  0.30798000  1.0
  C  C235  1  0.88909000  0.59992000  0.69202000  1.0
  C  C236  1  0.30798000  0.11091000  0.59992000  1.0
  C  C237  1  0.69202000  0.11091000  0.40008000  1.0
  C  C238  1  0.30798000  0.88909000  0.40008000  1.0
  C  C239  1  0.69202000  0.88909000  0.59992000  1.0
  C  C240  1  0.80798000  0.09992000  0.61091000  1.0
  C  C241  1  0.19202000  0.90008000  0.61091000  1.0
  C  C242  1  0.80798000  0.90008000  0.38909000  1.0
  C  C243  1  0.19202000  0.09992000  0.38909000  1.0
  C  C244  1  0.09992000  0.61091000  0.80798000  1.0
  C  C245  1  0.90008000  0.61091000  0.19202000  1.0
  C  C246  1  0.90008000  0.38909000  0.80798000  1.0
  C  C247  1  0.09992000  0.38909000  0.19202000  1.0
  C  C248  1  0.61091000  0.80798000  0.09992000  1.0
  C  C249  1  0.61091000  0.19202000  0.90008000  1.0
  C  C250  1  0.38909000  0.80798000  0.90008000  1.0
  C  C251  1  0.38909000  0.19202000  0.09992000  1.0
  C  C252  1  0.58848000  0.39827000  0.90654000  1.0
  C  C253  1  0.41152000  0.60173000  0.90654000  1.0
  C  C254  1  0.41152000  0.39827000  0.09346000  1.0
  C  C255  1  0.58848000  0.60173000  0.09346000  1.0
  C  C256  1  0.90654000  0.58848000  0.39827000  1.0
  C  C257  1  0.90654000  0.41152000  0.60173000  1.0
  C  C258  1  0.09346000  0.41152000  0.39827000  1.0
  C  C259  1  0.09346000  0.58848000  0.60173000  1.0
  C  C260  1  0.39827000  0.90654000  0.58848000  1.0
  C  C261  1  0.60173000  0.90653000  0.41152000  1.0
  C  C262  1  0.39827000  0.09346000  0.41152000  1.0
  C  C263  1  0.60173000  0.09347000  0.58848000  1.0
  C  C264  1  0.89827000  0.08848000  0.40654000  1.0
  C  C265  1  0.10173000  0.91152000  0.40654000  1.0
  C  C266  1  0.89827000  0.91152000  0.59347000  1.0
  C  C267  1  0.10173000  0.08848000  0.59346000  1.0
  C  C268  1  0.08848000  0.40654000  0.89827000  1.0
  C  C269  1  0.91152000  0.40654000  0.10173000  1.0
  C  C270  1  0.91152000  0.59346000  0.89827000  1.0
  C  C271  1  0.08848000  0.59346000  0.10173000  1.0
  C  C272  1  0.40654000  0.89827000  0.08848000  1.0
  C  C273  1  0.40654000  0.10173000  0.91152000  1.0
  C  C274  1  0.59346000  0.89827000  0.91152000  1.0
  C  C275  1  0.59346000  0.10173000  0.08848000  1.0
  C  C276  1  0.70792000  0.39301000  0.18799000  1.0
  C  C277  1  0.29208000  0.60699000  0.18799000  1.0
  C  C278  1  0.29207000  0.39301000  0.81201000  1.0
  C  C279  1  0.70792000  0.60699000  0.81201000  1.0
  C  C280  1  0.18799000  0.70792000  0.39301000  1.0
  C  C281  1  0.18799000  0.29208000  0.60699000  1.0
  C  C282  1  0.81201000  0.29207000  0.39301000  1.0
  C  C283  1  0.81201000  0.70792000  0.60699000  1.0
  C  C284  1  0.39301000  0.18799000  0.70793000  1.0
  C  C285  1  0.60699000  0.18799000  0.29208000  1.0
  C  C286  1  0.39301000  0.81201000  0.29208000  1.0
  C  C287  1  0.60699000  0.81201000  0.70793000  1.0
  C  C288  1  0.89301000  0.20793000  0.68799000  1.0
  C  C289  1  0.10699000  0.79208000  0.68799000  1.0
  C  C290  1  0.89301000  0.79207000  0.31201000  1.0
  C  C291  1  0.10699000  0.20792000  0.31201000  1.0
  C  C292  1  0.20793000  0.68799000  0.89301000  1.0
  C  C293  1  0.79207000  0.68799000  0.10699000  1.0
  C  C294  1  0.79208000  0.31201000  0.89301000  1.0
  C  C295  1  0.20793000  0.31201000  0.10699000  1.0
  C  C296  1  0.68799000  0.89301000  0.20792000  1.0
  C  C297  1  0.68799000  0.10699000  0.79208000  1.0
  C  C298  1  0.31201000  0.89301000  0.79208000  1.0
  C  C299  1  0.31201000  0.10699000  0.20792000  1.0
  N  N300  1  0.56954000  0.30729000  0.03166000  1.0
  N  N301  1  0.43046000  0.69271000  0.03166000  1.0
  N  N302  1  0.43046000  0.30729000  0.96834000  1.0
  N  N303  1  0.56954000  0.69271000  0.96834000  1.0
  N  N304  1  0.03166000  0.56954000  0.30729000  1.0
  N  N305  1  0.03166000  0.43046000  0.69271000  1.0
  N  N306  1  0.96834000  0.43046000  0.30729000  1.0
  N  N307  1  0.96834000  0.56954000  0.69271000  1.0
  N  N308  1  0.30729000  0.03166000  0.56954000  1.0
  N  N309  1  0.69271000  0.03166000  0.43046000  1.0
  N  N310  1  0.30729000  0.96834000  0.43046000  1.0
  N  N311  1  0.69271000  0.96834000  0.56954000  1.0
  N  N312  1  0.80729000  0.06954000  0.53166000  1.0
  N  N313  1  0.19271000  0.93046000  0.53166000  1.0
  N  N314  1  0.80729000  0.93046000  0.46834000  1.0
  N  N315  1  0.19271000  0.06954000  0.46834000  1.0
  N  N316  1  0.06954000  0.53166000  0.80729000  1.0
  N  N317  1  0.93046000  0.53166000  0.19271000  1.0
  N  N318  1  0.93046000  0.46834000  0.80729000  1.0
  N  N319  1  0.06954000  0.46834000  0.19271000  1.0
  N  N320  1  0.53166000  0.80729000  0.06954000  1.0
  N  N321  1  0.53166000  0.19271000  0.93046000  1.0
  N  N322  1  0.46834000  0.80729000  0.93046000  1.0
  N  N323  1  0.46834000  0.19271000  0.06954000  1.0
  N  N324  1  0.66386000  0.40727000  0.03977000  1.0
  N  N325  1  0.33614000  0.59273000  0.03977000  1.0
  N  N326  1  0.33614000  0.40727000  0.96023000  1.0
  N  N327  1  0.66386000  0.59273000  0.96023000  1.0
  N  N328  1  0.03977000  0.66386000  0.40727000  1.0
  N  N329  1  0.03977000  0.33614000  0.59273000  1.0
  N  N330  1  0.96023000  0.33614000  0.40727000  1.0
  N  N331  1  0.96023000  0.66386000  0.59273000  1.0
  N  N332  1  0.40727000  0.03977000  0.66386000  1.0
  N  N333  1  0.59273000  0.03977000  0.33614000  1.0
  N  N334  1  0.40727000  0.96023000  0.33614000  1.0
  N  N335  1  0.59273000  0.96023000  0.66386000  1.0
  N  N336  1  0.90727000  0.16386000  0.53977000  1.0
  N  N337  1  0.09273000  0.83614000  0.53977000  1.0
  N  N338  1  0.90727000  0.83614000  0.46023000  1.0
  N  N339  1  0.09273000  0.16386000  0.46023000  1.0
  N  N340  1  0.16386000  0.53977000  0.90727000  1.0
  N  N341  1  0.83614000  0.53977000  0.09273000  1.0
  N  N342  1  0.83614000  0.46023000  0.90727000  1.0
  N  N343  1  0.16386000  0.46023000  0.09273000  1.0
  N  N344  1  0.53977000  0.90727000  0.16386000  1.0
  N  N345  1  0.53977000  0.09273000  0.83614000  1.0
  N  N346  1  0.46023000  0.90727000  0.83614000  1.0
  N  N347  1  0.46023000  0.09273000  0.16386000  1.0
