# generated using pymatgen
data_NaH10AuC16(SN)6
_symmetry_space_group_name_H-M   'P 1'
_cell_length_a   8.36213000
_cell_length_b   10.07740000
_cell_length_c   13.09510000
_cell_angle_alpha   89.99990000
_cell_angle_beta   76.43100000
_cell_angle_gamma   89.99940000
_symmetry_Int_Tables_number   1
_chemical_formula_structural   NaH10AuC16(SN)6
_chemical_formula_sum   'Na2 H20 Au2 C32 S12 N12'
_cell_volume   1072.70387689
_cell_formula_units_Z   2
loop_
 _symmetry_equiv_pos_site_id
 _symmetry_equiv_pos_as_xyz
  1  'x, y, z'
loop_
 _atom_site_type_symbol
 _atom_site_label
 _atom_site_symmetry_multiplicity
 _atom_site_fract_x
 _atom_site_fract_y
 _atom_site_fract_z
 _atom_site_occupancy
  Na  Na0  1  0.00000000  0.00000000  0.00000000  1.0
  Na  Na1  1  0.50000000  0.50000000  1.00000000  1.0
  H  H2  1  0.76925000  0.37938000  0.19187000  1.0
  H  H3  1  0.73076000  0.87937000  0.80812000  1.0
  H  H4  1  0.23075000  0.62063000  0.80813000  1.0
  H  H5  1  0.26925000  0.12063000  0.19188000  1.0
  H  H6  1  0.07111000  0.81191000  0.19497000  1.0
  H  H7  1  0.42889000  0.31190000  0.80503000  1.0
  H  H8  1  0.92889000  0.18809000  0.80503000  1.0
  H  H9  1  0.57111000  0.68809000  0.19497000  1.0
  H  H10  1  0.93829000  0.91667000  0.61507000  1.0
  H  H11  1  0.56171000  0.41668000  0.38493000  1.0
  H  H12  1  0.06171000  0.08332000  0.38493000  1.0
  H  H13  1  0.43828000  0.58332000  0.61507000  1.0
  H  H14  1  0.15613000  0.90825000  0.56300000  1.0
  H  H15  1  0.34387000  0.40826000  0.43699000  1.0
  H  H16  1  0.84387000  0.09174000  0.43700000  1.0
  H  H17  1  0.65613000  0.59174000  0.56300000  1.0
  H  H18  1  0.05974000  0.06555000  0.59818000  1.0
  H  H19  1  0.44026000  0.56555000  0.40181000  1.0
  H  H20  1  0.94026000  0.93445000  0.40182000  1.0
  H  H21  1  0.55974000  0.43445000  0.59818000  1.0
  Au  Au22  1  0.00000000  0.50000000  0.50000000  1.0
  Au  Au23  1  0.50000000  0.00000000  0.50000000  1.0
  C  C24  1  0.90400000  0.50561000  0.27559000  1.0
  C  C25  1  0.59601000  0.00562000  0.72440000  1.0
  C  C26  1  0.09601000  0.49439000  0.72441000  1.0
  C  C27  1  0.40399000  0.99439000  0.27560000  1.0
  C  C28  1  0.83340000  0.47330000  0.19257000  1.0
  C  C29  1  0.66661000  0.97330000  0.80742000  1.0
  C  C30  1  0.16660000  0.52670000  0.80743000  1.0
  C  C31  1  0.33333333  0.02671000  0.19257000  1.0
  C  C32  1  0.98951000  0.62956000  0.27707000  1.0
  C  C33  1  0.51049000  0.12955000  0.72292000  1.0
  C  C34  1  0.01048000  0.37044000  0.72293000  1.0
  C  C35  1  0.48951000  0.87044000  0.27708000  1.0
  C  C36  1  0.93626000  0.68667000  0.10984000  1.0
  C  C37  1  0.56374000  0.18667000  0.89016000  1.0
  C  C38  1  0.06374000  0.31333000  0.89016000  1.0
  C  C39  1  0.43626000  0.81334000  0.10984000  1.0
  C  C40  1  0.00660000  0.71822000  0.19430000  1.0
  C  C41  1  0.49340000  0.21822000  0.80571000  1.0
  C  C42  1  0.99340000  0.28178000  0.80571000  1.0
  C  C43  1  0.50660000  0.78178000  0.19429000  1.0
  C  C44  1  0.84729000  0.56387000  0.10890000  1.0
  C  C45  1  0.65271000  0.06387000  0.89110000  1.0
  C  C46  1  0.15271000  0.43613000  0.89110000  1.0
  C  C47  1  0.34729000  0.93613000  0.10890000  1.0
  C  C48  1  0.08154000  0.94673000  0.72450000  1.0
  C  C49  1  0.41845000  0.44673000  0.27549000  1.0
  C  C50  1  0.91845000  0.05327000  0.27551000  1.0
  C  C51  1  0.58154000  0.55327000  0.72450000  1.0
  C  C52  1  0.05766000  0.95971000  0.61928000  1.0
  C  C53  1  0.44233000  0.45971000  0.38071000  1.0
  C  C54  1  0.94233000  0.04029000  0.38072000  1.0
  C  C55  1  0.55766000  0.54029000  0.61928000  1.0
  S  S56  1  0.07384000  0.67441000  0.38233000  1.0
  S  S57  1  0.42617000  0.17441000  0.61767000  1.0
  S  S58  1  0.92616000  0.32559000  0.61767000  1.0
  S  S59  1  0.57384000  0.82558000  0.38233000  1.0
  S  S60  1  0.84022000  0.68269000  0.95118000  1.0
  S  S61  1  0.65978000  0.18269000  0.04882000  1.0
  S  S62  1  0.15979000  0.31731000  0.04883000  1.0
  S  S63  1  0.34022000  0.81731000  0.95118000  1.0
  S  S64  1  0.88709000  0.39061000  0.37730000  1.0
  S  S65  1  0.61292000  0.89061000  0.62269000  1.0
  S  S66  1  0.11291000  0.60939000  0.62270000  1.0
  S  S67  1  0.38708000  0.10939000  0.37731000  1.0
  N  N68  1  0.93972000  0.76252000  0.02402000  1.0
  N  N69  1  0.56028000  0.26251000  0.97598000  1.0
  N  N70  1  0.06028000  0.23748000  0.97598000  1.0
  N  N71  1  0.43972000  0.73749000  0.02402000  1.0
  N  N72  1  0.78504000  0.55107000  0.02254000  1.0
  N  N73  1  0.71496000  0.05107000  0.97746000  1.0
  N  N74  1  0.21497000  0.44893000  0.97746000  1.0
  N  N75  1  0.28504000  0.94893000  0.02254000  1.0
  N  N76  1  0.09608000  0.93902000  0.81064000  1.0
  N  N77  1  0.40392000  0.43902000  0.18936000  1.0
  N  N78  1  0.90392000  0.06099000  0.18936000  1.0
  N  N79  1  0.59608000  0.56098000  0.81064000  1.0
