# generated using pymatgen
data_FeH20C22(N5O3)2
_symmetry_space_group_name_H-M   'P 1'
_cell_length_a   7.16201000
_cell_length_b   11.25470000
_cell_length_c   15.20140000
_cell_angle_alpha   89.99980000
_cell_angle_beta   76.47100000
_cell_angle_gamma   89.99960000
_symmetry_Int_Tables_number   1
_chemical_formula_structural   FeH20C22(N5O3)2
_chemical_formula_sum   'Fe2 H40 C44 N20 O12'
_cell_volume   1191.32736258
_cell_formula_units_Z   2
loop_
 _symmetry_equiv_pos_site_id
 _symmetry_equiv_pos_as_xyz
  1  'x, y, z'
loop_
 _atom_site_type_symbol
 _atom_site_label
 _atom_site_symmetry_multiplicity
 _atom_site_fract_x
 _atom_site_fract_y
 _atom_site_fract_z
 _atom_site_occupancy
  Fe  Fe0  1  0.50000000  0.65382000  0.25000000  1.0
  Fe  Fe1  1  0.50000000  0.34618000  0.75000000  1.0
  H  H2  1  0.31825000  0.46949000  0.37785000  1.0
  H  H3  1  0.68177000  0.46949000  0.12215000  1.0
  H  H4  1  0.68176000  0.53051000  0.62215000  1.0
  H  H5  1  0.31823000  0.53051000  0.87785000  1.0
  H  H6  1  0.43102000  0.07586000  0.39671000  1.0
  H  H7  1  0.56898000  0.07586000  0.10329000  1.0
  H  H8  1  0.56898000  0.92414000  0.60329000  1.0
  H  H9  1  0.43103000  0.92414000  0.89671000  1.0
  H  H10  1  0.31166000  0.24997000  0.38416000  1.0
  H  H11  1  0.68834000  0.24997000  0.11584000  1.0
  H  H12  1  0.68833000  0.75003000  0.61584000  1.0
  H  H13  1  0.31166000  0.75003000  0.88417000  1.0
  H  H14  1  0.43104000  0.85752000  0.38992000  1.0
  H  H15  1  0.56895000  0.85752000  0.11007000  1.0
  H  H16  1  0.56897000  0.14248000  0.61008000  1.0
  H  H17  1  0.43105000  0.14249000  0.88992000  1.0
  H  H18  1  0.68174000  0.67445000  0.38435000  1.0
  H  H19  1  0.31826000  0.67445000  0.11565000  1.0
  H  H20  1  0.31826000  0.32555000  0.61565000  1.0
  H  H21  1  0.68174000  0.32556000  0.88435000  1.0
  H  H22  1  0.45072000  0.68184000  0.43090000  1.0
  H  H23  1  0.54928000  0.68184000  0.06910000  1.0
  H  H24  1  0.54928000  0.31816000  0.56910000  1.0
  H  H25  1  0.45072000  0.31816000  0.93090000  1.0
  H  H26  1  0.87666000  0.48138000  0.30366000  1.0
  H  H27  1  0.12335000  0.48138000  0.19635000  1.0
  H  H28  1  0.12334000  0.51862000  0.69634000  1.0
  H  H29  1  0.87665000  0.51862000  0.80366000  1.0
  H  H30  1  0.68322000  0.47229000  0.46037000  1.0
  H  H31  1  0.31679000  0.47229000  0.03963000  1.0
  H  H32  1  0.31678000  0.52770000  0.53963000  1.0
  H  H33  1  0.68321000  0.52771000  0.96037000  1.0
  H  H34  1  0.97530000  0.10266000  0.32243000  1.0
  H  H35  1  0.02471000  0.10267000  0.17757000  1.0
  H  H36  1  0.02470000  0.89733000  0.67757000  1.0
  H  H37  1  0.97530000  0.89733000  0.82243000  1.0
  H  H38  1  0.77578000  0.10911000  0.47680000  1.0
  H  H39  1  0.22422000  0.10911000  0.02320000  1.0
  H  H40  1  0.22421000  0.89088000  0.52320000  1.0
  H  H41  1  0.77579000  0.89088000  0.97680000  1.0
  C  C42  1  0.39887000  0.41709000  0.32158000  1.0
  C  C43  1  0.60114000  0.41709000  0.17843000  1.0
  C  C44  1  0.60113000  0.58291000  0.67843000  1.0
  C  C45  1  0.39886000  0.58291000  0.82158000  1.0
  C  C46  1  0.50000000  0.22863000  0.25000000  1.0
  C  C47  1  0.50000000  0.77137000  0.75000000  1.0
  C  C48  1  0.49999000  0.09733000  0.25000000  1.0
  C  C49  1  0.50000000  0.90267000  0.75000000  1.0
  C  C50  1  0.46201000  0.03254000  0.33094000  1.0
  C  C51  1  0.53798000  0.03254000  0.16905000  1.0
  C  C52  1  0.53799000  0.96746000  0.66906000  1.0
  C  C53  1  0.46202000  0.96746000  0.83095000  1.0
  C  C54  1  0.39631000  0.29394000  0.32412000  1.0
  C  C55  1  0.60369000  0.29394000  0.17588000  1.0
  C  C56  1  0.60368000  0.70607000  0.67588000  1.0
  C  C57  1  0.39630000  0.70607000  0.82412000  1.0
  C  C58  1  0.46197000  0.90920000  0.32795000  1.0
  C  C59  1  0.53802000  0.90920000  0.17204000  1.0
  C  C60  1  0.53803000  0.09081000  0.67205000  1.0
  C  C61  1  0.46198000  0.09081000  0.82795000  1.0
  C  C62  1  0.08439000  0.69808000  0.34563000  1.0
  C  C63  1  0.91561000  0.69808000  0.15437000  1.0
  C  C64  1  0.91562000  0.30192000  0.65437000  1.0
  C  C65  1  0.08440000  0.30192000  0.84563000  1.0
  C  C66  1  0.86229000  0.39696000  0.33954000  1.0
  C  C67  1  0.13772000  0.39696000  0.16046000  1.0
  C  C68  1  0.13771000  0.60303000  0.66046000  1.0
  C  C69  1  0.86228000  0.60303000  0.83954000  1.0
  C  C70  1  0.75238000  0.39210000  0.42780000  1.0
  C  C71  1  0.24762000  0.39210000  0.07220000  1.0
  C  C72  1  0.24762000  0.60790000  0.57220000  1.0
  C  C73  1  0.75238000  0.60790000  0.92780000  1.0
  C  C74  1  0.91289000  0.18735000  0.34883000  1.0
  C  C75  1  0.08712000  0.18735000  0.15117000  1.0
  C  C76  1  0.08711000  0.81265000  0.65117000  1.0
  C  C77  1  0.91288000  0.81265000  0.84883000  1.0
  C  C78  1  0.94370000  0.29214000  0.29735000  1.0
  C  C79  1  0.05631000  0.29214000  0.20265000  1.0
  C  C80  1  0.05630000  0.70786000  0.70265000  1.0
  C  C81  1  0.94370000  0.70786000  0.79735000  1.0
  C  C82  1  0.80071000  0.19063000  0.43686000  1.0
  C  C83  1  0.19929000  0.19064000  0.06314000  1.0
  C  C84  1  0.19928000  0.80936000  0.56314000  1.0
  C  C85  1  0.80071000  0.80936000  0.93686000  1.0
  N  N86  1  0.50000000  0.47935000  0.25000000  1.0
  N  N87  1  0.50000000  0.52066000  0.75000000  1.0
  N  N88  1  0.49999000  0.84777000  0.25000000  1.0
  N  N89  1  0.50001000  0.15224000  0.75000000  1.0
  N  N90  1  0.23668000  0.66691000  0.30403000  1.0
  N  N91  1  0.76332000  0.66691000  0.19597000  1.0
  N  N92  1  0.76332000  0.33309000  0.69597000  1.0
  N  N93  1  0.23667000  0.33309000  0.80403000  1.0
  N  N94  1  0.91150000  0.72275000  0.39354000  1.0
  N  N95  1  0.08850000  0.72275000  0.10646000  1.0
  N  N96  1  0.08850000  0.27725000  0.60646000  1.0
  N  N97  1  0.91150000  0.27725000  0.89354000  1.0
  N  N98  1  0.88672000  0.84136000  0.41694000  1.0
  N  N99  1  0.11328000  0.84136000  0.08306000  1.0
  N  N100  1  0.11329000  0.15864000  0.58306000  1.0
  N  N101  1  0.88671000  0.15865000  0.91694000  1.0
  N  N102  1  0.71950000  0.29107000  0.47610000  1.0
  N  N103  1  0.28051000  0.29108000  0.02390000  1.0
  N  N104  1  0.28050000  0.70892000  0.52390000  1.0
  N  N105  1  0.71949000  0.70892000  0.97610000  1.0
  O  O106  1  0.55318000  0.64352000  0.38067000  1.0
  O  O107  1  0.44682000  0.64351000  0.11932000  1.0
  O  O108  1  0.44683000  0.35649000  0.61932000  1.0
  O  O109  1  0.55317000  0.35649000  0.88068000  1.0
  O  O110  1  0.72550000  0.86781000  0.46535000  1.0
  O  O111  1  0.27450000  0.86781000  0.03464000  1.0
  O  O112  1  0.27451000  0.13220000  0.53464000  1.0
  O  O113  1  0.72549000  0.13220000  0.96536000  1.0
  O  O114  1  0.01923000  0.91435000  0.38988000  1.0
  O  O115  1  0.98077000  0.91436000  0.11012000  1.0
  O  O116  1  0.98077000  0.08565000  0.61011000  1.0
  O  O117  1  0.01921000  0.08564000  0.88988000  1.0
