# generated using pymatgen
data_CuH12C14(NO2)2
_symmetry_space_group_name_H-M   'P 1'
_cell_length_a   8.71178000
_cell_length_b   9.20391000
_cell_length_c   15.49740430
_cell_angle_alpha   89.07348897
_cell_angle_beta   73.88830451
_cell_angle_gamma   76.24030000
_symmetry_Int_Tables_number   1
_chemical_formula_structural   CuH12C14(NO2)2
_chemical_formula_sum   'Cu3 H36 C42 N6 O12'
_cell_volume   1157.89762849
_cell_formula_units_Z   3
loop_
 _symmetry_equiv_pos_site_id
 _symmetry_equiv_pos_as_xyz
  1  'x, y, z'
loop_
 _atom_site_type_symbol
 _atom_site_label
 _atom_site_symmetry_multiplicity
 _atom_site_fract_x
 _atom_site_fract_y
 _atom_site_fract_z
 _atom_site_occupancy
  Cu  Cu0  1  0.50000000  0.49999000  0.00000000  1.0
  Cu  Cu1  1  0.29660000  0.56844000  0.57394000  1.0
  Cu  Cu2  1  0.70340000  0.43157000  0.42606000  1.0
  H  H3  1  0.81382000  0.61530000  0.54360000  1.0
  H  H4  1  0.18618000  0.38472000  0.45640000  1.0
  H  H5  1  0.75370000  0.78651000  0.80232000  1.0
  H  H6  1  0.24630000  0.21347000  0.19769000  1.0
  H  H7  1  0.56941000  0.79479000  0.77110000  1.0
  H  H8  1  0.43058000  0.20520000  0.22891000  1.0
  H  H9  1  0.32873000  0.25635000  0.00575000  1.0
  H  H10  1  0.67127000  0.74363000  0.99424000  1.0
  H  H11  1  0.10629000  0.20183000  0.94770000  1.0
  H  H12  1  0.89372000  0.79814000  0.05229000  1.0
  H  H13  1  0.97002000  0.39471000  0.85620000  1.0
  H  H14  1  0.02997000  0.60527000  0.14380000  1.0
  H  H15  1  0.07365000  0.62830000  0.82372000  1.0
  H  H16  1  0.92635000  0.37169000  0.17628000  1.0
  H  H17  1  0.29658000  0.66438000  0.88754000  1.0
  H  H18  1  0.70343000  0.33561000  0.11246000  1.0
  H  H19  1  0.12301000  0.61712000  0.43291000  1.0
  H  H20  1  0.87699000  0.38290000  0.56709000  1.0
  H  H21  1  0.05354000  0.81795000  0.33113000  1.0
  H  H22  1  0.94645000  0.18209000  0.66888000  1.0
  H  H23  1  0.12563000  0.06359000  0.34553000  1.0
  H  H24  1  0.87437000  0.93644000  0.65448000  1.0
  H  H25  1  0.27772000  0.09051000  0.45847000  1.0
  H  H26  1  0.72229000  0.90951000  0.54154000  1.0
  H  H27  1  0.34463000  0.87385000  0.55388000  1.0
  H  H28  1  0.65539000  0.12616000  0.44612000  1.0
  H  H29  1  0.18450000  0.29556000  0.60032000  1.0
  H  H30  1  0.81550000  0.70444000  0.39967000  1.0
  H  H31  1  0.24478000  0.05250000  0.67616000  1.0
  H  H32  1  0.75521000  0.94750000  0.32383000  1.0
  H  H33  1  0.43781000  0.02172000  0.77085000  1.0
  H  H34  1  0.56220000  0.97826000  0.22913000  1.0
  H  H35  1  0.56623000  0.23768000  0.78655000  1.0
  H  H36  1  0.43376000  0.76230000  0.21345000  1.0
  H  H37  1  0.49968000  0.46492000  0.70440000  1.0
  H  H38  1  0.50032000  0.53508000  0.29560000  1.0
  C  C39  1  0.54959000  0.68186000  0.61550000  1.0
  C  C40  1  0.45041000  0.31815000  0.38450000  1.0
  C  C41  1  0.72790000  0.65613000  0.60921000  1.0
  C  C42  1  0.27210000  0.34388000  0.39079000  1.0
  C  C43  1  0.79007000  0.66981000  0.67840000  1.0
  C  C44  1  0.20994000  0.33019000  0.32160000  1.0
  C  C45  1  0.97363000  0.64268000  0.65981000  1.0
  C  C46  1  0.02636000  0.35732000  0.34020000  1.0
  C  C47  1  0.68831000  0.72226000  0.77212000  1.0
  C  C48  1  0.31169000  0.27772000  0.22788000  1.0
  C  C49  1  0.65249000  0.59682000  0.83517000  1.0
  C  C50  1  0.34751000  0.40316000  0.16483000  1.0
  C  C51  1  0.26773000  0.33507000  0.96536000  1.0
  C  C52  1  0.73227000  0.66490000  0.03464000  1.0
  C  C53  1  0.14336000  0.30669000  0.93291000  1.0
  C  C54  1  0.85664000  0.69329000  0.06709000  1.0
  C  C55  1  0.06884000  0.41265000  0.88223000  1.0
  C  C56  1  0.93115000  0.58734000  0.11777000  1.0
  C  C57  1  0.12374000  0.54369000  0.86531000  1.0
  C  C58  1  0.87627000  0.45630000  0.13468000  1.0
  C  C59  1  0.24865000  0.56463000  0.89998000  1.0
  C  C60  1  0.75135000  0.43535000  0.10002000  1.0
  C  C61  1  0.15656000  0.72303000  0.43599000  1.0
  C  C62  1  0.84345000  0.27699000  0.56401000  1.0
  C  C63  1  0.11566000  0.83712000  0.38042000  1.0
  C  C64  1  0.88433000  0.16291000  0.61959000  1.0
  C  C65  1  0.15788000  0.97227000  0.38791000  1.0
  C  C66  1  0.84212000  0.02775000  0.61210000  1.0
  C  C67  1  0.24153000  0.98730000  0.45071000  1.0
  C  C68  1  0.75849000  0.01273000  0.54929000  1.0
  C  C69  1  0.28055000  0.86796000  0.50331000  1.0
  C  C70  1  0.71946000  0.13206000  0.49669000  1.0
  C  C71  1  0.26986000  0.27546000  0.64135000  1.0
  C  C72  1  0.73015000  0.72454000  0.35863000  1.0
  C  C73  1  0.30184000  0.14261000  0.68444000  1.0
  C  C74  1  0.69816000  0.85739000  0.31555000  1.0
  C  C75  1  0.40999000  0.12584000  0.73753000  1.0
  C  C76  1  0.59000000  0.87416000  0.26246000  1.0
  C  C77  1  0.48143000  0.24322000  0.74584000  1.0
  C  C78  1  0.51857000  0.75676000  0.25415000  1.0
  C  C79  1  0.44436000  0.37224000  0.69994000  1.0
  C  C80  1  0.55564000  0.62775000  0.30005000  1.0
  N  N81  1  0.31930000  0.46258000  0.94972000  1.0
  N  N82  1  0.68070000  0.53740000  0.05028000  1.0
  N  N83  1  0.23847000  0.73803000  0.49611000  1.0
  N  N84  1  0.76153000  0.26199000  0.50390000  1.0
  N  N85  1  0.34083000  0.38832000  0.64827000  1.0
  N  N86  1  0.65916000  0.61168000  0.35173000  1.0
  O  O87  1  0.43852000  0.77388000  0.67075000  1.0
  O  O88  1  0.56148000  0.22614000  0.32925000  1.0
  O  O89  1  0.52352000  0.59565000  0.55759000  1.0
  O  O90  1  0.47648000  0.40436000  0.44241000  1.0
  O  O91  1  0.02962000  0.71868000  0.70448000  1.0
  O  O92  1  0.97038000  0.28132000  0.29552000  1.0
  O  O93  1  0.06469000  0.54605000  0.59472000  1.0
  O  O94  1  0.93533000  0.45396000  0.40527000  1.0
  O  O95  1  0.72140000  0.46200000  0.81487000  1.0
  O  O96  1  0.27860000  0.53798000  0.18513000  1.0
  O  O97  1  0.54386000  0.64917000  0.91121000  1.0
  O  O98  1  0.45614000  0.35082000  0.08879000  1.0
