# generated using pymatgen
data_ZnH21C35(NO3)3
_symmetry_space_group_name_H-M   'P 1'
_cell_length_a   14.61940000
_cell_length_b   15.71100000
_cell_length_c   23.77070000
_cell_angle_alpha   90.56520000
_cell_angle_beta   105.73300000
_cell_angle_gamma   98.44230000
_symmetry_Int_Tables_number   1
_chemical_formula_structural   ZnH21C35(NO3)3
_chemical_formula_sum   'Zn2 H42 C70 N6 O18'
_cell_volume   5191.21163938
_cell_formula_units_Z   2
loop_
 _symmetry_equiv_pos_site_id
 _symmetry_equiv_pos_as_xyz
  1  'x, y, z'
loop_
 _atom_site_type_symbol
 _atom_site_label
 _atom_site_symmetry_multiplicity
 _atom_site_fract_x
 _atom_site_fract_y
 _atom_site_fract_z
 _atom_site_occupancy
  Zn  Zn0  1  0.59373000  0.48296000  0.51481000  1.0
  Zn  Zn1  1  0.40778000  0.51812000  0.48426000  1.0
  H  H2  1  0.61534000  0.70525000  0.96644000  1.0
  H  H3  1  0.38308000  0.29801000  0.03249000  1.0
  H  H4  1  0.61269000  0.70688000  0.07243000  1.0
  H  H5  1  0.38658000  0.29613000  0.92665000  1.0
  H  H6  1  0.35679000  0.54052000  0.19161000  1.0
  H  H7  1  0.38811000  0.57510000  0.76766000  1.0
  H  H8  1  0.35819000  0.53825000  0.29746000  1.0
  H  H9  1  0.38664000  0.57523000  0.66167000  1.0
  H  H10  1  0.63943000  0.46456000  0.34170000  1.0
  H  H11  1  0.61882000  0.42779000  0.69782000  1.0
  H  H12  1  0.63758000  0.46522000  0.23563000  1.0
  H  H13  1  0.61919000  0.42547000  0.80351000  1.0
  H  H14  1  0.76307000  0.05586000  0.57576000  1.0
  H  H15  1  0.24556000  0.94780000  0.50710000  1.0
  H  H16  1  0.54185000  0.22180000  0.52272000  1.0
  H  H17  1  0.46266000  0.77944000  0.51271000  1.0
  H  H18  1  0.24494000  0.25014000  0.48025000  1.0
  H  H19  1  0.75935000  0.75140000  0.55207000  1.0
  H  H20  1  0.80732000  0.91091000  0.57106000  1.0
  H  H21  1  0.19944000  0.09204000  0.48958000  1.0
  H  H22  1  0.64070000  0.14999000  0.55917000  1.0
  H  H23  1  0.36822000  0.85313000  0.52249000  1.0
  H  H24  1  0.96217000  0.63699000  0.37322000  1.0
  H  H25  1  0.01610000  0.31467000  0.59116000  1.0
  H  H26  1  0.75680000  0.51877000  0.47049000  1.0
  H  H27  1  0.23414000  0.46104000  0.51332000  1.0
  H  H28  1  0.69604000  0.35433000  0.59391000  1.0
  H  H29  1  0.30175000  0.63908000  0.39889000  1.0
  H  H30  1  0.71664000  0.62034000  0.36963000  1.0
  H  H31  1  0.82224000  0.64617000  0.34581000  1.0
  H  H32  1  0.80231000  0.69442000  0.46727000  1.0
  H  H33  1  0.90681000  0.72578000  0.44343000  1.0
  H  H34  1  0.81180000  0.81220000  0.36497000  1.0
  H  H35  1  0.81073000  0.84655000  0.43609000  1.0
  H  H36  1  0.70828000  0.78106000  0.39018000  1.0
  H  H37  1  0.25051000  0.30852000  0.58068000  1.0
  H  H38  1  0.13700000  0.26857000  0.59208000  1.0
  H  H39  1  0.26131000  0.44349000  0.63935000  1.0
  H  H40  1  0.14936000  0.40611000  0.65309000  1.0
  H  H41  1  0.21962000  0.28104000  0.70615000  1.0
  H  H42  1  0.28534000  0.38152000  0.73848000  1.0
  H  H43  1  0.33237000  0.32085000  0.69342000  1.0
  C  C44  1  0.57551000  0.66327000  0.51631000  1.0
  C  C45  1  0.42719000  0.33770000  0.49499000  1.0
  C  C46  1  0.50009000  0.50113000  0.38894000  1.0
  C  C47  1  0.50078000  0.50102000  0.61036000  1.0
  C  C48  1  0.45974000  0.42355000  0.87098000  1.0
  C  C49  1  0.54037000  0.57924000  0.12827000  1.0
  C  C50  1  0.54609000  0.57613000  0.88611000  1.0
  C  C51  1  0.45293000  0.42708000  0.11296000  1.0
  C  C52  1  0.54328000  0.57564000  0.94798000  1.0
  C  C53  1  0.45546000  0.42757000  0.05101000  1.0
  C  C54  1  0.50039000  0.50109000  0.96968000  1.0
  C  C55  1  0.49860000  0.50202000  0.02933000  1.0
  C  C56  1  0.45929000  0.42564000  0.93328000  1.0
  C  C57  1  0.54009000  0.57736000  0.06582000  1.0
  C  C58  1  0.58303000  0.64891000  0.98457000  1.0
  C  C59  1  0.41562000  0.35429000  0.01442000  1.0
  C  C60  1  0.58151000  0.64976000  0.04338000  1.0
  C  C61  1  0.41761000  0.35330000  0.95569000  1.0
  C  C62  1  0.41838000  0.52408000  0.22481000  1.0
  C  C63  1  0.43766000  0.54226000  0.75177000  1.0
  C  C64  1  0.41925000  0.52297000  0.28350000  1.0
  C  C65  1  0.43692000  0.54241000  0.69313000  1.0
  C  C66  1  0.49915000  0.50197000  0.32566000  1.0
  C  C67  1  0.50196000  0.50077000  0.67366000  1.0
  C  C68  1  0.57809000  0.48144000  0.30850000  1.0
  C  C69  1  0.56809000  0.45914000  0.71354000  1.0
  C  C70  1  0.57715000  0.48172000  0.24980000  1.0
  C  C71  1  0.56855000  0.45815000  0.77216000  1.0
  C  C72  1  0.49732000  0.50327000  0.20847000  1.0
  C  C73  1  0.50323000  0.49975000  0.79079000  1.0
  C  C74  1  0.60706000  0.75782000  0.53034000  1.0
  C  C75  1  0.39729000  0.24391000  0.50167000  1.0
  C  C76  1  0.73159000  0.88187000  0.55850000  1.0
  C  C77  1  0.27481000  0.12086000  0.49759000  1.0
  C  C78  1  0.70555000  0.79395000  0.54776000  1.0
  C  C79  1  0.29947000  0.20812000  0.49250000  1.0
  C  C80  1  0.53735000  0.81042000  0.52625000  1.0
  C  C81  1  0.46784000  0.19153000  0.51693000  1.0
  C  C82  1  0.56159000  0.90023000  0.53765000  1.0
  C  C83  1  0.44504000  0.10230000  0.52249000  1.0
  C  C84  1  0.66124000  0.93685000  0.55297000  1.0
  C  C85  1  0.34584000  0.06607000  0.51164000  1.0
  C  C86  1  0.48942000  0.95607000  0.53185000  1.0
  C  C87  1  0.51790000  0.04661000  0.53566000  1.0
  C  C88  1  0.61806000  0.08064000  0.55232000  1.0
  C  C89  1  0.38988000  0.92247000  0.52226000  1.0
  C  C90  1  0.68700000  0.02803000  0.56173000  1.0
  C  C91  1  0.32104000  0.97519000  0.51370000  1.0
  C  C92  1  0.15246000  0.62185000  0.39919000  1.0
  C  C93  1  0.83643000  0.35261000  0.58086000  1.0
  C  C94  1  0.24603000  0.60602000  0.41693000  1.0
  C  C95  1  0.74800000  0.37955000  0.57058000  1.0
  C  C96  1  0.20653000  0.50556000  0.48099000  1.0
  C  C97  1  0.78374000  0.47220000  0.50133000  1.0
  C  C98  1  0.10833000  0.51439000  0.46461000  1.0
  C  C99  1  0.87506000  0.44837000  0.50743000  1.0
  C  C100  1  0.07981000  0.57759000  0.42274000  1.0
  C  C101  1  0.90438000  0.38687000  0.55045000  1.0
  C  C102  1  0.03716000  0.46655000  0.48959000  1.0
  C  C103  1  0.94170000  0.48606000  0.47548000  1.0
  C  C104  1  0.91607000  0.54639000  0.43003000  1.0
  C  C105  1  0.05971000  0.39940000  0.53041000  1.0
  C  C106  1  0.98332000  0.59044000  0.40566000  1.0
  C  C107  1  0.99539000  0.36218000  0.55943000  1.0
  C  C108  1  0.79535000  0.63560000  0.38459000  1.0
  C  C109  1  0.82766000  0.71223000  0.42877000  1.0
  C  C110  1  0.78735000  0.79233000  0.40337000  1.0
  C  C111  1  0.18672000  0.32767000  0.59005000  1.0
  C  C112  1  0.21404000  0.38524000  0.64570000  1.0
  C  C113  1  0.26542000  0.33941000  0.69865000  1.0
  N  N114  1  0.50342000  0.49948000  0.85156000  1.0
  N  N115  1  0.49650000  0.50339000  0.14757000  1.0
  N  N116  1  0.27214000  0.54986000  0.45845000  1.0
  N  N117  1  0.72385000  0.44013000  0.53214000  1.0
  N  N118  1  0.13343000  0.68715000  0.35540000  1.0
  N  N119  1  0.85631000  0.28914000  0.62579000  1.0
  O  O120  1  0.63928000  0.61380000  0.52885000  1.0
  O  O121  1  0.36378000  0.38733000  0.48847000  1.0
  O  O122  1  0.48586000  0.63886000  0.49281000  1.0
  O  O123  1  0.51516000  0.36162000  0.49680000  1.0
  O  O124  1  0.58040000  0.49714000  0.42619000  1.0
  O  O125  1  0.42835000  0.52521000  0.57469000  1.0
  O  O126  1  0.42066000  0.50457000  0.40061000  1.0
  O  O127  1  0.57227000  0.47678000  0.59726000  1.0
  O  O128  1  0.42397000  0.36013000  0.83731000  1.0
  O  O129  1  0.57671000  0.64237000  0.16206000  1.0
  O  O130  1  0.58287000  0.63880000  0.86510000  1.0
  O  O131  1  0.41601000  0.36449000  0.13396000  1.0
  O  O132  1  0.18274000  0.69400000  0.32023000  1.0
  O  O133  1  0.07095000  0.73243000  0.35676000  1.0
  O  O134  1  0.78629000  0.23890000  0.63207000  1.0
  O  O135  1  0.94073000  0.29001000  0.65561000  1.0
  O  O136  1  0.82296000  0.55695000  0.41176000  1.0
  O  O137  1  0.14614000  0.37402000  0.53865000  1.0
