# generated using pymatgen
data_Cu4SiH8(C5N6)4
_symmetry_space_group_name_H-M   'P 1'
_cell_length_a   25.42130000
_cell_length_b   25.49670000
_cell_length_c   25.52210000
_cell_angle_alpha   88.58040000
_cell_angle_beta   89.81120000
_cell_angle_gamma   89.94350000
_symmetry_Int_Tables_number   1
_chemical_formula_structural   Cu4SiH8(C5N6)4
_chemical_formula_sum   'Cu12 Si3 H24 C60 N72'
_cell_volume   16537.21159303
_cell_formula_units_Z   3
loop_
 _symmetry_equiv_pos_site_id
 _symmetry_equiv_pos_as_xyz
  1  'x, y, z'
loop_
 _atom_site_type_symbol
 _atom_site_label
 _atom_site_symmetry_multiplicity
 _atom_site_fract_x
 _atom_site_fract_y
 _atom_site_fract_z
 _atom_site_occupancy
  Cu  Cu0  1  0.23268000  0.85738000  0.77383000  1.0
  Cu  Cu1  1  0.14395000  0.77020000  0.77607000  1.0
  Cu  Cu2  1  0.22366000  0.77468000  0.87111000  1.0
  Cu  Cu3  1  0.23106000  0.13858000  0.22640000  1.0
  Cu  Cu4  1  0.14331000  0.22701000  0.22652000  1.0
  Cu  Cu5  1  0.22162000  0.22107000  0.12958000  1.0
  Cu  Cu6  1  0.77194000  0.14471000  0.76656000  1.0
  Cu  Cu7  1  0.86392000  0.22987000  0.76839000  1.0
  Cu  Cu8  1  0.76549000  0.23550000  0.84765000  1.0
  Cu  Cu9  1  0.77603000  0.86132000  0.23062000  1.0
  Cu  Cu10  1  0.86512000  0.77202000  0.23254000  1.0
  Cu  Cu11  1  0.76921000  0.76841000  0.15175000  1.0
  Si  Si12  1  0.98802000  0.49900000  0.00157000  1.0
  Si  Si13  1  0.00230000  0.99904000  0.50170000  1.0
  Si  Si14  1  0.50223000  0.99935000  0.99878000  1.0
  H  H15  1  0.19633000  0.92683000  0.67379000  1.0
  H  H16  1  0.07575000  0.80662000  0.67768000  1.0
  H  H17  1  0.31436000  0.81742000  0.94387000  1.0
  H  H18  1  0.33354000  0.92130000  0.80805000  1.0
  H  H19  1  0.07382000  0.67248000  0.81148000  1.0
  H  H20  1  0.18045000  0.67891000  0.94341000  1.0
  H  H21  1  0.19463000  0.06858000  0.32607000  1.0
  H  H22  1  0.07781000  0.19253000  0.32808000  1.0
  H  H23  1  0.31219000  0.17847000  0.05566000  1.0
  H  H24  1  0.33255000  0.07511000  0.19159000  1.0
  H  H25  1  0.07319000  0.32491000  0.19149000  1.0
  H  H26  1  0.17800000  0.31623000  0.05760000  1.0
  H  H27  1  0.80892000  0.07646000  0.67128000  1.0
  H  H28  1  0.93792000  0.18735000  0.67691000  1.0
  H  H29  1  0.66404000  0.19955000  0.91471000  1.0
  H  H30  1  0.67963000  0.07003000  0.80883000  1.0
  H  H31  1  0.93429000  0.32283000  0.81191000  1.0
  H  H32  1  0.79772000  0.33374000  0.91333000  1.0
  H  H33  1  0.81441000  0.93072000  0.32436000  1.0
  H  H34  1  0.93575000  0.81104000  0.32704000  1.0
  H  H35  1  0.66870000  0.80340000  0.08424000  1.0
  H  H36  1  0.68407000  0.93588000  0.18632000  1.0
  H  H37  1  0.93484000  0.67671000  0.19104000  1.0
  H  H38  1  0.80076000  0.66917000  0.08691000  1.0
  C  C39  1  0.17161000  0.89304000  0.68240000  1.0
  C  C40  1  0.12518000  0.87745000  0.65735000  1.0
  C  C41  1  0.10970000  0.83126000  0.68436000  1.0
  C  C42  1  0.31138000  0.83836000  0.90648000  1.0
  C  C43  1  0.34230000  0.87998000  0.88649000  1.0
  C  C44  1  0.32129000  0.89156000  0.83665000  1.0
  C  C45  1  0.10457000  0.68169000  0.83911000  1.0
  C  C46  1  0.11571000  0.65749000  0.88790000  1.0
  C  C47  1  0.15935000  0.68496000  0.90687000  1.0
  C  C48  1  0.17074000  0.10324000  0.31874000  1.0
  C  C49  1  0.12575000  0.12007000  0.34581000  1.0
  C  C50  1  0.11079000  0.16697000  0.31984000  1.0
  C  C51  1  0.30946000  0.15764000  0.09314000  1.0
  C  C52  1  0.34084000  0.11635000  0.11300000  1.0
  C  C53  1  0.32004000  0.10473000  0.16304000  1.0
  C  C54  1  0.10349000  0.31515000  0.16334000  1.0
  C  C55  1  0.11419000  0.33883000  0.11415000  1.0
  C  C56  1  0.15737000  0.31077000  0.09460000  1.0
  C  C57  1  0.83569000  0.10818000  0.67985000  1.0
  C  C58  1  0.88436000  0.12062000  0.65645000  1.0
  C  C59  1  0.90193000  0.16512000  0.68277000  1.0
  C  C60  1  0.67517000  0.17293000  0.88408000  1.0
  C  C61  1  0.65396000  0.12356000  0.87289000  1.0
  C  C62  1  0.68332000  0.10630000  0.82982000  1.0
  C  C63  1  0.89678000  0.31809000  0.83186000  1.0
  C  C64  1  0.87614000  0.34631000  0.87389000  1.0
  C  C65  1  0.82663000  0.32366000  0.88389000  1.0
  C  C66  1  0.83942000  0.89706000  0.31761000  1.0
  C  C67  1  0.88588000  0.88182000  0.34353000  1.0
  C  C68  1  0.90170000  0.83558000  0.31901000  1.0
  C  C69  1  0.67977000  0.83088000  0.11403000  1.0
  C  C70  1  0.65857000  0.88063000  0.12391000  1.0
  C  C71  1  0.68782000  0.89900000  0.16636000  1.0
  C  C72  1  0.89800000  0.68244000  0.17032000  1.0
  C  C73  1  0.87774000  0.65457000  0.12803000  1.0
  C  C74  1  0.82914000  0.67861000  0.11686000  1.0
  C  C75  1  0.09781000  0.90426000  0.61507000  1.0
  C  C76  1  0.04471000  0.95627000  0.54562000  1.0
  C  C77  1  0.09894000  0.09362000  0.38880000  1.0
  C  C78  1  0.04530000  0.04189000  0.45826000  1.0
  C  C79  1  0.91132000  0.09239000  0.61605000  1.0
  C  C80  1  0.96091000  0.04004000  0.54647000  1.0
  C  C81  1  0.91238000  0.90874000  0.38488000  1.0
  C  C82  1  0.96160000  0.95865000  0.45613000  1.0
  C  C83  1  0.38544000  0.90583000  0.91176000  1.0
  C  C84  1  0.45740000  0.95717000  0.95901000  1.0
  C  C85  1  0.61749000  0.90790000  0.09534000  1.0
  C  C86  1  0.54781000  0.95827000  0.04108000  1.0
  C  C87  1  0.38405000  0.09072000  0.08727000  1.0
  C  C88  1  0.45660000  0.04023000  0.03938000  1.0
  C  C89  1  0.61290000  0.09542000  0.90083000  1.0
  C  C90  1  0.54526000  0.04238000  0.95546000  1.0
  C  C91  1  0.08704000  0.61513000  0.91333000  1.0
  C  C92  1  0.03153000  0.54462000  0.96152000  1.0
  C  C93  1  0.90073000  0.38793000  0.90219000  1.0
  C  C94  1  0.94740000  0.45665000  0.95765000  1.0
  C  C95  1  0.90176000  0.61198000  0.10045000  1.0
  C  C96  1  0.94785000  0.54207000  0.04554000  1.0
  C  C97  1  0.08563000  0.38127000  0.08884000  1.0
  C  C98  1  0.03086000  0.45257000  0.04122000  1.0
  N  N99  1  0.14429000  0.82029000  0.72271000  1.0
  N  N100  1  0.18278000  0.85866000  0.72149000  1.0
  N  N101  1  0.28079000  0.85928000  0.82772000  1.0
  N  N102  1  0.27478000  0.82605000  0.87104000  1.0
  N  N103  1  0.17300000  0.72284000  0.87194000  1.0
  N  N104  1  0.13900000  0.72071000  0.82980000  1.0
  N  N105  1  0.14430000  0.17717000  0.28015000  1.0
  N  N106  1  0.18165000  0.13764000  0.27954000  1.0
  N  N107  1  0.27917000  0.13665000  0.17217000  1.0
  N  N108  1  0.27279000  0.16973000  0.12883000  1.0
  N  N109  1  0.17116000  0.27309000  0.12960000  1.0
  N  N110  1  0.13775000  0.27591000  0.17236000  1.0
  N  N111  1  0.86629000  0.17808000  0.71918000  1.0
  N  N112  1  0.82518000  0.14262000  0.71741000  1.0
  N  N113  1  0.71925000  0.14277000  0.81638000  1.0
  N  N114  1  0.71441000  0.18408000  0.85026000  1.0
  N  N115  1  0.81845000  0.28479000  0.85037000  1.0
  N  N116  1  0.86206000  0.28130000  0.81801000  1.0
  N  N117  1  0.86720000  0.82428000  0.28121000  1.0
  N  N118  1  0.82847000  0.86249000  0.28038000  1.0
  N  N119  1  0.72373000  0.86283000  0.18066000  1.0
  N  N120  1  0.71888000  0.82057000  0.14799000  1.0
  N  N121  1  0.82109000  0.71785000  0.15002000  1.0
  N  N122  1  0.86388000  0.72026000  0.18327000  1.0
  N  N123  1  0.11908000  0.94967000  0.59564000  1.0
  N  N124  1  0.05259000  0.88231000  0.59761000  1.0
  N  N125  1  0.02532000  0.90937000  0.56224000  1.0
  N  N126  1  0.09156000  0.97627000  0.56020000  1.0
  N  N127  1  0.11846000  0.04656000  0.40583000  1.0
  N  N128  1  0.05626000  0.11769000  0.40969000  1.0
  N  N129  1  0.02868000  0.09081000  0.44511000  1.0
  N  N130  1  0.09057000  0.02007000  0.44118000  1.0
  N  N131  1  0.88665000  0.05004000  0.59607000  1.0
  N  N132  1  0.96014000  0.10938000  0.60179000  1.0
  N  N133  1  0.98536000  0.08230000  0.56624000  1.0
  N  N134  1  0.91238000  0.02318000  0.56054000  1.0
  N  N135  1  0.95778000  0.88727000  0.40364000  1.0
  N  N136  1  0.89064000  0.95421000  0.40146000  1.0
  N  N137  1  0.91623000  0.97977000  0.43779000  1.0
  N  N138  1  0.98288000  0.91310000  0.44007000  1.0
  N  N139  1  0.41279000  0.94239000  0.88321000  1.0
  N  N140  1  0.39624000  0.89127000  0.96224000  1.0
  N  N141  1  0.43291000  0.91804000  0.98632000  1.0
  N  N142  1  0.44956000  0.96880000  0.90772000  1.0
  N  N143  1  0.60793000  0.95865000  0.10773000  1.0
  N  N144  1  0.59186000  0.88141000  0.05755000  1.0
  N  N145  1  0.55617000  0.90745000  0.02978000  1.0
  N  N146  1  0.57245000  0.98428000  0.07953000  1.0
  N  N147  1  0.39364000  0.10453000  0.03629000  1.0
  N  N148  1  0.41252000  0.05506000  0.11575000  1.0
  N  N149  1  0.44965000  0.02909000  0.09092000  1.0
  N  N150  1  0.43059000  0.07819000  0.01192000  1.0
  N  N151  1  0.58641000  0.12081000  0.93899000  1.0
  N  N152  1  0.60362000  0.04508000  0.88692000  1.0
  N  N153  1  0.56928000  0.01801000  0.91536000  1.0
  N  N154  1  0.55178000  0.09337000  0.96698000  1.0
  N  N155  1  0.10496000  0.59657000  0.96040000  1.0
  N  N156  1  0.04396000  0.59666000  0.88828000  1.0
  N  N157  1  0.01539000  0.56078000  0.91336000  1.0
  N  N158  1  0.07623000  0.56052000  0.98494000  1.0
  N  N159  1  0.94937000  0.40396000  0.88626000  1.0
  N  N160  1  0.87341000  0.40843000  0.94276000  1.0
  N  N161  1  0.89776000  0.44323000  0.97150000  1.0
  N  N162  1  0.97305000  0.43919000  0.91487000  1.0
  N  N163  1  0.94937000  0.59421000  0.11736000  1.0
  N  N164  1  0.87469000  0.59209000  0.05959000  1.0
  N  N165  1  0.89874000  0.55670000  0.03116000  1.0
  N  N166  1  0.97278000  0.55838000  0.08901000  1.0
  N  N167  1  0.04251000  0.39988000  0.11406000  1.0
  N  N168  1  0.10357000  0.39953000  0.04156000  1.0
  N  N169  1  0.07525000  0.43604000  0.01735000  1.0
  N  N170  1  0.01432000  0.43617000  0.08927000  1.0
