# generated using pymatgen
data_AgH8C4SNO2
_symmetry_space_group_name_H-M   'P 1'
_cell_length_a   4.99105000
_cell_length_b   5.68608000
_cell_length_c   23.33380000
_cell_angle_alpha   90.00930000
_cell_angle_beta   89.99760000
_cell_angle_gamma   89.99700000
_symmetry_Int_Tables_number   1
_chemical_formula_structural   AgH8C4SNO2
_chemical_formula_sum   'Ag4 H32 C16 S4 N4 O8'
_cell_volume   662.20179052
_cell_formula_units_Z   4
loop_
 _symmetry_equiv_pos_site_id
 _symmetry_equiv_pos_as_xyz
  1  'x, y, z'
loop_
 _atom_site_type_symbol
 _atom_site_label
 _atom_site_symmetry_multiplicity
 _atom_site_fract_x
 _atom_site_fract_y
 _atom_site_fract_z
 _atom_site_occupancy
  Ag  Ag0  1  0.57861000  0.64936000  0.16673000  1.0
  Ag  Ag1  1  0.92139000  0.35060000  0.66673000  1.0
  Ag  Ag2  1  0.42134000  0.14936000  0.33333333  1.0
  Ag  Ag3  1  0.07862000  0.85067000  0.83325000  1.0
  H  H4  1  0.97918000  0.37343000  0.14552000  1.0
  H  H5  1  0.52082000  0.62653000  0.64551000  1.0
  H  H6  1  0.02075000  0.87343000  0.35449000  1.0
  H  H7  1  0.47917000  0.12659000  0.85448000  1.0
  H  H8  1  0.16270000  0.09906000  0.06929000  1.0
  H  H9  1  0.33737000  0.90088000  0.56932000  1.0
  H  H10  1  0.83731000  0.59910000  0.43068000  1.0
  H  H11  1  0.66262000  0.40096000  0.93070000  1.0
  H  H12  1  0.47609000  0.09508000  0.10690000  1.0
  H  H13  1  0.02397000  0.90494000  0.60694000  1.0
  H  H14  1  0.52390000  0.59513000  0.39308000  1.0
  H  H15  1  0.97603000  0.40492000  0.89309000  1.0
  H  H16  1  0.15053000  0.71469000  0.00436000  1.0
  H  H17  1  0.34961000  0.28525000  0.50435000  1.0
  H  H18  1  0.84957000  0.21474000  0.49566000  1.0
  H  H19  1  0.65055000  0.78530000  0.99563000  1.0
  H  H20  1  0.98559000  0.65077000  0.07046000  1.0
  H  H21  1  0.51443000  0.34930000  0.57046000  1.0
  H  H22  1  0.01440000  0.15066000  0.42954000  1.0
  H  H23  1  0.48564000  0.84928000  0.92952000  1.0
  H  H24  1  0.98731000  0.43719000  0.01328000  1.0
  H  H25  1  0.51275000  0.56281000  0.51330000  1.0
  H  H26  1  0.01274000  0.93716000  0.48671000  1.0
  H  H27  1  0.48727000  0.06282000  0.98671000  1.0
  H  H28  1  0.43422000  0.23694000  0.21626000  1.0
  H  H29  1  0.06577000  0.76307000  0.71627000  1.0
  H  H30  1  0.56577000  0.73691000  0.28373000  1.0
  H  H31  1  0.93421000  0.26308000  0.78373000  1.0
  H  H32  1  0.19818000  0.42967000  0.22834000  1.0
  H  H33  1  0.30182000  0.57035000  0.72833000  1.0
  H  H34  1  0.80180000  0.92962000  0.27167000  1.0
  H  H35  1  0.69819000  0.07037000  0.77165000  1.0
  C  C36  1  0.02602000  0.02058000  0.17640000  1.0
  C  C37  1  0.47398000  0.97941000  0.67642000  1.0
  C  C38  1  0.97396000  0.52055000  0.32359000  1.0
  C  C39  1  0.52598000  0.47943000  0.82360000  1.0
  C  C40  1  0.14776000  0.25275000  0.15402000  1.0
  C  C41  1  0.35226000  0.74721000  0.65404000  1.0
  C  C42  1  0.85220000  0.75275000  0.34597000  1.0
  C  C43  1  0.64773000  0.24727000  0.84597000  1.0
  C  C44  1  0.29517000  0.19909000  0.09787000  1.0
  C  C45  1  0.20485000  0.80088000  0.59789000  1.0
  C  C46  1  0.70479000  0.69914000  0.40212000  1.0
  C  C47  1  0.79512000  0.30092000  0.90212000  1.0
  C  C48  1  0.10229000  0.57526000  0.03511000  1.0
  C  C49  1  0.39774000  0.42472000  0.53511000  1.0
  C  C50  1  0.89773000  0.07526000  0.46490000  1.0
  C  C51  1  0.60229000  0.92476000  0.96488000  1.0
  S  S52  1  0.41542000  0.45313000  0.05922000  1.0
  S  S53  1  0.08459000  0.54686000  0.55922000  1.0
  S  S54  1  0.58456000  0.95317000  0.44080000  1.0
  S  S55  1  0.91540000  0.04690000  0.94078000  1.0
  N  N56  1  0.32188000  0.36527000  0.19675000  1.0
  N  N57  1  0.17810000  0.63471000  0.69675000  1.0
  N  N58  1  0.67808000  0.86525000  0.30325000  1.0
  N  N59  1  0.82187000  0.13476000  0.80324000  1.0
  O  O60  1  0.13212000  0.91713000  0.21806000  1.0
  O  O61  1  0.36790000  0.08290000  0.71808000  1.0
  O  O62  1  0.86794000  0.41706000  0.28192000  1.0
  O  O63  1  0.63208000  0.58289000  0.78193000  1.0
  O  O64  1  0.81982000  0.95222000  0.14772000  1.0
  O  O65  1  0.68019000  0.04773000  0.64774000  1.0
  O  O66  1  0.18015000  0.45222000  0.35228000  1.0
  O  O67  1  0.31976000  0.54778000  0.85228000  1.0
