# generated using pymatgen
data_Zn2H33C33N2ClO8
_symmetry_space_group_name_H-M   'P 1'
_cell_length_a   10.03690000
_cell_length_b   10.98160000
_cell_length_c   26.08600000
_cell_angle_alpha   89.85350000
_cell_angle_beta   89.42910000
_cell_angle_gamma   89.84020000
_symmetry_Int_Tables_number   1
_chemical_formula_structural   Zn2H33C33N2ClO8
_chemical_formula_sum   'Zn4 H66 C66 N4 Cl2 O16'
_cell_volume   2875.06766413
_cell_formula_units_Z   2
loop_
 _symmetry_equiv_pos_site_id
 _symmetry_equiv_pos_as_xyz
  1  'x, y, z'
loop_
 _atom_site_type_symbol
 _atom_site_label
 _atom_site_symmetry_multiplicity
 _atom_site_fract_x
 _atom_site_fract_y
 _atom_site_fract_z
 _atom_site_occupancy
  Zn  Zn0  1  0.33571000  0.51275000  0.49879000  1.0
  Zn  Zn1  1  0.63301000  0.51337000  0.49689000  1.0
  Zn  Zn2  1  0.66427000  0.51162000  0.08330000  1.0
  Zn  Zn3  1  0.36713000  0.51289000  0.08337000  1.0
  H  H4  1  0.28432000  0.45844000  0.66741000  1.0
  H  H5  1  0.71423000  0.45409000  0.91415000  1.0
  H  H6  1  0.34130000  0.64485000  0.92743000  1.0
  H  H7  1  0.32655000  0.65342000  0.83221000  1.0
  H  H8  1  0.66008000  0.64244000  0.65318000  1.0
  H  H9  1  0.67610000  0.65026000  0.74835000  1.0
  H  H10  1  0.08715000  0.75233000  0.42555000  1.0
  H  H11  1  0.23568000  0.66831000  0.43634000  1.0
  H  H12  1  0.12604000  0.62438000  0.38682000  1.0
  H  H13  1  0.89845000  0.39194000  0.61132000  1.0
  H  H14  1  0.74482000  0.44284000  0.58503000  1.0
  H  H15  1  0.81164000  0.29991000  0.56675000  1.0
  H  H16  1  0.89995000  0.65105000  0.38545000  1.0
  H  H17  1  0.74397000  0.61647000  0.41511000  1.0
  H  H18  1  0.83278000  0.74765000  0.43379000  1.0
  H  H19  1  0.05944000  0.27262000  0.57084000  1.0
  H  H20  1  0.21745000  0.32461000  0.54815000  1.0
  H  H21  1  0.14105000  0.39447000  0.60214000  1.0
  H  H22  1  0.53252000  0.88014000  0.61974000  1.0
  H  H23  1  0.60124000  0.77098000  0.57676000  1.0
  H  H24  1  0.69699000  0.89749000  0.59633000  1.0
  H  H25  1  0.28965000  0.12176000  0.40433000  1.0
  H  H26  1  0.38005000  0.25113000  0.42344000  1.0
  H  H27  1  0.45217000  0.14511000  0.37988000  1.0
  H  H28  1  0.70323000  0.11600000  0.59674000  1.0
  H  H29  1  0.57738000  0.22897000  0.59185000  1.0
  H  H30  1  0.54671000  0.09189000  0.62617000  1.0
  H  H31  1  0.44286000  0.93264000  0.37337000  1.0
  H  H32  1  0.41444000  0.79529000  0.40775000  1.0
  H  H33  1  0.28723000  0.90702000  0.40341000  1.0
  H  H34  1  0.19591000  0.29853000  0.32903000  1.0
  H  H35  1  0.22863000  0.40760000  0.37736000  1.0
  H  H36  1  0.15974000  0.45319000  0.31751000  1.0
  H  H37  1  0.79952000  0.29617000  0.25379000  1.0
  H  H38  1  0.76553000  0.40109000  0.20361000  1.0
  H  H39  1  0.83543000  0.45166000  0.26225000  1.0
  H  H40  1  0.19410000  0.44367000  0.22332000  1.0
  H  H41  1  0.28759000  0.32886000  0.19227000  1.0
  H  H42  1  0.20394000  0.29756000  0.25130000  1.0
  H  H43  1  0.80301000  0.44208000  0.35673000  1.0
  H  H44  1  0.70797000  0.33159000  0.38994000  1.0
  H  H45  1  0.78947000  0.29414000  0.33118000  1.0
  H  H46  1  0.91056000  0.75243000  0.15484000  1.0
  H  H47  1  0.76393000  0.66482000  0.14645000  1.0
  H  H48  1  0.87854000  0.62506000  0.19498000  1.0
  H  H49  1  0.09990000  0.39178000  0.96996000  1.0
  H  H50  1  0.25379000  0.44328000  0.99553000  1.0
  H  H51  1  0.18914000  0.30008000  0.01433000  1.0
  H  H52  1  0.10165000  0.65384000  0.19474000  1.0
  H  H53  1  0.25713000  0.61771000  0.16488000  1.0
  H  H54  1  0.16782000  0.74861000  0.14547000  1.0
  H  H55  1  0.94156000  0.27100000  0.01187000  1.0
  H  H56  1  0.78364000  0.32259000  0.03509000  1.0
  H  H57  1  0.85740000  0.39202000  0.98042000  1.0
  H  H58  1  0.48089000  0.87932000  0.96145000  1.0
  H  H59  1  0.40600000  0.77200000  0.00376000  1.0
  H  H60  1  0.31448000  0.90005000  0.98226000  1.0
  H  H61  1  0.70239000  0.11929000  0.18030000  1.0
  H  H62  1  0.61074000  0.24823000  0.16080000  1.0
  H  H63  1  0.53745000  0.13934000  0.20286000  1.0
  H  H64  1  0.30632000  0.11863000  0.98291000  1.0
  H  H65  1  0.43286000  0.22978000  0.98862000  1.0
  H  H66  1  0.46413000  0.09220000  0.95483000  1.0
  H  H67  1  0.54714000  0.92652000  0.20868000  1.0
  H  H68  1  0.58185000  0.79128000  0.17388000  1.0
  H  H69  1  0.70623000  0.90417000  0.18092000  1.0
  C  C70  1  0.50198000  0.27549000  0.50468000  1.0
  C  C71  1  0.46236000  0.53925000  0.59722000  1.0
  C  C72  1  0.49543000  0.74929000  0.49365000  1.0
  C  C73  1  0.47875000  0.46487000  0.39939000  1.0
  C  C74  1  0.50006000  0.27471000  0.07710000  1.0
  C  C75  1  0.53610000  0.53784000  0.98391000  1.0
  C  C76  1  0.50814000  0.74831000  0.08730000  1.0
  C  C77  1  0.51708000  0.46429000  0.18188000  1.0
  C  C78  1  0.05596000  0.58077000  0.46264000  1.0
  C  C79  1  0.91236000  0.45354000  0.53356000  1.0
  C  C80  1  0.91532000  0.58067000  0.46186000  1.0
  C  C81  1  0.05219000  0.44166000  0.53026000  1.0
  C  C82  1  0.49508000  0.88599000  0.49685000  1.0
  C  C83  1  0.49700000  0.13862000  0.50248000  1.0
  C  C84  1  0.54533000  0.94210000  0.54104000  1.0
  C  C85  1  0.44451000  0.08222000  0.45868000  1.0
  C  C86  1  0.54593000  0.07011000  0.54390000  1.0
  C  C87  1  0.44517000  0.95423000  0.45567000  1.0
  C  C88  1  0.47129000  0.54948000  0.65438000  1.0
  C  C89  1  0.52854000  0.54841000  0.92669000  1.0
  C  C90  1  0.37039000  0.50026000  0.68521000  1.0
  C  C91  1  0.38209000  0.50123000  0.73840000  1.0
  C  C92  1  0.62904000  0.49751000  0.89613000  1.0
  C  C93  1  0.61806000  0.49907000  0.84291000  1.0
  C  C94  1  0.41916000  0.60475000  0.90344000  1.0
  C  C95  1  0.41100000  0.60867000  0.85034000  1.0
  C  C96  1  0.58189000  0.60359000  0.67735000  1.0
  C  C97  1  0.59074000  0.60712000  0.73044000  1.0
  C  C98  1  0.49282000  0.55444000  0.76233000  1.0
  C  C99  1  0.50844000  0.55429000  0.81871000  1.0
  C  C100  1  0.48529000  0.42131000  0.34444000  1.0
  C  C101  1  0.51004000  0.42086000  0.23693000  1.0
  C  C102  1  0.36997000  0.40649000  0.31398000  1.0
  C  C103  1  0.62534000  0.40559000  0.26742000  1.0
  C  C104  1  0.38330000  0.40005000  0.26010000  1.0
  C  C105  1  0.61208000  0.39988000  0.32130000  1.0
  C  C106  1  0.94441000  0.58024000  0.11881000  1.0
  C  C107  1  0.08754000  0.45332000  0.04764000  1.0
  C  C108  1  0.08510000  0.58103000  0.11890000  1.0
  C  C109  1  0.94799000  0.44061000  0.05166000  1.0
  C  C110  1  0.50749000  0.88510000  0.08444000  1.0
  C  C111  1  0.50486000  0.13782000  0.07933000  1.0
  C  C112  1  0.46080000  0.94225000  0.03976000  1.0
  C  C113  1  0.55307000  0.08021000  0.12380000  1.0
  C  C114  1  0.45988000  0.07032000  0.03713000  1.0
  C  C115  1  0.55300000  0.95216000  0.12648000  1.0
  C  C116  1  0.13104000  0.66061000  0.42605000  1.0
  C  C117  1  0.83778000  0.39408000  0.57660000  1.0
  C  C118  1  0.84381000  0.65214000  0.42173000  1.0
  C  C119  1  0.12171000  0.35333000  0.56456000  1.0
  C  C120  1  0.59632000  0.86825000  0.58550000  1.0
  C  C121  1  0.38948000  0.15444000  0.41455000  1.0
  C  C122  1  0.59538000  0.13058000  0.59187000  1.0
  C  C123  1  0.39533000  0.89351000  0.40781000  1.0
  C  C124  1  0.23128000  0.39179000  0.33622000  1.0
  C  C125  1  0.76360000  0.38867000  0.24499000  1.0
  C  C126  1  0.26147000  0.36602000  0.22982000  1.0
  C  C127  1  0.73383000  0.36550000  0.35176000  1.0
  C  C128  1  0.86950000  0.65981000  0.15555000  1.0
  C  C129  1  0.16157000  0.39412000  0.00441000  1.0
  C  C130  1  0.15708000  0.65354000  0.15831000  1.0
  C  C131  1  0.87850000  0.35147000  0.01807000  1.0
  C  C132  1  0.41340000  0.86909000  0.99474000  1.0
  C  C133  1  0.60277000  0.15109000  0.16904000  1.0
  C  C134  1  0.41401000  0.13164000  0.98862000  1.0
  C  C135  1  0.59900000  0.88972000  0.17472000  1.0
  N  N136  1  0.12236000  0.50902000  0.49600000  1.0
  N  N137  1  0.84569000  0.51893000  0.49808000  1.0
  N  N138  1  0.87790000  0.50782000  0.08600000  1.0
  N  N139  1  0.15447000  0.51940000  0.08259000  1.0
  Cl  Cl140  1  0.25803000  0.42939000  0.77417000  1.0
  Cl  Cl141  1  0.74169000  0.42565000  0.80741000  1.0
  O  O142  1  0.39084000  0.33151000  0.50688000  1.0
  O  O143  1  0.61615000  0.32595000  0.50361000  1.0
  O  O144  1  0.57279000  0.54222000  0.57261000  1.0
  O  O145  1  0.34756000  0.52707000  0.57794000  1.0
  O  O146  1  0.60846000  0.69793000  0.48878000  1.0
  O  O147  1  0.38307000  0.69553000  0.49633000  1.0
  O  O148  1  0.36604000  0.48274000  0.42136000  1.0
  O  O149  1  0.58922000  0.48832000  0.42084000  1.0
  O  O150  1  0.61134000  0.33027000  0.07827000  1.0
  O  O151  1  0.38615000  0.32557000  0.07469000  1.0
  O  O152  1  0.42519000  0.54516000  0.00809000  1.0
  O  O153  1  0.64977000  0.52127000  0.00365000  1.0
  O  O154  1  0.39588000  0.69671000  0.09332000  1.0
  O  O155  1  0.62075000  0.69495000  0.08329000  1.0
  O  O156  1  0.62968000  0.49022000  0.16144000  1.0
  O  O157  1  0.40677000  0.47968000  0.15895000  1.0
