# generated using pymatgen
data_Ag2H25C15N3O4
_symmetry_space_group_name_H-M   'P 1'
_cell_length_a   7.18657000
_cell_length_b   11.15390000
_cell_length_c   11.41140000
_cell_angle_alpha   77.44760000
_cell_angle_beta   76.33210000
_cell_angle_gamma   88.86680000
_symmetry_Int_Tables_number   1
_chemical_formula_structural   Ag2H25C15N3O4
_chemical_formula_sum   'Ag4 H50 C30 N6 O8'
_cell_volume   867.08919608
_cell_formula_units_Z   2
loop_
 _symmetry_equiv_pos_site_id
 _symmetry_equiv_pos_as_xyz
  1  'x, y, z'
loop_
 _atom_site_type_symbol
 _atom_site_label
 _atom_site_symmetry_multiplicity
 _atom_site_fract_x
 _atom_site_fract_y
 _atom_site_fract_z
 _atom_site_occupancy
  Ag  Ag0  1  0.54452000  0.72688000  0.31563000  1.0
  Ag  Ag1  1  0.45549000  0.27313000  0.68437000  1.0
  Ag  Ag2  1  0.50000000  0.50000000  0.50000000  1.0
  Ag  Ag3  1  0.50000000  0.50000000  0.00000000  1.0
  H  H4  1  0.09574000  0.87430000  0.14236000  1.0
  H  H5  1  0.90426000  0.12570000  0.85764000  1.0
  H  H6  1  0.87341000  0.94628000  0.18259000  1.0
  H  H7  1  0.12660000  0.05372000  0.81742000  1.0
  H  H8  1  0.03147000  0.90924000  0.35774000  1.0
  H  H9  1  0.96853000  0.09075000  0.64226000  1.0
  H  H10  1  0.81287000  0.82282000  0.39690000  1.0
  H  H11  1  0.18713000  0.17717000  0.60310000  1.0
  H  H12  1  0.21793000  0.72934000  0.31804000  1.0
  H  H13  1  0.78207000  0.27066000  0.68196000  1.0
  H  H14  1  0.06361000  0.68684000  0.46674000  1.0
  H  H15  1  0.93639000  0.31316000  0.53326000  1.0
  H  H16  1  0.84067000  0.57863000  0.38885000  1.0
  H  H17  1  0.15934000  0.42137000  0.61115000  1.0
  H  H18  1  0.07584000  0.52980000  0.33337000  1.0
  H  H19  1  0.92416000  0.47019000  0.66666667  1.0
  H  H20  1  0.88230000  0.57447000  0.17134000  1.0
  H  H21  1  0.11769000  0.42553000  0.82866000  1.0
  H  H22  1  0.10070000  0.66331000  0.12835000  1.0
  H  H23  1  0.89929000  0.33669000  0.87165000  1.0
  H  H24  1  0.77351000  0.70745000  0.02871000  1.0
  H  H25  1  0.22648000  0.29255000  0.97129000  1.0
  H  H26  1  0.95487000  0.82648000  0.98427000  1.0
  H  H27  1  0.04513000  0.17353000  0.01573000  1.0
  H  H28  1  0.66144000  0.91311000  0.93672000  1.0
  H  H29  1  0.33856000  0.08689000  0.06328000  1.0
  H  H30  1  0.69498000  0.97160000  0.06218000  1.0
  H  H31  1  0.30502000  0.02840000  0.93783000  1.0
  H  H32  1  0.08007000  0.86906000  0.79197000  1.0
  H  H33  1  0.91992000  0.13094000  0.20803000  1.0
  H  H34  1  0.10440000  0.86629000  0.63444000  1.0
  H  H35  1  0.89559000  0.13371000  0.36556000  1.0
  H  H36  1  0.85825000  0.70652000  0.77209000  1.0
  H  H37  1  0.14175000  0.29348000  0.22791000  1.0
  H  H38  1  0.03123000  0.63794000  0.85079000  1.0
  H  H39  1  0.96877000  0.36206000  0.14921000  1.0
  H  H40  1  0.05565000  0.63499000  0.69300000  1.0
  H  H41  1  0.94435000  0.36501000  0.30700000  1.0
  H  H42  1  0.40581000  0.97984000  0.58956000  1.0
  H  H43  1  0.59419000  0.02016000  0.41045000  1.0
  H  H44  1  0.38781000  0.97406000  0.74797000  1.0
  H  H45  1  0.61219000  0.02594000  0.25204000  1.0
  H  H46  1  0.72464000  0.01859000  0.61786000  1.0
  H  H47  1  0.27536000  0.98141000  0.38214000  1.0
  H  H48  1  0.72734000  0.87136000  0.58234000  1.0
  H  H49  1  0.27266000  0.12864000  0.41766000  1.0
  H  H50  1  0.70630000  0.88411000  0.73740000  1.0
  H  H51  1  0.29370000  0.11589000  0.26260000  1.0
  H  H52  1  0.42293000  0.79542000  0.05911000  1.0
  H  H53  1  0.57707000  0.20458000  0.94089000  1.0
  C  C54  1  0.94970000  0.86118000  0.20381000  1.0
  C  C55  1  0.05030000  0.13883000  0.79620000  1.0
  C  C56  1  0.96041000  0.83193000  0.33854000  1.0
  C  C57  1  0.03960000  0.16807000  0.66146000  1.0
  C  C58  1  0.06570000  0.71317000  0.36786000  1.0
  C  C59  1  0.93430000  0.28683000  0.63213000  1.0
  C  C60  1  0.98255000  0.60893000  0.32657000  1.0
  C  C61  1  0.01745000  0.39107000  0.67342000  1.0
  C  C62  1  0.95867000  0.64719000  0.19446000  1.0
  C  C63  1  0.04133000  0.35281000  0.80553000  1.0
  C  C64  1  0.81773000  0.79239000  0.05055000  1.0
  C  C65  1  0.18226000  0.20762000  0.94945000  1.0
  C  C66  1  0.66415000  0.88674000  0.03503000  1.0
  C  C67  1  0.33585000  0.11327000  0.96497000  1.0
  C  C68  1  0.49072000  0.55816000  0.74171000  1.0
  C  C69  1  0.50928000  0.44184000  0.25829000  1.0
  C  C70  1  0.41517000  0.73264000  0.60146000  1.0
  C  C71  1  0.58482000  0.26736000  0.39854000  1.0
  C  C72  1  0.34652000  0.79916000  0.70673000  1.0
  C  C73  1  0.65348000  0.20084000  0.29327000  1.0
  C  C74  1  0.38257000  0.72966000  0.83047000  1.0
  C  C75  1  0.61743000  0.27034000  0.16953000  1.0
  C  C76  1  0.12681000  0.81308000  0.72280000  1.0
  C  C77  1  0.87318000  0.18692000  0.27720000  1.0
  C  C78  1  0.01210000  0.69168000  0.76177000  1.0
  C  C79  1  0.98790000  0.30832000  0.23823000  1.0
  C  C80  1  0.44622000  0.92746000  0.67238000  1.0
  C  C81  1  0.55378000  0.07254000  0.32762000  1.0
  C  C82  1  0.66339000  0.92473000  0.65143000  1.0
  C  C83  1  0.33661000  0.07527000  0.34857000  1.0
  N  N84  1  0.84685000  0.76020000  0.17729000  1.0
  N  N85  1  0.15315000  0.23980000  0.82271000  1.0
  N  N86  1  0.47089000  0.61571000  0.62532000  1.0
  N  N87  1  0.52911000  0.38429000  0.37468000  1.0
  N  N88  1  0.45391000  0.61567000  0.83973000  1.0
  N  N89  1  0.54609000  0.38433000  0.16027000  1.0
  O  O90  1  0.54602000  0.44969000  0.75951000  1.0
  O  O91  1  0.45399000  0.55031000  0.24049000  1.0
  O  O92  1  0.41029000  0.78895000  0.49389000  1.0
  O  O93  1  0.58970000  0.21105000  0.50611000  1.0
  O  O94  1  0.34221000  0.77999000  0.92083000  1.0
  O  O95  1  0.65778000  0.22001000  0.07918000  1.0
  O  O96  1  0.47821000  0.84167000  0.10833000  1.0
  O  O97  1  0.52179000  0.15833000  0.89167000  1.0
