# generated using pymatgen
data_CdCuH10C10N4(ClO3)2
_symmetry_space_group_name_H-M   'P 1'
_cell_length_a   7.62830000
_cell_length_b   10.18550000
_cell_length_c   11.01590000
_cell_angle_alpha   68.33890000
_cell_angle_beta   88.79940000
_cell_angle_gamma   89.36530000
_symmetry_Int_Tables_number   1
_chemical_formula_structural   CdCuH10C10N4(ClO3)2
_chemical_formula_sum   'Cd2 Cu2 H20 C20 N8 Cl4 O12'
_cell_volume   795.29242149
_cell_formula_units_Z   2
loop_
 _symmetry_equiv_pos_site_id
 _symmetry_equiv_pos_as_xyz
  1  'x, y, z'
loop_
 _atom_site_type_symbol
 _atom_site_label
 _atom_site_symmetry_multiplicity
 _atom_site_fract_x
 _atom_site_fract_y
 _atom_site_fract_z
 _atom_site_occupancy
  Cd  Cd0  1  0.89128000  0.84898000  0.95729000  1.0
  Cd  Cd1  1  0.10871000  0.15102000  0.04272000  1.0
  Cu  Cu2  1  0.39431000  0.33840000  0.44517000  1.0
  Cu  Cu3  1  0.60571000  0.66161000  0.55482000  1.0
  H  H4  1  0.98652000  0.73597000  0.25780000  1.0
  H  H5  1  0.01346000  0.26402000  0.74222000  1.0
  H  H6  1  0.19522000  0.59835000  0.97266000  1.0
  H  H7  1  0.80478000  0.40166000  0.02734000  1.0
  H  H8  1  0.38388000  0.41974000  0.14122000  1.0
  H  H9  1  0.61611000  0.58026000  0.85879000  1.0
  H  H10  1  0.83320000  0.96899000  0.64709000  1.0
  H  H11  1  0.16680000  0.03102000  0.35290000  1.0
  H  H12  1  0.58313000  0.09994000  0.92256000  1.0
  H  H13  1  0.41682000  0.90002000  0.07745000  1.0
  H  H14  1  0.39907000  0.27131000  0.74633000  1.0
  H  H15  1  0.60091000  0.72867000  0.25368000  1.0
  H  H16  1  0.05138000  0.24094000  0.49002000  1.0
  H  H17  1  0.94864000  0.75907000  0.50997000  1.0
  H  H18  1  0.17087000  0.10119000  0.51676000  1.0
  H  H19  1  0.82915000  0.89881000  0.48323000  1.0
  H  H20  1  0.11233000  0.82537000  0.74650000  1.0
  H  H21  1  0.88768000  0.17464000  0.25350000  1.0
  H  H22  1  0.94029000  0.76588000  0.71568000  1.0
  H  H23  1  0.05972000  0.23412000  0.28431000  1.0
  C  C24  1  0.18216000  0.57011000  0.32491000  1.0
  C  C25  1  0.81785000  0.42990000  0.67509000  1.0
  C  C26  1  0.07606000  0.66551000  0.23237000  1.0
  C  C27  1  0.92394000  0.33447000  0.76765000  1.0
  C  C28  1  0.19138000  0.58992000  0.07424000  1.0
  C  C29  1  0.80862000  0.41008000  0.92577000  1.0
  C  C30  1  0.29758000  0.49165000  0.16716000  1.0
  C  C31  1  0.70242000  0.50835000  0.83284000  1.0
  C  C32  1  0.18955000  0.55585000  0.46565000  1.0
  C  C33  1  0.81046000  0.44416000  0.53436000  1.0
  C  C34  1  0.62961000  0.12527000  0.57210000  1.0
  C  C35  1  0.37039000  0.87473000  0.42790000  1.0
  C  C36  1  0.73293000  0.03367000  0.66944000  1.0
  C  C37  1  0.26706000  0.96633000  0.33056000  1.0
  C  C38  1  0.59540000  0.10585000  0.82189000  1.0
  C  C39  1  0.40458000  0.89413000  0.17811000  1.0
  C  C40  1  0.49206000  0.20084000  0.72442000  1.0
  C  C41  1  0.50791000  0.79915000  0.27558000  1.0
  C  C42  1  0.64398000  0.14527000  0.42995000  1.0
  C  C43  1  0.35605000  0.85474000  0.57005000  1.0
  N  N44  1  0.29038000  0.48296000  0.29105000  1.0
  N  N45  1  0.70962000  0.51705000  0.70895000  1.0
  N  N46  1  0.08173000  0.67511000  0.10729000  1.0
  N  N47  1  0.91826000  0.32489000  0.89271000  1.0
  N  N48  1  0.51138000  0.20926000  0.60100000  1.0
  N  N49  1  0.48863000  0.79074000  0.39900000  1.0
  N  N50  1  0.71535000  0.02406000  0.79391000  1.0
  N  N51  1  0.28463000  0.97593000  0.20610000  1.0
  Cl  Cl52  1  0.83496000  0.98071000  0.12315000  1.0
  Cl  Cl53  1  0.16503000  0.01928000  0.87686000  1.0
  Cl  Cl54  1  0.63240000  0.68724000  0.03164000  1.0
  Cl  Cl55  1  0.36759000  0.31276000  0.96837000  1.0
  O  O56  1  0.28673000  0.45352000  0.53822000  1.0
  O  O57  1  0.71331000  0.54649000  0.46178000  1.0
  O  O58  1  0.10941000  0.64085000  0.50435000  1.0
  O  O59  1  0.89061000  0.35914000  0.49565000  1.0
  O  O60  1  0.54277000  0.24027000  0.35384000  1.0
  O  O61  1  0.45726000  0.75975000  0.64616000  1.0
  O  O62  1  0.75055000  0.07110000  0.39395000  1.0
  O  O63  1  0.24946000  0.92892000  0.60605000  1.0
  O  O64  1  0.14748000  0.19875000  0.45452000  1.0
  O  O65  1  0.85254000  0.80126000  0.54547000  1.0
  O  O66  1  0.00835000  0.76849000  0.79009000  1.0
  O  O67  1  0.99166000  0.23151000  0.20991000  1.0
