# generated using pymatgen
data_Al2H33C39I3N2O13
_symmetry_space_group_name_H-M   'P 1'
_cell_length_a   6.69784000
_cell_length_b   19.73620000
_cell_length_c   22.55390000
_cell_angle_alpha   89.99930000
_cell_angle_beta   89.99950000
_cell_angle_gamma   88.18860000
_symmetry_Int_Tables_number   1
_chemical_formula_structural   Al2H33C39I3N2O13
_chemical_formula_sum   'Al4 H66 C78 I6 N4 O26'
_cell_volume   2979.90817466
_cell_formula_units_Z   2
loop_
 _symmetry_equiv_pos_site_id
 _symmetry_equiv_pos_as_xyz
  1  'x, y, z'
loop_
 _atom_site_type_symbol
 _atom_site_label
 _atom_site_symmetry_multiplicity
 _atom_site_fract_x
 _atom_site_fract_y
 _atom_site_fract_z
 _atom_site_occupancy
  Al  Al0  1  0.98560000  0.68434000  0.49620000  1.0
  Al  Al1  1  0.01438000  0.31566000  0.99620000  1.0
  Al  Al2  1  0.48525000  0.68458000  0.49560000  1.0
  Al  Al3  1  0.51473000  0.31542000  0.99560000  1.0
  H  H4  1  0.53764000  0.51524000  0.05576000  1.0
  H  H5  1  0.46236000  0.48476000  0.55576000  1.0
  H  H6  1  0.52627000  0.66152000  0.22482000  1.0
  H  H7  1  0.47371000  0.33848000  0.72482000  1.0
  H  H8  1  0.48500000  0.61292000  0.12560000  1.0
  H  H9  1  0.51500000  0.38708000  0.62560000  1.0
  H  H10  1  0.83103000  0.46130000  0.45229000  1.0
  H  H11  1  0.16900000  0.53871000  0.95229000  1.0
  H  H12  1  0.78416000  0.36092000  0.38841000  1.0
  H  H13  1  0.21585000  0.63909000  0.88841000  1.0
  H  H14  1  0.63581000  0.65042000  0.32892000  1.0
  H  H15  1  0.36419000  0.34959000  0.82893000  1.0
  H  H16  1  0.43814000  0.81029000  0.34140000  1.0
  H  H17  1  0.56184000  0.18970000  0.84141000  1.0
  H  H18  1  0.45715000  0.90649000  0.26852000  1.0
  H  H19  1  0.54283000  0.09351000  0.76852000  1.0
  H  H20  1  0.49488000  0.01583000  0.11925000  1.0
  H  H21  1  0.50513000  0.98416000  0.61926000  1.0
  H  H22  1  0.00001000  0.86645000  0.41638000  1.0
  H  H23  1  0.99996000  0.13354000  0.91638000  1.0
  H  H24  1  0.27124000  0.08894000  0.99142000  1.0
  H  H25  1  0.30450000  0.04075000  0.05692000  1.0
  H  H26  1  0.57596000  0.03983000  0.94711000  1.0
  H  H27  1  0.63958000  0.99565000  0.01259000  1.0
  H  H28  1  0.34321000  0.92155000  0.00061000  1.0
  H  H29  1  0.49319000  0.91864000  0.93588000  1.0
  H  H30  1  0.26706000  0.96754000  0.93644000  1.0
  H  H31  1  0.72874000  0.91106000  0.49143000  1.0
  H  H32  1  0.69550000  0.95924000  0.55692000  1.0
  H  H33  1  0.42402000  0.96017000  0.44711000  1.0
  H  H34  1  0.36041000  0.00435000  0.51259000  1.0
  H  H35  1  0.65676000  0.07845000  0.50060000  1.0
  H  H36  1  0.50678000  0.08135000  0.43588000  1.0
  H  H37  1  0.73291000  0.03246000  0.43643000  1.0
  H  H38  1  0.32534000  0.02958000  0.22344000  1.0
  H  H39  1  0.22724000  0.04588000  0.15145000  1.0
  H  H40  1  0.12244000  0.92893000  0.23449000  1.0
  H  H41  1  0.98267000  0.94887000  0.17050000  1.0
  H  H42  1  0.27349000  0.92767000  0.10494000  1.0
  H  H43  1  0.23458000  0.85605000  0.15016000  1.0
  H  H44  1  0.43219000  0.91121000  0.16682000  1.0
  H  H45  1  0.67464000  0.97042000  0.72344000  1.0
  H  H46  1  0.77273000  0.95411000  0.65146000  1.0
  H  H47  1  0.87754000  0.07106000  0.73448000  1.0
  H  H48  1  0.01731000  0.05111000  0.67049000  1.0
  H  H49  1  0.72648000  0.07231000  0.60493000  1.0
  H  H50  1  0.76540000  0.14393000  0.65015000  1.0
  H  H51  1  0.56780000  0.08877000  0.66681000  1.0
  H  H52  1  0.51667000  0.28461000  0.26636000  1.0
  H  H53  1  0.55688000  0.31168000  0.34049000  1.0
  H  H54  1  0.87582000  0.24960000  0.25661000  1.0
  H  H55  1  0.92125000  0.27328000  0.33052000  1.0
  H  H56  1  0.68025000  0.18645000  0.36707000  1.0
  H  H57  1  0.86364000  0.14666000  0.32064000  1.0
  H  H58  1  0.62151000  0.16516000  0.29268000  1.0
  H  H59  1  0.48340000  0.71540000  0.76636000  1.0
  H  H60  1  0.44315000  0.68833000  0.84049000  1.0
  H  H61  1  0.12427000  0.75041000  0.75659000  1.0
  H  H62  1  0.07879000  0.72673000  0.83050000  1.0
  H  H63  1  0.31976000  0.81356000  0.86706000  1.0
  H  H64  1  0.13640000  0.85335000  0.82063000  1.0
  H  H65  1  0.37854000  0.83485000  0.79267000  1.0
  H  H66  1  0.23813000  0.65006000  0.42543000  1.0
  H  H67  1  0.76186000  0.34995000  0.92544000  1.0
  H  H68  1  0.73934000  0.66313000  0.57112000  1.0
  H  H69  1  0.26063000  0.33688000  0.07112000  1.0
  C  C70  1  0.25239000  0.59685000  0.57102000  1.0
  C  C71  1  0.74761000  0.40315000  0.07102000  1.0
  C  C72  1  0.22183000  0.78134000  0.56026000  1.0
  C  C73  1  0.77813000  0.21865000  0.06026000  1.0
  C  C74  1  0.71865000  0.77382000  0.42392000  1.0
  C  C75  1  0.28133000  0.22617000  0.92393000  1.0
  C  C76  1  0.75163000  0.59121000  0.42582000  1.0
  C  C77  1  0.24835000  0.40880000  0.92582000  1.0
  C  C78  1  0.56184000  0.56615000  0.13990000  1.0
  C  C79  1  0.43816000  0.43384000  0.63990000  1.0
  C  C80  1  0.72243000  0.45758000  0.11698000  1.0
  C  C81  1  0.27757000  0.54242000  0.61698000  1.0
  C  C82  1  0.79435000  0.46817000  0.40549000  1.0
  C  C83  1  0.20566000  0.53184000  0.90548000  1.0
  C  C84  1  0.77241000  0.41138000  0.36906000  1.0
  C  C85  1  0.22761000  0.58863000  0.86906000  1.0
  C  C86  1  0.73192000  0.41977000  0.30881000  1.0
  C  C87  1  0.26812000  0.58024000  0.80880000  1.0
  C  C88  1  0.73007000  0.48599000  0.28297000  1.0
  C  C89  1  0.26996000  0.51402000  0.78297000  1.0
  C  C90  1  0.71492000  0.54265000  0.32232000  1.0
  C  C91  1  0.28510000  0.45736000  0.82232000  1.0
  C  C92  1  0.71564000  0.49749000  0.21967000  1.0
  C  C93  1  0.28438000  0.50251000  0.71967000  1.0
  C  C94  1  0.61955000  0.55919000  0.19990000  1.0
  C  C95  1  0.38045000  0.44081000  0.69990000  1.0
  C  C96  1  0.59089000  0.61364000  0.24126000  1.0
  C  C97  1  0.40911000  0.38636000  0.74126000  1.0
  C  C98  1  0.64995000  0.60727000  0.29892000  1.0
  C  C99  1  0.35006000  0.39274000  0.79893000  1.0
  C  C100  1  0.79577000  0.45334000  0.17490000  1.0
  C  C101  1  0.20426000  0.54667000  0.67490000  1.0
  C  C102  1  0.59677000  0.51356000  0.10075000  1.0
  C  C103  1  0.40322000  0.48644000  0.60075000  1.0
  C  C104  1  0.75525000  0.53290000  0.38361000  1.0
  C  C105  1  0.24476000  0.46711000  0.88361000  1.0
  C  C106  1  0.77519000  0.15625000  0.09829000  1.0
  C  C107  1  0.22478000  0.84375000  0.59829000  1.0
  C  C108  1  0.91648000  0.14216000  0.14337000  1.0
  C  C109  1  0.08349000  0.85784000  0.64337000  1.0
  C  C110  1  0.89529000  0.08764000  0.18275000  1.0
  C  C111  1  0.10469000  0.91235000  0.68276000  1.0
  C  C112  1  0.72783000  0.04635000  0.17655000  1.0
  C  C113  1  0.27215000  0.95365000  0.67655000  1.0
  C  C114  1  0.60593000  0.05363000  0.12654000  1.0
  C  C115  1  0.39406000  0.94637000  0.62655000  1.0
  C  C116  1  0.62416000  0.10844000  0.08819000  1.0
  C  C117  1  0.37583000  0.89155000  0.58820000  1.0
  C  C118  1  0.57273000  0.89767000  0.30180000  1.0
  C  C119  1  0.42724000  0.10232000  0.80181000  1.0
  C  C120  1  0.56379000  0.84408000  0.34156000  1.0
  C  C121  1  0.43619000  0.15591000  0.84157000  1.0
  C  C122  1  0.72929000  0.94337000  0.30502000  1.0
  C  C123  1  0.27068000  0.05662000  0.80502000  1.0
  C  C124  1  0.71989000  0.83244000  0.38209000  1.0
  C  C125  1  0.28009000  0.16755000  0.88210000  1.0
  C  C126  1  0.87906000  0.87669000  0.38499000  1.0
  C  C127  1  0.12092000  0.12331000  0.88500000  1.0
  C  C128  1  0.87767000  0.93376000  0.34883000  1.0
  C  C129  1  0.12230000  0.06624000  0.84883000  1.0
  C  C130  1  0.38459000  0.06417000  0.01985000  1.0
  C  C131  1  0.51215000  0.01294000  0.98500000  1.0
  C  C132  1  0.39718000  0.95209000  0.96345000  1.0
  C  C133  1  0.61540000  0.93583000  0.51985000  1.0
  C  C134  1  0.48784000  0.98705000  0.48501000  1.0
  C  C135  1  0.60279000  0.04791000  0.46345000  1.0
  C  C136  1  0.19288000  0.02496000  0.19539000  1.0
  C  C137  1  0.13260000  0.95130000  0.18993000  1.0
  C  C138  1  0.27726000  0.90933000  0.15106000  1.0
  C  C139  1  0.80709000  0.97503000  0.69539000  1.0
  C  C140  1  0.86738000  0.04869000  0.68993000  1.0
  C  C141  1  0.72272000  0.09065000  0.65106000  1.0
  C  C142  1  0.62952000  0.30387000  0.29702000  1.0
  C  C143  1  0.80626000  0.25372000  0.30069000  1.0
  C  C144  1  0.73960000  0.18432000  0.32156000  1.0
  C  C145  1  0.37053000  0.69613000  0.79701000  1.0
  C  C146  1  0.19379000  0.74628000  0.80067000  1.0
  C  C147  1  0.26043000  0.81569000  0.82154000  1.0
  I  I148  1  0.10504000  0.00394000  0.35909000  1.0
  I  I149  1  0.89492000  0.99606000  0.85909000  1.0
  I  I150  1  0.17445000  0.19898000  0.15614000  1.0
  I  I151  1  0.82551000  0.80102000  0.65614000  1.0
  I  I152  1  0.05712000  0.39431000  0.19452000  1.0
  I  I153  1  0.94295000  0.60571000  0.69453000  1.0
  N  N154  1  0.69153000  0.99120000  0.21455000  1.0
  N  N155  1  0.30846000  0.00880000  0.71456000  1.0
  N  N156  1  0.74508000  0.00028000  0.26779000  1.0
  N  N157  1  0.25489000  0.99971000  0.76779000  1.0
  O  O158  1  0.38771000  0.74939000  0.55307000  1.0
  O  O159  1  0.61226000  0.25060000  0.05307000  1.0
  O  O160  1  0.08240000  0.62412000  0.55948000  1.0
  O  O161  1  0.91759000  0.37588000  0.05947000  1.0
  O  O162  1  0.91851000  0.60697000  0.44832000  1.0
  O  O163  1  0.08148000  0.39303000  0.94831000  1.0
  O  O164  1  0.05537000  0.76436000  0.53895000  1.0
  O  O165  1  0.94460000  0.23564000  0.03895000  1.0
  O  O166  1  0.88716000  0.74589000  0.43609000  1.0
  O  O167  1  0.11284000  0.25411000  0.93610000  1.0
  O  O168  1  0.41788000  0.61165000  0.54685000  1.0
  O  O169  1  0.58211000  0.38835000  0.04686000  1.0
  O  O170  1  0.23453000  0.68087000  0.45901000  1.0
  O  O171  1  0.76546000  0.31913000  0.95901000  1.0
  O  O172  1  0.54950000  0.75691000  0.44347000  1.0
  O  O173  1  0.45050000  0.24309000  0.94347000  1.0
  O  O174  1  0.58264000  0.62043000  0.43622000  1.0
  O  O175  1  0.41736000  0.37958000  0.93622000  1.0
  O  O176  1  0.73592000  0.68453000  0.53230000  1.0
  O  O177  1  0.26406000  0.31547000  0.03230000  1.0
  O  O178  1  0.50380000  0.11902000  0.04044000  1.0
  O  O179  1  0.49620000  0.88097000  0.54044000  1.0
  O  O180  1  0.04305000  0.07015000  0.22239000  1.0
  O  O181  1  0.95693000  0.92984000  0.72239000  1.0
  O  O182  1  0.67968000  0.36848000  0.27226000  1.0
  O  O183  1  0.32039000  0.63153000  0.77225000  1.0
