# generated using pymatgen
data_CdP2H20C14S4(NO2)2
_symmetry_space_group_name_H-M   'P 1'
_cell_length_a   10.27480000
_cell_length_b   10.70860000
_cell_length_c   12.55180000
_cell_angle_alpha   77.89270000
_cell_angle_beta   66.77180000
_cell_angle_gamma   63.45150000
_symmetry_Int_Tables_number   1
_chemical_formula_structural   CdP2H20C14S4(NO2)2
_chemical_formula_sum   'Cd2 P4 H40 C28 S8 N4 O8'
_cell_volume   1134.35076595
_cell_formula_units_Z   2
loop_
 _symmetry_equiv_pos_site_id
 _symmetry_equiv_pos_as_xyz
  1  'x, y, z'
loop_
 _atom_site_type_symbol
 _atom_site_label
 _atom_site_symmetry_multiplicity
 _atom_site_fract_x
 _atom_site_fract_y
 _atom_site_fract_z
 _atom_site_occupancy
  Cd  Cd0  1  0.68081000  0.76577000  0.75552000  1.0
  Cd  Cd1  1  0.31919000  0.23423000  0.24448000  1.0
  P  P2  1  0.68162000  0.06792000  0.71924000  1.0
  P  P3  1  0.31838000  0.93208000  0.28076000  1.0
  P  P4  1  0.97307000  0.48921000  0.77285000  1.0
  P  P5  1  0.02693000  0.51079000  0.22715000  1.0
  H  H6  1  0.43560000  0.84725000  0.62553000  1.0
  H  H7  1  0.56440000  0.15275000  0.37447000  1.0
  H  H8  1  0.35216000  0.74598000  0.51897000  1.0
  H  H9  1  0.64783000  0.25402000  0.48103000  1.0
  H  H10  1  0.70907000  0.34376000  0.56549000  1.0
  H  H11  1  0.29093000  0.65624000  0.43451000  1.0
  H  H12  1  0.77432000  0.46271000  0.67157000  1.0
  H  H13  1  0.22568000  0.53730000  0.32843000  1.0
  H  H14  1  0.38537000  0.05977000  0.79893000  1.0
  H  H15  1  0.61463000  0.94023000  0.20108000  1.0
  H  H16  1  0.10129000  0.16612000  0.88909000  1.0
  H  H17  1  0.89871000  0.83388000  0.11091000  1.0
  H  H18  1  0.12823000  0.75461000  0.03818000  1.0
  H  H19  1  0.87177000  0.24539000  0.96182000  1.0
  H  H20  1  0.40904000  0.66602000  0.93610000  1.0
  H  H21  1  0.59096000  0.33398000  0.06391000  1.0
  H  H22  1  0.04584000  0.08894000  0.60115000  1.0
  H  H23  1  0.95416000  0.91107000  0.39885000  1.0
  H  H24  1  0.00757000  0.94281000  0.59709000  1.0
  H  H25  1  0.99243000  0.05719000  0.40291000  1.0
  H  H26  1  0.98877000  0.98989000  0.73317000  1.0
  H  H27  1  0.01123000  0.01011000  0.26683000  1.0
  H  H28  1  0.38311000  0.38239000  0.84814000  1.0
  H  H29  1  0.61689000  0.61761000  0.15186000  1.0
  H  H30  1  0.58094000  0.31983000  0.84008000  1.0
  H  H31  1  0.41907000  0.68017000  0.15992000  1.0
  H  H32  1  0.46475000  0.22468000  0.92699000  1.0
  H  H33  1  0.53526000  0.77532000  0.07301000  1.0
  H  H34  1  0.16291000  0.57098000  0.91122000  1.0
  H  H35  1  0.83709000  0.42902000  0.08878000  1.0
  H  H36  1  0.96133000  0.65719000  0.92929000  1.0
  H  H37  1  0.03867000  0.34281000  0.07071000  1.0
  H  H38  1  0.10233000  0.67166000  0.79112000  1.0
  H  H39  1  0.89767000  0.32834000  0.20888000  1.0
  H  H40  1  0.20946000  0.16477000  0.63796000  1.0
  H  H41  1  0.79055000  0.83523000  0.36204000  1.0
  H  H42  1  0.28254000  0.27744000  0.66058000  1.0
  H  H43  1  0.71746000  0.72256000  0.33942000  1.0
  H  H44  1  0.17375000  0.33286000  0.56355000  1.0
  H  H45  1  0.82625000  0.66715000  0.43645000  1.0
  C  C46  1  0.49140000  0.73518000  0.61193000  1.0
  C  C47  1  0.50860000  0.26482000  0.38807000  1.0
  C  C48  1  0.44520000  0.67703000  0.55184000  1.0
  C  C49  1  0.55479000  0.32297000  0.44817000  1.0
  C  C50  1  0.52179000  0.53313000  0.53244000  1.0
  C  C51  1  0.47821000  0.46688000  0.46756000  1.0
  C  C52  1  0.64291000  0.45540000  0.57637000  1.0
  C  C53  1  0.35709000  0.54461000  0.42363000  1.0
  C  C54  1  0.68090000  0.52138000  0.63651000  1.0
  C  C55  1  0.31910000  0.47862000  0.36349000  1.0
  C  C56  1  0.32308000  0.99578000  0.85216000  1.0
  C  C57  1  0.67692000  0.00422000  0.14784000  1.0
  C  C58  1  0.16305000  0.05484000  0.90395000  1.0
  C  C59  1  0.83694000  0.94516000  0.09606000  1.0
  C  C60  1  0.08528000  0.97051000  0.97213000  1.0
  C  C61  1  0.91472000  0.02949000  0.02788000  1.0
  C  C62  1  0.17708000  0.82806000  0.98505000  1.0
  C  C63  1  0.82292000  0.17195000  0.01495000  1.0
  C  C64  1  0.33648000  0.77701000  0.92871000  1.0
  C  C65  1  0.66351000  0.22299000  0.07129000  1.0
  C  C66  1  0.97459000  0.03026000  0.64865000  1.0
  C  C67  1  0.02542000  0.96974000  0.35135000  1.0
  C  C68  1  0.48852000  0.28959000  0.84751000  1.0
  C  C69  1  0.51148000  0.71041000  0.15249000  1.0
  C  C70  1  0.07827000  0.60304000  0.86789000  1.0
  C  C71  1  0.92173000  0.39696000  0.13211000  1.0
  C  C72  1  0.18720000  0.27352000  0.64399000  1.0
  C  C73  1  0.81280000  0.72648000  0.35601000  1.0
  S  S74  1  0.70448000  0.94701000  0.86032000  1.0
  S  S75  1  0.29552000  0.05298000  0.13968000  1.0
  S  S76  1  0.66666667  0.98565000  0.59808000  1.0
  S  S77  1  0.33333333  0.01435000  0.40192000  1.0
  S  S78  1  0.76075000  0.52940000  0.89007000  1.0
  S  S79  1  0.23925000  0.47060000  0.10993000  1.0
  S  S80  1  0.98438000  0.62048000  0.63492000  1.0
  S  S81  1  0.01562000  0.37952000  0.36508000  1.0
  N  N82  1  0.60664000  0.65900000  0.65453000  1.0
  N  N83  1  0.39336000  0.34100000  0.34547000  1.0
  N  N84  1  0.40923000  0.85875000  0.86280000  1.0
  N  N85  1  0.59077000  0.14125000  0.13720000  1.0
  O  O86  1  0.81582000  0.12747000  0.66546000  1.0
  O  O87  1  0.18418000  0.87253000  0.33454000  1.0
  O  O88  1  0.53129000  0.21406000  0.74737000  1.0
  O  O89  1  0.46871000  0.78593000  0.25263000  1.0
  O  O90  1  0.09207000  0.47554000  0.83354000  1.0
  O  O91  1  0.90793000  0.52446000  0.16646000  1.0
  O  O92  1  0.04252000  0.32884000  0.73995000  1.0
  O  O93  1  0.95749000  0.67116000  0.26005000  1.0
