# generated using pymatgen
data_ZnH8C9SNO4
_symmetry_space_group_name_H-M   'P 1'
_cell_length_a   19.01550000
_cell_length_b   20.66160000
_cell_length_c   20.66160000
_cell_angle_alpha   90.00000000
_cell_angle_beta   90.00000000
_cell_angle_gamma   89.99990000
_symmetry_Int_Tables_number   1
_chemical_formula_structural   ZnH8C9SNO4
_chemical_formula_sum   'Zn16 H128 C144 S16 N16 O64'
_cell_volume   8117.74955320
_cell_formula_units_Z   16
loop_
 _symmetry_equiv_pos_site_id
 _symmetry_equiv_pos_as_xyz
  1  'x, y, z'
loop_
 _atom_site_type_symbol
 _atom_site_label
 _atom_site_symmetry_multiplicity
 _atom_site_fract_x
 _atom_site_fract_y
 _atom_site_fract_z
 _atom_site_occupancy
  Zn  Zn0  1  0.18182000  0.26417000  0.27118000  1.0
  Zn  Zn1  1  0.18182000  0.73582000  0.72882000  1.0
  Zn  Zn2  1  0.81818000  0.27118000  0.73583000  1.0
  Zn  Zn3  1  0.81818000  0.72882000  0.26417000  1.0
  Zn  Zn4  1  0.31818000  0.23583000  0.77118000  1.0
  Zn  Zn5  1  0.31818000  0.76417000  0.22882000  1.0
  Zn  Zn6  1  0.68182000  0.22882000  0.23583000  1.0
  Zn  Zn7  1  0.68182000  0.77118000  0.76418000  1.0
  Zn  Zn8  1  0.32699000  0.23539000  0.24619000  1.0
  Zn  Zn9  1  0.32699000  0.76461000  0.75381000  1.0
  Zn  Zn10  1  0.67301000  0.24619000  0.76461000  1.0
  Zn  Zn11  1  0.67301000  0.75381000  0.23539000  1.0
  Zn  Zn12  1  0.17301000  0.26461000  0.74619000  1.0
  Zn  Zn13  1  0.17301000  0.73539000  0.25381000  1.0
  Zn  Zn14  1  0.82699000  0.25381000  0.26461000  1.0
  Zn  Zn15  1  0.82699000  0.74619000  0.73539000  1.0
  H  H16  1  0.10404000  0.93689000  0.31167000  1.0
  H  H17  1  0.10404000  0.06311000  0.68833000  1.0
  H  H18  1  0.89596000  0.31167000  0.06311000  1.0
  H  H19  1  0.89596000  0.68833000  0.93689000  1.0
  H  H20  1  0.39596000  0.56311000  0.81167000  1.0
  H  H21  1  0.39596000  0.43689000  0.18833000  1.0
  H  H22  1  0.60404000  0.18833000  0.56311000  1.0
  H  H23  1  0.60404000  0.81167000  0.43689000  1.0
  H  H24  1  0.05903000  0.31181000  0.36052000  1.0
  H  H25  1  0.05903000  0.68818000  0.63948000  1.0
  H  H26  1  0.94097000  0.36052000  0.68818000  1.0
  H  H27  1  0.94097000  0.63948000  0.31181000  1.0
  H  H28  1  0.44097000  0.18818000  0.86052000  1.0
  H  H29  1  0.44097000  0.81181000  0.13948000  1.0
  H  H30  1  0.55903000  0.13948000  0.18819000  1.0
  H  H31  1  0.55903000  0.86052000  0.81182000  1.0
  H  H32  1  0.07019000  0.22700000  0.36633000  1.0
  H  H33  1  0.07019000  0.77300000  0.63367000  1.0
  H  H34  1  0.92981000  0.36633000  0.77300000  1.0
  H  H35  1  0.92981000  0.63367000  0.22700000  1.0
  H  H36  1  0.42981000  0.27300000  0.86633000  1.0
  H  H37  1  0.42981000  0.72700000  0.13367000  1.0
  H  H38  1  0.57019000  0.13367000  0.27300000  1.0
  H  H39  1  0.57019000  0.86633000  0.72700000  1.0
  H  H40  1  0.06571000  0.16317000  0.26980000  1.0
  H  H41  1  0.06572000  0.83683000  0.73020000  1.0
  H  H42  1  0.93428000  0.26980000  0.83683000  1.0
  H  H43  1  0.93428000  0.73020000  0.16317000  1.0
  H  H44  1  0.43428000  0.33683000  0.76980000  1.0
  H  H45  1  0.43429000  0.66317000  0.23020000  1.0
  H  H46  1  0.56571000  0.23020000  0.33683000  1.0
  H  H47  1  0.56572000  0.76980000  0.66317000  1.0
  H  H48  1  0.07442000  0.19960000  0.19298000  1.0
  H  H49  1  0.07442000  0.80040000  0.80702000  1.0
  H  H50  1  0.92558000  0.19298000  0.80040000  1.0
  H  H51  1  0.92558000  0.80702000  0.19960000  1.0
  H  H52  1  0.42558000  0.30040000  0.69298000  1.0
  H  H53  1  0.42558000  0.69960000  0.30702000  1.0
  H  H54  1  0.57442000  0.30702000  0.30040000  1.0
  H  H55  1  0.57442000  0.69298000  0.69960000  1.0
  H  H56  1  0.06148000  0.31618000  0.18524000  1.0
  H  H57  1  0.06148000  0.68382000  0.81476000  1.0
  H  H58  1  0.93852000  0.18524000  0.68382000  1.0
  H  H59  1  0.93852000  0.81476000  0.31618000  1.0
  H  H60  1  0.43852000  0.18382000  0.68524000  1.0
  H  H61  1  0.43852000  0.81618000  0.31476000  1.0
  H  H62  1  0.56148000  0.31476000  0.18382000  1.0
  H  H63  1  0.56148000  0.68524000  0.81618000  1.0
  H  H64  1  0.06680000  0.36470000  0.25555000  1.0
  H  H65  1  0.06680000  0.63530000  0.74445000  1.0
  H  H66  1  0.93320000  0.25555000  0.63530000  1.0
  H  H67  1  0.93320000  0.74445000  0.36470000  1.0
  H  H68  1  0.43320000  0.13530000  0.75555000  1.0
  H  H69  1  0.43320000  0.86470000  0.24445000  1.0
  H  H70  1  0.56680000  0.24445000  0.13530000  1.0
  H  H71  1  0.56680000  0.75555000  0.86470000  1.0
  H  H72  1  0.10869000  0.06553000  0.32096000  1.0
  H  H73  1  0.10869000  0.93447000  0.67904000  1.0
  H  H74  1  0.89131000  0.32096000  0.93447000  1.0
  H  H75  1  0.89131000  0.67904000  0.06553000  1.0
  H  H76  1  0.39131000  0.43447000  0.82096000  1.0
  H  H77  1  0.39131000  0.56553000  0.17905000  1.0
  H  H78  1  0.60869000  0.17904000  0.43447000  1.0
  H  H79  1  0.60869000  0.82096000  0.56553000  1.0
  H  H80  1  0.40158000  0.27989000  0.44795000  1.0
  H  H81  1  0.40158000  0.72010000  0.55205000  1.0
  H  H82  1  0.59842000  0.44795000  0.72011000  1.0
  H  H83  1  0.59842000  0.55205000  0.27989000  1.0
  H  H84  1  0.09842000  0.22011000  0.94795000  1.0
  H  H85  1  0.09842000  0.77989000  0.05205000  1.0
  H  H86  1  0.90158000  0.05205000  0.22011000  1.0
  H  H87  1  0.90158000  0.94795000  0.77989000  1.0
  H  H88  1  0.39726000  0.28030000  0.57676000  1.0
  H  H89  1  0.39726000  0.71970000  0.42323000  1.0
  H  H90  1  0.60274000  0.57676000  0.71970000  1.0
  H  H91  1  0.60274000  0.42324000  0.28030000  1.0
  H  H92  1  0.10274000  0.21970000  0.07677000  1.0
  H  H93  1  0.10274000  0.78030000  0.92323000  1.0
  H  H94  1  0.89726000  0.92323000  0.21970000  1.0
  H  H95  1  0.89726000  0.07676000  0.78030000  1.0
  H  H96  1  0.94691000  0.20892000  0.35718000  1.0
  H  H97  1  0.94691000  0.79108000  0.64282000  1.0
  H  H98  1  0.05309000  0.35718000  0.79108000  1.0
  H  H99  1  0.05309000  0.64282000  0.20892000  1.0
  H  H100  1  0.55309000  0.29108000  0.85718000  1.0
  H  H101  1  0.55309000  0.70892000  0.14282000  1.0
  H  H102  1  0.44691000  0.14282000  0.29108000  1.0
  H  H103  1  0.44691000  0.85718000  0.70892000  1.0
  H  H104  1  0.93548000  0.29341000  0.36577000  1.0
  H  H105  1  0.93548000  0.70659000  0.63423000  1.0
  H  H106  1  0.06452000  0.36577000  0.70659000  1.0
  H  H107  1  0.06452000  0.63423000  0.29341000  1.0
  H  H108  1  0.56452000  0.20659000  0.86577000  1.0
  H  H109  1  0.56452000  0.79341000  0.13423000  1.0
  H  H110  1  0.43548000  0.13423000  0.20659000  1.0
  H  H111  1  0.43548000  0.86577000  0.79341000  1.0
  H  H112  1  0.94247000  0.36092000  0.27091000  1.0
  H  H113  1  0.94247000  0.63908000  0.72909000  1.0
  H  H114  1  0.05753000  0.27091000  0.63908000  1.0
  H  H115  1  0.05753000  0.72909000  0.36092000  1.0
  H  H116  1  0.55753000  0.13908000  0.77091000  1.0
  H  H117  1  0.55753000  0.86092000  0.22909000  1.0
  H  H118  1  0.44247000  0.22909000  0.13908000  1.0
  H  H119  1  0.44247000  0.77091000  0.86092000  1.0
  H  H120  1  0.93681000  0.32613000  0.19282000  1.0
  H  H121  1  0.93681000  0.67387000  0.80718000  1.0
  H  H122  1  0.06319000  0.19282000  0.67387000  1.0
  H  H123  1  0.06319000  0.80718000  0.32613000  1.0
  H  H124  1  0.56319000  0.17387000  0.69282000  1.0
  H  H125  1  0.56319000  0.82613000  0.30718000  1.0
  H  H126  1  0.43681000  0.30718000  0.17387000  1.0
  H  H127  1  0.43681000  0.69282000  0.82613000  1.0
  H  H128  1  0.95008000  0.21071000  0.18189000  1.0
  H  H129  1  0.95008000  0.78929000  0.81811000  1.0
  H  H130  1  0.04992000  0.18189000  0.78929000  1.0
  H  H131  1  0.04992000  0.81811000  0.21071000  1.0
  H  H132  1  0.54992000  0.28929000  0.68189000  1.0
  H  H133  1  0.54992000  0.71071000  0.31811000  1.0
  H  H134  1  0.45008000  0.31811000  0.28929000  1.0
  H  H135  1  0.45008000  0.68189000  0.71071000  1.0
  H  H136  1  0.94248000  0.15990000  0.25016000  1.0
  H  H137  1  0.94248000  0.84010000  0.74983000  1.0
  H  H138  1  0.05752000  0.25017000  0.84010000  1.0
  H  H139  1  0.05752000  0.74984000  0.15990000  1.0
  H  H140  1  0.55752000  0.34010000  0.75016000  1.0
  H  H141  1  0.55752000  0.65990000  0.24983000  1.0
  H  H142  1  0.44248000  0.24984000  0.34010000  1.0
  H  H143  1  0.44248000  0.75017000  0.65990000  1.0
  C  C144  1  0.26975000  0.28122000  0.38008000  1.0
  C  C145  1  0.26976000  0.71878000  0.61992000  1.0
  C  C146  1  0.73025000  0.38008000  0.71878000  1.0
  C  C147  1  0.73024000  0.61992000  0.28122000  1.0
  C  C148  1  0.23024000  0.21878000  0.88008000  1.0
  C  C149  1  0.23024000  0.78122000  0.11992000  1.0
  C  C150  1  0.76975000  0.11992000  0.21878000  1.0
  C  C151  1  0.76975000  0.88008000  0.78122000  1.0
  C  C152  1  0.21908000  0.05937000  0.29486000  1.0
  C  C153  1  0.21908000  0.94063000  0.70514000  1.0
  C  C154  1  0.78092000  0.29486000  0.94063000  1.0
  C  C155  1  0.78092000  0.70514000  0.05937000  1.0
  C  C156  1  0.28092000  0.44063000  0.79486000  1.0
  C  C157  1  0.28092000  0.55937000  0.20514000  1.0
  C  C158  1  0.71908000  0.20514000  0.44063000  1.0
  C  C159  1  0.71908000  0.79486000  0.55937000  1.0
  C  C160  1  0.21495000  0.94009000  0.28690000  1.0
  C  C161  1  0.21495000  0.05991000  0.71310000  1.0
  C  C162  1  0.78505000  0.28690000  0.05991000  1.0
  C  C163  1  0.78506000  0.71310000  0.94009000  1.0
  C  C164  1  0.28505000  0.55991000  0.78690000  1.0
  C  C165  1  0.28505000  0.44009000  0.21310000  1.0
  C  C166  1  0.71495000  0.21310000  0.55991000  1.0
  C  C167  1  0.71495000  0.78690000  0.44009000  1.0
  C  C168  1  0.15049000  0.96664000  0.30385000  1.0
  C  C169  1  0.15049000  0.03336000  0.69615000  1.0
  C  C170  1  0.84951000  0.30385000  0.03337000  1.0
  C  C171  1  0.84951000  0.69615000  0.96664000  1.0
  C  C172  1  0.34951000  0.53337000  0.80385000  1.0
  C  C173  1  0.34951000  0.46664000  0.19615000  1.0
  C  C174  1  0.65049000  0.19615000  0.53336000  1.0
  C  C175  1  0.65049000  0.80385000  0.46663000  1.0
  C  C176  1  0.23817000  0.12866000  0.29042000  1.0
  C  C177  1  0.23817000  0.87134000  0.70958000  1.0
  C  C178  1  0.76183000  0.29042000  0.87134000  1.0
  C  C179  1  0.76183000  0.70958000  0.12866000  1.0
  C  C180  1  0.26183000  0.37134000  0.79042000  1.0
  C  C181  1  0.26183000  0.62866000  0.20958000  1.0
  C  C182  1  0.73817000  0.20958000  0.37134000  1.0
  C  C183  1  0.73817000  0.79042000  0.62866000  1.0
  C  C184  1  0.04370000  0.26539000  0.33889000  1.0
  C  C185  1  0.04371000  0.73461000  0.66111000  1.0
  C  C186  1  0.95630000  0.33889000  0.73461000  1.0
  C  C187  1  0.95630000  0.66111000  0.26539000  1.0
  C  C188  1  0.45630000  0.23461000  0.83889000  1.0
  C  C189  1  0.45630000  0.76539000  0.16111000  1.0
  C  C190  1  0.54370000  0.16111000  0.23461000  1.0
  C  C191  1  0.54370000  0.83889000  0.76539000  1.0
  C  C192  1  0.04738000  0.20344000  0.23965000  1.0
  C  C193  1  0.04738000  0.79656000  0.76035000  1.0
  C  C194  1  0.95262000  0.23965000  0.79656000  1.0
  C  C195  1  0.95262000  0.76035000  0.20344000  1.0
  C  C196  1  0.45262000  0.29656000  0.73965000  1.0
  C  C197  1  0.45262000  0.70344000  0.26035000  1.0
  C  C198  1  0.54738000  0.26035000  0.29656000  1.0
  C  C199  1  0.54738000  0.73965000  0.70344000  1.0
  C  C200  1  0.04317000  0.32062000  0.23545000  1.0
  C  C201  1  0.04317000  0.67938000  0.76455000  1.0
  C  C202  1  0.95683000  0.23545000  0.67938000  1.0
  C  C203  1  0.95683000  0.76455000  0.32062000  1.0
  C  C204  1  0.45683000  0.17938000  0.73545000  1.0
  C  C205  1  0.45683000  0.82062000  0.26455000  1.0
  C  C206  1  0.54317000  0.26455000  0.17938000  1.0
  C  C207  1  0.54317000  0.73545000  0.82062000  1.0
  C  C208  1  0.15292000  0.03451000  0.30864000  1.0
  C  C209  1  0.15292000  0.96549000  0.69136000  1.0
  C  C210  1  0.84708000  0.30864000  0.96550000  1.0
  C  C211  1  0.84708000  0.69136000  0.03451000  1.0
  C  C212  1  0.34708000  0.46550000  0.80864000  1.0
  C  C213  1  0.34708000  0.53451000  0.19137000  1.0
  C  C214  1  0.65292000  0.19136000  0.46550000  1.0
  C  C215  1  0.65292000  0.80864000  0.53450000  1.0
  C  C216  1  0.28756000  0.28637000  0.44950000  1.0
  C  C217  1  0.28756000  0.71363000  0.55050000  1.0
  C  C218  1  0.71244000  0.44950000  0.71363000  1.0
  C  C219  1  0.71244000  0.55050000  0.28637000  1.0
  C  C220  1  0.21244000  0.21363000  0.94950000  1.0
  C  C221  1  0.21244000  0.78637000  0.05050000  1.0
  C  C222  1  0.78756000  0.05050000  0.21363000  1.0
  C  C223  1  0.78756000  0.94950000  0.78637000  1.0
  C  C224  1  0.35403000  0.28317000  0.47701000  1.0
  C  C225  1  0.35403000  0.71683000  0.52299000  1.0
  C  C226  1  0.64598000  0.47701000  0.71683000  1.0
  C  C227  1  0.64597000  0.52299000  0.28317000  1.0
  C  C228  1  0.14598000  0.21683000  0.97701000  1.0
  C  C229  1  0.14597000  0.78317000  0.02299000  1.0
  C  C230  1  0.85403000  0.02299000  0.21683000  1.0
  C  C231  1  0.85402000  0.97701000  0.78317000  1.0
  C  C232  1  0.23029000  0.87085000  0.27536000  1.0
  C  C233  1  0.23029000  0.12915000  0.72464000  1.0
  C  C234  1  0.76971000  0.27536000  0.12915000  1.0
  C  C235  1  0.76971000  0.72464000  0.87085000  1.0
  C  C236  1  0.26971000  0.62915000  0.77536000  1.0
  C  C237  1  0.26971000  0.37085000  0.22464000  1.0
  C  C238  1  0.73029000  0.22464000  0.62915000  1.0
  C  C239  1  0.73029000  0.77536000  0.37085000  1.0
  C  C240  1  0.28357000  0.28680000  0.56879000  1.0
  C  C241  1  0.28358000  0.71320000  0.43120000  1.0
  C  C242  1  0.71642000  0.56880000  0.71320000  1.0
  C  C243  1  0.71642000  0.43121000  0.28680000  1.0
  C  C244  1  0.21642000  0.21320000  0.06880000  1.0
  C  C245  1  0.21643000  0.78680000  0.93120000  1.0
  C  C246  1  0.78357000  0.93121000  0.21320000  1.0
  C  C247  1  0.78357000  0.06879000  0.78680000  1.0
  C  C248  1  0.26199000  0.28183000  0.63724000  1.0
  C  C249  1  0.26199000  0.71817000  0.36276000  1.0
  C  C250  1  0.73801000  0.63724000  0.71817000  1.0
  C  C251  1  0.73801000  0.36276000  0.28183000  1.0
  C  C252  1  0.23801000  0.21816000  0.13724000  1.0
  C  C253  1  0.23801000  0.78184000  0.86276000  1.0
  C  C254  1  0.76199000  0.86276000  0.21817000  1.0
  C  C255  1  0.76199000  0.13724000  0.78183000  1.0
  C  C256  1  0.35175000  0.28351000  0.54502000  1.0
  C  C257  1  0.35175000  0.71649000  0.45497000  1.0
  C  C258  1  0.64825000  0.54502000  0.71649000  1.0
  C  C259  1  0.64825000  0.45498000  0.28351000  1.0
  C  C260  1  0.14825000  0.21649000  0.04502000  1.0
  C  C261  1  0.14825000  0.78351000  0.95498000  1.0
  C  C262  1  0.85175000  0.95498000  0.21649000  1.0
  C  C263  1  0.85175000  0.04502000  0.78351000  1.0
  C  C264  1  0.96283000  0.25607000  0.33762000  1.0
  C  C265  1  0.96283000  0.74392000  0.66238000  1.0
  C  C266  1  0.03717000  0.33762000  0.74392000  1.0
  C  C267  1  0.03717000  0.66238000  0.25607000  1.0
  C  C268  1  0.53717000  0.24392000  0.83762000  1.0
  C  C269  1  0.53717000  0.75608000  0.16238000  1.0
  C  C270  1  0.46283000  0.16238000  0.24393000  1.0
  C  C271  1  0.46283000  0.83762000  0.75608000  1.0
  C  C272  1  0.96194000  0.32133000  0.24035000  1.0
  C  C273  1  0.96194000  0.67867000  0.75965000  1.0
  C  C274  1  0.03806000  0.24035000  0.67867000  1.0
  C  C275  1  0.03806000  0.75965000  0.32133000  1.0
  C  C276  1  0.53806000  0.17867000  0.74035000  1.0
  C  C277  1  0.53806000  0.82133000  0.25965000  1.0
  C  C278  1  0.46194000  0.25965000  0.17867000  1.0
  C  C279  1  0.46194000  0.74035000  0.82133000  1.0
  C  C280  1  0.96690000  0.20450000  0.23234000  1.0
  C  C281  1  0.96690000  0.79550000  0.76765000  1.0
  C  C282  1  0.03310000  0.23235000  0.79550000  1.0
  C  C283  1  0.03310000  0.76766000  0.20450000  1.0
  C  C284  1  0.53310000  0.29550000  0.73234000  1.0
  C  C285  1  0.53310000  0.70450000  0.26766000  1.0
  C  C286  1  0.46690000  0.26766000  0.29550000  1.0
  C  C287  1  0.46690000  0.73235000  0.70450000  1.0
  S  S288  1  0.27805000  0.99890000  0.27664000  1.0
  S  S289  1  0.27805000  0.00110000  0.72336000  1.0
  S  S290  1  0.72195000  0.27665000  0.00110000  1.0
  S  S291  1  0.72195000  0.72336000  0.99890000  1.0
  S  S292  1  0.22195000  0.50110000  0.77664000  1.0
  S  S293  1  0.22195000  0.49890000  0.22336000  1.0
  S  S294  1  0.77805000  0.22336000  0.50110000  1.0
  S  S295  1  0.77805000  0.77664000  0.49890000  1.0
  S  S296  1  0.22277000  0.29071000  0.50737000  1.0
  S  S297  1  0.22277000  0.70929000  0.49263000  1.0
  S  S298  1  0.77723000  0.50737000  0.70929000  1.0
  S  S299  1  0.77723000  0.49263000  0.29071000  1.0
  S  S300  1  0.27723000  0.20929000  0.00737000  1.0
  S  S301  1  0.27723000  0.79071000  0.99263000  1.0
  S  S302  1  0.72277000  0.99263000  0.20929000  1.0
  S  S303  1  0.72277000  0.00737000  0.79071000  1.0
  N  N304  1  0.07186000  0.26413000  0.27163000  1.0
  N  N305  1  0.07186000  0.73587000  0.72837000  1.0
  N  N306  1  0.92814000  0.27163000  0.73587000  1.0
  N  N307  1  0.92814000  0.72837000  0.26413000  1.0
  N  N308  1  0.42814000  0.23587000  0.77163000  1.0
  N  N309  1  0.42814000  0.76413000  0.22837000  1.0
  N  N310  1  0.57186000  0.22837000  0.23587000  1.0
  N  N311  1  0.57186000  0.77163000  0.76413000  1.0
  N  N312  1  0.93676000  0.25959000  0.26973000  1.0
  N  N313  1  0.93676000  0.74041000  0.73027000  1.0
  N  N314  1  0.06324000  0.26973000  0.74041000  1.0
  N  N315  1  0.06324000  0.73027000  0.25959000  1.0
  N  N316  1  0.56324000  0.24041000  0.76973000  1.0
  N  N317  1  0.56324000  0.75959000  0.23027000  1.0
  N  N318  1  0.43676000  0.23027000  0.24041000  1.0
  N  N319  1  0.43676000  0.76973000  0.75959000  1.0
  O  O320  1  0.31978000  0.26479000  0.34252000  1.0
  O  O321  1  0.31978000  0.73521000  0.65747000  1.0
  O  O322  1  0.68022000  0.34252000  0.73521000  1.0
  O  O323  1  0.68022000  0.65748000  0.26479000  1.0
  O  O324  1  0.18022000  0.23521000  0.84252000  1.0
  O  O325  1  0.18022000  0.76479000  0.15748000  1.0
  O  O326  1  0.81978000  0.15748000  0.23521000  1.0
  O  O327  1  0.81978000  0.84252000  0.76479000  1.0
  O  O328  1  0.30053000  0.14250000  0.27198000  1.0
  O  O329  1  0.30053000  0.85749000  0.72802000  1.0
  O  O330  1  0.69947000  0.27198000  0.85750000  1.0
  O  O331  1  0.69947000  0.72802000  0.14250000  1.0
  O  O332  1  0.19947000  0.35749000  0.77198000  1.0
  O  O333  1  0.19947000  0.64251000  0.22802000  1.0
  O  O334  1  0.80053000  0.22802000  0.35750000  1.0
  O  O335  1  0.80053000  0.77198000  0.64251000  1.0
  O  O336  1  0.18973000  0.16894000  0.30407000  1.0
  O  O337  1  0.18973000  0.83105000  0.69593000  1.0
  O  O338  1  0.81027000  0.30407000  0.83106000  1.0
  O  O339  1  0.81027000  0.69593000  0.16895000  1.0
  O  O340  1  0.31027000  0.33105000  0.80407000  1.0
  O  O341  1  0.31027000  0.66894000  0.19593000  1.0
  O  O342  1  0.68973000  0.19593000  0.33105000  1.0
  O  O343  1  0.68973000  0.80407000  0.66894000  1.0
  O  O344  1  0.20617000  0.29207000  0.36362000  1.0
  O  O345  1  0.20617000  0.70793000  0.63639000  1.0
  O  O346  1  0.79383000  0.36362000  0.70793000  1.0
  O  O347  1  0.79383000  0.63638000  0.29207000  1.0
  O  O348  1  0.29383000  0.20793000  0.86362000  1.0
  O  O349  1  0.29383000  0.79207000  0.13638000  1.0
  O  O350  1  0.70617000  0.13639000  0.20793000  1.0
  O  O351  1  0.70617000  0.86362000  0.79207000  1.0
  O  O352  1  0.17807000  0.83239000  0.27934000  1.0
  O  O353  1  0.17807000  0.16761000  0.72066000  1.0
  O  O354  1  0.82193000  0.27934000  0.16761000  1.0
  O  O355  1  0.82193000  0.72066000  0.83239000  1.0
  O  O356  1  0.32192000  0.66761000  0.77934000  1.0
  O  O357  1  0.32193000  0.33239000  0.22066000  1.0
  O  O358  1  0.67807000  0.22066000  0.66761000  1.0
  O  O359  1  0.67807000  0.77934000  0.33239000  1.0
  O  O360  1  0.29361000  0.85537000  0.26183000  1.0
  O  O361  1  0.29361000  0.14463000  0.73817000  1.0
  O  O362  1  0.70639000  0.26183000  0.14463000  1.0
  O  O363  1  0.70639000  0.73817000  0.85537000  1.0
  O  O364  1  0.20639000  0.64463000  0.76183000  1.0
  O  O365  1  0.20639000  0.35537000  0.23817000  1.0
  O  O366  1  0.79361000  0.23817000  0.64463000  1.0
  O  O367  1  0.79361000  0.76183000  0.35537000  1.0
  O  O368  1  0.31151000  0.27168000  0.67767000  1.0
  O  O369  1  0.31151000  0.72832000  0.32233000  1.0
  O  O370  1  0.68849000  0.67767000  0.72832000  1.0
  O  O371  1  0.68849000  0.32233000  0.27168000  1.0
  O  O372  1  0.18849000  0.22832000  0.17767000  1.0
  O  O373  1  0.18849000  0.77168000  0.82233000  1.0
  O  O374  1  0.81151000  0.82233000  0.22832000  1.0
  O  O375  1  0.81151000  0.17767000  0.77168000  1.0
  O  O376  1  0.19683000  0.28656000  0.65079000  1.0
  O  O377  1  0.19683000  0.71344000  0.34921000  1.0
  O  O378  1  0.80317000  0.65079000  0.71344000  1.0
  O  O379  1  0.80317000  0.34922000  0.28656000  1.0
  O  O380  1  0.30317000  0.21344000  0.15079000  1.0
  O  O381  1  0.30317000  0.78656000  0.84921000  1.0
  O  O382  1  0.69683000  0.84921000  0.21344000  1.0
  O  O383  1  0.69683000  0.15079000  0.78656000  1.0
