# generated using pymatgen
data_Dy2CuH28(C10O11)2
_symmetry_space_group_name_H-M   'P 1'
_cell_length_a   6.96517000
_cell_length_b   10.01710000
_cell_length_c   11.36150000
_cell_angle_alpha   108.04600000
_cell_angle_beta   101.53400000
_cell_angle_gamma   98.49880000
_symmetry_Int_Tables_number   1
_chemical_formula_structural   Dy2CuH28(C10O11)2
_chemical_formula_sum   'Dy2 Cu1 H28 C20 O22'
_cell_volume   719.52916196
_cell_formula_units_Z   1
loop_
 _symmetry_equiv_pos_site_id
 _symmetry_equiv_pos_as_xyz
  1  'x, y, z'
loop_
 _atom_site_type_symbol
 _atom_site_label
 _atom_site_symmetry_multiplicity
 _atom_site_fract_x
 _atom_site_fract_y
 _atom_site_fract_z
 _atom_site_occupancy
  Dy  Dy0  1  0.63384000  0.71514000  0.09752000  1.0
  Dy  Dy1  1  0.36616000  0.28486000  0.90248000  1.0
  Cu  Cu2  1  0.00000000  0.00000000  0.50000000  1.0
  H  H3  1  0.43150000  0.58988000  0.34239000  1.0
  H  H4  1  0.56850000  0.41012000  0.65761000  1.0
  H  H5  1  0.60966000  0.59093000  0.47848000  1.0
  H  H6  1  0.39034000  0.40908000  0.52153000  1.0
  H  H7  1  0.51419000  0.64854000  0.67499000  1.0
  H  H8  1  0.48580000  0.35147000  0.32501000  1.0
  H  H9  1  0.32359000  0.75750000  0.70133000  1.0
  H  H10  1  0.67641000  0.24250000  0.29867000  1.0
  H  H11  1  0.98614000  0.53503000  0.19635000  1.0
  H  H12  1  0.01386000  0.46496000  0.80365000  1.0
  H  H13  1  0.89367000  0.47138000  0.30671000  1.0
  H  H14  1  0.10634000  0.52862000  0.69329000  1.0
  H  H15  1  0.03888000  0.90291000  0.14498000  1.0
  H  H16  1  0.96111000  0.09709000  0.85502000  1.0
  H  H17  1  0.06662000  0.85414000  0.26691000  1.0
  H  H18  1  0.93338000  0.14587000  0.73309000  1.0
  H  H19  1  0.16414000  0.17228000  0.25960000  1.0
  H  H20  1  0.83586000  0.82772000  0.74040000  1.0
  H  H21  1  0.00691000  0.26760000  0.35483000  1.0
  H  H22  1  0.99309000  0.73240000  0.64517000  1.0
  H  H23  1  0.52482000  0.00444000  0.14368000  1.0
  H  H24  1  0.47517000  0.99556000  0.85632000  1.0
  H  H25  1  0.66711000  0.01599000  0.27718000  1.0
  H  H26  1  0.33289000  0.98401000  0.72282000  1.0
  H  H27  1  0.24106000  0.56555000  0.10824000  1.0
  H  H28  1  0.75894000  0.43445000  0.89176000  1.0
  H  H29  1  0.29988000  0.71306000  0.23288000  1.0
  H  H30  1  0.70012000  0.28694000  0.76712000  1.0
  C  C31  1  0.68668000  0.76806000  0.42096000  1.0
  C  C32  1  0.31333000  0.23194000  0.57904000  1.0
  C  C33  1  0.52695000  0.65873000  0.43765000  1.0
  C  C34  1  0.47305000  0.34128000  0.56235000  1.0
  C  C35  1  0.40554000  0.72562000  0.52588000  1.0
  C  C36  1  0.59446000  0.27438000  0.47412000  1.0
  C  C37  1  0.26731000  0.81079000  0.47974000  1.0
  C  C38  1  0.73269000  0.18921000  0.52026000  1.0
  C  C39  1  0.41427000  0.70940000  0.63948000  1.0
  C  C40  1  0.58573000  0.29061000  0.36052000  1.0
  C  C41  1  0.71049000  0.37848000  0.11528000  1.0
  C  C42  1  0.28951000  0.62152000  0.88472000  1.0
  C  C43  1  0.91718000  0.43690000  0.20981000  1.0
  C  C44  1  0.08283000  0.56309000  0.79019000  1.0
  C  C45  1  0.04629000  0.32840000  0.19599000  1.0
  C  C46  1  0.95370000  0.67159000  0.80401000  1.0
  C  C47  1  0.14465000  0.30265000  0.08786000  1.0
  C  C48  1  0.85535000  0.69734000  0.91213000  1.0
  C  C49  1  0.07417000  0.25296000  0.27439000  1.0
  C  C50  1  0.92582000  0.74703000  0.72561000  1.0
  O  O51  1  0.73289000  0.74519000  0.31551000  1.0
  O  O52  1  0.26711000  0.25481000  0.68449000  1.0
  O  O53  1  0.77518000  0.87743000  0.52162000  1.0
  O  O54  1  0.22483000  0.12257000  0.47838000  1.0
  O  O55  1  0.23097000  0.80032000  0.36343000  1.0
  O  O56  1  0.76904000  0.19969000  0.63657000  1.0
  O  O57  1  0.18891000  0.88962000  0.56196000  1.0
  O  O58  1  0.81109000  0.11038000  0.43804000  1.0
  O  O59  1  0.64010000  0.24523000  0.05768000  1.0
  O  O60  1  0.35990000  0.75476000  0.94232000  1.0
  O  O61  1  0.60631000  0.46954000  0.09460000  1.0
  O  O62  1  0.39369000  0.53045000  0.90540000  1.0
  O  O63  1  0.14839000  0.39313000  0.02774000  1.0
  O  O64  1  0.85161000  0.60687000  0.97226000  1.0
  O  O65  1  0.22657000  0.19630000  0.05599000  1.0
  O  O66  1  0.77343000  0.80370000  0.94400000  1.0
  O  O67  1  0.96687000  0.87182000  0.20037000  1.0
  O  O68  1  0.03313000  0.12819000  0.79964000  1.0
  O  O69  1  0.57813000  0.94858000  0.19356000  1.0
  O  O70  1  0.42187000  0.05142000  0.80644000  1.0
  O  O71  1  0.32981000  0.66426000  0.15055000  1.0
  O  O72  1  0.67019000  0.33573000  0.84945000  1.0
