# generated using pymatgen
data_Zn5H24C36(N7O5)2
_symmetry_space_group_name_H-M   'P 1'
_cell_length_a   7.57971000
_cell_length_b   10.27050000
_cell_length_c   12.06310000
_cell_angle_alpha   103.08900000
_cell_angle_beta   96.86050000
_cell_angle_gamma   99.53140000
_symmetry_Int_Tables_number   1
_chemical_formula_structural   Zn5H24C36(N7O5)2
_chemical_formula_sum   'Zn5 H24 C36 N14 O10'
_cell_volume   889.93320435
_cell_formula_units_Z   1
loop_
 _symmetry_equiv_pos_site_id
 _symmetry_equiv_pos_as_xyz
  1  'x, y, z'
loop_
 _atom_site_type_symbol
 _atom_site_label
 _atom_site_symmetry_multiplicity
 _atom_site_fract_x
 _atom_site_fract_y
 _atom_site_fract_z
 _atom_site_occupancy
  Zn  Zn0  1  0.49999000  0.50002000  0.49998000  1.0
  Zn  Zn1  1  0.43075000  0.16311000  0.42474000  1.0
  Zn  Zn2  1  0.56925000  0.83690000  0.57527000  1.0
  Zn  Zn3  1  0.15060000  0.31791000  0.28767000  1.0
  Zn  Zn4  1  0.84940000  0.68208000  0.71233000  1.0
  H  H5  1  0.22971000  0.95418000  0.49669000  1.0
  H  H6  1  0.77029000  0.04582000  0.50331000  1.0
  H  H7  1  0.85341000  0.32557000  0.09538000  1.0
  H  H8  1  0.14659000  0.67442000  0.90462000  1.0
  H  H9  1  0.68311000  0.08490000  0.02630000  1.0
  H  H10  1  0.31689000  0.91510000  0.97370000  1.0
  H  H11  1  0.52660000  0.99633000  0.82337000  1.0
  H  H12  1  0.47340000  0.00367000  0.17663000  1.0
  H  H13  1  0.85412000  0.47986000  0.96251000  1.0
  H  H14  1  0.14589000  0.52013000  0.03749000  1.0
  H  H15  1  0.74662000  0.61161000  0.25731000  1.0
  H  H16  1  0.25338000  0.38839000  0.74270000  1.0
  H  H17  1  0.60056000  0.57590000  0.05486000  1.0
  H  H18  1  0.39943000  0.42410000  0.94514000  1.0
  H  H19  1  0.68077000  0.75046000  0.94635000  1.0
  H  H20  1  0.31923000  0.24954000  0.05365000  1.0
  H  H21  1  0.90689000  0.96311000  0.04262000  1.0
  H  H22  1  0.09311000  0.03689000  0.95739000  1.0
  H  H23  1  0.90456000  0.53840000  0.38571000  1.0
  H  H24  1  0.09544000  0.46160000  0.61429000  1.0
  H  H25  1  0.76514000  0.10961000  0.27266000  1.0
  H  H26  1  0.23486000  0.89039000  0.72735000  1.0
  H  H27  1  0.20988000  0.31419000  0.49124000  1.0
  H  H28  1  0.79013000  0.68582000  0.50876000  1.0
  C  C29  1  0.78115000  0.28776000  0.00714000  1.0
  C  C30  1  0.21885000  0.71223000  0.99286000  1.0
  C  C31  1  0.68577000  0.15191000  0.96796000  1.0
  C  C32  1  0.31423000  0.84809000  0.03204000  1.0
  C  C33  1  0.59693000  0.10225000  0.85497000  1.0
  C  C34  1  0.40306000  0.89775000  0.14503000  1.0
  C  C35  1  0.59878000  0.18848000  0.77946000  1.0
  C  C36  1  0.40122000  0.81152000  0.22054000  1.0
  C  C37  1  0.69030000  0.32595000  0.81981000  1.0
  C  C38  1  0.30971000  0.67405000  0.18019000  1.0
  C  C39  1  0.78353000  0.37390000  0.93372000  1.0
  C  C40  1  0.21647000  0.62610000  0.06628000  1.0
  C  C41  1  0.68005000  0.41719000  0.74366000  1.0
  C  C42  1  0.31995000  0.58281000  0.25634000  1.0
  C  C43  1  0.50964000  0.14249000  0.65995000  1.0
  C  C44  1  0.49037000  0.85750000  0.34006000  1.0
  C  C45  1  0.78366000  0.68698000  0.20931000  1.0
  C  C46  1  0.21633000  0.31302000  0.79069000  1.0
  C  C47  1  0.70138000  0.66796000  0.09617000  1.0
  C  C48  1  0.29862000  0.33205000  0.90383000  1.0
  C  C49  1  0.74523000  0.76688000  0.03533000  1.0
  C  C50  1  0.25477000  0.23313000  0.96467000  1.0
  C  C51  1  0.87147000  0.88546000  0.08861000  1.0
  C  C52  1  0.12853000  0.11454000  0.91139000  1.0
  C  C53  1  0.95849000  0.90537000  0.20239000  1.0
  C  C54  1  0.04151000  0.09463000  0.79761000  1.0
  C  C55  1  0.91472000  0.80490000  0.26316000  1.0
  C  C56  1  0.08528000  0.19510000  0.73684000  1.0
  C  C57  1  0.09874000  0.02619000  0.25718000  1.0
  C  C58  1  0.90126000  0.97381000  0.74282000  1.0
  C  C59  1  0.00994000  0.82388000  0.38045000  1.0
  C  C60  1  0.99007000  0.17612000  0.61955000  1.0
  C  C61  1  0.82974000  0.43343000  0.36421000  1.0
  C  C62  1  0.17025000  0.56657000  0.63579000  1.0
  C  C63  1  0.75999000  0.21597000  0.30576000  1.0
  C  C64  1  0.24001000  0.78403000  0.69424000  1.0
  N  N65  1  0.59445000  0.36959000  0.63526000  1.0
  N  N66  1  0.40556000  0.63041000  0.36475000  1.0
  N  N67  1  0.51855000  0.23240000  0.59486000  1.0
  N  N68  1  0.48146000  0.76760000  0.40514000  1.0
  N  N69  1  0.19235000  0.03367000  0.36009000  1.0
  N  N70  1  0.80765000  0.96633000  0.63991000  1.0
  N  N71  1  0.14517000  0.93598000  0.41798000  1.0
  N  N72  1  0.85484000  0.06403000  0.58202000  1.0
  N  N73  1  0.89346000  0.32340000  0.31104000  1.0
  N  N74  1  0.10654000  0.67660000  0.68896000  1.0
  N  N75  1  0.66492000  0.39670000  0.38839000  1.0
  N  N76  1  0.33507000  0.60330000  0.61160000  1.0
  N  N77  1  0.62065000  0.25711000  0.35079000  1.0
  N  N78  1  0.37935000  0.74289000  0.64921000  1.0
  O  O79  1  0.75285000  0.54621000  0.78744000  1.0
  O  O80  1  0.24716000  0.45379000  0.21257000  1.0
  O  O81  1  0.42482000  0.01752000  0.61402000  1.0
  O  O82  1  0.57518000  0.98248000  0.38598000  1.0
  O  O83  1  0.13581000  0.12259000  0.20518000  1.0
  O  O84  1  0.86420000  0.87741000  0.79482000  1.0
  O  O85  1  0.97770000  0.74437000  0.44447000  1.0
  O  O86  1  0.02231000  0.25563000  0.55553000  1.0
  O  O87  1  0.29457000  0.33476000  0.43825000  1.0
  O  O88  1  0.70543000  0.66524000  0.56175000  1.0
