# generated using pymatgen
data_Sm3H43(C3N2)13
_symmetry_space_group_name_H-M   'P 1'
_cell_length_a   13.01320000
_cell_length_b   13.51570000
_cell_length_c   16.20630000
_cell_angle_alpha   81.88090000
_cell_angle_beta   72.94040000
_cell_angle_gamma   61.22190000
_symmetry_Int_Tables_number   1
_chemical_formula_structural   Sm3H43(C3N2)13
_chemical_formula_sum   'Sm6 H86 C78 N52'
_cell_volume   2388.42607303
_cell_formula_units_Z   2
loop_
 _symmetry_equiv_pos_site_id
 _symmetry_equiv_pos_as_xyz
  1  'x, y, z'
loop_
 _atom_site_type_symbol
 _atom_site_label
 _atom_site_symmetry_multiplicity
 _atom_site_fract_x
 _atom_site_fract_y
 _atom_site_fract_z
 _atom_site_occupancy
  Sm  Sm0  1  0.57461000  0.34523000  0.67872000  1.0
  Sm  Sm1  1  0.91984000  0.65477000  0.17872000  1.0
  Sm  Sm2  1  0.01271000  0.34879000  0.82635000  1.0
  Sm  Sm3  1  0.36150000  0.65121000  0.32635000  1.0
  Sm  Sm4  1  0.05204000  0.84399000  0.75305000  1.0
  Sm  Sm5  1  0.89603000  0.15601000  0.25305000  1.0
  H  H6  1  0.70048000  0.69479000  0.54157000  1.0
  H  H7  1  0.39526000  0.30521000  0.04157000  1.0
  H  H8  1  0.20669000  0.29526000  0.46350000  1.0
  H  H9  1  0.50194000  0.70475000  0.96350000  1.0
  H  H10  1  0.79929000  0.41796000  0.70471000  1.0
  H  H11  1  0.21724000  0.58204000  0.20471000  1.0
  H  H12  1  0.58216000  0.31097000  0.90199000  1.0
  H  H13  1  0.89313000  0.68903000  0.40199000  1.0
  H  H14  1  0.74207000  0.33538000  0.96869000  1.0
  H  H15  1  0.07745000  0.66462000  0.46868000  1.0
  H  H16  1  0.47098000  0.56846000  0.52221000  1.0
  H  H17  1  0.03944000  0.43154000  0.02221000  1.0
  H  H18  1  0.40331000  0.28825000  0.56524000  1.0
  H  H19  1  0.69155000  0.71176000  0.06524000  1.0
  H  H20  1  0.32762000  0.40550000  0.42230000  1.0
  H  H21  1  0.73313000  0.59450000  0.92230000  1.0
  H  H22  1  0.26244000  0.39940000  0.70132000  1.0
  H  H23  1  0.66185000  0.60059000  0.20132000  1.0
  H  H24  1  0.48582000  0.19676000  0.86367000  1.0
  H  H25  1  0.68258000  0.80323000  0.36367000  1.0
  H  H26  1  0.25426000  0.22041000  0.93540000  1.0
  H  H27  1  0.47466000  0.77959000  0.43540000  1.0
  H  H28  1  0.82393000  0.15030000  0.77674000  1.0
  H  H29  1  0.97423000  0.84970000  0.27674000  1.0
  H  H30  1  0.58453000  0.07612000  0.70391000  1.0
  H  H31  1  0.66064000  0.92388000  0.20391000  1.0
  H  H32  1  0.77820000  0.87577000  0.73309000  1.0
  H  H33  1  0.65397000  0.12423000  0.23309000  1.0
  H  H34  1  0.63266000  0.28748000  0.44660000  1.0
  H  H35  1  0.92014000  0.71252000  0.94660000  1.0
  H  H36  1  0.86840000  0.10971000  0.60649000  1.0
  H  H37  1  0.97811000  0.89029000  0.10649000  1.0
  H  H38  1  0.99062000  0.03563000  0.44001000  1.0
  H  H39  1  0.02625000  0.96437000  0.94001000  1.0
  H  H40  1  0.56652000  0.62657000  0.65743000  1.0
  H  H41  1  0.19308000  0.37343000  0.15744000  1.0
  H  H42  1  0.81419000  0.35481000  0.48606000  1.0
  H  H43  1  0.16900000  0.64518000  0.98606000  1.0
  H  H44  1  0.85786000  0.53657000  0.43067000  1.0
  H  H45  1  0.39444000  0.46343000  0.93066000  1.0
  H  H46  1  0.96417000  0.11116000  0.84120000  1.0
  H  H47  1  0.07533000  0.88885000  0.34120000  1.0
  H  H48  1  0.28913000  0.11513000  0.70145000  1.0
  H  H49  1  0.40427000  0.88486000  0.20145000  1.0
  H  H50  1  0.30537000  0.90749000  0.67755000  1.0
  H  H51  1  0.21287000  0.09251000  0.17754000  1.0
  H  H52  1  0.06971000  0.57730000  0.83083000  1.0
  H  H53  1  0.64701000  0.42271000  0.33085000  1.0
  H  H54  1  0.91324000  0.55291000  0.64641000  1.0
  H  H55  1  0.46616000  0.44708000  0.14643000  1.0
  H  H56  1  0.93810000  0.74803000  0.61690000  1.0
  H  H57  1  0.68612000  0.25198000  0.11690000  1.0
  H  H58  1  0.16127000  0.40097000  0.60126000  1.0
  H  H59  1  0.56224000  0.59903000  0.10126000  1.0
  H  H60  1  0.95544000  0.22424000  0.66281000  1.0
  H  H61  1  0.17968000  0.77576000  0.16281000  1.0
  H  H62  1  0.07704000  0.19369000  0.48996000  1.0
  H  H63  1  0.27072000  0.80631000  0.98997000  1.0
  H  H64  1  0.27973000  0.57086000  0.69146000  1.0
  H  H65  1  0.85057000  0.42915000  0.19145000  1.0
  H  H66  1  0.30371000  0.77884000  0.84705000  1.0
  H  H67  1  0.08255000  0.22117000  0.34705000  1.0
  H  H68  1  0.51487000  0.57525000  0.81991000  1.0
  H  H69  1  0.09012000  0.42475000  0.31991000  1.0
  H  H70  1  0.18964000  0.67525000  0.55722000  1.0
  H  H71  1  0.86490000  0.32474000  0.05722000  1.0
  H  H72  1  0.12851000  0.00732000  0.57785000  1.0
  H  H73  1  0.13584000  0.99266000  0.07785000  1.0
  H  H74  1  0.26819000  0.92624000  0.41394000  1.0
  H  H75  1  0.19444000  0.07376000  0.91394000  1.0
  H  H76  1  0.52012000  0.08971000  0.44544000  1.0
  H  H77  1  0.60983000  0.91029000  0.94544000  1.0
  H  H78  1  0.48296000  0.91798000  0.54363000  1.0
  H  H79  1  0.40092000  0.08203000  0.04363000  1.0
  H  H80  1  0.84284000  0.85480000  0.51409000  1.0
  H  H81  1  0.69765000  0.14520000  0.01410000  1.0
  H  H82  1  0.74003000  0.03766000  0.43580000  1.0
  H  H83  1  0.77768000  0.96234000  0.93580000  1.0
  H  H84  1  0.70839000  0.64305000  0.76846000  1.0
  H  H85  1  0.35144000  0.35696000  0.26846000  1.0
  H  H86  1  0.64145000  0.81322000  0.66459000  1.0
  H  H87  1  0.45467000  0.18678000  0.16459000  1.0
  H  H88  1  0.45981000  0.98625000  0.74425000  1.0
  H  H89  1  0.44605000  0.01376000  0.24425000  1.0
  H  H90  1  0.40641000  0.91794000  0.91375000  1.0
  H  H91  1  0.32435000  0.08206000  0.41375000  1.0
  C  C92  1  0.76165000  0.39238000  0.76787000  1.0
  C  C93  1  0.15400000  0.60762000  0.26785000  1.0
  C  C94  1  0.65004000  0.33851000  0.87061000  1.0
  C  C95  1  0.98856000  0.66148000  0.37060000  1.0
  C  C96  1  0.73102000  0.34865000  0.90354000  1.0
  C  C97  1  0.07968000  0.65135000  0.40353000  1.0
  C  C98  1  0.44192000  0.50801000  0.51458000  1.0
  C  C99  1  0.94993000  0.49199000  0.01458000  1.0
  C  C100  1  0.40572000  0.36475000  0.53581000  1.0
  C  C101  1  0.77046000  0.63526000  0.03581000  1.0
  C  C102  1  0.36817000  0.42311000  0.46428000  1.0
  C  C103  1  0.79130000  0.57690000  0.96427000  1.0
  C  C104  1  0.29203000  0.34672000  0.75526000  1.0
  C  C105  1  0.63877000  0.65324000  0.25527000  1.0
  C  C106  1  0.40490000  0.24367000  0.84045000  1.0
  C  C107  1  0.64855000  0.75635000  0.34044000  1.0
  C  C108  1  0.28989000  0.25480000  0.87597000  1.0
  C  C109  1  0.54467000  0.74522000  0.37597000  1.0
  C  C110  1  0.78572000  0.10222000  0.76038000  1.0
  C  C111  1  0.88794000  0.89779000  0.26037000  1.0
  C  C112  1  0.66368000  0.06197000  0.72308000  1.0
  C  C113  1  0.72563000  0.93804000  0.22308000  1.0
  C  C114  1  0.76045000  0.96233000  0.73690000  1.0
  C  C115  1  0.72277000  0.03768000  0.23690000  1.0
  C  C116  1  0.71381000  0.22934000  0.46734000  1.0
  C  C117  1  0.94318000  0.77064000  0.96733000  1.0
  C  C118  1  0.83667000  0.13727000  0.54844000  1.0
  C  C119  1  0.97393000  0.86272000  0.04845000  1.0
  C  C120  1  0.89750000  0.09910000  0.46513000  1.0
  C  C121  1  0.99661000  0.90089000  0.96514000  1.0
  C  C122  1  0.63927000  0.57604000  0.60389000  1.0
  C  C123  1  0.21532000  0.42395000  0.10391000  1.0
  C  C124  1  0.76843000  0.43823000  0.51413000  1.0
  C  C125  1  0.20666000  0.56176000  0.01413000  1.0
  C  C126  1  0.79168000  0.52792000  0.48588000  1.0
  C  C127  1  0.31961000  0.47209000  0.98588000  1.0
  C  C128  1  0.05489000  0.08390000  0.79846000  1.0
  C  C129  1  0.13879000  0.91612000  0.29848000  1.0
  C  C130  1  0.22390000  0.08300000  0.72733000  1.0
  C  C131  1  0.30691000  0.91699000  0.22733000  1.0
  C  C132  1  0.23132000  0.98081000  0.71441000  1.0
  C  C133  1  0.21216000  0.01918000  0.21440000  1.0
  C  C134  1  0.02905000  0.59800000  0.77690000  1.0
  C  C135  1  0.62706000  0.40200000  0.27692000  1.0
  C  C136  1  0.94822000  0.58724000  0.68158000  1.0
  C  C137  1  0.53547000  0.41276000  0.18161000  1.0
  C  C138  1  0.96119000  0.68400000  0.66637000  1.0
  C  C139  1  0.64521000  0.31601000  0.16637000  1.0
  C  C140  1  0.12132000  0.34829000  0.59680000  1.0
  C  C141  1  0.46962000  0.65170000  0.09680000  1.0
  C  C142  1  0.01583000  0.25735000  0.62496000  1.0
  C  C143  1  0.27319000  0.74263000  0.12497000  1.0
  C  C144  1  0.07733000  0.23969000  0.53934000  1.0
  C  C145  1  0.31702000  0.76032000  0.03934000  1.0
  C  C146  1  0.31488000  0.59933000  0.73093000  1.0
  C  C147  1  0.91418000  0.40069000  0.23093000  1.0
  C  C148  1  0.32885000  0.70472000  0.81166000  1.0
  C  C149  1  0.03354000  0.29530000  0.31167000  1.0
  C  C150  1  0.43463000  0.60391000  0.79704000  1.0
  C  C151  1  0.03853000  0.39609000  0.29704000  1.0
  C  C152  1  0.19104000  0.75528000  0.53994000  1.0
  C  C153  1  0.94634000  0.24469000  0.03992000  1.0
  C  C154  1  0.16043000  0.92629000  0.54931000  1.0
  C  C155  1  0.08674000  0.07369000  0.04931000  1.0
  C  C156  1  0.23145000  0.88527000  0.46806000  1.0
  C  C157  1  0.11675000  0.11472000  0.96806000  1.0
  C  C158  1  0.57971000  0.01599000  0.47562000  1.0
  C  C159  1  0.59568000  0.98401000  0.97563000  1.0
  C  C160  1  0.56353000  0.92987000  0.52387000  1.0
  C  C161  1  0.49338000  0.07015000  0.02387000  1.0
  C  C162  1  0.74955000  0.89273000  0.51037000  1.0
  C  C163  1  0.64229000  0.10725000  0.01039000  1.0
  C  C164  1  0.63252000  0.72607000  0.78663000  1.0
  C  C165  1  0.35861000  0.27393000  0.28663000  1.0
  C  C166  1  0.50268000  0.90558000  0.77474000  1.0
  C  C167  1  0.40825000  0.09444000  0.27473000  1.0
  C  C168  1  0.47751000  0.87004000  0.85850000  1.0
  C  C169  1  0.34753000  0.12997000  0.35850000  1.0
  N  N170  1  0.66984000  0.36639000  0.78387000  1.0
  N  N171  1  0.03620000  0.63361000  0.28387000  1.0
  N  N172  1  0.80337000  0.38221000  0.83747000  1.0
  N  N173  1  0.18557000  0.61779000  0.33745000  1.0
  N  N174  1  0.45283000  0.41916000  0.56818000  1.0
  N  N175  1  0.87198000  0.58085000  0.06819000  1.0
  N  N176  1  0.39118000  0.51474000  0.45091000  1.0
  N  N177  1  0.90593000  0.48526000  0.95091000  1.0
  N  N178  1  0.40648000  0.30231000  0.76290000  1.0
  N  N179  1  0.70880000  0.69768000  0.26290000  1.0
  N  N180  1  0.21748000  0.32065000  0.82139000  1.0
  N  N181  1  0.53813000  0.67934000  0.32139000  1.0
  N  N182  1  0.67958000  0.15106000  0.73834000  1.0
  N  N183  1  0.83064000  0.84896000  0.23834000  1.0
  N  N184  1  0.83946000  0.98801000  0.76026000  1.0
  N  N185  1  0.82746000  0.01200000  0.26026000  1.0
  N  N186  1  0.71970000  0.22036000  0.54997000  1.0
  N  N187  1  0.94006000  0.77963000  0.04996000  1.0
  N  N188  1  0.81863000  0.15765000  0.41287000  1.0
  N  N189  1  0.97630000  0.84234000  0.91287000  1.0
  N  N190  1  0.67285000  0.46870000  0.58817000  1.0
  N  N191  1  0.14155000  0.53130000  0.08817000  1.0
  N  N192  1  0.70938000  0.61425000  0.54370000  1.0
  N  N193  1  0.32362000  0.38575000  0.04371000  1.0
  N  N194  1  0.11165000  0.14790000  0.78138000  1.0
  N  N195  1  0.25956000  0.85210000  0.28138000  1.0
  N  N196  1  0.12260000  0.98150000  0.75942000  1.0
  N  N197  1  0.10412000  0.01851000  0.25942000  1.0
  N  N198  1  0.99217000  0.53205000  0.75210000  1.0
  N  N199  1  0.52422000  0.46795000  0.25212000  1.0
  N  N200  1  0.01312000  0.69105000  0.72736000  1.0
  N  N201  1  0.70418000  0.30895000  0.22737000  1.0
  N  N202  1  0.04314000  0.32604000  0.66093000  1.0
  N  N203  1  0.36920000  0.67395000  0.16094000  1.0
  N  N204  1  0.14400000  0.29773000  0.52263000  1.0
  N  N205  1  0.44173000  0.70227000  0.02264000  1.0
  N  N206  1  0.25190000  0.70162000  0.76965000  1.0
  N  N207  1  0.95352000  0.29838000  0.26965000  1.0
  N  N208  1  0.42562000  0.53668000  0.74509000  1.0
  N  N209  1  0.96228000  0.46333000  0.24509000  1.0
  N  N210  1  0.13380000  0.84325000  0.59552000  1.0
  N  N211  1  0.97706000  0.15673000  0.09551000  1.0
  N  N212  1  0.25118000  0.77575000  0.46189000  1.0
  N  N213  1  0.02695000  0.22423000  0.96189000  1.0
  N  N214  1  0.67048000  0.85248000  0.54529000  1.0
  N  N215  1  0.52296000  0.14752000  0.04530000  1.0
  N  N216  1  0.69805000  0.99062000  0.46799000  1.0
  N  N217  1  0.68865000  0.00938000  0.96800000  1.0
  N  N218  1  0.55913000  0.75773000  0.86539000  1.0
  N  N219  1  0.31686000  0.24228000  0.36539000  1.0
  N  N220  1  0.60115000  0.81334000  0.73001000  1.0
  N  N221  1  0.41450000  0.18666000  0.23002000  1.0
