# generated using pymatgen
data_ZnH20C21(NO2)3
_symmetry_space_group_name_H-M   'P 1'
_cell_length_a   11.82390000
_cell_length_b   15.97360000
_cell_length_c   17.06980000
_cell_angle_alpha   88.94390000
_cell_angle_beta   89.50210000
_cell_angle_gamma   89.58690000
_symmetry_Int_Tables_number   1
_chemical_formula_structural   ZnH20C21(NO2)3
_chemical_formula_sum   'Zn2 H40 C42 N6 O12'
_cell_volume   3223.22787189
_cell_formula_units_Z   2
loop_
 _symmetry_equiv_pos_site_id
 _symmetry_equiv_pos_as_xyz
  1  'x, y, z'
loop_
 _atom_site_type_symbol
 _atom_site_label
 _atom_site_symmetry_multiplicity
 _atom_site_fract_x
 _atom_site_fract_y
 _atom_site_fract_z
 _atom_site_occupancy
  Zn  Zn0  1  0.50646000  0.59212000  0.50334000  1.0
  Zn  Zn1  1  0.49425000  0.41242000  0.48863000  1.0
  H  H2  1  0.38044000  0.59641000  0.74497000  1.0
  H  H3  1  0.53944000  0.34860000  0.88686000  1.0
  H  H4  1  0.38037000  0.69676000  0.32028000  1.0
  H  H5  1  0.35725000  0.72610000  0.21963000  1.0
  H  H6  1  0.53411000  0.80511000  0.32508000  1.0
  H  H7  1  0.50378000  0.83616000  0.22760000  1.0
  H  H8  1  0.30465000  0.87786000  0.26935000  1.0
  H  H9  1  0.40758000  0.93249000  0.32306000  1.0
  H  H10  1  0.33565000  0.84634000  0.36714000  1.0
  H  H11  1  0.53517000  0.24305000  0.78620000  1.0
  H  H12  1  0.67025000  0.28462000  0.80976000  1.0
  H  H13  1  0.45660000  0.38825000  0.25807000  1.0
  H  H14  1  0.60891000  0.23159000  0.64415000  1.0
  H  H15  1  0.74453000  0.25511000  0.67835000  1.0
  H  H16  1  0.73585000  0.12557000  0.76952000  1.0
  H  H17  1  0.72181000  0.09975000  0.66952000  1.0
  H  H18  1  0.60056000  0.10281000  0.73132000  1.0
  H  H19  1  0.84363000  0.70369000  0.45448000  1.0
  H  H20  1  0.80353000  0.80635000  0.48375000  1.0
  H  H21  1  0.77197000  0.73639000  0.31870000  1.0
  H  H22  1  0.74483000  0.84090000  0.34530000  1.0
  H  H23  1  0.95337000  0.85912000  0.37716000  1.0
  H  H24  1  0.65911000  0.13282000  0.40141000  1.0
  H  H25  1  0.93448000  0.82994000  0.27839000  1.0
  H  H26  1  0.97953000  0.75421000  0.34900000  1.0
  H  H27  1  0.38789000  0.24942000  0.68086000  1.0
  H  H28  1  0.27047000  0.19367000  0.64148000  1.0
  H  H29  1  0.27330000  0.38327000  0.66216000  1.0
  H  H30  1  0.15472000  0.32233000  0.63816000  1.0
  H  H31  1  0.16987000  0.24867000  0.77381000  1.0
  H  H32  1  0.14429000  0.35793000  0.77966000  1.0
  H  H33  1  0.28228000  0.31781000  0.79579000  1.0
  H  H34  1  0.65866000  0.89435000  0.46699000  1.0
  H  H35  1  0.32393000  0.87541000  0.56766000  1.0
  H  H36  1  0.39482000  0.11183000  0.57638000  1.0
  H  H37  1  0.62218000  0.28990000  0.39694000  1.0
  H  H38  1  0.34033000  0.71699000  0.55558000  1.0
  H  H39  1  0.35642000  0.58152000  0.89130000  1.0
  H  H40  1  0.42419000  0.38276000  0.11291000  1.0
  H  H41  1  0.46929000  0.64964000  0.09785000  1.0
  C  C42  1  0.50121000  0.51651000  0.34621000  1.0
  C  C43  1  0.49107000  0.89423000  0.51815000  1.0
  C  C44  1  0.59426000  0.16180000  0.43770000  1.0
  C  C45  1  0.39973000  0.84547000  0.54444000  1.0
  C  C46  1  0.57347000  0.24744000  0.43460000  1.0
  C  C47  1  0.40851000  0.75915000  0.53805000  1.0
  C  C48  1  0.71811000  0.47953000  0.50593000  1.0
  C  C49  1  0.28066000  0.51102000  0.49417000  1.0
  C  C50  1  0.84027000  0.48077000  0.50953000  1.0
  C  C51  1  0.15893000  0.50717000  0.50133000  1.0
  C  C52  1  0.94317000  0.48868000  0.50903000  1.0
  C  C53  1  0.48547000  0.49506000  0.64680000  1.0
  C  C54  1  0.05639000  0.49799000  0.50612000  1.0
  C  C55  1  0.48202000  0.52066000  0.25948000  1.0
  C  C56  1  0.47333000  0.48188000  0.73356000  1.0
  C  C57  1  0.45900000  0.44494000  0.22160000  1.0
  C  C58  1  0.41463000  0.54223000  0.77683000  1.0
  C  C59  1  0.44084000  0.44158000  0.14168000  1.0
  C  C60  1  0.40078000  0.53430000  0.85742000  1.0
  C  C61  1  0.44543000  0.51626000  0.09681000  1.0
  C  C62  1  0.44846000  0.46447000  0.89621000  1.0
  C  C63  1  0.46484000  0.59240000  0.13355000  1.0
  C  C64  1  0.48467000  0.59534000  0.21398000  1.0
  C  C65  1  0.50359000  0.40132000  0.85397000  1.0
  C  C66  1  0.42033000  0.72403000  0.26712000  1.0
  C  C67  1  0.46551000  0.81096000  0.28211000  1.0
  C  C68  1  0.37328000  0.87012000  0.31203000  1.0
  C  C69  1  0.61014000  0.27555000  0.76149000  1.0
  C  C70  1  0.66398000  0.22576000  0.69561000  1.0
  C  C71  1  0.68158000  0.13360000  0.71789000  1.0
  C  C72  1  0.78620000  0.75653000  0.44173000  1.0
  C  C73  1  0.80024000  0.78649000  0.35714000  1.0
  C  C74  1  0.92362000  0.80874000  0.33951000  1.0
  C  C75  1  0.51759000  0.41011000  0.77274000  1.0
  C  C76  1  0.31245000  0.25505000  0.64355000  1.0
  C  C77  1  0.23256000  0.32253000  0.67303000  1.0
  C  C78  1  0.20584000  0.31071000  0.76029000  1.0
  C  C79  1  0.42942000  0.23654000  0.52853000  1.0
  C  C80  1  0.59066000  0.76870000  0.48492000  1.0
  C  C81  1  0.44593000  0.15006000  0.53662000  1.0
  C  C82  1  0.58878000  0.85618000  0.48841000  1.0
  C  C83  1  0.52829000  0.11276000  0.48918000  1.0
  N  N84  1  0.43694000  0.52245000  0.01456000  1.0
  N  N85  1  0.45111000  0.45429000  0.97874000  1.0
  N  N86  1  0.49339000  0.28376000  0.47901000  1.0
  N  N87  1  0.50154000  0.72176000  0.50905000  1.0
  N  N88  1  0.54916000  0.02510000  0.48748000  1.0
  N  N89  1  0.47389000  0.98210000  0.52189000  1.0
  O  O90  1  0.48544000  0.58267000  0.38534000  1.0
  O  O91  1  0.57601000  0.35457000  0.72804000  1.0
  O  O92  1  0.67552000  0.72190000  0.45754000  1.0
  O  O93  1  0.34981000  0.28087000  0.56579000  1.0
  O  O94  1  0.46793000  0.43195000  0.60435000  1.0
  O  O95  1  0.52971000  0.44508000  0.37478000  1.0
  O  O96  1  0.50862000  0.56881000  0.62260000  1.0
  O  O97  1  0.67233000  0.55152000  0.49894000  1.0
  O  O98  1  0.32770000  0.44549000  0.46756000  1.0
  O  O99  1  0.66956000  0.40885000  0.50893000  1.0
  O  O100  1  0.32830000  0.57811000  0.51508000  1.0
  O  O101  1  0.51426000  0.67140000  0.24433000  1.0
