# generated using pymatgen
data_ZnH6C16Br2NO4
_symmetry_space_group_name_H-M   'P 1'
_cell_length_a   13.99470000
_cell_length_b   14.44280000
_cell_length_c   15.34340000
_cell_angle_alpha   90.24840000
_cell_angle_beta   90.00230000
_cell_angle_gamma   89.99940000
_symmetry_Int_Tables_number   1
_chemical_formula_structural   ZnH6C16Br2NO4
_chemical_formula_sum   'Zn2 H12 C32 Br4 N2 O8'
_cell_volume   3101.21956885
_cell_formula_units_Z   2
loop_
 _symmetry_equiv_pos_site_id
 _symmetry_equiv_pos_as_xyz
  1  'x, y, z'
loop_
 _atom_site_type_symbol
 _atom_site_label
 _atom_site_symmetry_multiplicity
 _atom_site_fract_x
 _atom_site_fract_y
 _atom_site_fract_z
 _atom_site_occupancy
  Zn  Zn0  1  0.60163000  0.50000000  0.50000000  1.0
  Zn  Zn1  1  0.39813000  0.50000000  0.50000000  1.0
  H  H2  1  0.06821000  0.37428000  0.42270000  1.0
  H  H3  1  0.93176000  0.55300000  0.63212000  1.0
  H  H4  1  0.06821000  0.62573000  0.57729000  1.0
  H  H5  1  0.93175000  0.44700000  0.36787000  1.0
  H  H6  1  0.24708000  0.37982000  0.42612000  1.0
  H  H7  1  0.75275000  0.55046000  0.62629000  1.0
  H  H8  1  0.24708000  0.62019000  0.57388000  1.0
  H  H9  1  0.75274000  0.44954000  0.37370000  1.0
  H  H10  1  0.55624000  0.63902000  0.06049000  1.0
  H  H11  1  0.44301000  0.63933000  0.94067000  1.0
  H  H12  1  0.55622000  0.36095000  0.93951000  1.0
  H  H13  1  0.44296000  0.36066000  0.05934000  1.0
  C  C14  1  0.50297000  0.49869000  0.33120000  1.0
  C  C15  1  0.50299000  0.50130000  0.66880000  1.0
  C  C16  1  0.49635000  0.32055000  0.49954000  1.0
  C  C17  1  0.49636000  0.67945000  0.50046000  1.0
  C  C18  1  0.10457000  0.43073000  0.45635000  1.0
  C  C19  1  0.89538000  0.53026000  0.57302000  1.0
  C  C20  1  0.10458000  0.56928000  0.54364000  1.0
  C  C21  1  0.89537000  0.46974000  0.42697000  1.0
  C  C22  1  0.20379000  0.43282000  0.45807000  1.0
  C  C23  1  0.79617000  0.52892000  0.57075000  1.0
  C  C24  1  0.20379000  0.56719000  0.54193000  1.0
  C  C25  1  0.79616000  0.47108000  0.42924000  1.0
  C  C26  1  0.49736000  0.22059000  0.49968000  1.0
  C  C27  1  0.49737000  0.77941000  0.50032000  1.0
  C  C28  1  0.49845000  0.13559000  0.49981000  1.0
  C  C29  1  0.49846000  0.86441000  0.50018000  1.0
  C  C30  1  0.49909000  0.04274000  0.49995000  1.0
  C  C31  1  0.49910000  0.95726000  0.50004000  1.0
  C  C32  1  0.05276000  0.50001000  0.49999000  1.0
  C  C33  1  0.94724000  0.50000000  0.50000000  1.0
  C  C34  1  0.53086000  0.57799000  0.09492000  1.0
  C  C35  1  0.46919000  0.57859000  0.90579000  1.0
  C  C36  1  0.53085000  0.42199000  0.90509000  1.0
  C  C37  1  0.46915000  0.42140000  0.09422000  1.0
  C  C38  1  0.53212000  0.57651000  0.18563000  1.0
  C  C39  1  0.47040000  0.57789000  0.81507000  1.0
  C  C40  1  0.53212000  0.42347000  0.81438000  1.0
  C  C41  1  0.47034000  0.42212000  0.18494000  1.0
  C  C42  1  0.50192000  0.49901000  0.23289000  1.0
  C  C43  1  0.50194000  0.50098000  0.76711000  1.0
  C  C44  1  0.49956000  0.49989000  0.04824000  1.0
  C  C45  1  0.49956000  0.50009000  0.95176000  1.0
  Br  Br46  1  0.57661000  0.68327000  0.24650000  1.0
  Br  Br47  1  0.42811000  0.68567000  0.75502000  1.0
  Br  Br48  1  0.57659000  0.31671000  0.75350000  1.0
  Br  Br49  1  0.42793000  0.31439000  0.24499000  1.0
  N  N50  1  0.25234000  0.50000000  0.50000000  1.0
  N  N51  1  0.74755000  0.50000000  0.50000000  1.0
  O  O52  1  0.58232000  0.48032000  0.36722000  1.0
  O  O53  1  0.42444000  0.48303000  0.63159000  1.0
  O  O54  1  0.58234000  0.51967000  0.63278000  1.0
  O  O55  1  0.42443000  0.51698000  0.36842000  1.0
  O  O56  1  0.57543000  0.36033000  0.51616000  1.0
  O  O57  1  0.41649000  0.64109000  0.51713000  1.0
  O  O58  1  0.57543000  0.63966000  0.48384000  1.0
  O  O59  1  0.41648000  0.35892000  0.48287000  1.0
