# generated using pymatgen
data_SrH6C4O7
_symmetry_space_group_name_H-M   'P 1'
_cell_length_a   6.61758000
_cell_length_b   7.10249000
_cell_length_c   7.87409000
_cell_angle_alpha   89.99980000
_cell_angle_beta   81.72230000
_cell_angle_gamma   89.99990000
_symmetry_Int_Tables_number   1
_chemical_formula_structural   SrH6C4O7
_chemical_formula_sum   'Sr2 H12 C8 O14'
_cell_volume   366.23677261
_cell_formula_units_Z   2
loop_
 _symmetry_equiv_pos_site_id
 _symmetry_equiv_pos_as_xyz
  1  'x, y, z'
loop_
 _atom_site_type_symbol
 _atom_site_label
 _atom_site_symmetry_multiplicity
 _atom_site_fract_x
 _atom_site_fract_y
 _atom_site_fract_z
 _atom_site_occupancy
  Sr  Sr0  1  0.89931000  0.75108000  0.10869000  1.0
  Sr  Sr1  1  0.10069000  0.25108000  0.89131000  1.0
  H  H2  1  0.56232000  0.23008000  0.40505000  1.0
  H  H3  1  0.43768000  0.73008000  0.59495000  1.0
  H  H4  1  0.77873000  0.00923000  0.53345000  1.0
  H  H5  1  0.22127000  0.50923000  0.46654000  1.0
  H  H6  1  0.62620000  0.54654000  0.40909000  1.0
  H  H7  1  0.37380000  0.04654000  0.59091000  1.0
  H  H8  1  0.08803000  0.10165000  0.54088000  1.0
  H  H9  1  0.91197000  0.60165000  0.45912000  1.0
  H  H10  1  0.49796000  0.71958000  0.96283000  1.0
  H  H11  1  0.50204000  0.21958000  0.03717000  1.0
  H  H12  1  0.63961000  0.58783000  0.83526000  1.0
  H  H13  1  0.36039000  0.08783000  0.16474000  1.0
  C  C14  1  0.84999000  0.25676000  0.24967000  1.0
  C  C15  1  0.15001000  0.75677000  0.75033000  1.0
  C  C16  1  0.71545000  0.27955000  0.42433000  1.0
  C  C17  1  0.28455000  0.77955000  0.57567000  1.0
  C  C18  1  0.78963000  0.15970000  0.56495000  1.0
  C  C19  1  0.21037000  0.65971000  0.43505000  1.0
  C  C20  1  0.64343000  0.19882000  0.73171000  1.0
  C  C21  1  0.35656000  0.69882000  0.26829000  1.0
  O  O22  1  0.88135000  0.09126000  0.19010000  1.0
  O  O23  1  0.11865000  0.59126000  0.80990000  1.0
  O  O24  1  0.91825000  0.40347000  0.16890000  1.0
  O  O25  1  0.08176000  0.90347000  0.83110000  1.0
  O  O26  1  0.70395000  0.46846000  0.48609000  1.0
  O  O27  1  0.29605000  0.96846000  0.51391000  1.0
  O  O28  1  0.99404000  0.20811000  0.58290000  1.0
  O  O29  1  0.00596000  0.70811000  0.41710000  1.0
  O  O30  1  0.45354000  0.17693000  0.72488000  1.0
  O  O31  1  0.54646000  0.67693000  0.27512000  1.0
  O  O32  1  0.71360000  0.25376000  0.86460000  1.0
  O  O33  1  0.28639000  0.75376000  0.13540000  1.0
  O  O34  1  0.63219000  0.71248000  0.88787000  1.0
  O  O35  1  0.36781000  0.21248000  0.11213000  1.0
