# generated using pymatgen
data_Hf3H8C63Br30N3O16
_symmetry_space_group_name_H-M   'P 1'
_cell_length_a   17.95450000
_cell_length_b   18.10590000
_cell_length_c   18.30130000
_cell_angle_alpha   92.26320000
_cell_angle_beta   90.49240000
_cell_angle_gamma   91.14350000
_symmetry_Int_Tables_number   1
_chemical_formula_structural   Hf3H8C63Br30N3O16
_chemical_formula_sum   'Hf6 H16 C126 Br60 N6 O32'
_cell_volume   5943.34341260
_cell_formula_units_Z   2
loop_
 _symmetry_equiv_pos_site_id
 _symmetry_equiv_pos_as_xyz
  1  'x, y, z'
loop_
 _atom_site_type_symbol
 _atom_site_label
 _atom_site_symmetry_multiplicity
 _atom_site_fract_x
 _atom_site_fract_y
 _atom_site_fract_z
 _atom_site_occupancy
  Hf  Hf0  1  0.02423000  0.19351000  0.13546000  1.0
  Hf  Hf1  1  0.15794000  0.23743000  0.00418000  1.0
  Hf  Hf2  1  0.99882000  0.01193000  0.07223000  1.0
  Hf  Hf3  1  0.17781000  0.08038000  0.11981000  1.0
  Hf  Hf4  1  0.97582000  0.16514000  0.95706000  1.0
  Hf  Hf5  1  0.13205000  0.05218000  0.93735000  1.0
  H  H6  1  0.79904000  0.86664000  0.46973000  1.0
  H  H7  1  0.79499000  0.88886000  0.61606000  1.0
  H  H8  1  0.36701000  0.30767000  0.65491000  1.0
  H  H9  1  0.34468000  0.30974000  0.50964000  1.0
  H  H10  1  0.51005000  0.82702000  0.78300000  1.0
  H  H11  1  0.65858000  0.81106000  0.79284000  1.0
  H  H12  1  0.69643000  0.43831000  0.23976000  1.0
  H  H13  1  0.54843000  0.42191000  0.25396000  1.0
  H  H14  1  0.90251000  0.53777000  0.76872000  1.0
  H  H15  1  0.91463000  0.68491000  0.76487000  1.0
  H  H16  1  0.27376000  0.75956000  0.29917000  1.0
  H  H17  1  0.28790000  0.61645000  0.25821000  1.0
  H  H18  1  0.17855000  0.22913000  0.16338000  1.0
  H  H19  1  0.88828000  0.12629000  0.07646000  1.0
  H  H20  1  0.13329000  0.93902000  0.04345000  1.0
  H  H21  1  0.09945000  0.17482000  0.86099000  1.0
  C  C22  1  0.75483000  0.97809000  0.46571000  1.0
  C  C23  1  0.77610000  0.91429000  0.49847000  1.0
  C  C24  1  0.77283000  0.92514000  0.57574000  1.0
  C  C25  1  0.74951000  0.99609000  0.59022000  1.0
  C  C26  1  0.43309000  0.20907000  0.62961000  1.0
  C  C27  1  0.39293000  0.27184000  0.61405000  1.0
  C  C28  1  0.38136000  0.27344000  0.53823000  1.0
  C  C29  1  0.41392000  0.21174000  0.50650000  1.0
  C  C30  1  0.50810000  0.79119000  0.89569000  1.0
  C  C31  1  0.53967000  0.80500000  0.82886000  1.0
  C  C32  1  0.61802000  0.79544000  0.83334000  1.0
  C  C33  1  0.63459000  0.77601000  0.90356000  1.0
  C  C34  1  0.66950000  0.48841000  0.13556000  1.0
  C  C35  1  0.65458000  0.45984000  0.20372000  1.0
  C  C36  1  0.57703000  0.45127000  0.21149000  1.0
  C  C37  1  0.54366000  0.47452000  0.14856000  1.0
  C  C38  1  0.99638000  0.53654000  0.69231000  1.0
  C  C39  1  0.93951000  0.56811000  0.73377000  1.0
  C  C40  1  0.94537000  0.64511000  0.73176000  1.0
  C  C41  1  0.00718000  0.66243000  0.69090000  1.0
  C  C42  1  0.18210000  0.71981000  0.36745000  1.0
  C  C43  1  0.24385000  0.71334000  0.32192000  1.0
  C  C44  1  0.25157000  0.63869000  0.30043000  1.0
  C  C45  1  0.19482000  0.59898000  0.33215000  1.0
  C  C46  1  0.91788000  0.08327000  0.21486000  1.0
  C  C47  1  0.10507000  0.34168000  0.15393000  1.0
  C  C48  1  0.25196000  0.12291000  0.24089000  1.0
  C  C49  1  0.89628000  0.28577000  0.07071000  1.0
  C  C50  1  0.25635000  0.15999000  0.87377000  1.0
  C  C51  1  0.04236000  0.94596000  0.82317000  1.0
  C  C52  1  0.27507000  0.32387000  0.03829000  1.0
  C  C53  1  0.04490000  0.30451000  0.88160000  1.0
  C  C54  1  0.90504000  0.91055000  0.02095000  1.0
  C  C55  1  0.10407000  0.94428000  0.19704000  1.0
  C  C56  1  0.26943000  0.97447000  0.00990000  1.0
  C  C57  1  0.88621000  0.11863000  0.85378000  1.0
  C  C58  1  0.19270000  0.85353000  0.36136000  1.0
  C  C59  1  0.14454000  0.79081000  0.36757000  1.0
  C  C60  1  0.07058000  0.80063000  0.34216000  1.0
  C  C61  1  0.05568000  0.85321000  0.29004000  1.0
  C  C62  1  0.11438000  0.89844000  0.26246000  1.0
  C  C63  1  0.18338000  0.89910000  0.30215000  1.0
  C  C64  1  0.17085000  0.39928000  0.26453000  1.0
  C  C65  1  0.12678000  0.40809000  0.20189000  1.0
  C  C66  1  0.10282000  0.47861000  0.18448000  1.0
  C  C67  1  0.12159000  0.53949000  0.23089000  1.0
  C  C68  1  0.16526000  0.53080000  0.29479000  1.0
  C  C69  1  0.18956000  0.46031000  0.31098000  1.0
  C  C70  1  0.07755000  0.74491000  0.77710000  1.0
  C  C71  1  0.04400000  0.73534000  0.70699000  1.0
  C  C72  1  0.02887000  0.79904000  0.66846000  1.0
  C  C73  1  0.03536000  0.86950000  0.70306000  1.0
  C  C74  1  0.06028000  0.87759000  0.77596000  1.0
  C  C75  1  0.08763000  0.81547000  0.81007000  1.0
  C  C76  1  0.96251000  0.36875000  0.78983000  1.0
  C  C77  1  0.03475000  0.35235000  0.81673000  1.0
  C  C78  1  0.09560000  0.37878000  0.77555000  1.0
  C  C79  1  0.08571000  0.43182000  0.72252000  1.0
  C  C80  1  0.01427000  0.45976000  0.70705000  1.0
  C  C81  1  0.95399000  0.41386000  0.73009000  1.0
  C  C82  1  0.03102000  0.57436000  0.52790000  1.0
  C  C83  1  0.07157000  0.59782000  0.59156000  1.0
  C  C84  1  0.14263000  0.63018000  0.58170000  1.0
  C  C85  1  0.17004000  0.64156000  0.51115000  1.0
  C  C86  1  0.12602000  0.62543000  0.44773000  1.0
  C  C87  1  0.05849000  0.58621000  0.45723000  1.0
  C  C88  1  0.80445000  0.46322000  0.14791000  1.0
  C  C89  1  0.74073000  0.46793000  0.10165000  1.0
  C  C90  1  0.74448000  0.42563000  0.03489000  1.0
  C  C91  1  0.78883000  0.36290000  0.02995000  1.0
  C  C92  1  0.84532000  0.35021000  0.08205000  1.0
  C  C93  1  0.85333000  0.40396000  0.14100000  1.0
  C  C94  1  0.41200000  0.32953000  0.06704000  1.0
  C  C95  1  0.34387000  0.36661000  0.06304000  1.0
  C  C96  1  0.34165000  0.44226000  0.08444000  1.0
  C  C97  1  0.40557000  0.47829000  0.11451000  1.0
  C  C98  1  0.47338000  0.44193000  0.11841000  1.0
  C  C99  1  0.47645000  0.36736000  0.09230000  1.0
  C  C100  1  0.84089000  0.79608000  0.95657000  1.0
  C  C101  1  0.83932000  0.85991000  0.00333000  1.0
  C  C102  1  0.76941000  0.88518000  0.02674000  1.0
  C  C103  1  0.70435000  0.85944000  0.99103000  1.0
  C  C104  1  0.70442000  0.79550000  0.94383000  1.0
  C  C105  1  0.77364000  0.76219000  0.93090000  1.0
  C  C106  1  0.33073000  0.84814000  0.00002000  1.0
  C  C107  1  0.33352000  0.92440000  0.99230000  1.0
  C  C108  1  0.39275000  0.95547000  0.95441000  1.0
  C  C109  1  0.44398000  0.91122000  0.91716000  1.0
  C  C110  1  0.44388000  0.83270000  0.92584000  1.0
  C  C111  1  0.38568000  0.80308000  0.96816000  1.0
  C  C112  1  0.55091000  0.62952000  0.95021000  1.0
  C  C113  1  0.56430000  0.70014000  0.98416000  1.0
  C  C114  1  0.57958000  0.70260000  0.05979000  1.0
  C  C115  1  0.59456000  0.63752000  0.09643000  1.0
  C  C116  1  0.58423000  0.56678000  0.06142000  1.0
  C  C117  1  0.55317000  0.56462000  0.99026000  1.0
  C  C118  1  0.39526000  0.11132000  0.72089000  1.0
  C  C119  1  0.42476000  0.18174000  0.70382000  1.0
  C  C120  1  0.42170000  0.23547000  0.76239000  1.0
  C  C121  1  0.36831000  0.22980000  0.81750000  1.0
  C  C122  1  0.32281000  0.16469000  0.82363000  1.0
  C  C123  1  0.34378000  0.10293000  0.77754000  1.0
  C  C124  1  0.41239000  0.19075000  0.36819000  1.0
  C  C125  1  0.38300000  0.17871000  0.43728000  1.0
  C  C126  1  0.31205000  0.14387000  0.44154000  1.0
  C  C127  1  0.27051000  0.12466000  0.37825000  1.0
  C  C128  1  0.29888000  0.13993000  0.30815000  1.0
  C  C129  1  0.37122000  0.17257000  0.30399000  1.0
  C  C130  1  0.86777000  0.11792000  0.71869000  1.0
  C  C131  1  0.83912000  0.10001000  0.78756000  1.0
  C  C132  1  0.77210000  0.05821000  0.79021000  1.0
  C  C133  1  0.73724000  0.03207000  0.72473000  1.0
  C  C134  1  0.77094000  0.04085000  0.65662000  1.0
  C  C135  1  0.83715000  0.08456000  0.65473000  1.0
  C  C136  1  0.79420000  0.07079000  0.28318000  1.0
  C  C137  1  0.87130000  0.06437000  0.27988000  1.0
  C  C138  1  0.90855000  0.03122000  0.33679000  1.0
  C  C139  1  0.86967000  0.99690000  0.39226000  1.0
  C  C140  1  0.79038000  0.00426000  0.39825000  1.0
  C  C141  1  0.75452000  0.04215000  0.34208000  1.0
  C  C142  1  0.52303000  0.06247000  0.51890000  1.0
  C  C143  1  0.51904000  0.13621000  0.54588000  1.0
  C  C144  1  0.58718000  0.17664000  0.55320000  1.0
  C  C145  1  0.65615000  0.14296000  0.53960000  1.0
  C  C146  1  0.66028000  0.06623000  0.52487000  1.0
  C  C147  1  0.59189000  0.02657000  0.51549000  1.0
  Br  Br148  1  0.27316000  0.94682000  0.27311000  1.0
  Br  Br149  1  0.27378000  0.86547000  0.42855000  1.0
  Br  Br150  1  0.95618000  0.85630000  0.25508000  1.0
  Br  Br151  1  0.99494000  0.73684000  0.37505000  1.0
  Br  Br152  1  0.24878000  0.45109000  0.39621000  1.0
  Br  Br153  1  0.20929000  0.30514000  0.28421000  1.0
  Br  Br154  1  0.09010000  0.63459000  0.20653000  1.0
  Br  Br155  1  0.04827000  0.49099000  0.09692000  1.0
  Br  Br156  1  0.13221000  0.82580000  0.90448000  1.0
  Br  Br157  1  0.10156000  0.66050000  0.83042000  1.0
  Br  Br158  1  0.00536000  0.95484000  0.65454000  1.0
  Br  Br159  1  0.99433000  0.78553000  0.57028000  1.0
  Br  Br160  1  0.86032000  0.41521000  0.68000000  1.0
  Br  Br161  1  0.87370000  0.34105000  0.83832000  1.0
  Br  Br162  1  0.16853000  0.46888000  0.67162000  1.0
  Br  Br163  1  0.19267000  0.34367000  0.79188000  1.0
  Br  Br164  1  0.00315000  0.54890000  0.37486000  1.0
  Br  Br165  1  0.93490000  0.53180000  0.53714000  1.0
  Br  Br166  1  0.27075000  0.67135000  0.50108000  1.0
  Br  Br167  1  0.20297000  0.65776000  0.66363000  1.0
  Br  Br168  1  0.92365000  0.39561000  0.21785000  1.0
  Br  Br169  1  0.82033000  0.54058000  0.22041000  1.0
  Br  Br170  1  0.75593000  0.28715000  0.96128000  1.0
  Br  Br171  1  0.68756000  0.45128000  0.95382000  1.0
  Br  Br172  1  0.56915000  0.31922000  0.08748000  1.0
  Br  Br173  1  0.41968000  0.22892000  0.03583000  1.0
  Br  Br174  1  0.40432000  0.57851000  0.14866000  1.0
  Br  Br175  1  0.25364000  0.49630000  0.07343000  1.0
  Br  Br176  1  0.77347000  0.67184000  0.87468000  1.0
  Br  Br177  1  0.93329000  0.75705000  0.92731000  1.0
  Br  Br178  1  0.62236000  0.92350000  0.99471000  1.0
  Br  Br179  1  0.76130000  0.95378000  0.10688000  1.0
  Br  Br180  1  0.37836000  0.69972000  0.97856000  1.0
  Br  Br181  1  0.25014000  0.80820000  0.05380000  1.0
  Br  Br182  1  0.50908000  0.96306000  0.85495000  1.0
  Br  Br183  1  0.40027000  0.06024000  0.95697000  1.0
  Br  Br184  1  0.50899000  0.47676000  0.94804000  1.0
  Br  Br185  1  0.53033000  0.62011000  0.84894000  1.0
  Br  Br186  1  0.62277000  0.64551000  0.19609000  1.0
  Br  Br187  1  0.57323000  0.79319000  0.11347000  1.0
  Br  Br188  1  0.30360000  0.00591000  0.78587000  1.0
  Br  Br189  1  0.42405000  0.02907000  0.66260000  1.0
  Br  Br190  1  0.35637000  0.31659000  0.87690000  1.0
  Br  Br191  1  0.49102000  0.31649000  0.76205000  1.0
  Br  Br192  1  0.41296000  0.19806000  0.21385000  1.0
  Br  Br193  1  0.50928000  0.23419000  0.36548000  1.0
  Br  Br194  1  0.17714000  0.07744000  0.39276000  1.0
  Br  Br195  1  0.27290000  0.12452000  0.53497000  1.0
  Br  Br196  1  0.89336000  0.08882000  0.56812000  1.0
  Br  Br197  1  0.94673000  0.18793000  0.70989000  1.0
  Br  Br198  1  0.64426000  0.98025000  0.72465000  1.0
  Br  Br199  1  0.73016000  0.03195000  0.88025000  1.0
  Br  Br200  1  0.64980000  0.05161000  0.34357000  1.0
  Br  Br201  1  0.74611000  0.12010000  0.20674000  1.0
  Br  Br202  1  0.93003000  0.94122000  0.45479000  1.0
  Br  Br203  1  0.01398000  0.04003000  0.33646000  1.0
  Br  Br204  1  0.59036000  0.92286000  0.50001000  1.0
  Br  Br205  1  0.43648000  0.01178000  0.48218000  1.0
  Br  Br206  1  0.74403000  0.20158000  0.53725000  1.0
  Br  Br207  1  0.58526000  0.27918000  0.57560000  1.0
  N  N208  1  0.73094000  0.02857000  0.52338000  1.0
  N  N209  1  0.44941000  0.17235000  0.56161000  1.0
  N  N210  1  0.56686000  0.76613000  0.94182000  1.0
  N  N211  1  0.59966000  0.50144000  0.10175000  1.0
  N  N212  1  0.03826000  0.59587000  0.66286000  1.0
  N  N213  1  0.15309000  0.64754000  0.37759000  1.0
  O  O214  1  0.92436000  0.03091000  0.16740000  1.0
  O  O215  1  0.12929000  0.33648000  0.09001000  1.0
  O  O216  1  0.18129000  0.12327000  0.24372000  1.0
  O  O217  1  0.92905000  0.26185000  0.12732000  1.0
  O  O218  1  0.90553000  0.25852000  0.00677000  1.0
  O  O219  1  0.28200000  0.10766000  0.17849000  1.0
  O  O220  1  0.06290000  0.29431000  0.18549000  1.0
  O  O221  1  0.94889000  0.14719000  0.21394000  1.0
  O  O222  1  0.04824000  0.21626000  0.03275000  1.0
  O  O223  1  0.06385000  0.08901000  0.13039000  1.0
  O  O224  1  0.15017000  0.19765000  0.12821000  1.0
  O  O225  1  0.94042000  0.12366000  0.06274000  1.0
  O  O226  1  0.24157000  0.21384000  0.91805000  1.0
  O  O227  1  0.97654000  0.95373000  0.83819000  1.0
  O  O228  1  0.26079000  0.26217000  0.06852000  1.0
  O  O229  1  0.99235000  0.25751000  0.89117000  1.0
  O  O230  1  0.89335000  0.98028000  0.01732000  1.0
  O  O231  1  0.15953000  0.98539000  0.17973000  1.0
  O  O232  1  0.22772000  0.98335000  0.95439000  1.0
  O  O233  1  0.95677000  0.11364000  0.84758000  1.0
  O  O234  1  0.26206000  0.00376000  0.07311000  1.0
  O  O235  1  0.86000000  0.14008000  0.91599000  1.0
  O  O236  1  0.23136000  0.34553000  0.98977000  1.0
  O  O237  1  0.04385000  0.94135000  0.16018000  1.0
  O  O238  1  0.96963000  0.89041000  0.04049000  1.0
  O  O239  1  0.10285000  0.31054000  0.92226000  1.0
  O  O240  1  0.21567000  0.10133000  0.86787000  1.0
  O  O241  1  0.09849000  0.98824000  0.84716000  1.0
  O  O242  1  0.02423000  0.06333000  0.97619000  1.0
  O  O243  1  0.17815000  0.12307000  0.01769000  1.0
  O  O244  1  0.11151000  0.98692000  0.03579000  1.0
  O  O245  1  0.09245000  0.16049000  0.91115000  1.0
