# generated using pymatgen
data_CdH15C17N6O5
_symmetry_space_group_name_H-M   'P 1'
_cell_length_a   10.33670000
_cell_length_b   14.43080000
_cell_length_c   16.68980000
_cell_angle_alpha   102.73600000
_cell_angle_beta   89.99800000
_cell_angle_gamma   110.99500000
_symmetry_Int_Tables_number   1
_chemical_formula_structural   CdH15C17N6O5
_chemical_formula_sum   'Cd4 H60 C68 N24 O20'
_cell_volume   2258.56381254
_cell_formula_units_Z   4
loop_
 _symmetry_equiv_pos_site_id
 _symmetry_equiv_pos_as_xyz
  1  'x, y, z'
loop_
 _atom_site_type_symbol
 _atom_site_label
 _atom_site_symmetry_multiplicity
 _atom_site_fract_x
 _atom_site_fract_y
 _atom_site_fract_z
 _atom_site_occupancy
  Cd  Cd0  1  0.93824000  0.42642000  0.82049000  1.0
  Cd  Cd1  1  0.51179000  0.57342000  0.67947000  1.0
  Cd  Cd2  1  0.06175000  0.57359000  0.17951000  1.0
  Cd  Cd3  1  0.48822000  0.42657000  0.32052000  1.0
  H  H4  1  0.20728000  0.43250000  0.85380000  1.0
  H  H5  1  0.77477000  0.56770000  0.64600000  1.0
  H  H6  1  0.79271000  0.56749000  0.14620000  1.0
  H  H7  1  0.22523000  0.43230000  0.35400000  1.0
  H  H8  1  0.15162000  0.45467000  0.94203000  1.0
  H  H9  1  0.69690000  0.54548000  0.55780000  1.0
  H  H10  1  0.84837000  0.54533000  0.05797000  1.0
  H  H11  1  0.30311000  0.45452000  0.44220000  1.0
  H  H12  1  0.61484000  0.07437000  0.15762000  1.0
  H  H13  1  0.54081000  0.92569000  0.34236000  1.0
  H  H14  1  0.38516000  0.92563000  0.84237000  1.0
  H  H15  1  0.45918000  0.07430000  0.65764000  1.0
  H  H16  1  0.67593000  0.93005000  0.18111000  1.0
  H  H17  1  0.74625000  0.07011000  0.31886000  1.0
  H  H18  1  0.32407000  0.06995000  0.81888000  1.0
  H  H19  1  0.25375000  0.92988000  0.68114000  1.0
  H  H20  1  0.51200000  0.75013000  0.12391000  1.0
  H  H21  1  0.76213000  0.25002000  0.37600000  1.0
  H  H22  1  0.48800000  0.24988000  0.87609000  1.0
  H  H23  1  0.23787000  0.74997000  0.62400000  1.0
  H  H24  1  0.29368000  0.71792000  0.04347000  1.0
  H  H25  1  0.57603000  0.28216000  0.45652000  1.0
  H  H26  1  0.70632000  0.28208000  0.95653000  1.0
  H  H27  1  0.42398000  0.71784000  0.54348000  1.0
  H  H28  1  0.10696000  0.84135000  0.04458000  1.0
  H  H29  1  0.26596000  0.15871000  0.45533000  1.0
  H  H30  1  0.89304000  0.15865000  0.95542000  1.0
  H  H31  1  0.73405000  0.84129000  0.54467000  1.0
  H  H32  1  0.19696000  0.91361000  0.97495000  1.0
  H  H33  1  0.28362000  0.08645000  0.52500000  1.0
  H  H34  1  0.80304000  0.08639000  0.02506000  1.0
  H  H35  1  0.71637000  0.91355000  0.47500000  1.0
  H  H36  1  0.48352000  0.12267000  0.05495000  1.0
  H  H37  1  0.36084000  0.87734000  0.44499000  1.0
  H  H38  1  0.51648000  0.87733000  0.94504000  1.0
  H  H39  1  0.63915000  0.12265000  0.55501000  1.0
  H  H40  1  0.30334000  0.05159000  0.03218000  1.0
  H  H41  1  0.25201000  0.94863000  0.46774000  1.0
  H  H42  1  0.69666000  0.94841000  0.96782000  1.0
  H  H43  1  0.74799000  0.05137000  0.53226000  1.0
  H  H44  1  0.20476000  0.62882000  0.77096000  1.0
  H  H45  1  0.57657000  0.37130000  0.72883000  1.0
  H  H46  1  0.79524000  0.37117000  0.22904000  1.0
  H  H47  1  0.42343000  0.62870000  0.27117000  1.0
  H  H48  1  0.98800000  0.64907000  0.98383000  1.0
  H  H49  1  0.33896000  0.35081000  0.51615000  1.0
  H  H50  1  0.01200000  0.35094000  0.01617000  1.0
  H  H51  1  0.66104000  0.64919000  0.48385000  1.0
  H  H52  1  0.17933000  0.17863000  0.29366000  1.0
  H  H53  1  0.00077000  0.82165000  0.20633000  1.0
  H  H54  1  0.82067000  0.82138000  0.70634000  1.0
  H  H55  1  0.99922000  0.17835000  0.79367000  1.0
  H  H56  1  0.56195000  0.25337000  0.18871000  1.0
  H  H57  1  0.30885000  0.74705000  0.31112000  1.0
  H  H58  1  0.43805000  0.74662000  0.81129000  1.0
  H  H59  1  0.69114000  0.25295000  0.68888000  1.0
  H  H60  1  0.78026000  0.41776000  0.55723000  1.0
  H  H61  1  0.36259000  0.58229000  0.94278000  1.0
  H  H62  1  0.21974000  0.58224000  0.44277000  1.0
  H  H63  1  0.63741000  0.41771000  0.05722000  1.0
  C  C64  1  0.32932000  0.87690000  0.05448000  1.0
  C  C65  1  0.45279000  0.12315000  0.44550000  1.0
  C  C66  1  0.67068000  0.12310000  0.94552000  1.0
  C  C67  1  0.54720000  0.87684000  0.55449000  1.0
  C  C68  1  0.41991000  0.97800000  0.08783000  1.0
  C  C69  1  0.44233000  0.02207000  0.41218000  1.0
  C  C70  1  0.58009000  0.02200000  0.91217000  1.0
  C  C71  1  0.55767000  0.97792000  0.58783000  1.0
  C  C72  1  0.54419000  0.99564000  0.13316000  1.0
  C  C73  1  0.54898000  0.00445000  0.36688000  1.0
  C  C74  1  0.45581000  0.00437000  0.86684000  1.0
  C  C75  1  0.45102000  0.99555000  0.63312000  1.0
  C  C76  1  0.57865000  0.91480000  0.14588000  1.0
  C  C77  1  0.66426000  0.08532000  0.35415000  1.0
  C  C78  1  0.42135000  0.08520000  0.85412000  1.0
  C  C79  1  0.33574000  0.91468000  0.64586000  1.0
  C  C80  1  0.48814000  0.81442000  0.11357000  1.0
  C  C81  1  0.67404000  0.18569000  0.38641000  1.0
  C  C82  1  0.51185000  0.18558000  0.88643000  1.0
  C  C83  1  0.32595000  0.81430000  0.61359000  1.0
  C  C84  1  0.36474000  0.79626000  0.06829000  1.0
  C  C85  1  0.56879000  0.20384000  0.43171000  1.0
  C  C86  1  0.63525000  0.20374000  0.93171000  1.0
  C  C87  1  0.43121000  0.79616000  0.56830000  1.0
  C  C88  1  0.19334000  0.85230000  0.00474000  1.0
  C  C89  1  0.34133000  0.14772000  0.49518000  1.0
  C  C90  1  0.80666000  0.14770000  0.99526000  1.0
  C  C91  1  0.65867000  0.85229000  0.50482000  1.0
  C  C92  1  0.39189000  0.07061000  0.07676000  1.0
  C  C93  1  0.32147000  0.92952000  0.42317000  1.0
  C  C94  1  0.60812000  0.92939000  0.92324000  1.0
  C  C95  1  0.67853000  0.07048000  0.57683000  1.0
  C  C96  1  0.17152000  0.65906000  0.82981000  1.0
  C  C97  1  0.51304000  0.34103000  0.67000000  1.0
  C  C98  1  0.82847000  0.34094000  0.17018000  1.0
  C  C99  1  0.48697000  0.65897000  0.33000000  1.0
  C  C100  1  0.05957000  0.66653000  0.93700000  1.0
  C  C101  1  0.39326000  0.33345000  0.56294000  1.0
  C  C102  1  0.94043000  0.33347000  0.06300000  1.0
  C  C103  1  0.60674000  0.66655000  0.43706000  1.0
  C  C104  1  0.26048000  0.17557000  0.25312000  1.0
  C  C105  1  0.08502000  0.82472000  0.24685000  1.0
  C  C106  1  0.73952000  0.82443000  0.74688000  1.0
  C  C107  1  0.91498000  0.17529000  0.75315000  1.0
  C  C108  1  0.45572000  0.21628000  0.20212000  1.0
  C  C109  1  0.23965000  0.78408000  0.29773000  1.0
  C  C110  1  0.54428000  0.78372000  0.79787000  1.0
  C  C111  1  0.76035000  0.21592000  0.70227000  1.0
  C  C112  1  0.12738000  0.52402000  0.54557000  1.0
  C  C113  1  0.60331000  0.47597000  0.95443000  1.0
  C  C114  1  0.87263000  0.47598000  0.45443000  1.0
  C  C115  1  0.39669000  0.52403000  0.04557000  1.0
  C  C116  1  0.00148000  0.47797000  0.57852000  1.0
  C  C117  1  0.52348000  0.52201000  0.92150000  1.0
  C  C118  1  0.99853000  0.52203000  0.42148000  1.0
  C  C119  1  0.47652000  0.47800000  0.07850000  1.0
  C  C120  1  0.87721000  0.45437000  0.53163000  1.0
  C  C121  1  0.42290000  0.54567000  0.96838000  1.0
  C  C122  1  0.12280000  0.54564000  0.46837000  1.0
  C  C123  1  0.57709000  0.45433000  0.03161000  1.0
  C  C124  1  0.26904000  0.55036000  0.58643000  1.0
  C  C125  1  0.71859000  0.44960000  0.91362000  1.0
  C  C126  1  0.73097000  0.44964000  0.41357000  1.0
  C  C127  1  0.28140000  0.55040000  0.08637000  1.0
  C  C128  1  0.98789000  0.45440000  0.66207000  1.0
  C  C129  1  0.53340000  0.54549000  0.83792000  1.0
  C  C130  1  0.01211000  0.54560000  0.33793000  1.0
  C  C131  1  0.46661000  0.45452000  0.16208000  1.0
  N  N132  1  0.15690000  0.75916000  0.93980000  1.0
  N  N133  1  0.39808000  0.24086000  0.56012000  1.0
  N  N134  1  0.84310000  0.24083000  0.06020000  1.0
  N  N135  1  0.60192000  0.75914000  0.43988000  1.0
  N  N136  1  0.23030000  0.75586000  0.87186000  1.0
  N  N137  1  0.47492000  0.24420000  0.62801000  1.0
  N  N138  1  0.76970000  0.24413000  0.12814000  1.0
  N  N139  1  0.52508000  0.75579000  0.37200000  1.0
  N  N140  1  0.06636000  0.60168000  0.86807000  1.0
  N  N141  1  0.46502000  0.39834000  0.63183000  1.0
  N  N142  1  0.93365000  0.39832000  0.13193000  1.0
  N  N143  1  0.53498000  0.60166000  0.36817000  1.0
  N  N144  1  0.36574000  0.12976000  0.15355000  1.0
  N  N145  1  0.23618000  0.87053000  0.34637000  1.0
  N  N146  1  0.63426000  0.87024000  0.84645000  1.0
  N  N147  1  0.76382000  0.12947000  0.65364000  1.0
  N  N148  1  0.23985000  0.10153000  0.18536000  1.0
  N  N149  1  0.13842000  0.89874000  0.31463000  1.0
  N  N150  1  0.76015000  0.89847000  0.81463000  1.0
  N  N151  1  0.86158000  0.10127000  0.68538000  1.0
  N  N152  1  0.39203000  0.24782000  0.26609000  1.0
  N  N153  1  0.14436000  0.75252000  0.23378000  1.0
  N  N154  1  0.60798000  0.75217000  0.73391000  1.0
  N  N155  1  0.85563000  0.24748000  0.76622000  1.0
  O  O156  1  0.35696000  0.52509000  0.54085000  1.0
  O  O157  1  0.83172000  0.47492000  0.95925000  1.0
  O  O158  1  0.64305000  0.47491000  0.45915000  1.0
  O  O159  1  0.16827000  0.52509000  0.04074000  1.0
  O  O160  1  0.30005000  0.59847000  0.66119000  1.0
  O  O161  1  0.70162000  0.40155000  0.83886000  1.0
  O  O162  1  0.69995000  0.40153000  0.33881000  1.0
  O  O163  1  0.29838000  0.59845000  0.16113000  1.0
  O  O164  1  0.88540000  0.46953000  0.69912000  1.0
  O  O165  1  0.41575000  0.53028000  0.80088000  1.0
  O  O166  1  0.11460000  0.53046000  0.30088000  1.0
  O  O167  1  0.58427000  0.46974000  0.19912000  1.0
  O  O168  1  0.07038000  0.42136000  0.69164000  1.0
  O  O169  1  0.64889000  0.57845000  0.80830000  1.0
  O  O170  1  0.92962000  0.57864000  0.30836000  1.0
  O  O171  1  0.35112000  0.42156000  0.19170000  1.0
  O  O172  1  0.12754000  0.40703000  0.88559000  1.0
  O  O173  1  0.72048000  0.59314000  0.61424000  1.0
  O  O174  1  0.87245000  0.59297000  0.11441000  1.0
  O  O175  1  0.27952000  0.40686000  0.38576000  1.0
