# generated using pymatgen
data_Gd2H28C36S6N6O17
_symmetry_space_group_name_H-M   'P 1'
_cell_length_a   12.74790000
_cell_length_b   12.74790000
_cell_length_c   34.15700000
_cell_angle_alpha   82.77900000
_cell_angle_beta   82.77930000
_cell_angle_gamma   63.05480000
_symmetry_Int_Tables_number   1
_chemical_formula_structural   Gd2H28C36S6N6O17
_chemical_formula_sum   'Gd8 H112 C144 S24 N24 O68'
_cell_volume   4894.12878562
_cell_formula_units_Z   4
loop_
 _symmetry_equiv_pos_site_id
 _symmetry_equiv_pos_as_xyz
  1  'x, y, z'
loop_
 _atom_site_type_symbol
 _atom_site_label
 _atom_site_symmetry_multiplicity
 _atom_site_fract_x
 _atom_site_fract_y
 _atom_site_fract_z
 _atom_site_occupancy
  Gd  Gd0  1  0.63368000  0.80154000  0.94373000  1.0
  Gd  Gd1  1  0.19847000  0.36632000  0.55627000  1.0
  Gd  Gd2  1  0.36632000  0.19847000  0.05627000  1.0
  Gd  Gd3  1  0.80153000  0.63368000  0.44373000  1.0
  Gd  Gd4  1  0.64320000  0.87738000  0.81455000  1.0
  Gd  Gd5  1  0.12263000  0.35679000  0.68545000  1.0
  Gd  Gd6  1  0.35679000  0.12262000  0.18545000  1.0
  Gd  Gd7  1  0.87738000  0.64321000  0.31454000  1.0
  H  H8  1  0.56556000  0.76211000  0.25992000  1.0
  H  H9  1  0.23789000  0.43444000  0.24008000  1.0
  H  H10  1  0.43444000  0.23789000  0.74008000  1.0
  H  H11  1  0.76212000  0.56557000  0.75992000  1.0
  H  H12  1  0.92007000  0.57277000  0.80656000  1.0
  H  H13  1  0.42723000  0.07993000  0.69344000  1.0
  H  H14  1  0.07993000  0.42723000  0.19344000  1.0
  H  H15  1  0.57276000  0.92008000  0.30656000  1.0
  H  H16  1  0.87660000  0.40621000  0.92072000  1.0
  H  H17  1  0.59381000  0.12339000  0.57928000  1.0
  H  H18  1  0.12340000  0.59380000  0.07928000  1.0
  H  H19  1  0.40621000  0.87659000  0.42072000  1.0
  H  H20  1  0.90063000  0.01402000  0.82076000  1.0
  H  H21  1  0.98600000  0.09935000  0.67924000  1.0
  H  H22  1  0.09935000  0.98600000  0.17924000  1.0
  H  H23  1  0.01401000  0.90064000  0.32076000  1.0
  H  H24  1  0.32929000  0.80196000  0.81494000  1.0
  H  H25  1  0.19804000  0.67071000  0.68506000  1.0
  H  H26  1  0.67071000  0.19804000  0.18506000  1.0
  H  H27  1  0.80194000  0.32931000  0.31494000  1.0
  H  H28  1  0.40029000  0.66797000  0.93571000  1.0
  H  H29  1  0.33202000  0.59970000  0.56429000  1.0
  H  H30  1  0.59971000  0.33201000  0.06429000  1.0
  H  H31  1  0.66798000  0.40029000  0.43571000  1.0
  H  H32  1  0.94450000  0.86717000  0.94132000  1.0
  H  H33  1  0.13282000  0.05550000  0.55868000  1.0
  H  H34  1  0.05550000  0.13283000  0.05868000  1.0
  H  H35  1  0.86718000  0.94450000  0.44132000  1.0
  H  H36  1  0.10318000  0.93263000  0.94214000  1.0
  H  H37  1  0.06736000  0.89681000  0.55786000  1.0
  H  H38  1  0.89682000  0.06736000  0.05786000  1.0
  H  H39  1  0.93264000  0.10318000  0.44215000  1.0
  H  H40  1  0.39506000  0.24562000  0.83311000  1.0
  H  H41  1  0.75437000  0.60494000  0.66689000  1.0
  H  H42  1  0.60492000  0.75438000  0.16689000  1.0
  H  H43  1  0.24562000  0.39508000  0.33311000  1.0
  H  H44  1  0.34980000  0.13672000  0.95586000  1.0
  H  H45  1  0.86327000  0.65022000  0.54414000  1.0
  H  H46  1  0.65021000  0.86327000  0.04414000  1.0
  H  H47  1  0.13673000  0.34979000  0.45586000  1.0
  H  H48  1  0.39456000  0.87301000  0.07024000  1.0
  H  H49  1  0.12699000  0.60544000  0.42975000  1.0
  H  H50  1  0.60543000  0.12701000  0.92976000  1.0
  H  H51  1  0.87302000  0.39456000  0.57025000  1.0
  H  H52  1  0.22834000  0.44600000  0.84620000  1.0
  H  H53  1  0.55400000  0.77165000  0.65380000  1.0
  H  H54  1  0.77164000  0.55400000  0.15380000  1.0
  H  H55  1  0.44600000  0.22836000  0.34620000  1.0
  H  H56  1  0.24002000  0.60171000  0.93845000  1.0
  H  H57  1  0.39829000  0.75997000  0.56155000  1.0
  H  H58  1  0.75998000  0.39828000  0.06155000  1.0
  H  H59  1  0.60172000  0.24002000  0.43845000  1.0
  H  H60  1  0.68711000  0.43351000  0.20738000  1.0
  H  H61  1  0.56648000  0.31288000  0.29262000  1.0
  H  H62  1  0.31288000  0.56649000  0.79262000  1.0
  H  H63  1  0.43352000  0.68711000  0.70738000  1.0
  H  H64  1  0.48583000  0.50971000  0.18226000  1.0
  H  H65  1  0.49028000  0.51416000  0.31775000  1.0
  H  H66  1  0.51416000  0.49029000  0.81774000  1.0
  H  H67  1  0.50972000  0.48584000  0.68226000  1.0
  H  H68  1  0.36185000  0.49940000  0.09095000  1.0
  H  H69  1  0.50060000  0.63815000  0.40905000  1.0
  H  H70  1  0.63816000  0.50060000  0.90905000  1.0
  H  H71  1  0.49941000  0.36185000  0.59095000  1.0
  H  H72  1  0.46050000  0.54207000  0.02769000  1.0
  H  H73  1  0.45792000  0.53950000  0.47231000  1.0
  H  H74  1  0.53951000  0.45794000  0.97231000  1.0
  H  H75  1  0.54208000  0.46050000  0.52769000  1.0
  H  H76  1  0.08773000  0.37620000  0.78885000  1.0
  H  H77  1  0.62379000  0.91228000  0.71115000  1.0
  H  H78  1  0.91228000  0.62380000  0.21115000  1.0
  H  H79  1  0.37619000  0.08774000  0.28885000  1.0
  H  H80  1  0.63751000  0.11216000  0.76727000  1.0
  H  H81  1  0.88785000  0.36250000  0.73273000  1.0
  H  H82  1  0.36249000  0.88784000  0.23273000  1.0
  H  H83  1  0.11216000  0.63750000  0.26727000  1.0
  H  H84  1  0.74810000  0.99163000  0.75221000  1.0
  H  H85  1  0.00838000  0.25190000  0.74779000  1.0
  H  H86  1  0.25190000  0.00837000  0.24779000  1.0
  H  H87  1  0.99163000  0.74810000  0.25221000  1.0
  H  H88  1  0.73288000  0.93987000  0.96330000  1.0
  H  H89  1  0.06013000  0.26712000  0.53670000  1.0
  H  H90  1  0.26712000  0.06013000  0.03670000  1.0
  H  H91  1  0.93987000  0.73288000  0.46330000  1.0
  H  H92  1  0.61122000  0.01829000  0.98680000  1.0
  H  H93  1  0.98171000  0.38878000  0.51320000  1.0
  H  H94  1  0.38879000  0.98171000  0.01320000  1.0
  H  H95  1  0.01829000  0.61121000  0.48680000  1.0
  H  H96  1  0.91290000  0.77925000  0.78593000  1.0
  H  H97  1  0.22076000  0.08708000  0.71407000  1.0
  H  H98  1  0.08710000  0.22075000  0.21407000  1.0
  H  H99  1  0.77923000  0.91292000  0.28593000  1.0
  H  H100  1  0.87408000  0.73103000  0.75300000  1.0
  H  H101  1  0.26898000  0.12592000  0.74700000  1.0
  H  H102  1  0.12593000  0.26897000  0.24700000  1.0
  H  H103  1  0.73102000  0.87408000  0.25300000  1.0
  H  H104  1  0.79673000  0.67842000  0.01291000  1.0
  H  H105  1  0.32158000  0.20326000  0.48709000  1.0
  H  H106  1  0.20326000  0.32158000  0.98709000  1.0
  H  H107  1  0.67842000  0.79674000  0.51291000  1.0
  H  H108  1  0.83626000  0.60515000  0.97400000  1.0
  H  H109  1  0.39485000  0.16374000  0.52601000  1.0
  H  H110  1  0.16373000  0.39485000  0.02601000  1.0
  H  H111  1  0.60515000  0.83627000  0.47399000  1.0
  H  H112  1  0.44532000  0.94973000  0.76382000  1.0
  H  H113  1  0.05027000  0.55466000  0.73618000  1.0
  H  H114  1  0.55467000  0.05027000  0.23618000  1.0
  H  H115  1  0.94973000  0.44532000  0.26382000  1.0
  H  H116  1  0.49840000  0.04176000  0.75579000  1.0
  H  H117  1  0.95824000  0.50159000  0.74421000  1.0
  H  H118  1  0.50160000  0.95824000  0.24421000  1.0
  H  H119  1  0.04176000  0.49840000  0.25579000  1.0
  C  C120  1  0.46796000  0.78288000  0.87337000  1.0
  C  C121  1  0.21712000  0.53204000  0.62663000  1.0
  C  C122  1  0.53205000  0.21711000  0.12663000  1.0
  C  C123  1  0.78288000  0.46796000  0.37337000  1.0
  C  C124  1  0.37579000  0.74010000  0.87527000  1.0
  C  C125  1  0.25990000  0.62421000  0.62473000  1.0
  C  C126  1  0.62422000  0.25990000  0.12473000  1.0
  C  C127  1  0.74010000  0.37579000  0.37527000  1.0
  C  C128  1  0.81744000  0.89764000  0.87748000  1.0
  C  C129  1  0.10236000  0.18255000  0.62253000  1.0
  C  C130  1  0.18255000  0.10236000  0.12253000  1.0
  C  C131  1  0.89764000  0.81744000  0.37748000  1.0
  C  C132  1  0.91002000  0.93652000  0.88074000  1.0
  C  C133  1  0.06350000  0.08997000  0.61926000  1.0
  C  C134  1  0.08998000  0.06349000  0.11926000  1.0
  C  C135  1  0.93651000  0.91002000  0.38074000  1.0
  C  C136  1  0.75976000  0.55611000  0.24962000  1.0
  C  C137  1  0.44389000  0.24024000  0.25038000  1.0
  C  C138  1  0.24025000  0.44388000  0.75038000  1.0
  C  C139  1  0.55612000  0.75976000  0.74962000  1.0
  C  C140  1  0.64076000  0.59293000  0.23554000  1.0
  C  C141  1  0.40706000  0.35924000  0.26446000  1.0
  C  C142  1  0.35925000  0.40706000  0.76446000  1.0
  C  C143  1  0.59294000  0.64077000  0.73554000  1.0
  C  C144  1  0.06382000  0.29040000  0.84590000  1.0
  C  C145  1  0.70961000  0.93618000  0.65410000  1.0
  C  C146  1  0.93618000  0.70961000  0.15410000  1.0
  C  C147  1  0.29039000  0.06382000  0.34590000  1.0
  C  C148  1  0.20503000  0.39336000  0.90814000  1.0
  C  C149  1  0.60664000  0.79497000  0.59186000  1.0
  C  C150  1  0.79496000  0.60664000  0.09187000  1.0
  C  C151  1  0.39337000  0.20503000  0.40813000  1.0
  C  C152  1  0.54991000  0.70443000  0.24287000  1.0
  C  C153  1  0.29557000  0.45010000  0.25713000  1.0
  C  C154  1  0.45010000  0.29557000  0.75713000  1.0
  C  C155  1  0.70444000  0.54991000  0.74287000  1.0
  C  C156  1  0.38611000  0.17738000  0.89365000  1.0
  C  C157  1  0.82262000  0.61390000  0.60635000  1.0
  C  C158  1  0.61389000  0.82262000  0.10635000  1.0
  C  C159  1  0.17738000  0.38611000  0.39365000  1.0
  C  C160  1  0.94513000  0.49429000  0.82714000  1.0
  C  C161  1  0.50572000  0.05487000  0.67286000  1.0
  C  C162  1  0.05487000  0.50572000  0.17286000  1.0
  C  C163  1  0.49427000  0.94514000  0.32714000  1.0
  C  C164  1  0.88539000  0.50347000  0.86485000  1.0
  C  C165  1  0.49654000  0.11460000  0.63515000  1.0
  C  C166  1  0.11461000  0.49654000  0.13515000  1.0
  C  C167  1  0.50346000  0.88539000  0.36485000  1.0
  C  C168  1  0.92098000  0.40186000  0.89104000  1.0
  C  C169  1  0.59815000  0.07902000  0.60896000  1.0
  C  C170  1  0.07902000  0.59815000  0.10896000  1.0
  C  C171  1  0.40186000  0.92098000  0.39104000  1.0
  C  C172  1  0.08233000  0.00787000  0.88119000  1.0
  C  C173  1  0.99212000  0.91767000  0.61881000  1.0
  C  C174  1  0.91767000  0.99213000  0.11881000  1.0
  C  C175  1  0.00788000  0.08232000  0.38119000  1.0
  C  C176  1  0.20083000  0.67227000  0.87783000  1.0
  C  C177  1  0.32773000  0.79916000  0.62217000  1.0
  C  C178  1  0.79917000  0.32773000  0.12217000  1.0
  C  C179  1  0.67226000  0.20084000  0.37783000  1.0
  C  C180  1  0.94402000  0.99539000  0.84810000  1.0
  C  C181  1  0.00462000  0.05597000  0.65190000  1.0
  C  C182  1  0.05597000  0.00462000  0.15190000  1.0
  C  C183  1  0.99538000  0.94403000  0.34810000  1.0
  C  C184  1  0.48403000  0.05743000  0.88785000  1.0
  C  C185  1  0.94258000  0.51596000  0.61215000  1.0
  C  C186  1  0.51596000  0.94258000  0.11215000  1.0
  C  C187  1  0.05742000  0.48404000  0.38785000  1.0
  C  C188  1  0.32918000  0.66538000  0.11373000  1.0
  C  C189  1  0.33462000  0.67083000  0.38627000  1.0
  C  C190  1  0.67082000  0.33463000  0.88627000  1.0
  C  C191  1  0.66539000  0.32917000  0.61373000  1.0
  C  C192  1  0.42117000  0.67627000  0.20842000  1.0
  C  C193  1  0.32373000  0.57882000  0.29158000  1.0
  C  C194  1  0.57882000  0.32373000  0.79158000  1.0
  C  C195  1  0.67628000  0.42118000  0.70842000  1.0
  C  C196  1  0.79003000  0.61823000  0.87709000  1.0
  C  C197  1  0.38178000  0.20996000  0.62290000  1.0
  C  C198  1  0.20997000  0.38177000  0.12291000  1.0
  C  C199  1  0.61823000  0.79003000  0.37709000  1.0
  C  C200  1  0.31087000  0.75843000  0.84273000  1.0
  C  C201  1  0.24157000  0.68913000  0.65726000  1.0
  C  C202  1  0.68913000  0.24157000  0.15727000  1.0
  C  C203  1  0.75842000  0.31088000  0.34273000  1.0
  C  C204  1  0.35038000  0.68261000  0.91019000  1.0
  C  C205  1  0.31739000  0.64960000  0.58981000  1.0
  C  C206  1  0.64962000  0.31738000  0.08981000  1.0
  C  C207  1  0.68261000  0.35039000  0.41019000  1.0
  C  C208  1  0.96744000  0.91443000  0.91543000  1.0
  C  C209  1  0.08558000  0.03255000  0.58457000  1.0
  C  C210  1  0.03256000  0.08557000  0.08457000  1.0
  C  C211  1  0.91442000  0.96744000  0.41543000  1.0
  C  C212  1  0.05556000  0.94965000  0.91588000  1.0
  C  C213  1  0.05035000  0.94443000  0.58413000  1.0
  C  C214  1  0.94444000  0.05035000  0.08412000  1.0
  C  C215  1  0.94965000  0.05556000  0.41588000  1.0
  C  C216  1  0.50128000  0.73822000  0.00786000  1.0
  C  C217  1  0.26178000  0.49871000  0.49214000  1.0
  C  C218  1  0.49872000  0.26178000  0.99214000  1.0
  C  C219  1  0.73823000  0.50128000  0.50786000  1.0
  C  C220  1  0.43551000  0.71169000  0.04379000  1.0
  C  C221  1  0.28831000  0.56449000  0.45621000  1.0
  C  C222  1  0.56450000  0.28832000  0.95622000  1.0
  C  C223  1  0.71170000  0.43550000  0.54378000  1.0
  C  C224  1  0.35075000  0.26546000  0.86254000  1.0
  C  C225  1  0.73454000  0.64926000  0.63746000  1.0
  C  C226  1  0.64924000  0.73454000  0.13746000  1.0
  C  C227  1  0.26546000  0.35075000  0.36254000  1.0
  C  C228  1  0.32607000  0.20321000  0.93095000  1.0
  C  C229  1  0.79680000  0.67394000  0.56906000  1.0
  C  C230  1  0.67393000  0.79680000  0.06906000  1.0
  C  C231  1  0.20320000  0.32607000  0.43094000  1.0
  C  C232  1  0.38809000  0.78981000  0.07378000  1.0
  C  C233  1  0.21018000  0.61191000  0.42622000  1.0
  C  C234  1  0.61190000  0.21020000  0.92622000  1.0
  C  C235  1  0.78982000  0.38809000  0.57378000  1.0
  C  C236  1  0.25912000  0.37561000  0.86971000  1.0
  C  C237  1  0.62439000  0.74088000  0.63029000  1.0
  C  C238  1  0.74087000  0.62439000  0.13029000  1.0
  C  C239  1  0.37561000  0.25912000  0.36971000  1.0
  C  C240  1  0.26200000  0.64669000  0.91179000  1.0
  C  C241  1  0.35331000  0.73799000  0.58821000  1.0
  C  C242  1  0.73800000  0.35331000  0.08821000  1.0
  C  C243  1  0.64669000  0.26201000  0.41179000  1.0
  C  C244  1  0.61754000  0.52113000  0.21354000  1.0
  C  C245  1  0.47886000  0.38245000  0.28646000  1.0
  C  C246  1  0.38245000  0.47886000  0.78646000  1.0
  C  C247  1  0.52114000  0.61755000  0.71354000  1.0
  C  C248  1  0.50673000  0.56310000  0.19951000  1.0
  C  C249  1  0.43689000  0.49326000  0.30049000  1.0
  C  C250  1  0.49327000  0.43689000  0.80049000  1.0
  C  C251  1  0.56311000  0.50673000  0.69951000  1.0
  C  C252  1  0.36991000  0.58172000  0.08541000  1.0
  C  C253  1  0.41827000  0.63009000  0.41459000  1.0
  C  C254  1  0.63010000  0.41828000  0.91459000  1.0
  C  C255  1  0.58174000  0.36991000  0.58541000  1.0
  C  C256  1  0.42486000  0.60589000  0.05008000  1.0
  C  C257  1  0.39410000  0.57514000  0.44992000  1.0
  C  C258  1  0.57515000  0.39411000  0.94993000  1.0
  C  C259  1  0.60591000  0.42486000  0.55007000  1.0
  C  C260  1  0.03657000  0.38678000  0.81737000  1.0
  C  C261  1  0.61323000  0.96344000  0.68263000  1.0
  C  C262  1  0.96344000  0.61323000  0.18263000  1.0
  C  C263  1  0.38677000  0.03657000  0.31737000  1.0
  S  S264  1  0.18285000  0.15499000  0.83222000  1.0
  S  S265  1  0.84502000  0.81714000  0.66779000  1.0
  S  S266  1  0.81714000  0.84502000  0.16779000  1.0
  S  S267  1  0.15498000  0.18286000  0.33222000  1.0
  S  S268  1  0.07924000  0.64123000  0.87444000  1.0
  S  S269  1  0.35877000  0.92075000  0.62556000  1.0
  S  S270  1  0.92075000  0.35877000  0.12556000  1.0
  S  S271  1  0.64123000  0.07925000  0.37444000  1.0
  S  S272  1  0.27429000  0.74592000  0.19475000  1.0
  S  S273  1  0.25408000  0.72571000  0.30525000  1.0
  S  S274  1  0.72571000  0.25408000  0.80525000  1.0
  S  S275  1  0.74593000  0.27429000  0.69475000  1.0
  S  S276  1  0.26559000  0.63191000  0.16062000  1.0
  S  S277  1  0.36809000  0.73441000  0.33938000  1.0
  S  S278  1  0.73441000  0.36810000  0.83938000  1.0
  S  S279  1  0.63192000  0.26558000  0.66062000  1.0
  S  S280  1  0.08661000  0.52835000  0.92267000  1.0
  S  S281  1  0.47164000  0.91339000  0.57733000  1.0
  S  S282  1  0.91338000  0.47165000  0.07734000  1.0
  S  S283  1  0.52836000  0.08661000  0.42267000  1.0
  S  S284  1  0.19802000  0.04904000  0.88236000  1.0
  S  S285  1  0.95096000  0.80197000  0.61764000  1.0
  S  S286  1  0.80198000  0.95096000  0.11764000  1.0
  S  S287  1  0.04904000  0.19802000  0.38236000  1.0
  N  N288  1  0.44287000  0.74575000  0.22956000  1.0
  N  N289  1  0.25424000  0.55713000  0.27044000  1.0
  N  N290  1  0.55713000  0.25424000  0.77044000  1.0
  N  N291  1  0.74576000  0.44288000  0.72956000  1.0
  N  N292  1  0.33687000  0.76698000  0.10818000  1.0
  N  N293  1  0.23301000  0.66314000  0.39182000  1.0
  N  N294  1  0.66313000  0.23302000  0.89182000  1.0
  N  N295  1  0.76700000  0.33686000  0.60818000  1.0
  N  N296  1  0.02713000  0.03190000  0.84819000  1.0
  N  N297  1  0.96810000  0.97286000  0.65181000  1.0
  N  N298  1  0.97286000  0.96811000  0.15181000  1.0
  N  N299  1  0.03190000  0.02713000  0.34819000  1.0
  N  N300  1  0.23758000  0.30950000  0.93825000  1.0
  N  N301  1  0.69050000  0.76243000  0.56175000  1.0
  N  N302  1  0.76242000  0.69050000  0.06176000  1.0
  N  N303  1  0.30950000  0.23758000  0.43824000  1.0
  N  N304  1  0.22455000  0.72519000  0.84390000  1.0
  N  N305  1  0.27481000  0.77544000  0.65610000  1.0
  N  N306  1  0.77545000  0.27481000  0.15610000  1.0
  N  N307  1  0.72518000  0.22456000  0.34390000  1.0
  N  N308  1  0.00721000  0.29679000  0.88179000  1.0
  N  N309  1  0.70322000  0.99278000  0.61821000  1.0
  N  N310  1  0.99279000  0.70322000  0.11821000  1.0
  N  N311  1  0.29679000  0.00721000  0.38179000  1.0
  O  O312  1  0.78922000  0.90036000  0.84279000  1.0
  O  O313  1  0.09965000  0.21078000  0.65721000  1.0
  O  O314  1  0.21078000  0.09965000  0.15721000  1.0
  O  O315  1  0.90035000  0.78922000  0.34279000  1.0
  O  O316  1  0.77381000  0.63690000  0.26416000  1.0
  O  O317  1  0.36310000  0.22619000  0.23584000  1.0
  O  O318  1  0.22620000  0.36309000  0.73584000  1.0
  O  O319  1  0.63690000  0.77381000  0.76416000  1.0
  O  O320  1  0.51366000  0.77343000  0.90540000  1.0
  O  O321  1  0.22657000  0.48633000  0.59460000  1.0
  O  O322  1  0.48634000  0.22656000  0.09460000  1.0
  O  O323  1  0.77344000  0.51367000  0.40540000  1.0
  O  O324  1  0.77359000  0.86377000  0.90926000  1.0
  O  O325  1  0.13624000  0.22641000  0.59074000  1.0
  O  O326  1  0.22641000  0.13624000  0.09073000  1.0
  O  O327  1  0.86376000  0.77360000  0.40927000  1.0
  O  O328  1  0.49426000  0.82542000  0.84009000  1.0
  O  O329  1  0.17458000  0.50574000  0.65990000  1.0
  O  O330  1  0.50576000  0.17456000  0.15991000  1.0
  O  O331  1  0.82543000  0.49425000  0.34009000  1.0
  O  O332  1  0.66958000  0.02282000  0.76591000  1.0
  O  O333  1  0.97718000  0.33042000  0.73409000  1.0
  O  O334  1  0.33042000  0.97718000  0.23409000  1.0
  O  O335  1  0.02282000  0.66958000  0.26591000  1.0
  O  O336  1  0.57012000  0.65719000  0.98599000  1.0
  O  O337  1  0.34281000  0.42988000  0.51401000  1.0
  O  O338  1  0.42987000  0.34282000  0.01401000  1.0
  O  O339  1  0.65719000  0.57012000  0.48599000  1.0
  O  O340  1  0.66984000  0.93544000  0.98188000  1.0
  O  O341  1  0.06456000  0.33016000  0.51812000  1.0
  O  O342  1  0.33016000  0.06456000  0.01812000  1.0
  O  O343  1  0.93544000  0.66984000  0.48188000  1.0
  O  O344  1  0.84550000  0.79089000  0.77222000  1.0
  O  O345  1  0.20912000  0.15449000  0.72778000  1.0
  O  O346  1  0.15450000  0.20911000  0.22778000  1.0
  O  O347  1  0.79088000  0.84551000  0.27222000  1.0
  O  O348  1  0.76138000  0.62712000  0.91411000  1.0
  O  O349  1  0.37289000  0.23861000  0.58589000  1.0
  O  O350  1  0.23862000  0.37289000  0.08589000  1.0
  O  O351  1  0.62712000  0.76138000  0.41411000  1.0
  O  O352  1  0.80162000  0.68457000  0.98278000  1.0
  O  O353  1  0.31542000  0.19838000  0.51722000  1.0
  O  O354  1  0.19837000  0.31543000  0.01723000  1.0
  O  O355  1  0.68458000  0.80162000  0.48277000  1.0
  O  O356  1  0.74342000  0.70035000  0.85038000  1.0
  O  O357  1  0.29966000  0.25658000  0.64961000  1.0
  O  O358  1  0.25659000  0.29965000  0.14961000  1.0
  O  O359  1  0.70035000  0.74342000  0.35038000  1.0
  O  O360  1  0.51326000  0.98734000  0.91880000  1.0
  O  O361  1  0.01266000  0.48673000  0.58120000  1.0
  O  O362  1  0.48673000  0.01266000  0.08120000  1.0
  O  O363  1  0.98735000  0.51327000  0.41880000  1.0
  O  O364  1  0.45086000  0.01652000  0.77572000  1.0
  O  O365  1  0.98348000  0.54913000  0.72428000  1.0
  O  O366  1  0.54913000  0.98348000  0.22428000  1.0
  O  O367  1  0.01652000  0.45086000  0.27572000  1.0
  O  O368  1  0.53176000  0.03351000  0.85313000  1.0
  O  O369  1  0.96648000  0.46823000  0.64687000  1.0
  O  O370  1  0.46823000  0.96649000  0.14687000  1.0
  O  O371  1  0.03352000  0.53177000  0.35313000  1.0
  O  O372  1  0.48986000  0.84495000  0.00007000  1.0
  O  O373  1  0.15506000  0.51012000  0.49992000  1.0
  O  O374  1  0.51014000  0.15506000  0.99993000  1.0
  O  O375  1  0.84495000  0.48987000  0.50007000  1.0
  O  O376  1  0.83832000  0.45198000  0.24547000  1.0
  O  O377  1  0.54803000  0.16168000  0.25453000  1.0
  O  O378  1  0.16168000  0.54802000  0.75453000  1.0
  O  O379  1  0.45198000  0.83832000  0.74546000  1.0
