# generated using pymatgen
data_Cu2H40W6C48N12O19
_symmetry_space_group_name_H-M   'P 1'
_cell_length_a   10.56200000
_cell_length_b   11.12560000
_cell_length_c   13.02670000
_cell_angle_alpha   98.06980000
_cell_angle_beta   108.08600000
_cell_angle_gamma   98.16420000
_symmetry_Int_Tables_number   1
_chemical_formula_structural   Cu2H40W6C48N12O19
_chemical_formula_sum   'Cu2 H40 W6 C48 N12 O19'
_cell_volume   1412.42068518
_cell_formula_units_Z   1
loop_
 _symmetry_equiv_pos_site_id
 _symmetry_equiv_pos_as_xyz
  1  'x, y, z'
loop_
 _atom_site_type_symbol
 _atom_site_label
 _atom_site_symmetry_multiplicity
 _atom_site_fract_x
 _atom_site_fract_y
 _atom_site_fract_z
 _atom_site_occupancy
  Cu  Cu0  1  0.25705000  0.37624000  0.24111000  1.0
  Cu  Cu1  1  0.74296000  0.62376000  0.75889000  1.0
  H  H2  1  0.41396000  0.18975000  0.35890000  1.0
  H  H3  1  0.58604000  0.81026000  0.64110000  1.0
  H  H4  1  0.65394000  0.20256000  0.47771000  1.0
  H  H5  1  0.34606000  0.79743000  0.52229000  1.0
  H  H6  1  0.81809000  0.40655000  0.52900000  1.0
  H  H7  1  0.18190000  0.59345000  0.47101000  1.0
  H  H8  1  0.73125000  0.59110000  0.46515000  1.0
  H  H9  1  0.26874000  0.40890000  0.53486000  1.0
  H  H10  1  0.62398000  0.76379000  0.38992000  1.0
  H  H11  1  0.37601000  0.23621000  0.61008000  1.0
  H  H12  1  0.40259000  0.85531000  0.27936000  1.0
  H  H13  1  0.59741000  0.14469000  0.72064000  1.0
  H  H14  1  0.16111000  0.77079000  0.18654000  1.0
  H  H15  1  0.83888000  0.22921000  0.81346000  1.0
  H  H16  1  0.11072000  0.66754000  0.26370000  1.0
  H  H17  1  0.88928000  0.33246000  0.73630000  1.0
  H  H18  1  0.89511000  0.57565000  0.13645000  1.0
  H  H19  1  0.10489000  0.42434000  0.86355000  1.0
  H  H20  1  0.24736000  0.56887000  0.03677000  1.0
  H  H21  1  0.75264000  0.43113000  0.96322000  1.0
  H  H22  1  0.03712000  0.41570000  0.34874000  1.0
  H  H23  1  0.96289000  0.58430000  0.65127000  1.0
  H  H24  1  0.78789000  0.34360000  0.28962000  1.0
  H  H25  1  0.21212000  0.65639000  0.71038000  1.0
  H  H26  1  0.67003000  0.18994000  0.11084000  1.0
  H  H27  1  0.32998000  0.81007000  0.88916000  1.0
  H  H28  1  0.80871000  0.12501000  0.99553000  1.0
  H  H29  1  0.19129000  0.87500000  0.00447000  1.0
  H  H30  1  0.96791000  0.05952000  0.89761000  1.0
  H  H31  1  0.03209000  0.94049000  0.10239000  1.0
  H  H32  1  0.21941000  0.08492000  0.87493000  1.0
  H  H33  1  0.78059000  0.91508000  0.12507000  1.0
  H  H34  1  0.59853000  0.45919000  0.18813000  1.0
  H  H35  1  0.40146000  0.54082000  0.81187000  1.0
  H  H36  1  0.45017000  0.18572000  0.99664000  1.0
  H  H37  1  0.54983000  0.81428000  0.00335000  1.0
  H  H38  1  0.47369000  0.25597000  0.13463000  1.0
  H  H39  1  0.52632000  0.74403000  0.86536000  1.0
  H  H40  1  0.33317000  0.33507000  0.85077000  1.0
  H  H41  1  0.66682000  0.66494000  0.14922000  1.0
  W  W42  1  0.87306000  0.96297000  0.61637000  1.0
  W  W43  1  0.12694000  0.03702000  0.38363000  1.0
  W  W44  1  0.04003000  0.21353000  0.56846000  1.0
  W  W45  1  0.95997000  0.78647000  0.43154000  1.0
  W  W46  1  0.19829000  0.98479000  0.63885000  1.0
  W  W47  1  0.80171000  0.01521000  0.36115000  1.0
  C  C48  1  0.48790000  0.27654000  0.38398000  1.0
  C  C49  1  0.51210000  0.72346000  0.61602000  1.0
  C  C50  1  0.62188000  0.28442000  0.44964000  1.0
  C  C51  1  0.37812000  0.71558000  0.55036000  1.0
  C  C52  1  0.71210000  0.39812000  0.47889000  1.0
  C  C53  1  0.28790000  0.60188000  0.52111000  1.0
  C  C54  1  0.66480000  0.50045000  0.44247000  1.0
  C  C55  1  0.33520000  0.49955000  0.55754000  1.0
  C  C56  1  0.52871000  0.48613000  0.37702000  1.0
  C  C57  1  0.47129000  0.51387000  0.62298000  1.0
  C  C58  1  0.46863000  0.58702000  0.33567000  1.0
  C  C59  1  0.53137000  0.41298000  0.66433000  1.0
  C  C60  1  0.52112000  0.71374000  0.34685000  1.0
  C  C61  1  0.47888000  0.28626000  0.65315000  1.0
  C  C62  1  0.41144000  0.76176000  0.29112000  1.0
  C  C63  1  0.58856000  0.23824000  0.70888000  1.0
  C  C64  1  0.15993000  0.67583000  0.20145000  1.0
  C  C65  1  0.84007000  0.32417000  0.79855000  1.0
  C  C66  1  0.08022000  0.58243000  0.09786000  1.0
  C  C67  1  0.91978000  0.41757000  0.90214000  1.0
  C  C68  1  0.94103000  0.54263000  0.07622000  1.0
  C  C69  1  0.05897000  0.45737000  0.92378000  1.0
  C  C70  1  0.13898000  0.53908000  0.02101000  1.0
  C  C71  1  0.86102000  0.46091000  0.97899000  1.0
  C  C72  1  0.98327000  0.35179000  0.27071000  1.0
  C  C73  1  0.01674000  0.64821000  0.72929000  1.0
  C  C74  1  0.84326000  0.31149000  0.23676000  1.0
  C  C75  1  0.15675000  0.68851000  0.76324000  1.0
  C  C76  1  0.77848000  0.22725000  0.13746000  1.0
  C  C77  1  0.22153000  0.77275000  0.86254000  1.0
  C  C78  1  0.85538000  0.18971000  0.07410000  1.0
  C  C79  1  0.14463000  0.81030000  0.92590000  1.0
  C  C80  1  0.99544000  0.23535000  0.11248000  1.0
  C  C81  1  0.00457000  0.76466000  0.88752000  1.0
  C  C82  1  0.08338000  0.20417000  0.05075000  1.0
  C  C83  1  0.91662000  0.79583000  0.94925000  1.0
  C  C84  1  0.06101000  0.12121000  0.95135000  1.0
  C  C85  1  0.93899000  0.87880000  0.04865000  1.0
  C  C86  1  0.18690000  0.13188000  0.93796000  1.0
  C  C87  1  0.81311000  0.86812000  0.06204000  1.0
  C  C88  1  0.46064000  0.38330000  0.02277000  1.0
  C  C89  1  0.53936000  0.61670000  0.97722000  1.0
  C  C90  1  0.55514000  0.47686000  0.10534000  1.0
  C  C91  1  0.44486000  0.52314000  0.89465000  1.0
  C  C92  1  0.42154000  0.25723000  0.04763000  1.0
  C  C93  1  0.57846000  0.74277000  0.95237000  1.0
  C  C94  1  0.40584000  0.40714000  0.91680000  1.0
  C  C95  1  0.59415000  0.59286000  0.08320000  1.0
  N  N96  1  0.05978000  0.31433000  0.21152000  1.0
  N  N97  1  0.94022000  0.68567000  0.78848000  1.0
  N  N98  1  0.44076000  0.37468000  0.34772000  1.0
  N  N99  1  0.55924000  0.62532000  0.65228000  1.0
  N  N100  1  0.33469000  0.55954000  0.27554000  1.0
  N  N101  1  0.66531000  0.44046000  0.72446000  1.0
  N  N102  1  0.21503000  0.26287000  0.09396000  1.0
  N  N103  1  0.78498000  0.73713000  0.90604000  1.0
  N  N104  1  0.30149000  0.66656000  0.24927000  1.0
  N  N105  1  0.69851000  0.33344000  0.75073000  1.0
  N  N106  1  0.27644000  0.21713000  0.02491000  1.0
  N  N107  1  0.72357000  0.78287000  0.97509000  1.0
  O  O108  1  0.06700000  0.37082000  0.61988000  1.0
  O  O109  1  0.93300000  0.62918000  0.38012000  1.0
  O  O110  1  0.78165000  0.94171000  0.70430000  1.0
  O  O111  1  0.21835000  0.05829000  0.29570000  1.0
  O  O112  1  0.92952000  0.14140000  0.64690000  1.0
  O  O113  1  0.07047000  0.85859000  0.35309000  1.0
  O  O114  1  0.73877000  0.98329000  0.48099000  1.0
  O  O115  1  0.26123000  0.01671000  0.51901000  1.0
  O  O116  1  0.34380000  0.97593000  0.74296000  1.0
  O  O117  1  0.65619000  0.02407000  0.25704000  1.0
  O  O118  1  0.05565000  0.95724000  0.70354000  1.0
  O  O119  1  0.94435000  0.04276000  0.29646000  1.0
  O  O120  1  0.19015000  0.15889000  0.66810000  1.0
  O  O121  1  0.80985000  0.84110000  0.33190000  1.0
  O  O122  1  0.13725000  0.20174000  0.46388000  1.0
  O  O123  1  0.86275000  0.79826000  0.53612000  1.0
  O  O124  1  0.00000000  0.00000000  0.50000000  1.0
  O  O125  1  0.87500000  0.18373000  0.44323000  1.0
  O  O126  1  0.12499000  0.81627000  0.55677000  1.0
