# generated using pymatgen
data_CdH18C26N4O7
_symmetry_space_group_name_H-M   'P 1'
_cell_length_a   13.51280000
_cell_length_b   13.51270000
_cell_length_c   16.05190000
_cell_angle_alpha   68.53890000
_cell_angle_beta   68.53910000
_cell_angle_gamma   72.55420000
_symmetry_Int_Tables_number   1
_chemical_formula_structural   CdH18C26N4O7
_chemical_formula_sum   'Cd4 H72 C104 N16 O28'
_cell_volume   2491.61895069
_cell_formula_units_Z   4
loop_
 _symmetry_equiv_pos_site_id
 _symmetry_equiv_pos_as_xyz
  1  'x, y, z'
loop_
 _atom_site_type_symbol
 _atom_site_label
 _atom_site_symmetry_multiplicity
 _atom_site_fract_x
 _atom_site_fract_y
 _atom_site_fract_z
 _atom_site_occupancy
  Cd  Cd0  1  0.78851000  0.60627000  0.95313000  1.0
  Cd  Cd1  1  0.39373000  0.21150000  0.54687000  1.0
  Cd  Cd2  1  0.21149000  0.39373000  0.04687000  1.0
  Cd  Cd3  1  0.60627000  0.78851000  0.45313000  1.0
  H  H4  1  0.49614000  0.50817000  0.88586000  1.0
  H  H5  1  0.49183000  0.50386000  0.61414000  1.0
  H  H6  1  0.50386000  0.49182000  0.11414000  1.0
  H  H7  1  0.50818000  0.49614000  0.38586000  1.0
  H  H8  1  0.72696000  0.02671000  0.86365000  1.0
  H  H9  1  0.97329000  0.27304000  0.63635000  1.0
  H  H10  1  0.27304000  0.97329000  0.13635000  1.0
  H  H11  1  0.02671000  0.72696000  0.36365000  1.0
  H  H12  1  0.90181000  0.34904000  0.92689000  1.0
  H  H13  1  0.65096000  0.09819000  0.57311000  1.0
  H  H14  1  0.09819000  0.65096000  0.07311000  1.0
  H  H15  1  0.34904000  0.90180000  0.42689000  1.0
  H  H16  1  0.53461000  0.34737000  0.21572000  1.0
  H  H17  1  0.65264000  0.46538000  0.28428000  1.0
  H  H18  1  0.46538000  0.65264000  0.78428000  1.0
  H  H19  1  0.34737000  0.53462000  0.71572000  1.0
  H  H20  1  0.51426000  0.16048000  0.31527000  1.0
  H  H21  1  0.83952000  0.48574000  0.18473000  1.0
  H  H22  1  0.48574000  0.83953000  0.68472000  1.0
  H  H23  1  0.16048000  0.51426000  0.81528000  1.0
  H  H24  1  0.84306000  0.03787000  0.17879000  1.0
  H  H25  1  0.96213000  0.15694000  0.32121000  1.0
  H  H26  1  0.15693000  0.96213000  0.82121000  1.0
  H  H27  1  0.03787000  0.84306000  0.67879000  1.0
  H  H28  1  0.86269000  0.22455000  0.07362000  1.0
  H  H29  1  0.77545000  0.13730000  0.42638000  1.0
  H  H30  1  0.13731000  0.77545000  0.92639000  1.0
  H  H31  1  0.22455000  0.86270000  0.57361000  1.0
  H  H32  1  0.54092000  0.67171000  0.92929000  1.0
  H  H33  1  0.32829000  0.45908000  0.57070000  1.0
  H  H34  1  0.45907000  0.32829000  0.07071000  1.0
  H  H35  1  0.67171000  0.54093000  0.42929000  1.0
  H  H36  1  0.40130000  0.84189000  0.90305000  1.0
  H  H37  1  0.15811000  0.59870000  0.59695000  1.0
  H  H38  1  0.59870000  0.15811000  0.09695000  1.0
  H  H39  1  0.84189000  0.40131000  0.40304000  1.0
  H  H40  1  0.44715000  0.02035000  0.87462000  1.0
  H  H41  1  0.97965000  0.55285000  0.62538000  1.0
  H  H42  1  0.55285000  0.97965000  0.12537000  1.0
  H  H43  1  0.02035000  0.44715000  0.37462000  1.0
  H  H44  1  0.76253000  0.84403000  0.90424000  1.0
  H  H45  1  0.15597000  0.23747000  0.59576000  1.0
  H  H46  1  0.23746000  0.15597000  0.09577000  1.0
  H  H47  1  0.84403000  0.76254000  0.40423000  1.0
  H  H48  1  0.50066000  0.34243000  0.87308000  1.0
  H  H49  1  0.65757000  0.49934000  0.62691000  1.0
  H  H50  1  0.49934000  0.65756000  0.12692000  1.0
  H  H51  1  0.34244000  0.50066000  0.37308000  1.0
  H  H52  1  0.78120000  0.44560000  0.85546000  1.0
  H  H53  1  0.55441000  0.21880000  0.64453000  1.0
  H  H54  1  0.21881000  0.55440000  0.14453000  1.0
  H  H55  1  0.44559000  0.78120000  0.35547000  1.0
  H  H56  1  0.80975000  0.12017000  0.85755000  1.0
  H  H57  1  0.87984000  0.19025000  0.64245000  1.0
  H  H58  1  0.19026000  0.87983000  0.14244000  1.0
  H  H59  1  0.12016000  0.80974000  0.35756000  1.0
  H  H60  1  0.01500000  0.37527000  0.98894000  1.0
  H  H61  1  0.62473000  0.98500000  0.51106000  1.0
  H  H62  1  0.98501000  0.62473000  0.01106000  1.0
  H  H63  1  0.37527000  0.01500000  0.48894000  1.0
  H  H64  1  0.33230000  0.21600000  0.77262000  1.0
  H  H65  1  0.78401000  0.66769000  0.72738000  1.0
  H  H66  1  0.66770000  0.78401000  0.22738000  1.0
  H  H67  1  0.21599000  0.33230000  0.27262000  1.0
  H  H68  1  0.34977000  0.30082000  0.87887000  1.0
  H  H69  1  0.69919000  0.65023000  0.62113000  1.0
  H  H70  1  0.65023000  0.69919000  0.12113000  1.0
  H  H71  1  0.30082000  0.34977000  0.37887000  1.0
  H  H72  1  0.14763000  0.20849000  0.77635000  1.0
  H  H73  1  0.79151000  0.85237000  0.72365000  1.0
  H  H74  1  0.85238000  0.79151000  0.22365000  1.0
  H  H75  1  0.20849000  0.14762000  0.27635000  1.0
  C  C76  1  0.71272000  0.41018000  0.07451000  1.0
  C  C77  1  0.58982000  0.28727000  0.42549000  1.0
  C  C78  1  0.28728000  0.58982000  0.92549000  1.0
  C  C79  1  0.41018000  0.71273000  0.57451000  1.0
  C  C80  1  0.69943000  0.29829000  0.13582000  1.0
  C  C81  1  0.70171000  0.30057000  0.36418000  1.0
  C  C82  1  0.30057000  0.70172000  0.86418000  1.0
  C  C83  1  0.29829000  0.69943000  0.63582000  1.0
  C  C84  1  0.60172000  0.27997000  0.20551000  1.0
  C  C85  1  0.72004000  0.39828000  0.29450000  1.0
  C  C86  1  0.39828000  0.72004000  0.79449000  1.0
  C  C87  1  0.27997000  0.60172000  0.70551000  1.0
  C  C88  1  0.59020000  0.17556000  0.26222000  1.0
  C  C89  1  0.82444000  0.40980000  0.23777000  1.0
  C  C90  1  0.40980000  0.82445000  0.73777000  1.0
  C  C91  1  0.17556000  0.59020000  0.76223000  1.0
  C  C92  1  0.67656000  0.08804000  0.25232000  1.0
  C  C93  1  0.91196000  0.32344000  0.24768000  1.0
  C  C94  1  0.32344000  0.91196000  0.74768000  1.0
  C  C95  1  0.08805000  0.67656000  0.75232000  1.0
  C  C96  1  0.66440000  0.97629000  0.31551000  1.0
  C  C97  1  0.02371000  0.33559000  0.18449000  1.0
  C  C98  1  0.33559000  0.02372000  0.68449000  1.0
  C  C99  1  0.97629000  0.66441000  0.81551000  1.0
  C  C100  1  0.77539000  0.10608000  0.18449000  1.0
  C  C101  1  0.89391000  0.22462000  0.31552000  1.0
  C  C102  1  0.22461000  0.89392000  0.81551000  1.0
  C  C103  1  0.10609000  0.77538000  0.68448000  1.0
  C  C104  1  0.78602000  0.21026000  0.12616000  1.0
  C  C105  1  0.78973000  0.21397000  0.37384000  1.0
  C  C106  1  0.21397000  0.78974000  0.87384000  1.0
  C  C107  1  0.21027000  0.78603000  0.62616000  1.0
  C  C108  1  0.55709000  0.75059000  0.91811000  1.0
  C  C109  1  0.24941000  0.44291000  0.58189000  1.0
  C  C110  1  0.44291000  0.24941000  0.08189000  1.0
  C  C111  1  0.75059000  0.55710000  0.41811000  1.0
  C  C112  1  0.48068000  0.84573000  0.90275000  1.0
  C  C113  1  0.15427000  0.51932000  0.59725000  1.0
  C  C114  1  0.51932000  0.15428000  0.09725000  1.0
  C  C115  1  0.84572000  0.48069000  0.40274000  1.0
  C  C116  1  0.50525000  0.94511000  0.88722000  1.0
  C  C117  1  0.05489000  0.49475000  0.61278000  1.0
  C  C118  1  0.49475000  0.05489000  0.11278000  1.0
  C  C119  1  0.94511000  0.50525000  0.38722000  1.0
  C  C120  1  0.60826000  0.94616000  0.88860000  1.0
  C  C121  1  0.05383000  0.39174000  0.61140000  1.0
  C  C122  1  0.39174000  0.05384000  0.11140000  1.0
  C  C123  1  0.94617000  0.60826000  0.38860000  1.0
  C  C124  1  0.68073000  0.84718000  0.90475000  1.0
  C  C125  1  0.15282000  0.31927000  0.59525000  1.0
  C  C126  1  0.31927000  0.15282000  0.09525000  1.0
  C  C127  1  0.84718000  0.68073000  0.40474000  1.0
  C  C128  1  0.58681000  0.14070000  0.87369000  1.0
  C  C129  1  0.85930000  0.41319000  0.62631000  1.0
  C  C130  1  0.41320000  0.85930000  0.12631000  1.0
  C  C131  1  0.14070000  0.58680000  0.37369000  1.0
  C  C132  1  0.64676000  0.22125000  0.86739000  1.0
  C  C133  1  0.77875000  0.35324000  0.63261000  1.0
  C  C134  1  0.35324000  0.77875000  0.13261000  1.0
  C  C135  1  0.22125000  0.64676000  0.36740000  1.0
  C  C136  1  0.58590000  0.32483000  0.86947000  1.0
  C  C137  1  0.67518000  0.41410000  0.63053000  1.0
  C  C138  1  0.41410000  0.67517000  0.13054000  1.0
  C  C139  1  0.32483000  0.58590000  0.36947000  1.0
  C  C140  1  0.63318000  0.40505000  0.86755000  1.0
  C  C141  1  0.59495000  0.36682000  0.63245000  1.0
  C  C142  1  0.36682000  0.59495000  0.13245000  1.0
  C  C143  1  0.40505000  0.63318000  0.36755000  1.0
  C  C144  1  0.74379000  0.38159000  0.86081000  1.0
  C  C145  1  0.61841000  0.25621000  0.63919000  1.0
  C  C146  1  0.25621000  0.61841000  0.13919000  1.0
  C  C147  1  0.38159000  0.74379000  0.36081000  1.0
  C  C148  1  0.80466000  0.27831000  0.85845000  1.0
  C  C149  1  0.72169000  0.19534000  0.64156000  1.0
  C  C150  1  0.19534000  0.72169000  0.14156000  1.0
  C  C151  1  0.27830000  0.80466000  0.35845000  1.0
  C  C152  1  0.75660000  0.19797000  0.86172000  1.0
  C  C153  1  0.80203000  0.24340000  0.63828000  1.0
  C  C154  1  0.24341000  0.80203000  0.13828000  1.0
  C  C155  1  0.19796000  0.75659000  0.36173000  1.0
  C  C156  1  0.92346000  0.24866000  0.84827000  1.0
  C  C157  1  0.75134000  0.07654000  0.65172000  1.0
  C  C158  1  0.07654000  0.75134000  0.15173000  1.0
  C  C159  1  0.24865000  0.92346000  0.34828000  1.0
  C  C160  1  0.06644000  0.29526000  0.88081000  1.0
  C  C161  1  0.70474000  0.93356000  0.61919000  1.0
  C  C162  1  0.93356000  0.70474000  0.11919000  1.0
  C  C163  1  0.29526000  0.06644000  0.38082000  1.0
  C  C164  1  0.08365000  0.33969000  0.93978000  1.0
  C  C165  1  0.66031000  0.91635000  0.56022000  1.0
  C  C166  1  0.91635000  0.66030000  0.06022000  1.0
  C  C167  1  0.33970000  0.08365000  0.43978000  1.0
  C  C168  1  0.25977000  0.25129000  0.81889000  1.0
  C  C169  1  0.74871000  0.74023000  0.68111000  1.0
  C  C170  1  0.74023000  0.74871000  0.18111000  1.0
  C  C171  1  0.25129000  0.25977000  0.31890000  1.0
  C  C172  1  0.27044000  0.29901000  0.87773000  1.0
  C  C173  1  0.70100000  0.72956000  0.62227000  1.0
  C  C174  1  0.72957000  0.70100000  0.12227000  1.0
  C  C175  1  0.29900000  0.27044000  0.37773000  1.0
  C  C176  1  0.15734000  0.24756000  0.82039000  1.0
  C  C177  1  0.75245000  0.84265000  0.67961000  1.0
  C  C178  1  0.84266000  0.75245000  0.17961000  1.0
  C  C179  1  0.24755000  0.15734000  0.32039000  1.0
  N  N180  1  0.65587000  0.75237000  0.91883000  1.0
  N  N181  1  0.24763000  0.34413000  0.58116000  1.0
  N  N182  1  0.34412000  0.24763000  0.08117000  1.0
  N  N183  1  0.75237000  0.65588000  0.41883000  1.0
  N  N184  1  0.64574000  0.03809000  0.87525000  1.0
  N  N185  1  0.96190000  0.35426000  0.62475000  1.0
  N  N186  1  0.35426000  0.96190000  0.12474000  1.0
  N  N187  1  0.03809000  0.64573000  0.37525000  1.0
  N  N188  1  0.95931000  0.30315000  0.88564000  1.0
  N  N189  1  0.69685000  0.04069000  0.61436000  1.0
  N  N190  1  0.04069000  0.69685000  0.11436000  1.0
  N  N191  1  0.30315000  0.95931000  0.38564000  1.0
  N  N192  1  0.18312000  0.34104000  0.93802000  1.0
  N  N193  1  0.65896000  0.81688000  0.56198000  1.0
  N  N194  1  0.81688000  0.65897000  0.06198000  1.0
  N  N195  1  0.34104000  0.18312000  0.43801000  1.0
  O  O196  1  0.63467000  0.49058000  0.08096000  1.0
  O  O197  1  0.50942000  0.36533000  0.41904000  1.0
  O  O198  1  0.36533000  0.50943000  0.91903000  1.0
  O  O199  1  0.49058000  0.63467000  0.58097000  1.0
  O  O200  1  0.80647000  0.42317000  0.01573000  1.0
  O  O201  1  0.57683000  0.19353000  0.48427000  1.0
  O  O202  1  0.19353000  0.57683000  0.98427000  1.0
  O  O203  1  0.42318000  0.80647000  0.51573000  1.0
  O  O204  1  0.74763000  0.90784000  0.33078000  1.0
  O  O205  1  0.09216000  0.25237000  0.16922000  1.0
  O  O206  1  0.25237000  0.09217000  0.66922000  1.0
  O  O207  1  0.90784000  0.74763000  0.83078000  1.0
  O  O208  1  0.56772000  0.95546000  0.35311000  1.0
  O  O209  1  0.04453000  0.43228000  0.14689000  1.0
  O  O210  1  0.43228000  0.04453000  0.64688000  1.0
  O  O211  1  0.95547000  0.56772000  0.85311000  1.0
  O  O212  1  0.48903000  0.16474000  0.87958000  1.0
  O  O213  1  0.83526000  0.51097000  0.62042000  1.0
  O  O214  1  0.51097000  0.83526000  0.12042000  1.0
  O  O215  1  0.16474000  0.48902000  0.37958000  1.0
  O  O216  1  0.57616000  0.50539000  0.87121000  1.0
  O  O217  1  0.49461000  0.42384000  0.62878000  1.0
  O  O218  1  0.42385000  0.49461000  0.12879000  1.0
  O  O219  1  0.50539000  0.57616000  0.37121000  1.0
  O  O220  1  0.98335000  0.17925000  0.80882000  1.0
  O  O221  1  0.82074000  0.01665000  0.69117000  1.0
  O  O222  1  0.01666000  0.82074000  0.19118000  1.0
  O  O223  1  0.17926000  0.98335000  0.30882000  1.0
