# generated using pymatgen
data_GdH20C21N4O9
_symmetry_space_group_name_H-M   'P 1'
_cell_length_a   9.88841000
_cell_length_b   11.53030000
_cell_length_c   13.53790000
_cell_angle_alpha   67.07120000
_cell_angle_beta   86.46450000
_cell_angle_gamma   76.39790000
_symmetry_Int_Tables_number   1
_chemical_formula_structural   GdH20C21N4O9
_chemical_formula_sum   'Gd2 H40 C42 N8 O18'
_cell_volume   1380.94007263
_cell_formula_units_Z   2
loop_
 _symmetry_equiv_pos_site_id
 _symmetry_equiv_pos_as_xyz
  1  'x, y, z'
loop_
 _atom_site_type_symbol
 _atom_site_label
 _atom_site_symmetry_multiplicity
 _atom_site_fract_x
 _atom_site_fract_y
 _atom_site_fract_z
 _atom_site_occupancy
  Gd  Gd0  1  0.23675000  0.02930000  0.00262000  1.0
  Gd  Gd1  1  0.76325000  0.97070000  0.99738000  1.0
  H  H2  1  0.99280000  0.62565000  0.45111000  1.0
  H  H3  1  0.00719000  0.37434000  0.54889000  1.0
  H  H4  1  0.03687000  0.74926000  0.25974000  1.0
  H  H5  1  0.96313000  0.25074000  0.74026000  1.0
  H  H6  1  0.45306000  0.50818000  0.31321000  1.0
  H  H7  1  0.54695000  0.49181000  0.68679000  1.0
  H  H8  1  0.29305000  0.33771000  0.66230000  1.0
  H  H9  1  0.70695000  0.66229000  0.33769000  1.0
  H  H10  1  0.70368000  0.08699000  0.70618000  1.0
  H  H11  1  0.29632000  0.91301000  0.29382000  1.0
  H  H12  1  0.73296000  0.19586000  0.50823000  1.0
  H  H13  1  0.26705000  0.80413000  0.49178000  1.0
  H  H14  1  0.32319000  0.11100000  0.54350000  1.0
  H  H15  1  0.67681000  0.88900000  0.45651000  1.0
  H  H16  1  0.25235000  0.07391000  0.73283000  1.0
  H  H17  1  0.74764000  0.92609000  0.26717000  1.0
  H  H18  1  0.89874000  0.95426000  0.66585000  1.0
  H  H19  1  0.10126000  0.04574000  0.33415000  1.0
  H  H20  1  0.49322000  0.37916000  0.11289000  1.0
  H  H21  1  0.50679000  0.62085000  0.88711000  1.0
  H  H22  1  0.32807000  0.48964000  0.08211000  1.0
  H  H23  1  0.67193000  0.51036000  0.91789000  1.0
  H  H24  1  0.38358000  0.38540000  0.00964000  1.0
  H  H25  1  0.61643000  0.61461000  0.99036000  1.0
  H  H26  1  0.23771000  0.38025000  0.27446000  1.0
  H  H27  1  0.76229000  0.61976000  0.72553000  1.0
  H  H28  1  0.41120000  0.28528000  0.30727000  1.0
  H  H29  1  0.58880000  0.71472000  0.69273000  1.0
  H  H30  1  0.26850000  0.20768000  0.32667000  1.0
  H  H31  1  0.73150000  0.79232000  0.67333000  1.0
  H  H32  1  0.23309000  0.13905000  0.20730000  1.0
  H  H33  1  0.76690000  0.86095000  0.79270000  1.0
  H  H34  1  0.04070000  0.27544000  0.97125000  1.0
  H  H35  1  0.95930000  0.72456000  0.02875000  1.0
  H  H36  1  0.95801000  0.20822000  0.91953000  1.0
  H  H37  1  0.04199000  0.79178000  0.08047000  1.0
  H  H38  1  0.48872000  0.89372000  0.93449000  1.0
  H  H39  1  0.51128000  0.10629000  0.06551000  1.0
  H  H40  1  0.40611000  0.78853000  0.00569000  1.0
  H  H41  1  0.59389000  0.21147000  0.99431000  1.0
  C  C42  1  0.28498000  0.71123000  0.15772000  1.0
  C  C43  1  0.71502000  0.28877000  0.84228000  1.0
  C  C44  1  0.09463000  0.60274000  0.41835000  1.0
  C  C45  1  0.90537000  0.39725000  0.58165000  1.0
  C  C46  1  0.11872000  0.67189000  0.31113000  1.0
  C  C47  1  0.88128000  0.32811000  0.68887000  1.0
  C  C48  1  0.24967000  0.63819000  0.27147000  1.0
  C  C49  1  0.75033000  0.36181000  0.72853000  1.0
  C  C50  1  0.34976000  0.53671000  0.34088000  1.0
  C  C51  1  0.65025000  0.46329000  0.65912000  1.0
  C  C52  1  0.31577000  0.47201000  0.44724000  1.0
  C  C53  1  0.68423000  0.52798000  0.55276000  1.0
  C  C54  1  0.41938000  0.36203000  0.52247000  1.0
  C  C55  1  0.58062000  0.63797000  0.47753000  1.0
  C  C56  1  0.39212000  0.30338000  0.63161000  1.0
  C  C57  1  0.60788000  0.69662000  0.36839000  1.0
  C  C58  1  0.49446000  0.20188000  0.69901000  1.0
  C  C59  1  0.50554000  0.79811000  0.30099000  1.0
  C  C60  1  0.62043000  0.16318000  0.65501000  1.0
  C  C61  1  0.37957000  0.83682000  0.34499000  1.0
  C  C62  1  0.63682000  0.22538000  0.54519000  1.0
  C  C63  1  0.36319000  0.77462000  0.45481000  1.0
  C  C64  1  0.47123000  0.13235000  0.81632000  1.0
  C  C65  1  0.52877000  0.86765000  0.18368000  1.0
  C  C66  1  0.22935000  0.07555000  0.57357000  1.0
  C  C67  1  0.77065000  0.92445000  0.42643000  1.0
  C  C68  1  0.19122000  0.05481000  0.67910000  1.0
  C  C69  1  0.80878000  0.94519000  0.32090000  1.0
  C  C70  1  0.06978000  0.01062000  0.71403000  1.0
  C  C71  1  0.93022000  0.98938000  0.28597000  1.0
  C  C72  1  0.99380000  0.98850000  0.64257000  1.0
  C  C73  1  0.00620000  0.01150000  0.35743000  1.0
  C  C74  1  0.04008000  0.01156000  0.53850000  1.0
  C  C75  1  0.95992000  0.98845000  0.46150000  1.0
  C  C76  1  0.01860000  0.99053000  0.82500000  1.0
  C  C77  1  0.98140000  0.00947000  0.17501000  1.0
  C  C78  1  0.38511000  0.39321000  0.08755000  1.0
  C  C79  1  0.61489000  0.60679000  0.91245000  1.0
  C  C80  1  0.30937000  0.29128000  0.27485000  1.0
  C  C81  1  0.69063000  0.70872000  0.72515000  1.0
  C  C82  1  0.27723000  0.20919000  0.14037000  1.0
  C  C83  1  0.72277000  0.79082000  0.85963000  1.0
  N  N84  1  0.53941000  0.32210000  0.47964000  1.0
  N  N85  1  0.46059000  0.67789000  0.52035000  1.0
  N  N86  1  0.18975000  0.50488000  0.48562000  1.0
  N  N87  1  0.81025000  0.49511000  0.51437000  1.0
  N  N88  1  0.15665000  0.05532000  0.50388000  1.0
  N  N89  1  0.84335000  0.94468000  0.49612000  1.0
  N  N90  1  0.32263000  0.29411000  0.16616000  1.0
  N  N91  1  0.67737000  0.70590000  0.83384000  1.0
  O  O92  1  0.39780000  0.66927000  0.12160000  1.0
  O  O93  1  0.60220000  0.33073000  0.87840000  1.0
  O  O94  1  0.19525000  0.81627000  0.10314000  1.0
  O  O95  1  0.80475000  0.18373000  0.89686000  1.0
  O  O96  1  0.57666000  0.05275000  0.87431000  1.0
  O  O97  1  0.42334000  0.94726000  0.12569000  1.0
  O  O98  1  0.34924000  0.15117000  0.85046000  1.0
  O  O99  1  0.65076000  0.84883000  0.14954000  1.0
  O  O100  1  0.05123000  0.22451000  0.92745000  1.0
  O  O101  1  0.94876000  0.77549000  0.07255000  1.0
  O  O102  1  0.39634000  0.87452000  0.94302000  1.0
  O  O103  1  0.60365000  0.12549000  0.05698000  1.0
  O  O104  1  0.90125000  0.96142000  0.84744000  1.0
  O  O105  1  0.09876000  0.03857000  0.15256000  1.0
  O  O106  1  0.09386000  0.00555000  0.88941000  1.0
  O  O107  1  0.90615000  0.99444000  0.11059000  1.0
  O  O108  1  0.28137000  0.20646000  0.04808000  1.0
  O  O109  1  0.71863000  0.79355000  0.95192000  1.0
