# generated using pymatgen
data_Zn4C24Cl12O13
_symmetry_space_group_name_H-M   'P 1'
_cell_length_a   18.65940230
_cell_length_b   18.65950000
_cell_length_c   18.65950000
_cell_angle_alpha   89.99970000
_cell_angle_beta   60.00035049
_cell_angle_gamma   119.99964951
_symmetry_Int_Tables_number   1
_chemical_formula_structural   Zn4C24Cl12O13
_chemical_formula_sum   'Zn8 C48 Cl24 O26'
_cell_volume   4593.94931448
_cell_formula_units_Z   2
loop_
 _symmetry_equiv_pos_site_id
 _symmetry_equiv_pos_as_xyz
  1  'x, y, z'
loop_
 _atom_site_type_symbol
 _atom_site_label
 _atom_site_symmetry_multiplicity
 _atom_site_fract_x
 _atom_site_fract_y
 _atom_site_fract_z
 _atom_site_occupancy
  Zn  Zn0  1  0.41419000  0.04290000  0.54291000  1.0
  Zn  Zn1  1  0.58581000  0.04291000  0.54290000  1.0
  Zn  Zn2  1  0.58580000  0.04290000  0.37130000  1.0
  Zn  Zn3  1  0.41420000  0.87130000  0.54290000  1.0
  Zn  Zn4  1  0.58581000  0.45710000  0.95709000  1.0
  Zn  Zn5  1  0.41420000  0.45710000  0.12870000  1.0
  Zn  Zn6  1  0.41419000  0.45709000  0.95710000  1.0
  Zn  Zn7  1  0.58580000  0.62870000  0.95710000  1.0
  C  C8  1  0.50000000  0.13727000  0.63727000  1.0
  C  C9  1  0.77454000  0.13727000  0.36272000  1.0
  C  C10  1  0.50000000  0.13727000  0.36273000  1.0
  C  C11  1  0.50000000  0.86273000  0.36273000  1.0
  C  C12  1  0.22546000  0.86272000  0.63727000  1.0
  C  C13  1  0.50000000  0.86273000  0.63727000  1.0
  C  C14  1  0.50000000  0.36273000  0.13727000  1.0
  C  C15  1  0.22546000  0.36273000  0.13727000  1.0
  C  C16  1  0.50000000  0.36273000  0.86273000  1.0
  C  C17  1  0.50000000  0.63727000  0.86273000  1.0
  C  C18  1  0.77454000  0.63727000  0.86273000  1.0
  C  C19  1  0.50001000  0.63728000  0.13726000  1.0
  C  C20  1  0.10999000  0.80499000  0.69501000  1.0
  C  C21  1  0.89001000  0.69501000  0.80499000  1.0
  C  C22  1  0.05377000  0.71195000  0.72311000  1.0
  C  C23  1  0.94623000  0.78805000  0.77688000  1.0
  C  C24  1  0.94623000  0.65818000  0.77688000  1.0
  C  C25  1  0.05377000  0.84182000  0.72311000  1.0
  C  C26  1  0.89001000  0.19501000  0.30499000  1.0
  C  C27  1  0.10999000  0.30499000  0.19501000  1.0
  C  C28  1  0.94623000  0.22312000  0.21195000  1.0
  C  C29  1  0.05377000  0.27688000  0.28805000  1.0
  C  C30  1  0.05377000  0.27688000  0.15818000  1.0
  C  C31  1  0.94623000  0.22312000  0.34182000  1.0
  C  C32  1  0.50000000  0.19500000  0.30500000  1.0
  C  C33  1  0.50000000  0.30500000  0.19500000  1.0
  C  C34  1  0.56493000  0.22311000  0.21195000  1.0
  C  C35  1  0.43507000  0.27689000  0.28804000  1.0
  C  C36  1  0.56494000  0.27689000  0.15818000  1.0
  C  C37  1  0.43506000  0.22311000  0.34183000  1.0
  C  C38  1  0.50000000  0.80500000  0.69500000  1.0
  C  C39  1  0.50000000  0.69500000  0.80500000  1.0
  C  C40  1  0.43506000  0.71194000  0.72312000  1.0
  C  C41  1  0.56494000  0.78805000  0.77688000  1.0
  C  C42  1  0.43506000  0.65818000  0.77689000  1.0
  C  C43  1  0.56494000  0.84183000  0.72311000  1.0
  C  C44  1  0.50000000  0.19500000  0.69500000  1.0
  C  C45  1  0.50000000  0.30500000  0.80500000  1.0
  C  C46  1  0.56494000  0.22312000  0.72311000  1.0
  C  C47  1  0.43507000  0.27689000  0.77688000  1.0
  C  C48  1  0.56494000  0.27689000  0.77688000  1.0
  C  C49  1  0.43507000  0.22312000  0.72311000  1.0
  C  C50  1  0.50000000  0.80500000  0.30500000  1.0
  C  C51  1  0.50000000  0.69500000  0.19500000  1.0
  C  C52  1  0.43507000  0.71195000  0.34181000  1.0
  C  C53  1  0.56494000  0.78806000  0.15818000  1.0
  C  C54  1  0.43507000  0.65818000  0.28804000  1.0
  C  C55  1  0.56494000  0.84182000  0.21195000  1.0
  Cl  Cl56  1  0.11057000  0.65750000  0.69472000  1.0
  Cl  Cl57  1  0.88943000  0.84249000  0.80529000  1.0
  Cl  Cl58  1  0.88943000  0.54693000  0.80528000  1.0
  Cl  Cl59  1  0.11057000  0.95307000  0.69471000  1.0
  Cl  Cl60  1  0.88943000  0.19472000  0.15750000  1.0
  Cl  Cl61  1  0.11057000  0.30528000  0.34250000  1.0
  Cl  Cl62  1  0.11057000  0.30528000  0.04693000  1.0
  Cl  Cl63  1  0.88943000  0.19472000  0.45307000  1.0
  Cl  Cl64  1  0.64778000  0.19471000  0.15750000  1.0
  Cl  Cl65  1  0.35222000  0.30529000  0.34250000  1.0
  Cl  Cl66  1  0.64778000  0.30528000  0.04694000  1.0
  Cl  Cl67  1  0.35222000  0.19472000  0.45306000  1.0
  Cl  Cl68  1  0.35222000  0.65750000  0.69471000  1.0
  Cl  Cl69  1  0.64778000  0.84250000  0.80528000  1.0
  Cl  Cl70  1  0.35222000  0.54694000  0.80528000  1.0
  Cl  Cl71  1  0.64778000  0.95306000  0.69472000  1.0
  Cl  Cl72  1  0.64778000  0.19471000  0.69472000  1.0
  Cl  Cl73  1  0.35222000  0.30528000  0.80528000  1.0
  Cl  Cl74  1  0.64778000  0.30528000  0.80529000  1.0
  Cl  Cl75  1  0.35222000  0.19472000  0.69471000  1.0
  Cl  Cl76  1  0.35222000  0.65751000  0.45306000  1.0
  Cl  Cl77  1  0.64778000  0.84250000  0.04693000  1.0
  Cl  Cl78  1  0.35222000  0.54693000  0.34249000  1.0
  Cl  Cl79  1  0.64778000  0.95306000  0.15750000  1.0
  O  O80  1  0.50000000  0.00000000  0.50000000  1.0
  O  O81  1  0.43976000  0.11488000  0.61488000  1.0
  O  O82  1  0.72976000  0.11488000  0.44536000  1.0
  O  O83  1  0.56024000  0.11488000  0.32488000  1.0
  O  O84  1  0.56024000  0.11488000  0.61488000  1.0
  O  O85  1  0.43976000  0.11488000  0.44536000  1.0
  O  O86  1  0.72976000  0.11488000  0.32488000  1.0
  O  O87  1  0.56024000  0.94536000  0.32488000  1.0
  O  O88  1  0.27024000  0.82488000  0.61488000  1.0
  O  O89  1  0.43976000  0.82488000  0.44536000  1.0
  O  O90  1  0.27024000  0.94536000  0.61488000  1.0
  O  O91  1  0.56024000  0.94536000  0.61488000  1.0
  O  O92  1  0.43976000  0.82488000  0.61488000  1.0
  O  O93  1  0.50000000  0.50000000  0.00000000  1.0
  O  O94  1  0.56024000  0.38512000  0.05464000  1.0
  O  O95  1  0.27024000  0.38512000  0.17512000  1.0
  O  O96  1  0.43976000  0.38512000  0.88512000  1.0
  O  O97  1  0.43976000  0.38512000  0.17512000  1.0
  O  O98  1  0.56024000  0.38512000  0.88512000  1.0
  O  O99  1  0.27024000  0.38512000  0.05464000  1.0
  O  O100  1  0.43976000  0.55464000  0.88512000  1.0
  O  O101  1  0.72976000  0.67512000  0.88512000  1.0
  O  O102  1  0.56024000  0.67512000  0.88512000  1.0
  O  O103  1  0.72976000  0.55464000  0.88512000  1.0
  O  O104  1  0.43976000  0.55464000  0.17512000  1.0
  O  O105  1  0.56025000  0.67513000  0.05463000  1.0
