# generated using pymatgen
data_NdH13C14N2O9
_symmetry_space_group_name_H-M   'P 1'
_cell_length_a   7.69502000
_cell_length_b   9.68382000
_cell_length_c   11.30640000
_cell_angle_alpha   100.93300000
_cell_angle_beta   93.40190000
_cell_angle_gamma   105.29800000
_symmetry_Int_Tables_number   1
_chemical_formula_structural   NdH13C14N2O9
_chemical_formula_sum   'Nd2 H26 C28 N4 O18'
_cell_volume   792.57805656
_cell_formula_units_Z   2
loop_
 _symmetry_equiv_pos_site_id
 _symmetry_equiv_pos_as_xyz
  1  'x, y, z'
loop_
 _atom_site_type_symbol
 _atom_site_label
 _atom_site_symmetry_multiplicity
 _atom_site_fract_x
 _atom_site_fract_y
 _atom_site_fract_z
 _atom_site_occupancy
  Nd  Nd0  1  0.10173000  0.84093000  0.05717000  1.0
  Nd  Nd1  1  0.89826000  0.15906000  0.94283000  1.0
  H  H2  1  0.83863000  0.00218000  0.19629000  1.0
  H  H3  1  0.16138000  0.99783000  0.80372000  1.0
  H  H4  1  0.99167000  0.97765000  0.28974000  1.0
  H  H5  1  0.00833000  0.02236000  0.71026000  1.0
  H  H6  1  0.19794000  0.22935000  0.47231000  1.0
  H  H7  1  0.80207000  0.77065000  0.52768000  1.0
  H  H8  1  0.08750000  0.32991000  0.66548000  1.0
  H  H9  1  0.91251000  0.67009000  0.33451000  1.0
  H  H10  1  0.11810000  0.59382000  0.72945000  1.0
  H  H11  1  0.88189000  0.40617000  0.27055000  1.0
  H  H12  1  0.26079000  0.77054000  0.60571000  1.0
  H  H13  1  0.73919000  0.22945000  0.39429000  1.0
  H  H14  1  0.51129000  0.69581000  0.16603000  1.0
  H  H15  1  0.48871000  0.30419000  0.83397000  1.0
  H  H16  1  0.40647000  0.50951000  0.09849000  1.0
  H  H17  1  0.59352000  0.49049000  0.90151000  1.0
  H  H18  1  0.62849000  0.56236000  0.17662000  1.0
  H  H19  1  0.37150000  0.43764000  0.82338000  1.0
  H  H20  1  0.53808000  0.85184000  0.32752000  1.0
  H  H21  1  0.46191000  0.14816000  0.67247000  1.0
  H  H22  1  0.48639000  0.87802000  0.47876000  1.0
  H  H23  1  0.51361000  0.12197000  0.52123000  1.0
  H  H24  1  0.35791000  0.20878000  0.29957000  1.0
  H  H25  1  0.64210000  0.79122000  0.70043000  1.0
  H  H26  1  0.47210000  0.30062000  0.19327000  1.0
  H  H27  1  0.52791000  0.69938000  0.80674000  1.0
  C  C28  1  0.28816000  0.44614000  0.43138000  1.0
  C  C29  1  0.71184000  0.55385000  0.56862000  1.0
  C  C30  1  0.21125000  0.34607000  0.50073000  1.0
  C  C31  1  0.78876000  0.65392000  0.49927000  1.0
  C  C32  1  0.15163000  0.40326000  0.60854000  1.0
  C  C33  1  0.84838000  0.59674000  0.39146000  1.0
  C  C34  1  0.16926000  0.55409000  0.64575000  1.0
  C  C35  1  0.83073000  0.44590000  0.35425000  1.0
  C  C36  1  0.24780000  0.65401000  0.57674000  1.0
  C  C37  1  0.75219000  0.34599000  0.42326000  1.0
  C  C38  1  0.30669000  0.59694000  0.46880000  1.0
  C  C39  1  0.69331000  0.40306000  0.53120000  1.0
  C  C40  1  0.41589000  0.56064000  0.28980000  1.0
  C  C41  1  0.58411000  0.43936000  0.71020000  1.0
  C  C42  1  0.49512000  0.58374000  0.17753000  1.0
  C  C43  1  0.50487000  0.41625000  0.82248000  1.0
  C  C44  1  0.43079000  0.82102000  0.38539000  1.0
  C  C45  1  0.56921000  0.17898000  0.61461000  1.0
  C  C46  1  0.26872000  0.86872000  0.33740000  1.0
  C  C47  1  0.73129000  0.13128000  0.66260000  1.0
  C  C48  1  0.35290000  0.28905000  0.24329000  1.0
  C  C49  1  0.64710000  0.71096000  0.75672000  1.0
  C  C50  1  0.17992000  0.22973000  0.15407000  1.0
  C  C51  1  0.82009000  0.77028000  0.84593000  1.0
  C  C52  1  0.90428000  0.49641000  0.02112000  1.0
  C  C53  1  0.09572000  0.50360000  0.97888000  1.0
  C  C54  1  0.53777000  0.00333000  0.06649000  1.0
  C  C55  1  0.46222000  0.99669000  0.93351000  1.0
  N  N56  1  0.38806000  0.66397000  0.37933000  1.0
  N  N57  1  0.61194000  0.33603000  0.62067000  1.0
  N  N58  1  0.35978000  0.42865000  0.32089000  1.0
  N  N59  1  0.64023000  0.57134000  0.67912000  1.0
  O  O60  1  0.25483000  0.99385000  0.38340000  1.0
  O  O61  1  0.74517000  0.00614000  0.61660000  1.0
  O  O62  1  0.16490000  0.77663000  0.24879000  1.0
  O  O63  1  0.83510000  0.22337000  0.75121000  1.0
  O  O64  1  0.16747000  0.11379000  0.07262000  1.0
  O  O65  1  0.83253000  0.88622000  0.92739000  1.0
  O  O66  1  0.05936000  0.29507000  0.16004000  1.0
  O  O67  1  0.94066000  0.70496000  0.83996000  1.0
  O  O68  1  0.86992000  0.61676000  0.05974000  1.0
  O  O69  1  0.13008000  0.38324000  0.94025000  1.0
  O  O70  1  0.79500000  0.37112000  0.01337000  1.0
  O  O71  1  0.20499000  0.62887000  0.98663000  1.0
  O  O72  1  0.42934000  0.93900000  0.13110000  1.0
  O  O73  1  0.57067000  0.06102000  0.86891000  1.0
  O  O74  1  0.70317000  0.07379000  0.10026000  1.0
  O  O75  1  0.29683000  0.92623000  0.89974000  1.0
  O  O76  1  0.90986000  0.93523000  0.21401000  1.0
  O  O77  1  0.09015000  0.06478000  0.78599000  1.0
