# generated using pymatgen
data_CoH36C32(N2O3)2
_symmetry_space_group_name_H-M   'P 1'
_cell_length_a   8.13257000
_cell_length_b   8.98270000
_cell_length_c   11.22930000
_cell_angle_alpha   84.15360000
_cell_angle_beta   89.52670000
_cell_angle_gamma   64.66420000
_symmetry_Int_Tables_number   1
_chemical_formula_structural   CoH36C32(N2O3)2
_chemical_formula_sum   'Co1 H36 C32 N4 O6'
_cell_volume   736.99871297
_cell_formula_units_Z   1
loop_
 _symmetry_equiv_pos_site_id
 _symmetry_equiv_pos_as_xyz
  1  'x, y, z'
loop_
 _atom_site_type_symbol
 _atom_site_label
 _atom_site_symmetry_multiplicity
 _atom_site_fract_x
 _atom_site_fract_y
 _atom_site_fract_z
 _atom_site_occupancy
  Co  Co0  1  0.00000000  0.00000000  0.00000000  1.0
  H  H1  1  0.23013000  0.09958000  0.07297000  1.0
  H  H2  1  0.76987000  0.90042000  0.92703000  1.0
  H  H3  1  0.23295000  0.13845000  0.92756000  1.0
  H  H4  1  0.76706000  0.86155000  0.07244000  1.0
  H  H5  1  0.31116000  0.83095000  0.16230000  1.0
  H  H6  1  0.68884000  0.16905000  0.83770000  1.0
  H  H7  1  0.51760000  0.54120000  0.23376000  1.0
  H  H8  1  0.48240000  0.45879000  0.76624000  1.0
  H  H9  1  0.23099000  0.38694000  0.98910000  1.0
  H  H10  1  0.76901000  0.61306000  0.01089000  1.0
  H  H11  1  0.03643000  0.68465000  0.92488000  1.0
  H  H12  1  0.96356000  0.31535000  0.07512000  1.0
  H  H13  1  0.42726000  0.21245000  0.22757000  1.0
  H  H14  1  0.57273000  0.78755000  0.77243000  1.0
  H  H15  1  0.62932000  0.24384000  0.21282000  1.0
  H  H16  1  0.37068000  0.75615000  0.78717000  1.0
  H  H17  1  0.54496000  0.17974000  0.09239000  1.0
  H  H18  1  0.45504000  0.82026000  0.90761000  1.0
  H  H19  1  0.17219000  0.05461000  0.65832000  1.0
  H  H20  1  0.82780000  0.94539000  0.34168000  1.0
  H  H21  1  0.77802000  0.88576000  0.55902000  1.0
  H  H22  1  0.22198000  0.11423000  0.44097000  1.0
  H  H23  1  0.48535000  0.06154000  0.76881000  1.0
  H  H24  1  0.51466000  0.93845000  0.23119000  1.0
  H  H25  1  0.53303000  0.18125000  0.56917000  1.0
  H  H26  1  0.46698000  0.81875000  0.43083000  1.0
  H  H27  1  0.03429000  0.61498000  0.60982000  1.0
  H  H28  1  0.96572000  0.38502000  0.39019000  1.0
  H  H29  1  0.00228000  0.47391000  0.80502000  1.0
  H  H30  1  0.99773000  0.52608000  0.19498000  1.0
  H  H31  1  0.21320000  0.47856000  0.38312000  1.0
  H  H32  1  0.78680000  0.52145000  0.61688000  1.0
  H  H33  1  0.44436000  0.42503000  0.41940000  1.0
  H  H34  1  0.55563000  0.57498000  0.58061000  1.0
  H  H35  1  0.26921000  0.61929000  0.45134000  1.0
  H  H36  1  0.73078000  0.38072000  0.54866000  1.0
  C  C37  1  0.29489000  0.72940000  0.12773000  1.0
  C  C38  1  0.70511000  0.27060000  0.87227000  1.0
  C  C39  1  0.41004000  0.56616000  0.16703000  1.0
  C  C40  1  0.58996000  0.43384000  0.83297000  1.0
  C  C41  1  0.38886000  0.43602000  0.12127000  1.0
  C  C42  1  0.61114000  0.56398000  0.87872000  1.0
  C  C43  1  0.25147000  0.48152000  0.03194000  1.0
  C  C44  1  0.74853000  0.51848000  0.96806000  1.0
  C  C45  1  0.14218000  0.64727000  0.99516000  1.0
  C  C46  1  0.85782000  0.35274000  0.00484000  1.0
  C  C47  1  0.50474000  0.25898000  0.16568000  1.0
  C  C48  1  0.49526000  0.74102000  0.83432000  1.0
  C  C49  1  0.93993000  0.93330000  0.75255000  1.0
  C  C50  1  0.06007000  0.06669000  0.24745000  1.0
  C  C51  1  0.97296000  0.96587000  0.62193000  1.0
  C  C52  1  0.02704000  0.03413000  0.37807000  1.0
  C  C53  1  0.09787000  0.03057000  0.58831000  1.0
  C  C54  1  0.90213000  0.96942000  0.41169000  1.0
  C  C55  1  0.87531000  0.93578000  0.53236000  1.0
  C  C56  1  0.12469000  0.06422000  0.46764000  1.0
  C  C57  1  0.38589000  0.18306000  0.72970000  1.0
  C  C58  1  0.61412000  0.81694000  0.27030000  1.0
  C  C59  1  0.41222000  0.25085000  0.61790000  1.0
  C  C60  1  0.58779000  0.74916000  0.38210000  1.0
  C  C61  1  0.28518000  0.40872000  0.57045000  1.0
  C  C62  1  0.71482000  0.59129000  0.42955000  1.0
  C  C63  1  0.13601000  0.49048000  0.64036000  1.0
  C  C64  1  0.86399000  0.50953000  0.35965000  1.0
  C  C65  1  0.11886000  0.41257000  0.75028000  1.0
  C  C66  1  0.88114000  0.58742000  0.24972000  1.0
  C  C67  1  0.30559000  0.48677000  0.45029000  1.0
  C  C68  1  0.69441000  0.51324000  0.54971000  1.0
  N  N69  1  0.15975000  0.77178000  0.04387000  1.0
  N  N70  1  0.84025000  0.22822000  0.95613000  1.0
  N  N71  1  0.24135000  0.26135000  0.79544000  1.0
  N  N72  1  0.75866000  0.73864000  0.20456000  1.0
  O  O73  1  0.03159000  0.97074000  0.82656000  1.0
  O  O74  1  0.96841000  0.02926000  0.17344000  1.0
  O  O75  1  0.82456000  0.87564000  0.77865000  1.0
  O  O76  1  0.17544000  0.12436000  0.22135000  1.0
  O  O77  1  0.24218000  0.05271000  0.99499000  1.0
  O  O78  1  0.75783000  0.94729000  0.00501000  1.0
