# generated using pymatgen
data_VH8C12IN2O5
_symmetry_space_group_name_H-M   'P 1'
_cell_length_a   11.55350000
_cell_length_b   11.55350000
_cell_length_c   12.04645274
_cell_angle_alpha   114.10517431
_cell_angle_beta   113.64017572
_cell_angle_gamma   98.97860000
_symmetry_Int_Tables_number   1
_chemical_formula_structural   VH8C12IN2O5
_chemical_formula_sum   'V4 H32 C48 I4 N8 O20'
_cell_volume   1242.36216592
_cell_formula_units_Z   4
loop_
 _symmetry_equiv_pos_site_id
 _symmetry_equiv_pos_as_xyz
  1  'x, y, z'
loop_
 _atom_site_type_symbol
 _atom_site_label
 _atom_site_symmetry_multiplicity
 _atom_site_fract_x
 _atom_site_fract_y
 _atom_site_fract_z
 _atom_site_occupancy
  V  V0  1  0.34691000  0.36480000  0.73052000  1.0
  V  V1  1  0.63429000  0.11639000  0.76949000  1.0
  V  V2  1  0.65310000  0.63520000  0.26949000  1.0
  V  V3  1  0.36571000  0.88361000  0.23051000  1.0
  H  H4  1  0.04331000  0.16088000  0.60609000  1.0
  H  H5  1  0.55479000  0.93722000  0.89391000  1.0
  H  H6  1  0.95669000  0.83912000  0.39391000  1.0
  H  H7  1  0.44521000  0.06279000  0.10609000  1.0
  H  H8  1  0.80291000  0.10108000  0.42797000  1.0
  H  H9  1  0.67311000  0.87495000  0.07203000  1.0
  H  H10  1  0.19708000  0.89892000  0.57203000  1.0
  H  H11  1  0.32689000  0.12506000  0.92797000  1.0
  H  H12  1  0.75638000  0.21411000  0.28373000  1.0
  H  H13  1  0.93038000  0.97265000  0.21627000  1.0
  H  H14  1  0.24362000  0.78589000  0.71627000  1.0
  H  H15  1  0.06962000  0.02736000  0.78373000  1.0
  H  H16  1  0.85314000  0.37465000  0.22344000  1.0
  H  H17  1  0.15121000  0.12969000  0.27655000  1.0
  H  H18  1  0.14685000  0.62534000  0.77655000  1.0
  H  H19  1  0.84878000  0.87030000  0.72344000  1.0
  H  H20  1  0.05330000  0.53559000  0.26338000  1.0
  H  H21  1  0.27220000  0.28992000  0.23662000  1.0
  H  H22  1  0.94670000  0.46441000  0.73662000  1.0
  H  H23  1  0.72779000  0.71007000  0.76337000  1.0
  H  H24  1  0.31460000  0.67257000  0.41014000  1.0
  H  H25  1  0.26243000  0.40445000  0.08986000  1.0
  H  H26  1  0.68540000  0.32742000  0.58986000  1.0
  H  H27  1  0.73757000  0.59554000  0.91014000  1.0
  H  H28  1  0.53899000  0.72624000  0.60776000  1.0
  H  H29  1  0.11848000  0.43123000  0.89224000  1.0
  H  H30  1  0.46101000  0.27376000  0.39224000  1.0
  H  H31  1  0.88153000  0.56878000  0.10777000  1.0
  H  H32  1  0.55000000  0.60544000  0.74454000  1.0
  H  H33  1  0.86091000  0.30546000  0.75546000  1.0
  H  H34  1  0.45000000  0.39456000  0.25546000  1.0
  H  H35  1  0.13910000  0.69455000  0.24455000  1.0
  C  C36  1  0.02097000  0.21001000  0.54394000  1.0
  C  C37  1  0.66607000  0.97703000  0.95606000  1.0
  C  C38  1  0.97904000  0.79000000  0.45607000  1.0
  C  C39  1  0.33393000  0.02297000  0.04394000  1.0
  C  C40  1  0.88562000  0.17704000  0.44345000  1.0
  C  C41  1  0.73359000  0.94217000  0.05655000  1.0
  C  C42  1  0.11439000  0.82296000  0.55656000  1.0
  C  C43  1  0.26641000  0.05784000  0.94345000  1.0
  C  C44  1  0.86015000  0.23866000  0.36381000  1.0
  C  C45  1  0.87484000  0.99634000  0.13619000  1.0
  C  C46  1  0.13986000  0.76135000  0.63620000  1.0
  C  C47  1  0.12515000  0.00366000  0.86380000  1.0
  C  C48  1  0.97133000  0.33401000  0.38536000  1.0
  C  C49  1  0.94864000  0.08596000  0.11463000  1.0
  C  C50  1  0.02867000  0.66598000  0.61463000  1.0
  C  C51  1  0.05135000  0.91403000  0.88536000  1.0
  C  C52  1  0.95590000  0.39897000  0.30443000  1.0
  C  C53  1  0.09454000  0.15147000  0.19557000  1.0
  C  C54  1  0.04410000  0.60103000  0.69557000  1.0
  C  C55  1  0.90546000  0.84853000  0.80443000  1.0
  C  C56  1  0.06695000  0.48890000  0.32755000  1.0
  C  C57  1  0.16134000  0.23940000  0.17244000  1.0
  C  C58  1  0.93305000  0.51110000  0.67245000  1.0
  C  C59  1  0.83866000  0.76060000  0.82756000  1.0
  C  C60  1  0.20240000  0.52487000  0.43651000  1.0
  C  C61  1  0.08836000  0.26588000  0.06349000  1.0
  C  C62  1  0.79760000  0.47513000  0.56349000  1.0
  C  C63  1  0.91164000  0.73412000  0.93651000  1.0
  C  C64  1  0.32116000  0.62083000  0.46948000  1.0
  C  C65  1  0.15134000  0.35167000  0.03052000  1.0
  C  C66  1  0.67884000  0.37917000  0.53052000  1.0
  C  C67  1  0.84866000  0.64833000  0.96948000  1.0
  C  C68  1  0.44697000  0.65077000  0.57968000  1.0
  C  C69  1  0.07110000  0.36729000  0.92032000  1.0
  C  C70  1  0.55304000  0.34922000  0.42032000  1.0
  C  C71  1  0.92890000  0.63272000  0.07968000  1.0
  C  C72  1  0.45377000  0.58425000  0.65577000  1.0
  C  C73  1  0.92849000  0.29800000  0.84423000  1.0
  C  C74  1  0.54623000  0.41574000  0.34423000  1.0
  C  C75  1  0.07151000  0.70200000  0.15577000  1.0
  C  C76  1  0.10428000  0.36343000  0.49082000  1.0
  C  C77  1  0.87261000  0.11345000  0.00917000  1.0
  C  C78  1  0.89572000  0.63657000  0.50918000  1.0
  C  C79  1  0.12738000  0.88654000  0.99082000  1.0
  C  C80  1  0.22017000  0.46240000  0.51892000  1.0
  C  C81  1  0.94348000  0.20125000  0.98108000  1.0
  C  C82  1  0.77983000  0.53759000  0.48108000  1.0
  C  C83  1  0.05652000  0.79875000  0.01892000  1.0
  I  I84  1  0.33826000  0.07139000  0.49486000  1.0
  I  I85  1  0.57654000  0.34340000  0.00514000  1.0
  I  I86  1  0.66173000  0.92860000  0.50513000  1.0
  I  I87  1  0.42347000  0.65660000  0.99487000  1.0
  N  N88  1  0.12760000  0.30115000  0.56731000  1.0
  N  N89  1  0.73384000  0.06029000  0.93269000  1.0
  N  N90  1  0.87240000  0.69885000  0.43269000  1.0
  N  N91  1  0.26616000  0.93971000  0.06731000  1.0
  N  N92  1  0.34401000  0.49238000  0.62585000  1.0
  N  N93  1  0.86654000  0.21816000  0.87415000  1.0
  N  N94  1  0.65599000  0.50762000  0.37415000  1.0
  N  N95  1  0.13346000  0.78184000  0.12585000  1.0
  O  O96  1  0.31318000  0.23994000  0.75979000  1.0
  O  O97  1  0.48016000  0.05340000  0.74022000  1.0
  O  O98  1  0.68682000  0.76006000  0.24022000  1.0
  O  O99  1  0.51984000  0.94660000  0.25978000  1.0
  O  O100  1  0.15621000  0.99641000  0.41453000  1.0
  O  O101  1  0.58188000  0.24168000  0.08547000  1.0
  O  O102  1  0.84379000  0.00358000  0.58547000  1.0
  O  O103  1  0.41812000  0.75832000  0.91453000  1.0
  O  O104  1  0.51062000  0.47080000  0.86113000  1.0
  O  O105  1  0.60967000  0.14950000  0.63888000  1.0
  O  O106  1  0.48938000  0.52920000  0.13887000  1.0
  O  O107  1  0.39033000  0.85051000  0.36112000  1.0
  O  O108  1  0.36741000  0.25873000  0.56873000  1.0
  O  O109  1  0.69000000  0.29867000  0.93127000  1.0
  O  O110  1  0.63259000  0.74127000  0.43127000  1.0
  O  O111  1  0.31000000  0.70132000  0.06873000  1.0
  O  O112  1  0.34490000  0.05689000  0.33648000  1.0
  O  O113  1  0.72042000  0.50842000  0.16352000  1.0
  O  O114  1  0.65509000  0.94310000  0.66351000  1.0
  O  O115  1  0.27959000  0.49159000  0.83649000  1.0
