# generated using pymatgen
data_LaAgH11C15(NO6)2
_symmetry_space_group_name_H-M   'P 1'
_cell_length_a   7.74057000
_cell_length_b   8.29385000
_cell_length_c   14.18100000
_cell_angle_alpha   96.80170000
_cell_angle_beta   101.52900000
_cell_angle_gamma   92.93450000
_symmetry_Int_Tables_number   1
_chemical_formula_structural   LaAgH11C15(NO6)2
_chemical_formula_sum   'La2 Ag2 H22 C30 N4 O24'
_cell_volume   883.13476007
_cell_formula_units_Z   2
loop_
 _symmetry_equiv_pos_site_id
 _symmetry_equiv_pos_as_xyz
  1  'x, y, z'
loop_
 _atom_site_type_symbol
 _atom_site_label
 _atom_site_symmetry_multiplicity
 _atom_site_fract_x
 _atom_site_fract_y
 _atom_site_fract_z
 _atom_site_occupancy
  La  La0  1  0.68551000  0.20269000  0.91458000  1.0
  La  La1  1  0.31449000  0.79731000  0.08541000  1.0
  Ag  Ag2  1  0.32532000  0.07624000  0.46716000  1.0
  Ag  Ag3  1  0.67468000  0.92377000  0.53284000  1.0
  H  H4  1  0.97497000  0.78649000  0.75664000  1.0
  H  H5  1  0.02503000  0.21351000  0.24336000  1.0
  H  H6  1  0.16956000  0.19175000  0.63333000  1.0
  H  H7  1  0.83044000  0.80825000  0.36667000  1.0
  H  H8  1  0.22079000  0.72268000  0.50747000  1.0
  H  H9  1  0.77921000  0.27732000  0.49252000  1.0
  H  H10  1  0.53037000  0.48864000  0.18005000  1.0
  H  H11  1  0.46963000  0.51136000  0.81995000  1.0
  H  H12  1  0.33476000  0.44465000  0.44115000  1.0
  H  H13  1  0.66525000  0.55536000  0.55885000  1.0
  H  H14  1  0.46310000  0.02737000  0.28505000  1.0
  H  H15  1  0.53690000  0.97263000  0.71495000  1.0
  H  H16  1  0.03529000  0.40106000  0.72804000  1.0
  H  H17  1  0.96472000  0.59894000  0.27196000  1.0
  H  H18  1  0.71617000  0.94615000  0.04658000  1.0
  H  H19  1  0.28383000  0.05384000  0.95342000  1.0
  H  H20  1  0.85668000  0.86774000  0.98708000  1.0
  H  H21  1  0.14332000  0.13226000  0.01292000  1.0
  H  H22  1  0.35836000  0.38704000  0.97454000  1.0
  H  H23  1  0.64164000  0.61296000  0.02546000  1.0
  H  H24  1  0.28240000  0.30865000  0.86639000  1.0
  H  H25  1  0.71761000  0.69135000  0.13361000  1.0
  C  C26  1  0.09170000  0.55112000  0.63726000  1.0
  C  C27  1  0.90830000  0.44888000  0.36274000  1.0
  C  C28  1  0.09571000  0.73060000  0.63249000  1.0
  C  C29  1  0.90429000  0.26941000  0.36751000  1.0
  C  C30  1  0.03611000  0.83468000  0.70202000  1.0
  C  C31  1  0.96389000  0.16532000  0.29798000  1.0
  C  C32  1  0.06128000  0.00261000  0.70313000  1.0
  C  C33  1  0.93873000  0.99739000  0.29687000  1.0
  C  C34  1  0.14540000  0.06125000  0.63444000  1.0
  C  C35  1  0.85460000  0.93875000  0.36556000  1.0
  C  C36  1  0.17250000  0.79823000  0.56348000  1.0
  C  C37  1  0.82750000  0.20177000  0.43651000  1.0
  C  C38  1  0.00043000  0.11783000  0.77735000  1.0
  C  C39  1  0.99957000  0.88218000  0.22264000  1.0
  C  C40  1  0.57530000  0.16525000  0.13924000  1.0
  C  C41  1  0.42470000  0.83475000  0.86076000  1.0
  C  C42  1  0.50558000  0.24859000  0.22196000  1.0
  C  C43  1  0.49442000  0.75141000  0.77804000  1.0
  C  C44  1  0.49095000  0.41651000  0.23267000  1.0
  C  C45  1  0.50905000  0.58349000  0.76733000  1.0
  C  C46  1  0.42798000  0.49016000  0.31153000  1.0
  C  C47  1  0.57202000  0.50984000  0.68847000  1.0
  C  C48  1  0.38311000  0.39219000  0.37805000  1.0
  C  C49  1  0.61690000  0.60781000  0.62196000  1.0
  C  C50  1  0.45428000  0.15883000  0.29026000  1.0
  C  C51  1  0.54572000  0.84117000  0.70974000  1.0
  C  C52  1  0.40923000  0.67163000  0.32452000  1.0
  C  C53  1  0.59077000  0.32836000  0.67548000  1.0
  C  C54  1  0.06624000  0.43731000  0.01770000  1.0
  C  C55  1  0.93376000  0.56269000  0.98229000  1.0
  N  N56  1  0.19719000  0.96073000  0.56496000  1.0
  N  N57  1  0.80281000  0.03927000  0.43504000  1.0
  N  N58  1  0.39511000  0.22932000  0.36706000  1.0
  N  N59  1  0.60490000  0.77068000  0.63295000  1.0
  O  O60  1  0.01324000  0.51352000  0.70803000  1.0
  O  O61  1  0.98676000  0.48648000  0.29197000  1.0
  O  O62  1  0.15888000  0.45449000  0.58502000  1.0
  O  O63  1  0.84111000  0.54551000  0.41498000  1.0
  O  O64  1  0.88600000  0.06125000  0.81949000  1.0
  O  O65  1  0.11400000  0.93876000  0.18051000  1.0
  O  O66  1  0.06835000  0.26491000  0.79408000  1.0
  O  O67  1  0.93165000  0.73509000  0.20592000  1.0
  O  O68  1  0.63589000  0.25254000  0.08424000  1.0
  O  O69  1  0.36411000  0.74745000  0.91576000  1.0
  O  O70  1  0.57094000  0.00905000  0.12926000  1.0
  O  O71  1  0.42906000  0.99095000  0.87074000  1.0
  O  O72  1  0.41696000  0.74459000  0.25015000  1.0
  O  O73  1  0.58303000  0.25540000  0.74985000  1.0
  O  O74  1  0.38911000  0.73935000  0.40523000  1.0
  O  O75  1  0.61089000  0.26065000  0.59477000  1.0
  O  O76  1  0.00523000  0.29082000  0.00916000  1.0
  O  O77  1  0.99476000  0.70918000  0.99084000  1.0
  O  O78  1  0.22582000  0.49157000  0.05131000  1.0
  O  O79  1  0.77418000  0.50843000  0.94868000  1.0
  O  O80  1  0.77785000  0.95764000  0.99271000  1.0
  O  O81  1  0.22214000  0.04235000  0.00728000  1.0
  O  O82  1  0.39382000  0.33543000  0.91570000  1.0
  O  O83  1  0.60619000  0.66457000  0.08430000  1.0
