# generated using pymatgen
data_AgH11C8S(NO)2
_symmetry_space_group_name_H-M   'P 1'
_cell_length_a   7.75206000
_cell_length_b   8.66848000
_cell_length_c   15.29810000
_cell_angle_alpha   89.99990000
_cell_angle_beta   89.99990000
_cell_angle_gamma   111.57800000
_symmetry_Int_Tables_number   1
_chemical_formula_structural   AgH11C8S(NO)2
_chemical_formula_sum   'Ag4 H44 C32 S4 N8 O8'
_cell_volume   955.96527686
_cell_formula_units_Z   4
loop_
 _symmetry_equiv_pos_site_id
 _symmetry_equiv_pos_as_xyz
  1  'x, y, z'
loop_
 _atom_site_type_symbol
 _atom_site_label
 _atom_site_symmetry_multiplicity
 _atom_site_fract_x
 _atom_site_fract_y
 _atom_site_fract_z
 _atom_site_occupancy
  Ag  Ag0  1  0.24808000  0.32551000  0.69337000  1.0
  Ag  Ag1  1  0.75193000  0.17450000  0.19336000  1.0
  Ag  Ag2  1  0.75193000  0.67449000  0.30664000  1.0
  Ag  Ag3  1  0.24807000  0.82551000  0.80663000  1.0
  H  H4  1  0.62468000  0.58617000  0.48983000  1.0
  H  H5  1  0.37531000  0.91382000  0.98982000  1.0
  H  H6  1  0.37532000  0.41383000  0.51018000  1.0
  H  H7  1  0.62468000  0.08617000  0.01017000  1.0
  H  H8  1  0.35292000  0.75477000  0.55997000  1.0
  H  H9  1  0.64707000  0.74523000  0.05997000  1.0
  H  H10  1  0.64708000  0.24522000  0.44003000  1.0
  H  H11  1  0.35292000  0.25477000  0.94003000  1.0
  H  H12  1  0.25276000  0.80576000  0.46433000  1.0
  H  H13  1  0.74723000  0.69424000  0.96433000  1.0
  H  H14  1  0.74724000  0.19424000  0.53567000  1.0
  H  H15  1  0.25276000  0.30576000  0.03567000  1.0
  H  H16  1  0.94828000  0.33804000  0.73668000  1.0
  H  H17  1  0.05172000  0.16196000  0.23667000  1.0
  H  H18  1  0.05172000  0.66196000  0.26332000  1.0
  H  H19  1  0.94828000  0.83804000  0.76332000  1.0
  H  H20  1  0.71215000  0.25701000  0.70285000  1.0
  H  H21  1  0.28785000  0.24299000  0.20285000  1.0
  H  H22  1  0.28785000  0.74300000  0.29715000  1.0
  H  H23  1  0.71215000  0.75701000  0.79715000  1.0
  H  H24  1  0.64127000  0.45762000  0.80060000  1.0
  H  H25  1  0.35873000  0.04238000  0.30060000  1.0
  H  H26  1  0.35873000  0.54238000  0.19940000  1.0
  H  H27  1  0.64127000  0.95761000  0.69940000  1.0
  H  H28  1  0.87683000  0.53722000  0.83792000  1.0
  H  H29  1  0.12317000  0.96278000  0.33793000  1.0
  H  H30  1  0.12317000  0.46278000  0.16207000  1.0
  H  H31  1  0.87683000  0.03722000  0.66207000  1.0
  H  H32  1  0.73243000  0.32897000  0.85979000  1.0
  H  H33  1  0.26757000  0.17103000  0.35979000  1.0
  H  H34  1  0.26757000  0.67103000  0.14021000  1.0
  H  H35  1  0.73243000  0.82897000  0.64021000  1.0
  H  H36  1  0.18534000  0.02735000  0.54599000  1.0
  H  H37  1  0.81466000  0.47265000  0.04599000  1.0
  H  H38  1  0.81467000  0.97265000  0.45401000  1.0
  H  H39  1  0.18535000  0.52736000  0.95401000  1.0
  H  H40  1  0.42581000  0.06392000  0.55150000  1.0
  H  H41  1  0.57419000  0.43607000  0.05151000  1.0
  H  H42  1  0.57420000  0.93607000  0.44850000  1.0
  H  H43  1  0.42581000  0.56392000  0.94849000  1.0
  H  H44  1  0.28168000  0.97803000  0.64250000  1.0
  H  H45  1  0.71832000  0.52197000  0.14250000  1.0
  H  H46  1  0.71833000  0.02197000  0.35750000  1.0
  H  H47  1  0.28169000  0.47803000  0.85750000  1.0
  C  C48  1  0.03856000  0.59330000  0.63437000  1.0
  C  C49  1  0.96144000  0.90669000  0.13437000  1.0
  C  C50  1  0.96145000  0.40670000  0.36563000  1.0
  C  C51  1  0.03856000  0.09331000  0.86563000  1.0
  C  C52  1  0.70361000  0.48050000  0.60359000  1.0
  C  C53  1  0.29638000  0.01949000  0.10358000  1.0
  C  C54  1  0.29638000  0.51950000  0.39642000  1.0
  C  C55  1  0.70361000  0.98050000  0.89641000  1.0
  C  C56  1  0.73839000  0.58540000  0.53102000  1.0
  C  C57  1  0.26160000  0.91459000  0.03102000  1.0
  C  C58  1  0.26161000  0.41460000  0.46898000  1.0
  C  C59  1  0.73840000  0.08541000  0.96898000  1.0
  C  C60  1  0.91703000  0.68404000  0.50429000  1.0
  C  C61  1  0.08296000  0.81595000  0.00429000  1.0
  C  C62  1  0.08297000  0.31595000  0.49571000  1.0
  C  C63  1  0.91702000  0.18404000  0.99571000  1.0
  C  C64  1  0.25168000  0.80536000  0.53586000  1.0
  C  C65  1  0.74831000  0.69464000  0.03585000  1.0
  C  C66  1  0.74832000  0.19464000  0.46415000  1.0
  C  C67  1  0.25168000  0.30536000  0.96415000  1.0
  C  C68  1  0.82409000  0.36805000  0.72677000  1.0
  C  C69  1  0.17591000  0.13195000  0.22677000  1.0
  C  C70  1  0.17591000  0.63195000  0.27323000  1.0
  C  C71  1  0.82409000  0.86805000  0.77323000  1.0
  C  C72  1  0.76615000  0.42861000  0.81091000  1.0
  C  C73  1  0.23385000  0.07139000  0.31091000  1.0
  C  C74  1  0.23385000  0.57139000  0.18909000  1.0
  C  C75  1  0.76615000  0.92861000  0.68909000  1.0
  C  C76  1  0.28770000  0.97842000  0.57083000  1.0
  C  C77  1  0.71230000  0.52158000  0.07083000  1.0
  C  C78  1  0.71231000  0.02158000  0.42918000  1.0
  C  C79  1  0.28770000  0.47842000  0.92917000  1.0
  S  S80  1  0.22772000  0.60737000  0.69882000  1.0
  S  S81  1  0.77228000  0.89263000  0.19882000  1.0
  S  S82  1  0.77229000  0.39263000  0.30119000  1.0
  S  S83  1  0.22772000  0.10737000  0.80118000  1.0
  N  N84  1  0.06584000  0.68838000  0.56115000  1.0
  N  N85  1  0.93416000  0.81162000  0.06115000  1.0
  N  N86  1  0.93416000  0.31162000  0.43885000  1.0
  N  N87  1  0.06584000  0.18838000  0.93885000  1.0
  N  N88  1  0.86389000  0.48809000  0.65409000  1.0
  N  N89  1  0.13611000  0.01191000  0.15409000  1.0
  N  N90  1  0.13612000  0.51192000  0.34591000  1.0
  N  N91  1  0.86388000  0.98809000  0.84591000  1.0
  O  O92  1  0.54854000  0.37784000  0.62735000  1.0
  O  O93  1  0.45146000  0.12215000  0.12735000  1.0
  O  O94  1  0.45146000  0.62217000  0.37265000  1.0
  O  O95  1  0.54854000  0.87784000  0.87265000  1.0
  O  O96  1  0.95846000  0.76846000  0.43491000  1.0
  O  O97  1  0.04153000  0.73155000  0.93491000  1.0
  O  O98  1  0.04154000  0.23155000  0.56509000  1.0
  O  O99  1  0.95846000  0.26846000  0.06509000  1.0
