# generated using pymatgen
data_Ag2H6C7SO4
_symmetry_space_group_name_H-M   'P 1'
_cell_length_a   6.06800000
_cell_length_b   11.73470000
_cell_length_c   11.88510000
_cell_angle_alpha   90.00050000
_cell_angle_beta   90.00040000
_cell_angle_gamma   92.60430000
_symmetry_Int_Tables_number   1
_chemical_formula_structural   Ag2H6C7SO4
_chemical_formula_sum   'Ag8 H24 C28 S4 O16'
_cell_volume   845.41824497
_cell_formula_units_Z   4
loop_
 _symmetry_equiv_pos_site_id
 _symmetry_equiv_pos_as_xyz
  1  'x, y, z'
loop_
 _atom_site_type_symbol
 _atom_site_label
 _atom_site_symmetry_multiplicity
 _atom_site_fract_x
 _atom_site_fract_y
 _atom_site_fract_z
 _atom_site_occupancy
  Ag  Ag0  1  0.11973000  0.64215000  0.35024000  1.0
  Ag  Ag1  1  0.38027000  0.35786000  0.85024000  1.0
  Ag  Ag2  1  0.88026000  0.35785000  0.64975000  1.0
  Ag  Ag3  1  0.61973000  0.64214000  0.14976000  1.0
  Ag  Ag4  1  0.28441000  0.53432000  0.63963000  1.0
  Ag  Ag5  1  0.21560000  0.46569000  0.13963000  1.0
  Ag  Ag6  1  0.71558000  0.46568000  0.36037000  1.0
  Ag  Ag7  1  0.78441000  0.53432000  0.86037000  1.0
  H  H8  1  0.55944000  0.19239000  0.73555000  1.0
  H  H9  1  0.94055000  0.80762000  0.23555000  1.0
  H  H10  1  0.44055000  0.80762000  0.26445000  1.0
  H  H11  1  0.05945000  0.19238000  0.76445000  1.0
  H  H12  1  0.78652000  0.06788000  0.61939000  1.0
  H  H13  1  0.71348000  0.93213000  0.11939000  1.0
  H  H14  1  0.21346000  0.93212000  0.38061000  1.0
  H  H15  1  0.28653000  0.06788000  0.88061000  1.0
  H  H16  1  0.48038000  0.19373000  0.32082000  1.0
  H  H17  1  0.01963000  0.80626000  0.82082000  1.0
  H  H18  1  0.51962000  0.80626000  0.67918000  1.0
  H  H19  1  0.98038000  0.19374000  0.17918000  1.0
  H  H20  1  0.74089000  0.04481000  0.30266000  1.0
  H  H21  1  0.75913000  0.95519000  0.80266000  1.0
  H  H22  1  0.25913000  0.95518000  0.69735000  1.0
  H  H23  1  0.24089000  0.04482000  0.19734000  1.0
  H  H24  1  0.81533000  0.96592000  0.42366000  1.0
  H  H25  1  0.68468000  0.03408000  0.92366000  1.0
  H  H26  1  0.18467000  0.03408000  0.57635000  1.0
  H  H27  1  0.31533000  0.96592000  0.07634000  1.0
  H  H28  1  0.96877000  0.09307000  0.38579000  1.0
  H  H29  1  0.53123000  0.90693000  0.88578000  1.0
  H  H30  1  0.03123000  0.90693000  0.61422000  1.0
  H  H31  1  0.46878000  0.09307000  0.11421000  1.0
  C  C32  1  0.37440000  0.26452000  0.47684000  1.0
  C  C33  1  0.12560000  0.73549000  0.97684000  1.0
  C  C34  1  0.62561000  0.73548000  0.52316000  1.0
  C  C35  1  0.87439000  0.26451000  0.02316000  1.0
  C  C36  1  0.39673000  0.27019000  0.59587000  1.0
  C  C37  1  0.10326000  0.72982000  0.09587000  1.0
  C  C38  1  0.60326000  0.72981000  0.40413000  1.0
  C  C39  1  0.89674000  0.27019000  0.90414000  1.0
  C  C40  1  0.54832000  0.19528000  0.64386000  1.0
  C  C41  1  0.95167000  0.80473000  0.14387000  1.0
  C  C42  1  0.45166000  0.80472000  0.35614000  1.0
  C  C43  1  0.04833000  0.19527000  0.85614000  1.0
  C  C44  1  0.67284000  0.12387000  0.57793000  1.0
  C  C45  1  0.82716000  0.87614000  0.07792000  1.0
  C  C46  1  0.32715000  0.87613000  0.42207000  1.0
  C  C47  1  0.17284000  0.12387000  0.92207000  1.0
  C  C48  1  0.65399000  0.12204000  0.46030000  1.0
  C  C49  1  0.84602000  0.87797000  0.96030000  1.0
  C  C50  1  0.34601000  0.87796000  0.53970000  1.0
  C  C51  1  0.15399000  0.12203000  0.03969000  1.0
  C  C52  1  0.49977000  0.19158000  0.41181000  1.0
  C  C53  1  0.00022000  0.80842000  0.91180000  1.0
  C  C54  1  0.50023000  0.80842000  0.58819000  1.0
  C  C55  1  0.99977000  0.19158000  0.08819000  1.0
  C  C56  1  0.80182000  0.05220000  0.38931000  1.0
  C  C57  1  0.69818000  0.94780000  0.88931000  1.0
  C  C58  1  0.19818000  0.94779000  0.61070000  1.0
  C  C59  1  0.30182000  0.05221000  0.11069000  1.0
  S  S60  1  0.20353000  0.35786000  0.40416000  1.0
  S  S61  1  0.29645000  0.64213000  0.90415000  1.0
  S  S62  1  0.79647000  0.64214000  0.59586000  1.0
  S  S63  1  0.70356000  0.35787000  0.09586000  1.0
  O  O64  1  0.30662000  0.47486000  0.42125000  1.0
  O  O65  1  0.19337000  0.52514000  0.92125000  1.0
  O  O66  1  0.69338000  0.52515000  0.57875000  1.0
  O  O67  1  0.80662000  0.47486000  0.07875000  1.0
  O  O68  1  0.97941000  0.34748000  0.45428000  1.0
  O  O69  1  0.52059000  0.65251000  0.95429000  1.0
  O  O70  1  0.02060000  0.65252000  0.54570000  1.0
  O  O71  1  0.47941000  0.34749000  0.04571000  1.0
  O  O72  1  0.20494000  0.32433000  0.28534000  1.0
  O  O73  1  0.29508000  0.67567000  0.78534000  1.0
  O  O74  1  0.79506000  0.67566000  0.71466000  1.0
  O  O75  1  0.70494000  0.32433000  0.21466000  1.0
  O  O76  1  0.28407000  0.33871000  0.66126000  1.0
  O  O77  1  0.21592000  0.66129000  0.16126000  1.0
  O  O78  1  0.71594000  0.66129000  0.33874000  1.0
  O  O79  1  0.78407000  0.33871000  0.83875000  1.0
