# generated using pymatgen
data_DyH12C8SNO13
_symmetry_space_group_name_H-M   'P 1'
_cell_length_a   7.87079000
_cell_length_b   9.85703000
_cell_length_c   10.88410000
_cell_angle_alpha   64.81130000
_cell_angle_beta   85.03870000
_cell_angle_gamma   80.23710000
_symmetry_Int_Tables_number   1
_chemical_formula_structural   DyH12C8SNO13
_chemical_formula_sum   'Dy2 H24 C16 S2 N2 O26'
_cell_volume   752.95908075
_cell_formula_units_Z   2
loop_
 _symmetry_equiv_pos_site_id
 _symmetry_equiv_pos_as_xyz
  1  'x, y, z'
loop_
 _atom_site_type_symbol
 _atom_site_label
 _atom_site_symmetry_multiplicity
 _atom_site_fract_x
 _atom_site_fract_y
 _atom_site_fract_z
 _atom_site_occupancy
  Dy  Dy0  1  0.78779000  0.07612000  0.77555000  1.0
  Dy  Dy1  1  0.21221000  0.92387000  0.22445000  1.0
  H  H2  1  0.77281000  0.17174000  0.34931000  1.0
  H  H3  1  0.22718000  0.82825000  0.65068000  1.0
  H  H4  1  0.57319000  0.09592000  0.37572000  1.0
  H  H5  1  0.42680000  0.90407000  0.62427000  1.0
  H  H6  1  0.40740000  0.35373000  0.31233000  1.0
  H  H7  1  0.59259000  0.64626000  0.68768000  1.0
  H  H8  1  0.54964000  0.31032000  0.44873000  1.0
  H  H9  1  0.45036000  0.68967000  0.55127000  1.0
  H  H10  1  0.44461000  0.28617000  0.72911000  1.0
  H  H11  1  0.55540000  0.71383000  0.27090000  1.0
  H  H12  1  0.59764000  0.37711000  0.66369000  1.0
  H  H13  1  0.40238000  0.62288000  0.33632000  1.0
  H  H14  1  0.46772000  0.91042000  0.86276000  1.0
  H  H15  1  0.53228000  0.08957000  0.13725000  1.0
  H  H16  1  0.42294000  0.06417000  0.87985000  1.0
  H  H17  1  0.57707000  0.93582000  0.12016000  1.0
  H  H18  1  0.91783000  0.33193000  0.59149000  1.0
  H  H19  1  0.08217000  0.66806000  0.40854000  1.0
  H  H20  1  0.00195000  0.22260000  0.52174000  1.0
  H  H21  1  0.99805000  0.77740000  0.47826000  1.0
  H  H22  1  0.14093000  0.12984000  0.82238000  1.0
  H  H23  1  0.85906000  0.87016000  0.17761000  1.0
  H  H24  1  0.12761000  0.95778000  0.90246000  1.0
  H  H25  1  0.87240000  0.04222000  0.09754000  1.0
  C  C26  1  0.75544000  0.39655000  0.96481000  1.0
  C  C27  1  0.24456000  0.60346000  0.03518000  1.0
  C  C28  1  0.68848000  0.35839000  0.09587000  1.0
  C  C29  1  0.31151000  0.64162000  0.90413000  1.0
  C  C30  1  0.63724000  0.19546000  0.32058000  1.0
  C  C31  1  0.36275000  0.80454000  0.67941000  1.0
  C  C32  1  0.54287000  0.32962000  0.34227000  1.0
  C  C33  1  0.45712000  0.67038000  0.65773000  1.0
  C  C34  1  0.68340000  0.47624000  0.13997000  1.0
  C  C35  1  0.31659000  0.52377000  0.86002000  1.0
  C  C36  1  0.74964000  0.60177000  0.04147000  1.0
  C  C37  1  0.25037000  0.39823000  0.95853000  1.0
  C  C38  1  0.77299000  0.74327000  0.04614000  1.0
  C  C39  1  0.22702000  0.25673000  0.95386000  1.0
  C  C40  1  0.78296000  0.30468000  0.88671000  1.0
  C  C41  1  0.21705000  0.69534000  0.11328000  1.0
  S  S42  1  0.81424000  0.57540000  0.89632000  1.0
  S  S43  1  0.18576000  0.42461000  0.10368000  1.0
  N  N44  1  0.80986000  0.91413000  0.60298000  1.0
  N  N45  1  0.19014000  0.08586000  0.39702000  1.0
  O  O46  1  0.63423000  0.22414000  0.17720000  1.0
  O  O47  1  0.36576000  0.77587000  0.82279000  1.0
  O  O48  1  0.62306000  0.46524000  0.26339000  1.0
  O  O49  1  0.37693000  0.53475000  0.73661000  1.0
  O  O50  1  0.84556000  0.83800000  0.94260000  1.0
  O  O51  1  0.15445000  0.16199000  0.05741000  1.0
  O  O52  1  0.72332000  0.76696000  0.15165000  1.0
  O  O53  1  0.27669000  0.23304000  0.84835000  1.0
  O  O54  1  0.75280000  0.16580000  0.94675000  1.0
  O  O55  1  0.24720000  0.83422000  0.05323000  1.0
  O  O56  1  0.83240000  0.36209000  0.76325000  1.0
  O  O57  1  0.16760000  0.63795000  0.23674000  1.0
  O  O58  1  0.94768000  0.91901000  0.65294000  1.0
  O  O59  1  0.05231000  0.08098000  0.34708000  1.0
  O  O60  1  0.67137000  0.99040000  0.62560000  1.0
  O  O61  1  0.32862000  0.00960000  0.37440000  1.0
  O  O62  1  0.80562000  0.83904000  0.53580000  1.0
  O  O63  1  0.19438000  0.16096000  0.46420000  1.0
  O  O64  1  0.55450000  0.28479000  0.67625000  1.0
  O  O65  1  0.44551000  0.71520000  0.32375000  1.0
  O  O66  1  0.51904000  0.99343000  0.86531000  1.0
  O  O67  1  0.48095000  0.00657000  0.13469000  1.0
  O  O68  1  0.89494000  0.25323000  0.56554000  1.0
  O  O69  1  0.10506000  0.74676000  0.43447000  1.0
  O  O70  1  0.07782000  0.04948000  0.82384000  1.0
  O  O71  1  0.92219000  0.95052000  0.17616000  1.0
