# generated using pymatgen
data_Al2H10C21O10
_symmetry_space_group_name_H-M   'P 1'
_cell_length_a   6.84683000
_cell_length_b   16.86120000
_cell_length_c   18.36550000
_cell_angle_alpha   105.73940000
_cell_angle_beta   90.42200000
_cell_angle_gamma   90.73170000
_symmetry_Int_Tables_number   1
_chemical_formula_structural   Al2H10C21O10
_chemical_formula_sum   'Al4 H20 C42 O20'
_cell_volume   2040.42700808
_cell_formula_units_Z   2
loop_
 _symmetry_equiv_pos_site_id
 _symmetry_equiv_pos_as_xyz
  1  'x, y, z'
loop_
 _atom_site_type_symbol
 _atom_site_label
 _atom_site_symmetry_multiplicity
 _atom_site_fract_x
 _atom_site_fract_y
 _atom_site_fract_z
 _atom_site_occupancy
  Al  Al0  1  0.87788000  0.50187000  0.49969000  1.0
  Al  Al1  1  0.37745000  0.50147000  0.50081000  1.0
  Al  Al2  1  0.39278000  0.00176000  0.99962000  1.0
  Al  Al3  1  0.89315000  0.00175000  0.99852000  1.0
  H  H4  1  0.43261000  0.31115000  0.31861000  1.0
  H  H5  1  0.69528000  0.14982000  0.20552000  1.0
  H  H6  1  0.69338000  0.22248000  0.15081000  1.0
  H  H7  1  0.91422000  0.73168000  0.66099000  1.0
  H  H8  1  0.91722000  0.85109000  0.77576000  1.0
  H  H9  1  0.16341000  0.80546000  0.80837000  1.0
  H  H10  1  0.24365000  0.74608000  0.86924000  1.0
  H  H11  1  0.16109000  0.67811000  0.69905000  1.0
  H  H12  1  0.51877000  0.54808000  0.74300000  1.0
  H  H13  1  0.45836000  0.43134000  0.79829000  1.0
  H  H14  1  0.13929000  0.41703000  0.85813000  1.0
  H  H15  1  0.87590000  0.51820000  0.85820000  1.0
  H  H16  1  0.93651000  0.63449000  0.80225000  1.0
  H  H17  1  0.44953000  0.19268000  0.20187000  1.0
  H  H18  1  0.67875000  0.26652000  0.32569000  1.0
  H  H19  1  0.67435000  0.33980000  0.27110000  1.0
  H  H20  1  0.62631000  0.39907000  0.50360000  1.0
  H  H21  1  0.13181000  0.60317000  0.49359000  1.0
  H  H22  1  0.64592000  0.10858000  0.00838000  1.0
  H  H23  1  0.13936000  0.89776000  0.99982000  1.0
  C  C24  1  0.62934000  0.58527000  0.41277000  1.0
  C  C25  1  0.63058000  0.61523000  0.61211000  1.0
  C  C26  1  0.12420000  0.41534000  0.58477000  1.0
  C  C27  1  0.12391000  0.38869000  0.38754000  1.0
  C  C28  1  0.96001000  0.28335000  0.27742000  1.0
  C  C29  1  0.12511000  0.31941000  0.31749000  1.0
  C  C30  1  0.30216000  0.28446000  0.28775000  1.0
  C  C31  1  0.31139000  0.21886000  0.22271000  1.0
  C  C32  1  0.14333000  0.18346000  0.18192000  1.0
  C  C33  1  0.96971000  0.21825000  0.21187000  1.0
  C  C34  1  0.75288000  0.20977000  0.20211000  1.0
  C  C35  1  0.74151000  0.28316000  0.27698000  1.0
  C  C36  1  0.14466000  0.13116000  0.85614000  1.0
  C  C37  1  0.13984000  0.17212000  0.81024000  1.0
  C  C38  1  0.13436000  0.21803000  0.76106000  1.0
  C  C39  1  0.12901000  0.26186000  0.71713000  1.0
  C  C40  1  0.12467000  0.31158000  0.67128000  1.0
  C  C41  1  0.12243000  0.35897000  0.63114000  1.0
  C  C42  1  0.62825000  0.63593000  0.36096000  1.0
  C  C43  1  0.62938000  0.68024000  0.31786000  1.0
  C  C44  1  0.63158000  0.72878000  0.27085000  1.0
  C  C45  1  0.63485000  0.77345000  0.22760000  1.0
  C  C46  1  0.63827000  0.82176000  0.18037000  1.0
  C  C47  1  0.64137000  0.86581000  0.13706000  1.0
  C  C48  1  0.47165000  0.70333000  0.72977000  1.0
  C  C49  1  0.63033000  0.68609000  0.68107000  1.0
  C  C50  1  0.79024000  0.74198000  0.69907000  1.0
  C  C51  1  0.79183000  0.80905000  0.76317000  1.0
  C  C52  1  0.63208000  0.82535000  0.81274000  1.0
  C  C53  1  0.47175000  0.77215000  0.79256000  1.0
  C  C54  1  0.26503000  0.75772000  0.81385000  1.0
  C  C55  1  0.26536000  0.67674000  0.74449000  1.0
  C  C56  1  0.63791000  0.89265000  0.88424000  1.0
  C  C57  1  0.64129000  0.91639000  0.08513000  1.0
  C  C58  1  0.14802000  0.11415000  0.11212000  1.0
  C  C59  1  0.14507000  0.08425000  0.91098000  1.0
  C  C60  1  0.23254000  0.59974000  0.76963000  1.0
  C  C61  1  0.37779000  0.54183000  0.76834000  1.0
  C  C62  1  0.34394000  0.47621000  0.79988000  1.0
  C  C63  1  0.16476000  0.46780000  0.83295000  1.0
  C  C64  1  0.01707000  0.52437000  0.83290000  1.0
  C  C65  1  0.05073000  0.58954000  0.80123000  1.0
  O  O66  1  0.46281000  0.58545000  0.58764000  1.0
  O  O67  1  0.79680000  0.56381000  0.43063000  1.0
  O  O68  1  0.95760000  0.41358000  0.41490000  1.0
  O  O69  1  0.79559000  0.59144000  0.58288000  1.0
  O  O70  1  0.95818000  0.43889000  0.56754000  1.0
  O  O71  1  0.46328000  0.56798000  0.43581000  1.0
  O  O72  1  0.62671000  0.45270000  0.49370000  1.0
  O  O73  1  0.29186000  0.43490000  0.56491000  1.0
  O  O74  1  0.29085000  0.41670000  0.41490000  1.0
  O  O75  1  0.12914000  0.55109000  0.50650000  1.0
  O  O76  1  0.80779000  0.93416000  0.06274000  1.0
  O  O77  1  0.47370000  0.91550000  0.91473000  1.0
  O  O78  1  0.31167000  0.06545000  0.93211000  1.0
  O  O79  1  0.47388000  0.93728000  0.06665000  1.0
  O  O80  1  0.31431000  0.08865000  0.08523000  1.0
  O  O81  1  0.80642000  0.91947000  0.91046000  1.0
  O  O82  1  0.64441000  0.05072000  0.00691000  1.0
  O  O83  1  0.98105000  0.08670000  0.08411000  1.0
  O  O84  1  0.97774000  0.06724000  0.93306000  1.0
  O  O85  1  0.14128000  0.95244000  0.99220000  1.0
