# generated using pymatgen
data_Cs2UH14C14(NO7)2
_symmetry_space_group_name_H-M   'P 1'
_cell_length_a   6.94571000
_cell_length_b   8.45205000
_cell_length_c   10.77510000
_cell_angle_alpha   99.88820000
_cell_angle_beta   105.65000000
_cell_angle_gamma   110.26700000
_symmetry_Int_Tables_number   1
_chemical_formula_structural   Cs2UH14C14(NO7)2
_chemical_formula_sum   'Cs2 U1 H14 C14 N2 O14'
_cell_volume   546.22220604
_cell_formula_units_Z   1
loop_
 _symmetry_equiv_pos_site_id
 _symmetry_equiv_pos_as_xyz
  1  'x, y, z'
loop_
 _atom_site_type_symbol
 _atom_site_label
 _atom_site_symmetry_multiplicity
 _atom_site_fract_x
 _atom_site_fract_y
 _atom_site_fract_z
 _atom_site_occupancy
  Cs  Cs0  1  0.06193000  0.26373000  0.42827000  1.0
  Cs  Cs1  1  0.93808000  0.73627000  0.57173000  1.0
  U  U2  1  0.50001000  0.99999000  0.00001000  1.0
  H  H3  1  0.41555000  0.73015000  0.65218000  1.0
  H  H4  1  0.58445000  0.26990000  0.34782000  1.0
  H  H5  1  0.45685000  0.74585000  0.51699000  1.0
  H  H6  1  0.54316000  0.25416000  0.48301000  1.0
  H  H7  1  0.95016000  0.21237000  0.68375000  1.0
  H  H8  1  0.04987000  0.78764000  0.31625000  1.0
  H  H9  1  0.76086000  0.03783000  0.57578000  1.0
  H  H10  1  0.23918000  0.96217000  0.42423000  1.0
  H  H11  1  0.91467000  0.74945000  0.10783000  1.0
  H  H12  1  0.08530000  0.25055000  0.89218000  1.0
  H  H13  1  0.81672000  0.76266000  0.87151000  1.0
  H  H14  1  0.18327000  0.23734000  0.12848000  1.0
  H  H15  1  0.60512000  0.47550000  0.68127000  1.0
  H  H16  1  0.39489000  0.52449000  0.31871000  1.0
  C  C17  1  0.75126000  0.46385000  0.04673000  1.0
  C  C18  1  0.24872000  0.53616000  0.95327000  1.0
  C  C19  1  0.82209000  0.62861000  0.02404000  1.0
  C  C20  1  0.17789000  0.37140000  0.97596000  1.0
  C  C21  1  0.76847000  0.63504000  0.89102000  1.0
  C  C22  1  0.23154000  0.36497000  0.10897000  1.0
  C  C23  1  0.65311000  0.47746000  0.78661000  1.0
  C  C24  1  0.34690000  0.52254000  0.21339000  1.0
  C  C25  1  0.59465000  0.31829000  0.81852000  1.0
  C  C26  1  0.40536000  0.68171000  0.18147000  1.0
  C  C27  1  0.78968000  0.43748000  0.18363000  1.0
  C  C28  1  0.21031000  0.56252000  0.81639000  1.0
  C  C29  1  0.47592000  0.14075000  0.71499000  1.0
  C  C30  1  0.52411000  0.85924000  0.28500000  1.0
  N  N31  1  0.63874000  0.31164000  0.94606000  1.0
  N  N32  1  0.36127000  0.68836000  0.05393000  1.0
  O  O33  1  0.68577000  0.27818000  0.18314000  1.0
  O  O34  1  0.31415000  0.72185000  0.81688000  1.0
  O  O35  1  0.91567000  0.56230000  0.28835000  1.0
  O  O36  1  0.08431000  0.43769000  0.71167000  1.0
  O  O37  1  0.42854000  0.01015000  0.76352000  1.0
  O  O38  1  0.57144000  0.98984000  0.23647000  1.0
  O  O39  1  0.42936000  0.12929000  0.59155000  1.0
  O  O40  1  0.57066000  0.87067000  0.40844000  1.0
  O  O41  1  0.76584000  0.00079000  0.01534000  1.0
  O  O42  1  0.23415000  0.99919000  0.98469000  1.0
  O  O43  1  0.42191000  0.66369000  0.57039000  1.0
  O  O44  1  0.57805000  0.33633000  0.42960000  1.0
  O  O45  1  0.89550000  0.08232000  0.65560000  1.0
  O  O46  1  0.10454000  0.91768000  0.34440000  1.0
