# generated using pymatgen
data_ZnH8C8(O2F)4
_symmetry_space_group_name_H-M   'P 1'
_cell_length_a   5.11670000
_cell_length_b   6.56680000
_cell_length_c   9.18675000
_cell_angle_alpha   73.80850000
_cell_angle_beta   88.41350000
_cell_angle_gamma   73.26150000
_symmetry_Int_Tables_number   1
_chemical_formula_structural   ZnH8C8(O2F)4
_chemical_formula_sum   'Zn1 H8 C8 O8 F4'
_cell_volume   283.40899569
_cell_formula_units_Z   1
loop_
 _symmetry_equiv_pos_site_id
 _symmetry_equiv_pos_as_xyz
  1  'x, y, z'
loop_
 _atom_site_type_symbol
 _atom_site_label
 _atom_site_symmetry_multiplicity
 _atom_site_fract_x
 _atom_site_fract_y
 _atom_site_fract_z
 _atom_site_occupancy
  Zn  Zn0  1  0.00000000  0.00000000  0.00000000  1.0
  H  H1  1  0.32032000  0.65794000  0.92663000  1.0
  H  H2  1  0.67968000  0.34204000  0.07338000  1.0
  H  H3  1  0.18593000  0.59325000  0.08456000  1.0
  H  H4  1  0.81406000  0.40674000  0.91544000  1.0
  H  H5  1  0.84530000  0.82027000  0.79656000  1.0
  H  H6  1  0.15471000  0.17972000  0.20345000  1.0
  H  H7  1  0.58631000  0.01358000  0.82086000  1.0
  H  H8  1  0.41370000  0.98641000  0.17915000  1.0
  C  C9  1  0.18314000  0.36865000  0.76289000  1.0
  C  C10  1  0.81686000  0.63133000  0.23711000  1.0
  C  C11  1  0.34136000  0.43931000  0.62633000  1.0
  C  C12  1  0.65864000  0.56075000  0.37368000  1.0
  C  C13  1  0.45711000  0.61229000  0.60825000  1.0
  C  C14  1  0.54284000  0.38769000  0.39177000  1.0
  C  C15  1  0.61520000  0.67024000  0.48669000  1.0
  C  C16  1  0.38482000  0.32977000  0.51328000  1.0
  O  O17  1  0.23998000  0.16167000  0.82735000  1.0
  O  O18  1  0.76003000  0.83834000  0.17264000  1.0
  O  O19  1  0.00477000  0.51944000  0.80269000  1.0
  O  O20  1  0.99521000  0.48056000  0.19731000  1.0
  O  O21  1  0.29204000  0.69422000  0.02306000  1.0
  O  O22  1  0.70796000  0.30577000  0.97694000  1.0
  O  O23  1  0.78874000  0.96388000  0.81932000  1.0
  O  O24  1  0.21127000  0.03610000  0.18068000  1.0
  F  F25  1  0.42224000  0.72710000  0.71296000  1.0
  F  F26  1  0.57777000  0.27291000  0.28703000  1.0
  F  F27  1  0.73360000  0.83055000  0.48196000  1.0
  F  F28  1  0.26640000  0.16946000  0.51804000  1.0
