# generated using pymatgen
data_Zn3H10C47Br5O12
_symmetry_space_group_name_H-M   'P 1'
_cell_length_a   17.03690000
_cell_length_b   17.03690000
_cell_length_c   17.36660000
_cell_angle_alpha   65.25550000
_cell_angle_beta   65.25450000
_cell_angle_gamma   65.92100000
_symmetry_Int_Tables_number   1
_chemical_formula_structural   Zn3H10C47Br5O12
_chemical_formula_sum   'Zn6 H20 C94 Br10 O24'
_cell_volume   3988.54265562
_cell_formula_units_Z   2
loop_
 _symmetry_equiv_pos_site_id
 _symmetry_equiv_pos_as_xyz
  1  'x, y, z'
loop_
 _atom_site_type_symbol
 _atom_site_label
 _atom_site_symmetry_multiplicity
 _atom_site_fract_x
 _atom_site_fract_y
 _atom_site_fract_z
 _atom_site_occupancy
  Zn  Zn0  1  0.00506000  0.42220000  0.50144000  1.0
  Zn  Zn1  1  0.99492000  0.57780000  0.49858000  1.0
  Zn  Zn2  1  0.57780000  0.99492000  0.49857000  1.0
  Zn  Zn3  1  0.42220000  0.00508000  0.50142000  1.0
  Zn  Zn4  1  0.00077000  0.00077000  0.92612000  1.0
  Zn  Zn5  1  0.99923000  0.99922000  0.07389000  1.0
  H  H6  1  0.57986000  0.21547000  0.45721000  1.0
  H  H7  1  0.42014000  0.78454000  0.54276000  1.0
  H  H8  1  0.78453000  0.42014000  0.54276000  1.0
  H  H9  1  0.21546000  0.57985000  0.45725000  1.0
  H  H10  1  0.00741000  0.73046000  0.23296000  1.0
  H  H11  1  0.99257000  0.26954000  0.76706000  1.0
  H  H12  1  0.26954000  0.99260000  0.76704000  1.0
  H  H13  1  0.73046000  0.00742000  0.23295000  1.0
  H  H14  1  0.10482000  0.75190000  0.92509000  1.0
  H  H15  1  0.89517000  0.24810000  0.07493000  1.0
  H  H16  1  0.24810000  0.89519000  0.07491000  1.0
  H  H17  1  0.75191000  0.10482000  0.92508000  1.0
  H  H18  1  0.11303000  0.66153000  0.84424000  1.0
  H  H19  1  0.88698000  0.33846000  0.15579000  1.0
  H  H20  1  0.33847000  0.88698000  0.15576000  1.0
  H  H21  1  0.66155000  0.11303000  0.84422000  1.0
  H  H22  1  0.96261000  0.44389000  0.30648000  1.0
  H  H23  1  0.03741000  0.55610000  0.69354000  1.0
  H  H24  1  0.55611000  0.03742000  0.69351000  1.0
  H  H25  1  0.44389000  0.96260000  0.30646000  1.0
  C  C26  1  0.00084000  0.56627000  0.33490000  1.0
  C  C27  1  0.99914000  0.43373000  0.66513000  1.0
  C  C28  1  0.43373000  0.99916000  0.66511000  1.0
  C  C29  1  0.56627000  0.00084000  0.33488000  1.0
  C  C30  1  0.59076000  0.59077000  0.52597000  1.0
  C  C31  1  0.40923000  0.40923000  0.47401000  1.0
  C  C32  1  0.54536000  0.28197000  0.46531000  1.0
  C  C33  1  0.45464000  0.71803000  0.53467000  1.0
  C  C34  1  0.71803000  0.45464000  0.53467000  1.0
  C  C35  1  0.28196000  0.54535000  0.46533000  1.0
  C  C36  1  0.00660000  0.54441000  0.05070000  1.0
  C  C37  1  0.99342000  0.45557000  0.94933000  1.0
  C  C38  1  0.45558000  0.99342000  0.94930000  1.0
  C  C39  1  0.54442000  0.00659000  0.05067000  1.0
  C  C40  1  0.97766000  0.46368000  0.09580000  1.0
  C  C41  1  0.02236000  0.53630000  0.90423000  1.0
  C  C42  1  0.53631000  0.02236000  0.90421000  1.0
  C  C43  1  0.46369000  0.97766000  0.09577000  1.0
  C  C44  1  0.96674000  0.42312000  0.04470000  1.0
  C  C45  1  0.03328000  0.57686000  0.95533000  1.0
  C  C46  1  0.57687000  0.03328000  0.95530000  1.0
  C  C47  1  0.42313000  0.96674000  0.04467000  1.0
  C  C48  1  0.03445000  0.67591000  0.05370000  1.0
  C  C49  1  0.96555000  0.32409000  0.94632000  1.0
  C  C50  1  0.32409000  0.96557000  0.94629000  1.0
  C  C51  1  0.67591000  0.03445000  0.05369000  1.0
  C  C52  1  0.02380000  0.72925000  0.10428000  1.0
  C  C53  1  0.97619000  0.27074000  0.89575000  1.0
  C  C54  1  0.27073000  0.97622000  0.89572000  1.0
  C  C55  1  0.72927000  0.02381000  0.10426000  1.0
  C  C56  1  0.00992000  0.69133000  0.19560000  1.0
  C  C57  1  0.99006000  0.30867000  0.80443000  1.0
  C  C58  1  0.30867000  0.99009000  0.80440000  1.0
  C  C59  1  0.69133000  0.00993000  0.19558000  1.0
  C  C60  1  0.00037000  0.60458000  0.24045000  1.0
  C  C61  1  0.99962000  0.39542000  0.75958000  1.0
  C  C62  1  0.39542000  0.99965000  0.75955000  1.0
  C  C63  1  0.60458000  0.00037000  0.24043000  1.0
  C  C64  1  0.99332000  0.55710000  0.19351000  1.0
  C  C65  1  0.00668000  0.44289000  0.80652000  1.0
  C  C66  1  0.44290000  0.00670000  0.80649000  1.0
  C  C67  1  0.55710000  0.99332000  0.19349000  1.0
  C  C68  1  0.17282000  0.44029000  0.47041000  1.0
  C  C69  1  0.82716000  0.55969000  0.52961000  1.0
  C  C70  1  0.55969000  0.82717000  0.52960000  1.0
  C  C71  1  0.44030000  0.17283000  0.47039000  1.0
  C  C72  1  0.01110000  0.59263000  0.09924000  1.0
  C  C73  1  0.98891000  0.40736000  0.90078000  1.0
  C  C74  1  0.40736000  0.98892000  0.90075000  1.0
  C  C75  1  0.59264000  0.01110000  0.09922000  1.0
  C  C76  1  0.07388000  0.69700000  0.96005000  1.0
  C  C77  1  0.92613000  0.30300000  0.03997000  1.0
  C  C78  1  0.30300000  0.92614000  0.03994000  1.0
  C  C79  1  0.69701000  0.07388000  0.96004000  1.0
  C  C80  1  0.07625000  0.64708000  0.91436000  1.0
  C  C81  1  0.92376000  0.35290000  0.08567000  1.0
  C  C82  1  0.35291000  0.92376000  0.08565000  1.0
  C  C83  1  0.64709000  0.07625000  0.91433000  1.0
  C  C84  1  0.97172000  0.47392000  0.23583000  1.0
  C  C85  1  0.02828000  0.52606000  0.76420000  1.0
  C  C86  1  0.52607000  0.02830000  0.76417000  1.0
  C  C87  1  0.47393000  0.97172000  0.23580000  1.0
  C  C88  1  0.96547000  0.42910000  0.18999000  1.0
  C  C89  1  0.03454000  0.57089000  0.81003000  1.0
  C  C90  1  0.57089000  0.03455000  0.81001000  1.0
  C  C91  1  0.42911000  0.96547000  0.18997000  1.0
  C  C92  1  0.82630000  0.02204000  0.06531000  1.0
  C  C93  1  0.17371000  0.97797000  0.93466000  1.0
  C  C94  1  0.97795000  0.17370000  0.93470000  1.0
  C  C95  1  0.02205000  0.82629000  0.06534000  1.0
  C  C96  1  0.32422000  0.59006000  0.47969000  1.0
  C  C97  1  0.67576000  0.40994000  0.52030000  1.0
  C  C98  1  0.40994000  0.67577000  0.52030000  1.0
  C  C99  1  0.59005000  0.32423000  0.47968000  1.0
  C  C100  1  0.28056000  0.68026000  0.48824000  1.0
  C  C101  1  0.71943000  0.31973000  0.51176000  1.0
  C  C102  1  0.31972000  0.71943000  0.51176000  1.0
  C  C103  1  0.68026000  0.28057000  0.48823000  1.0
  C  C104  1  0.45531000  0.58776000  0.50873000  1.0
  C  C105  1  0.54469000  0.41224000  0.49125000  1.0
  C  C106  1  0.41224000  0.54469000  0.49125000  1.0
  C  C107  1  0.58775000  0.45531000  0.50873000  1.0
  C  C108  1  0.54436000  0.54436000  0.51612000  1.0
  C  C109  1  0.45564000  0.45564000  0.48385000  1.0
  C  C110  1  0.68117000  0.54704000  0.53061000  1.0
  C  C111  1  0.31883000  0.45295000  0.46939000  1.0
  C  C112  1  0.45296000  0.31883000  0.46938000  1.0
  C  C113  1  0.54704000  0.68117000  0.53060000  1.0
  C  C114  1  0.73328000  0.59996000  0.52200000  1.0
  C  C115  1  0.26670000  0.40004000  0.47800000  1.0
  C  C116  1  0.40004000  0.26671000  0.47799000  1.0
  C  C117  1  0.59995000  0.73329000  0.52200000  1.0
  C  C118  1  0.69410000  0.69410000  0.50335000  1.0
  C  C119  1  0.30589000  0.30589000  0.49665000  1.0
  Br  Br120  1  0.74217000  0.16654000  0.46790000  1.0
  Br  Br121  1  0.25782000  0.83346000  0.53208000  1.0
  Br  Br122  1  0.83345000  0.25782000  0.53209000  1.0
  Br  Br123  1  0.16654000  0.74217000  0.46790000  1.0
  Br  Br124  1  0.77095000  0.77094000  0.43045000  1.0
  Br  Br125  1  0.22906000  0.22905000  0.56956000  1.0
  Br  Br126  1  0.95129000  0.31157000  0.26556000  1.0
  Br  Br127  1  0.04875000  0.68841000  0.73446000  1.0
  Br  Br128  1  0.68843000  0.04873000  0.73445000  1.0
  Br  Br129  1  0.31157000  0.95131000  0.26553000  1.0
  O  O130  1  0.00721000  0.48245000  0.37335000  1.0
  O  O131  1  0.99277000  0.51756000  0.62668000  1.0
  O  O132  1  0.51756000  0.99278000  0.62666000  1.0
  O  O133  1  0.48245000  0.00721000  0.37333000  1.0
  O  O134  1  0.13024000  0.52131000  0.47318000  1.0
  O  O135  1  0.86974000  0.47868000  0.52686000  1.0
  O  O136  1  0.47869000  0.86975000  0.52683000  1.0
  O  O137  1  0.52133000  0.13025000  0.47316000  1.0
  O  O138  1  0.14050000  0.39143000  0.45955000  1.0
  O  O139  1  0.85949000  0.60857000  0.54047000  1.0
  O  O140  1  0.60857000  0.85949000  0.54046000  1.0
  O  O141  1  0.39144000  0.14051000  0.45953000  1.0
  O  O142  1  0.99738000  0.61996000  0.37147000  1.0
  O  O143  1  0.00262000  0.38005000  0.62855000  1.0
  O  O144  1  0.38004000  0.00263000  0.62853000  1.0
  O  O145  1  0.61996000  0.99737000  0.37146000  1.0
  O  O146  1  0.86644000  0.01863000  0.98533000  1.0
  O  O147  1  0.13356000  0.98134000  0.01467000  1.0
  O  O148  1  0.98135000  0.13356000  0.01469000  1.0
  O  O149  1  0.01868000  0.86643000  0.98534000  1.0
  O  O150  1  0.98016000  0.13551000  0.88365000  1.0
  O  O151  1  0.01981000  0.86448000  0.11640000  1.0
  O  O152  1  0.86449000  0.01983000  0.11636000  1.0
  O  O153  1  0.13551000  0.98019000  0.88361000  1.0
