# generated using pymatgen
data_LaH15(C3O4)3
_symmetry_space_group_name_H-M   'P 1'
_cell_length_a   7.28271000
_cell_length_b   10.12820000
_cell_length_c   10.65542373
_cell_angle_alpha   115.00524177
_cell_angle_beta   105.55568351
_cell_angle_gamma   98.86000000
_symmetry_Int_Tables_number   1
_chemical_formula_structural   LaH15(C3O4)3
_chemical_formula_sum   'La2 H30 C18 O24'
_cell_volume   653.22245459
_cell_formula_units_Z   2
loop_
 _symmetry_equiv_pos_site_id
 _symmetry_equiv_pos_as_xyz
  1  'x, y, z'
loop_
 _atom_site_type_symbol
 _atom_site_label
 _atom_site_symmetry_multiplicity
 _atom_site_fract_x
 _atom_site_fract_y
 _atom_site_fract_z
 _atom_site_occupancy
  La  La0  1  0.80523000  0.45600000  0.66385000  1.0
  La  La1  1  0.64140000  0.79212000  0.33616000  1.0
  H  H2  1  0.87569000  0.88296000  0.74454000  1.0
  H  H3  1  0.63153000  0.13836000  0.25542000  1.0
  H  H4  1  0.91089000  0.35563000  0.98471000  1.0
  H  H5  1  0.42651000  0.37070000  0.01517000  1.0
  H  H6  1  0.11652000  0.12141000  0.22429000  1.0
  H  H7  1  0.39213000  0.89677000  0.77565000  1.0
  H  H8  1  0.36791000  0.26372000  0.58687000  1.0
  H  H9  1  0.28131000  0.67688000  0.41323000  1.0
  H  H10  1  0.33799000  0.31889000  0.46496000  1.0
  H  H11  1  0.37313000  0.85390000  0.53519000  1.0
  H  H12  1  0.53427000  0.66589000  0.57519000  1.0
  H  H13  1  0.45912000  0.09079000  0.42494000  1.0
  H  H14  1  0.55601000  0.68928000  0.73493000  1.0
  H  H15  1  0.32131000  0.95455000  0.26516000  1.0
  H  H16  1  0.57116000  0.59719000  0.88092000  1.0
  H  H17  1  0.19055000  0.71651000  0.11908000  1.0
  H  H18  1  0.53396000  0.41942000  0.83353000  1.0
  H  H19  1  0.20047000  0.58610000  0.16645000  1.0
  H  H20  1  0.98643000  0.28626000  0.43704000  1.0
  H  H21  1  0.04899000  0.84915000  0.56304000  1.0
  H  H22  1  0.93601000  0.14681000  0.46378000  1.0
  H  H23  1  0.97204000  0.68297000  0.53628000  1.0
  H  H24  1  0.14976000  0.52816000  0.54331000  1.0
  H  H25  1  0.10643000  0.98472000  0.45663000  1.0
  H  H26  1  0.22590000  0.64667000  0.71922000  1.0
  H  H27  1  0.00687000  0.92749000  0.28079000  1.0
  H  H28  1  0.19186000  0.37799000  0.79764000  1.0
  H  H29  1  0.89428000  0.58041000  0.20226000  1.0
  H  H30  1  0.19499000  0.52581000  0.94082000  1.0
  H  H31  1  0.75409000  0.58489000  0.05905000  1.0
  C  C32  1  0.99634000  0.98606000  0.98497000  1.0
  C  C33  1  0.51152000  0.00091000  0.01500000  1.0
  C  C34  1  0.91477000  0.98658000  0.85013000  1.0
  C  C35  1  0.56497000  0.13635000  0.14983000  1.0
  C  C36  1  0.88249000  0.11979000  0.85063000  1.0
  C  C37  1  0.53223000  0.26904000  0.14930000  1.0
  C  C38  1  0.93668000  0.25335000  0.98651000  1.0
  C  C39  1  0.45054000  0.26667000  0.01340000  1.0
  C  C40  1  0.02378000  0.25500000  0.12144000  1.0
  C  C41  1  0.40254000  0.13334000  0.87849000  1.0
  C  C42  1  0.05062000  0.12064000  0.11949000  1.0
  C  C43  1  0.43131000  0.00089000  0.88046000  1.0
  C  C44  1  0.79474000  0.12260000  0.70666000  1.0
  C  C45  1  0.58819000  0.41584000  0.29326000  1.0
  C  C46  1  0.09279000  0.39790000  0.26756000  1.0
  C  C47  1  0.32528000  0.13014000  0.73239000  1.0
  C  C48  1  0.02729000  0.84408000  0.98813000  1.0
  C  C49  1  0.53913000  0.85575000  0.01192000  1.0
  O  O50  1  0.42801000  0.27951000  0.51796000  1.0
  O  O51  1  0.41024000  0.76154000  0.48218000  1.0
  O  O52  1  0.15202000  0.38921000  0.38725000  1.0
  O  O53  1  0.26478000  0.00175000  0.61268000  1.0
  O  O54  1  0.58391000  0.62821000  0.64539000  1.0
  O  O55  1  0.43854000  0.98290000  0.35473000  1.0
  O  O56  1  0.09254000  0.52473000  0.26885000  1.0
  O  O57  1  0.32368000  0.25572000  0.73123000  1.0
  O  O58  1  0.64067000  0.51560000  0.87008000  1.0
  O  O59  1  0.27075000  0.64570000  0.12989000  1.0
  O  O60  1  0.73546000  0.23594000  0.71271000  1.0
  O  O61  1  0.52273000  0.52305000  0.28713000  1.0
  O  O62  1  0.78729000  0.01154000  0.58767000  1.0
  O  O63  1  0.69958000  0.42386000  0.41231000  1.0
  O  O64  1  0.92715000  0.25177000  0.49517000  1.0
  O  O65  1  0.93163000  0.75653000  0.50497000  1.0
  O  O66  1  0.10796000  0.59389000  0.62492000  1.0
  O  O67  1  0.98310000  0.96892000  0.37508000  1.0
  O  O68  1  0.98422000  0.72392000  0.86643000  1.0
  O  O69  1  0.61790000  0.85744000  0.13366000  1.0
  O  O70  1  0.12666000  0.45810000  0.83117000  1.0
  O  O71  1  0.79559000  0.62703000  0.16876000  1.0
  O  O72  1  0.09729000  0.85202000  0.11644000  1.0
  O  O73  1  0.48054000  0.73522000  0.88366000  1.0
