# generated using pymatgen
data_ZnH10C16(NO)4
_symmetry_space_group_name_H-M   'P 1'
_cell_length_a   7.83282000
_cell_length_b   21.08270000
_cell_length_c   24.23450000
_cell_angle_alpha   90.00010000
_cell_angle_beta   90.00070000
_cell_angle_gamma   89.99980000
_symmetry_Int_Tables_number   1
_chemical_formula_structural   ZnH10C16(NO)4
_chemical_formula_sum   'Zn8 H80 C128 N32 O32'
_cell_volume   4002.01248595
_cell_formula_units_Z   8
loop_
 _symmetry_equiv_pos_site_id
 _symmetry_equiv_pos_as_xyz
  1  'x, y, z'
loop_
 _atom_site_type_symbol
 _atom_site_label
 _atom_site_symmetry_multiplicity
 _atom_site_fract_x
 _atom_site_fract_y
 _atom_site_fract_z
 _atom_site_occupancy
  Zn  Zn0  1  0.57026000  0.84062000  0.28323000  1.0
  Zn  Zn1  1  0.92974000  0.15938000  0.78323000  1.0
  Zn  Zn2  1  0.42974000  0.34062000  0.21677000  1.0
  Zn  Zn3  1  0.07027000  0.65938000  0.71677000  1.0
  Zn  Zn4  1  0.42973000  0.15938000  0.71677000  1.0
  Zn  Zn5  1  0.07026000  0.84062000  0.21677000  1.0
  Zn  Zn6  1  0.57027000  0.65938000  0.78323000  1.0
  Zn  Zn7  1  0.92974000  0.34062000  0.28323000  1.0
  H  H8  1  0.73849000  0.73992000  0.67536000  1.0
  H  H9  1  0.76151000  0.26008000  0.17536000  1.0
  H  H10  1  0.26151000  0.23992000  0.82464000  1.0
  H  H11  1  0.23849000  0.76008000  0.32464000  1.0
  H  H12  1  0.26151000  0.26009000  0.32464000  1.0
  H  H13  1  0.23850000  0.73992000  0.82465000  1.0
  H  H14  1  0.73849000  0.76008000  0.17536000  1.0
  H  H15  1  0.76151000  0.23992000  0.67536000  1.0
  H  H16  1  0.73621000  0.90224000  0.54735000  1.0
  H  H17  1  0.76379000  0.09776000  0.04735000  1.0
  H  H18  1  0.26378000  0.40224000  0.95265000  1.0
  H  H19  1  0.23621000  0.59776000  0.45265000  1.0
  H  H20  1  0.26379000  0.09776000  0.45265000  1.0
  H  H21  1  0.23621000  0.90224000  0.95265000  1.0
  H  H22  1  0.73621000  0.59776000  0.04735000  1.0
  H  H23  1  0.76378000  0.40224000  0.54735000  1.0
  H  H24  1  0.72828000  0.88431000  0.44605000  1.0
  H  H25  1  0.77172000  0.11569000  0.94605000  1.0
  H  H26  1  0.27171000  0.38430000  0.05395000  1.0
  H  H27  1  0.22828000  0.61569000  0.55395000  1.0
  H  H28  1  0.27173000  0.11569000  0.55395000  1.0
  H  H29  1  0.22827000  0.88430000  0.05395000  1.0
  H  H30  1  0.72829000  0.61569000  0.94605000  1.0
  H  H31  1  0.77171000  0.38431000  0.44605000  1.0
  H  H32  1  0.23426000  0.81425000  0.66608000  1.0
  H  H33  1  0.26574000  0.18576000  0.16607000  1.0
  H  H34  1  0.76574000  0.31424000  0.83392000  1.0
  H  H35  1  0.73426000  0.68576000  0.33392000  1.0
  H  H36  1  0.76573000  0.18575000  0.33393000  1.0
  H  H37  1  0.73426000  0.81424000  0.83393000  1.0
  H  H38  1  0.23425000  0.68576000  0.16607000  1.0
  H  H39  1  0.26573000  0.31424000  0.66608000  1.0
  H  H40  1  0.52448000  0.05547000  0.63321000  1.0
  H  H41  1  0.97552000  0.94453000  0.13322000  1.0
  H  H42  1  0.47554000  0.55547000  0.86679000  1.0
  H  H43  1  0.02447000  0.44453000  0.36678000  1.0
  H  H44  1  0.47551000  0.94453000  0.36678000  1.0
  H  H45  1  0.02448000  0.05547000  0.86678000  1.0
  H  H46  1  0.52448000  0.44453000  0.13321000  1.0
  H  H47  1  0.97551000  0.55547000  0.63321000  1.0
  H  H48  1  0.44837000  0.95143000  0.59062000  1.0
  H  H49  1  0.05162000  0.04857000  0.09063000  1.0
  H  H50  1  0.55163000  0.45143000  0.90938000  1.0
  H  H51  1  0.94837000  0.54857000  0.40937000  1.0
  H  H52  1  0.55161000  0.04857000  0.40938000  1.0
  H  H53  1  0.94838000  0.95143000  0.90937000  1.0
  H  H54  1  0.44838000  0.54857000  0.09062000  1.0
  H  H55  1  0.05162000  0.45143000  0.59062000  1.0
  H  H56  1  0.37918000  0.72972000  0.46878000  1.0
  H  H57  1  0.12082000  0.27028000  0.96879000  1.0
  H  H58  1  0.62082000  0.22972000  0.03122000  1.0
  H  H59  1  0.87917000  0.77028000  0.53122000  1.0
  H  H60  1  0.62084000  0.27028000  0.53122000  1.0
  H  H61  1  0.87918000  0.72972000  0.03122000  1.0
  H  H62  1  0.37918000  0.77028000  0.96878000  1.0
  H  H63  1  0.12082000  0.22972000  0.46878000  1.0
  H  H64  1  0.38350000  0.74651000  0.56968000  1.0
  H  H65  1  0.11649000  0.25348000  0.06968000  1.0
  H  H66  1  0.61651000  0.24651000  0.93032000  1.0
  H  H67  1  0.88350000  0.75349000  0.43032000  1.0
  H  H68  1  0.61651000  0.25349000  0.43032000  1.0
  H  H69  1  0.88350000  0.74651000  0.93032000  1.0
  H  H70  1  0.38350000  0.75348000  0.06968000  1.0
  H  H71  1  0.11650000  0.24651000  0.56968000  1.0
  H  H72  1  0.84186000  0.95990000  0.75165000  1.0
  H  H73  1  0.65814000  0.04010000  0.25165000  1.0
  H  H74  1  0.15815000  0.45990000  0.74835000  1.0
  H  H75  1  0.34187000  0.54010000  0.24835000  1.0
  H  H76  1  0.15813000  0.04011000  0.24834000  1.0
  H  H77  1  0.34187000  0.95989000  0.74835000  1.0
  H  H78  1  0.84185000  0.54010000  0.25166000  1.0
  H  H79  1  0.65813000  0.45990000  0.75165000  1.0
  H  H80  1  0.76741000  0.85540000  0.70936000  1.0
  H  H81  1  0.73258000  0.14461000  0.20936000  1.0
  H  H82  1  0.23260000  0.35540000  0.79064000  1.0
  H  H83  1  0.26743000  0.64461000  0.29065000  1.0
  H  H84  1  0.23258000  0.14461000  0.29064000  1.0
  H  H85  1  0.26742000  0.85539000  0.79064000  1.0
  H  H86  1  0.76740000  0.64460000  0.20936000  1.0
  H  H87  1  0.73258000  0.35539000  0.70936000  1.0
  C  C88  1  0.60370000  0.74776000  0.68457000  1.0
  C  C89  1  0.89631000  0.25224000  0.18457000  1.0
  C  C90  1  0.39631000  0.24776000  0.81543000  1.0
  C  C91  1  0.10370000  0.75224000  0.31543000  1.0
  C  C92  1  0.39630000  0.25224000  0.31543000  1.0
  C  C93  1  0.10370000  0.74776000  0.81543000  1.0
  C  C94  1  0.60369000  0.75224000  0.18457000  1.0
  C  C95  1  0.89630000  0.24776000  0.68457000  1.0
  C  C96  1  0.69035000  0.01387000  0.69440000  1.0
  C  C97  1  0.80965000  0.98613000  0.19440000  1.0
  C  C98  1  0.30967000  0.51387000  0.80560000  1.0
  C  C99  1  0.19036000  0.48613000  0.30560000  1.0
  C  C100  1  0.30964000  0.98614000  0.30560000  1.0
  C  C101  1  0.19036000  0.01387000  0.80560000  1.0
  C  C102  1  0.69035000  0.48613000  0.19440000  1.0
  C  C103  1  0.80964000  0.51387000  0.69440000  1.0
  C  C104  1  0.54452000  0.79637000  0.38957000  1.0
  C  C105  1  0.95549000  0.20362000  0.88957000  1.0
  C  C106  1  0.45547000  0.29637000  0.11043000  1.0
  C  C107  1  0.04452000  0.70363000  0.61043000  1.0
  C  C108  1  0.45548000  0.20363000  0.61043000  1.0
  C  C109  1  0.04452000  0.79637000  0.11043000  1.0
  C  C110  1  0.54454000  0.70363000  0.88957000  1.0
  C  C111  1  0.95548000  0.29637000  0.38957000  1.0
  C  C112  1  0.73974000  0.07604000  0.71899000  1.0
  C  C113  1  0.76025000  0.92396000  0.21899000  1.0
  C  C114  1  0.26026000  0.57603000  0.78102000  1.0
  C  C115  1  0.23975000  0.42397000  0.28101000  1.0
  C  C116  1  0.26024000  0.92397000  0.28101000  1.0
  C  C117  1  0.23975000  0.07603000  0.78101000  1.0
  C  C118  1  0.73975000  0.42396000  0.21899000  1.0
  C  C119  1  0.76025000  0.57603000  0.71899000  1.0
  C  C120  1  0.55156000  0.80624000  0.45066000  1.0
  C  C121  1  0.94844000  0.19376000  0.95066000  1.0
  C  C122  1  0.44844000  0.30624000  0.04934000  1.0
  C  C123  1  0.05155000  0.69376000  0.54934000  1.0
  C  C124  1  0.44845000  0.19376000  0.54934000  1.0
  C  C125  1  0.05156000  0.80624000  0.04934000  1.0
  C  C126  1  0.55157000  0.69376000  0.95066000  1.0
  C  C127  1  0.94844000  0.30624000  0.45066000  1.0
  C  C128  1  0.60445000  0.89739000  0.64711000  1.0
  C  C129  1  0.89554000  0.10261000  0.14711000  1.0
  C  C130  1  0.39555000  0.39739000  0.85289000  1.0
  C  C131  1  0.10446000  0.60261000  0.35289000  1.0
  C  C132  1  0.39554000  0.10261000  0.35289000  1.0
  C  C133  1  0.10446000  0.89739000  0.85289000  1.0
  C  C134  1  0.60445000  0.60261000  0.14711000  1.0
  C  C135  1  0.89554000  0.39739000  0.64711000  1.0
  C  C136  1  0.55703000  0.82673000  0.56531000  1.0
  C  C137  1  0.94296000  0.17327000  0.06530000  1.0
  C  C138  1  0.44298000  0.32673000  0.93470000  1.0
  C  C139  1  0.05703000  0.67327000  0.43470000  1.0
  C  C140  1  0.44298000  0.17327000  0.43470000  1.0
  C  C141  1  0.05703000  0.82673000  0.93470000  1.0
  C  C142  1  0.55703000  0.67327000  0.06530000  1.0
  C  C143  1  0.94296000  0.32673000  0.56530000  1.0
  C  C144  1  0.65573000  0.86511000  0.53007000  1.0
  C  C145  1  0.84427000  0.13489000  0.03006000  1.0
  C  C146  1  0.34427000  0.36511000  0.96993000  1.0
  C  C147  1  0.15573000  0.63489000  0.46994000  1.0
  C  C148  1  0.34428000  0.13489000  0.46993000  1.0
  C  C149  1  0.15573000  0.86511000  0.96994000  1.0
  C  C150  1  0.65573000  0.63489000  0.03007000  1.0
  C  C151  1  0.84427000  0.36511000  0.53006000  1.0
  C  C152  1  0.65148000  0.85496000  0.47350000  1.0
  C  C153  1  0.84852000  0.14504000  0.97350000  1.0
  C  C154  1  0.34851000  0.35495000  0.02650000  1.0
  C  C155  1  0.15147000  0.64504000  0.52650000  1.0
  C  C156  1  0.34852000  0.14504000  0.52650000  1.0
  C  C157  1  0.15148000  0.85496000  0.02650000  1.0
  C  C158  1  0.65149000  0.64504000  0.97350000  1.0
  C  C159  1  0.84852000  0.35496000  0.47350000  1.0
  C  C160  1  0.34332000  0.78684000  0.68003000  1.0
  C  C161  1  0.15669000  0.21316000  0.18003000  1.0
  C  C162  1  0.65669000  0.28684000  0.81997000  1.0
  C  C163  1  0.84332000  0.71316000  0.31997000  1.0
  C  C164  1  0.65668000  0.21316000  0.31997000  1.0
  C  C165  1  0.84332000  0.78684000  0.81997000  1.0
  C  C166  1  0.34331000  0.71316000  0.18003000  1.0
  C  C167  1  0.15668000  0.28684000  0.68003000  1.0
  C  C168  1  0.57903000  0.01155000  0.64911000  1.0
  C  C169  1  0.92096000  0.98846000  0.14912000  1.0
  C  C170  1  0.42098000  0.51154000  0.85089000  1.0
  C  C171  1  0.07903000  0.48846000  0.35088000  1.0
  C  C172  1  0.42095000  0.98846000  0.35088000  1.0
  C  C173  1  0.07903000  0.01154000  0.85088000  1.0
  C  C174  1  0.57904000  0.48845000  0.14911000  1.0
  C  C175  1  0.92095000  0.51155000  0.64911000  1.0
  C  C176  1  0.53549000  0.95365000  0.62565000  1.0
  C  C177  1  0.96450000  0.04635000  0.12565000  1.0
  C  C178  1  0.46452000  0.45365000  0.87435000  1.0
  C  C179  1  0.03550000  0.54636000  0.37435000  1.0
  C  C180  1  0.46450000  0.04636000  0.37435000  1.0
  C  C181  1  0.03549000  0.95365000  0.87435000  1.0
  C  C182  1  0.53549000  0.54635000  0.12565000  1.0
  C  C183  1  0.96450000  0.45365000  0.62565000  1.0
  C  C184  1  0.45693000  0.76753000  0.48625000  1.0
  C  C185  1  0.04307000  0.23246000  0.98625000  1.0
  C  C186  1  0.54307000  0.26753000  0.01375000  1.0
  C  C187  1  0.95693000  0.73247000  0.51375000  1.0
  C  C188  1  0.54309000  0.23246000  0.51375000  1.0
  C  C189  1  0.95693000  0.76753000  0.01375000  1.0
  C  C190  1  0.45693000  0.73246000  0.98625000  1.0
  C  C191  1  0.04307000  0.26753000  0.48624000  1.0
  C  C192  1  0.45889000  0.77727000  0.54303000  1.0
  C  C193  1  0.04111000  0.22273000  0.04303000  1.0
  C  C194  1  0.54111000  0.27726000  0.95697000  1.0
  C  C195  1  0.95888000  0.72273000  0.45697000  1.0
  C  C196  1  0.54112000  0.22273000  0.45697000  1.0
  C  C197  1  0.95889000  0.77727000  0.95697000  1.0
  C  C198  1  0.45889000  0.72273000  0.04303000  1.0
  C  C199  1  0.04111000  0.27727000  0.54303000  1.0
  C  C200  1  0.75551000  0.95734000  0.71645000  1.0
  C  C201  1  0.74448000  0.04266000  0.21645000  1.0
  C  C202  1  0.24450000  0.45734000  0.78355000  1.0
  C  C203  1  0.25553000  0.54266000  0.28356000  1.0
  C  C204  1  0.24448000  0.04267000  0.28355000  1.0
  C  C205  1  0.25552000  0.95733000  0.78356000  1.0
  C  C206  1  0.75551000  0.54266000  0.21645000  1.0
  C  C207  1  0.74448000  0.45734000  0.71645000  1.0
  C  C208  1  0.71348000  0.89918000  0.69296000  1.0
  C  C209  1  0.78652000  0.10082000  0.19296000  1.0
  C  C210  1  0.28654000  0.39918000  0.80704000  1.0
  C  C211  1  0.21349000  0.60082000  0.30704000  1.0
  C  C212  1  0.28651000  0.10083000  0.30704000  1.0
  C  C213  1  0.21348000  0.89918000  0.80704000  1.0
  C  C214  1  0.71347000  0.60082000  0.19296000  1.0
  C  C215  1  0.78651000  0.39918000  0.69296000  1.0
  N  N216  1  0.50594000  0.71857000  0.72095000  1.0
  N  N217  1  0.99407000  0.28143000  0.22094000  1.0
  N  N218  1  0.49406000  0.21857000  0.77905000  1.0
  N  N219  1  0.00594000  0.78143000  0.27906000  1.0
  N  N220  1  0.49407000  0.28143000  0.27905000  1.0
  N  N221  1  0.00595000  0.71857000  0.77906000  1.0
  N  N222  1  0.50594000  0.78143000  0.22095000  1.0
  N  N223  1  0.99406000  0.21857000  0.72095000  1.0
  N  N224  1  0.50489000  0.79177000  0.65815000  1.0
  N  N225  1  0.99511000  0.20824000  0.15815000  1.0
  N  N226  1  0.49512000  0.29176000  0.84185000  1.0
  N  N227  1  0.00489000  0.70824000  0.34185000  1.0
  N  N228  1  0.49511000  0.20824000  0.34185000  1.0
  N  N229  1  0.00489000  0.79176000  0.84185000  1.0
  N  N230  1  0.50488000  0.70824000  0.15815000  1.0
  N  N231  1  0.99511000  0.29176000  0.65815000  1.0
  N  N232  1  0.34175000  0.74245000  0.71787000  1.0
  N  N233  1  0.15826000  0.25755000  0.21787000  1.0
  N  N234  1  0.65825000  0.24244000  0.78213000  1.0
  N  N235  1  0.84175000  0.75755000  0.28213000  1.0
  N  N236  1  0.65825000  0.25755000  0.28213000  1.0
  N  N237  1  0.84175000  0.74244000  0.78213000  1.0
  N  N238  1  0.34174000  0.75755000  0.21787000  1.0
  N  N239  1  0.15825000  0.24245000  0.71787000  1.0
  N  N240  1  0.56141000  0.83829000  0.62240000  1.0
  N  N241  1  0.93858000  0.16172000  0.12240000  1.0
  N  N242  1  0.43859000  0.33828000  0.87760000  1.0
  N  N243  1  0.06142000  0.66172000  0.37760000  1.0
  N  N244  1  0.43858000  0.16172000  0.37759000  1.0
  N  N245  1  0.06142000  0.83828000  0.87760000  1.0
  N  N246  1  0.56141000  0.66171000  0.12240000  1.0
  N  N247  1  0.93858000  0.33828000  0.62240000  1.0
  O  O248  1  0.45718000  0.75237000  0.36887000  1.0
  O  O249  1  0.04283000  0.24763000  0.86888000  1.0
  O  O250  1  0.54282000  0.25237000  0.13113000  1.0
  O  O251  1  0.95718000  0.74763000  0.63113000  1.0
  O  O252  1  0.54282000  0.24763000  0.63113000  1.0
  O  O253  1  0.95717000  0.75237000  0.13113000  1.0
  O  O254  1  0.45719000  0.74763000  0.86887000  1.0
  O  O255  1  0.04282000  0.25237000  0.36887000  1.0
  O  O256  1  0.67548000  0.12745000  0.70093000  1.0
  O  O257  1  0.82451000  0.87255000  0.20092000  1.0
  O  O258  1  0.32453000  0.62745000  0.79907000  1.0
  O  O259  1  0.17549000  0.37255000  0.29907000  1.0
  O  O260  1  0.32451000  0.87256000  0.29907000  1.0
  O  O261  1  0.17548000  0.12744000  0.79908000  1.0
  O  O262  1  0.67549000  0.37255000  0.20092000  1.0
  O  O263  1  0.82452000  0.62745000  0.70093000  1.0
  O  O264  1  0.63455000  0.83647000  0.36086000  1.0
  O  O265  1  0.86544000  0.16353000  0.86086000  1.0
  O  O266  1  0.36544000  0.33647000  0.13914000  1.0
  O  O267  1  0.13456000  0.66353000  0.63914000  1.0
  O  O268  1  0.36544000  0.16353000  0.63914000  1.0
  O  O269  1  0.13455000  0.83647000  0.13914000  1.0
  O  O270  1  0.63458000  0.66353000  0.86086000  1.0
  O  O271  1  0.86544000  0.33647000  0.36086000  1.0
  O  O272  1  0.85128000  0.07479000  0.75754000  1.0
  O  O273  1  0.64873000  0.92521000  0.25754000  1.0
  O  O274  1  0.14874000  0.57479000  0.74247000  1.0
  O  O275  1  0.35128000  0.42521000  0.24246000  1.0
  O  O276  1  0.14871000  0.92522000  0.24246000  1.0
  O  O277  1  0.35127000  0.07479000  0.74246000  1.0
  O  O278  1  0.85127000  0.42521000  0.25754000  1.0
  O  O279  1  0.64873000  0.57479000  0.75754000  1.0
