# generated using pymatgen
data_ZnH6C14N4O2F3
_symmetry_space_group_name_H-M   'P 1'
_cell_length_a   17.98420000
_cell_length_b   17.99910000
_cell_length_c   18.59090000
_cell_angle_alpha   115.51600000
_cell_angle_beta   105.35000000
_cell_angle_gamma   106.29800000
_symmetry_Int_Tables_number   1
_chemical_formula_structural   ZnH6C14N4O2F3
_chemical_formula_sum   'Zn4 H24 C56 N16 O8 F12'
_cell_volume   4667.68018315
_cell_formula_units_Z   4
loop_
 _symmetry_equiv_pos_site_id
 _symmetry_equiv_pos_as_xyz
  1  'x, y, z'
loop_
 _atom_site_type_symbol
 _atom_site_label
 _atom_site_symmetry_multiplicity
 _atom_site_fract_x
 _atom_site_fract_y
 _atom_site_fract_z
 _atom_site_occupancy
  Zn  Zn0  1  0.49554000  0.88185000  0.36906000  1.0
  Zn  Zn1  1  0.51285000  0.12649000  0.63096000  1.0
  Zn  Zn2  1  0.39593000  0.89590000  0.50000000  1.0
  Zn  Zn3  1  0.61263000  0.11262000  0.50002000  1.0
  H  H4  1  0.44940000  0.36680000  0.62545000  1.0
  H  H5  1  0.41752000  0.21709000  0.71285000  1.0
  H  H6  1  0.31119000  0.12140000  0.65419000  1.0
  H  H7  1  0.32358000  0.23627000  0.69254000  1.0
  H  H8  1  0.52936000  0.46623000  0.73392000  1.0
  H  H9  1  0.43559000  0.38357000  0.72243000  1.0
  H  H10  1  0.50419000  0.70475000  0.28735000  1.0
  H  H11  1  0.46760000  0.65697000  0.34617000  1.0
  H  H12  1  0.54416000  0.63136000  0.30751000  1.0
  H  H13  1  0.74130000  0.82376000  0.37433000  1.0
  H  H14  1  0.73228000  0.79534000  0.26581000  1.0
  H  H15  1  0.66105000  0.71319000  0.27734000  1.0
  H  H16  1  0.43527000  0.20932000  0.31051000  1.0
  H  H17  1  0.54146000  0.22677000  0.31910000  1.0
  H  H18  1  0.52933000  0.31070000  0.40660000  1.0
  H  H19  1  0.28748000  0.82409000  0.71564000  1.0
  H  H20  1  0.38171000  0.80868000  0.71407000  1.0
  H  H21  1  0.27654000  0.72271000  0.62335000  1.0
  H  H22  1  0.89908000  0.12528000  0.68957000  1.0
  H  H23  1  0.90758000  0.22260000  0.68070000  1.0
  H  H24  1  0.90436000  0.12315000  0.59336000  1.0
  H  H25  1  0.10813000  0.57233000  0.28424000  1.0
  H  H26  1  0.09474000  0.66833000  0.28604000  1.0
  H  H27  1  0.09909000  0.65367000  0.37663000  1.0
  C  C28  1  0.31602000  0.70417000  0.23859000  1.0
  C  C29  1  0.63156000  0.45995000  0.64914000  1.0
  C  C30  1  0.34983000  0.18827000  0.66575000  1.0
  C  C31  1  0.48289000  0.39304000  0.69632000  1.0
  C  C32  1  0.52276000  0.68418000  0.33440000  1.0
  C  C33  1  0.69667000  0.78653000  0.30348000  1.0
  C  C34  1  0.50313000  0.23711000  0.35647000  1.0
  C  C35  1  0.31764000  0.79662000  0.67307000  1.0
  C  C36  1  0.88081000  0.14701000  0.64349000  1.0
  C  C37  1  0.12341000  0.64503000  0.32693000  1.0
  C  C38  1  0.17691000  0.02595000  0.41619000  1.0
  C  C39  1  0.81086000  0.98235000  0.35076000  1.0
  C  C40  1  0.60987000  0.76069000  0.58388000  1.0
  C  C41  1  0.64033000  0.63450000  0.60156000  1.0
  C  C42  1  0.63526000  0.61133000  0.66164000  1.0
  C  C43  1  0.03298000  0.03872000  0.39843000  1.0
  C  C44  1  0.68568000  0.15431000  0.73348000  1.0
  C  C45  1  0.94981000  0.97364000  0.33822000  1.0
  C  C46  1  0.63724000  0.53290000  0.65751000  1.0
  C  C47  1  0.62815000  0.70568000  0.59709000  1.0
  C  C48  1  0.87547000  0.97968000  0.34232000  1.0
  C  C49  1  0.10865000  0.03101000  0.40291000  1.0
  C  C50  1  0.46557000  0.07731000  0.76139000  1.0
  C  C51  1  0.57128000  0.32099000  0.66084000  1.0
  C  C52  1  0.57342000  0.81199000  0.47869000  1.0
  C  C53  1  0.66018000  0.91043000  0.33911000  1.0
  C  C54  1  0.33333333  0.09464000  0.52138000  1.0
  C  C55  1  0.42086000  0.95223000  0.26665000  1.0
  C  C56  1  0.27947000  0.95244000  0.40789000  1.0
  C  C57  1  0.72415000  0.06118000  0.40726000  1.0
  C  C58  1  0.54461000  0.87154000  0.59222000  1.0
  C  C59  1  0.65400000  0.31684000  0.59269000  1.0
  C  C60  1  0.47900000  0.10193000  0.36039000  1.0
  C  C61  1  0.37813000  0.92913000  0.66843000  1.0
  C  C62  1  0.74169000  0.11874000  0.63966000  1.0
  C  C63  1  0.26067000  0.70978000  0.33159000  1.0
  C  C64  1  0.23956000  0.65613000  0.23955000  1.0
  C  C65  1  0.76660000  0.16680000  0.73280000  1.0
  C  C66  1  0.41650000  0.99999000  0.76044000  1.0
  C  C67  1  0.43394000  0.03372000  0.26730000  1.0
  C  C68  1  0.62051000  0.37449000  0.63626000  1.0
  C  C69  1  0.58216000  0.81423000  0.55805000  1.0
  C  C70  1  0.73826000  0.98417000  0.36368000  1.0
  C  C71  1  0.25630000  0.02411000  0.44204000  1.0
  C  C72  1  0.41751000  0.03892000  0.19238000  1.0
  C  C73  1  0.40871000  0.00048000  0.83321000  1.0
  C  C74  1  0.84671000  0.22536000  0.80773000  1.0
  C  C75  1  0.16729000  0.57562000  0.16680000  1.0
  C  C76  1  0.40877000  0.03319000  0.12190000  1.0
  C  C77  1  0.40638000  0.00911000  0.90187000  1.0
  C  C78  1  0.91141000  0.28709000  0.87821000  1.0
  C  C79  1  0.10728000  0.50465000  0.09819000  1.0
  C  C80  1  0.40480000  0.02640000  0.04627000  1.0
  C  C81  1  0.40445000  0.01778000  0.97644000  1.0
  C  C82  1  0.98021000  0.35875000  0.95381000  1.0
  C  C83  1  0.04139000  0.42818000  0.02364000  1.0
  N  N84  1  0.37583000  0.77606000  0.31821000  1.0
  N  N85  1  0.53611000  0.86435000  0.47005000  1.0
  N  N86  1  0.60766000  0.94275000  0.36616000  1.0
  N  N87  1  0.39435000  0.06597000  0.53002000  1.0
  N  N88  1  0.57658000  0.24150000  0.63383000  1.0
  N  N89  1  0.36032000  0.97571000  0.45996000  1.0
  N  N90  1  0.64824000  0.03862000  0.40910000  1.0
  N  N91  1  0.51585000  0.90034000  0.54016000  1.0
  N  N92  1  0.62068000  0.10679000  0.65289000  1.0
  N  N93  1  0.62959000  0.23915000  0.59086000  1.0
  N  N94  1  0.49173000  0.06278000  0.40756000  1.0
  N  N95  1  0.40204000  0.96340000  0.62233000  1.0
  N  N96  1  0.65537000  0.08424000  0.59254000  1.0
  N  N97  1  0.34104000  0.77970000  0.37768000  1.0
  N  N98  1  0.45788000  0.05752000  0.68176000  1.0
  N  N99  1  0.45399000  0.96785000  0.34727000  1.0
  O  O100  1  0.52603000  0.33919000  0.70751000  1.0
  O  O101  1  0.32486000  0.83841000  0.62251000  1.0
  O  O102  1  0.78802000  0.10407000  0.59377000  1.0
  O  O103  1  0.21578000  0.70245000  0.37753000  1.0
  O  O104  1  0.51011000  0.19405000  0.40619000  1.0
  O  O105  1  0.59584000  0.76200000  0.41790000  1.0
  O  O106  1  0.63171000  0.81861000  0.29244000  1.0
  O  O107  1  0.34404000  0.17774000  0.58215000  1.0
  F  F108  1  0.33218000  0.68168000  0.16783000  1.0
  F  F109  1  0.77867000  0.15006000  0.44623000  1.0
  F  F110  1  0.53461000  0.89571000  0.66666667  1.0
  F  F111  1  0.70400000  0.33238000  0.55370000  1.0
  F  F112  1  0.22926000  0.86812000  0.33348000  1.0
  F  F113  1  0.62196000  0.66769000  0.72991000  1.0
  F  F114  1  0.65367000  0.57725000  0.53370000  1.0
  F  F115  1  0.93806000  0.89230000  0.26989000  1.0
  F  F116  1  0.67190000  0.18734000  0.80575000  1.0
  F  F117  1  0.04347000  0.11973000  0.46637000  1.0
  F  F118  1  0.51383000  0.16412000  0.83215000  1.0
  F  F119  1  0.38165000  0.86628000  0.19441000  1.0
