# generated using pymatgen
data_CaH16C16(N5O3)2
_symmetry_space_group_name_H-M   'P 1'
_cell_length_a   7.53316000
_cell_length_b   15.71004287
_cell_length_c   19.92550000
_cell_angle_alpha   69.65224355
_cell_angle_beta   79.09500000
_cell_angle_gamma   76.12202930
_symmetry_Int_Tables_number   1
_chemical_formula_structural   CaH16C16(N5O3)2
_chemical_formula_sum   'Ca4 H64 C64 N40 O24'
_cell_volume   2131.87738042
_cell_formula_units_Z   4
loop_
 _symmetry_equiv_pos_site_id
 _symmetry_equiv_pos_as_xyz
  1  'x, y, z'
loop_
 _atom_site_type_symbol
 _atom_site_label
 _atom_site_symmetry_multiplicity
 _atom_site_fract_x
 _atom_site_fract_y
 _atom_site_fract_z
 _atom_site_occupancy
  Ca  Ca0  1  0.23557000  0.54639000  0.49659000  1.0
  Ca  Ca1  1  0.27873000  0.95344000  0.00349000  1.0
  Ca  Ca2  1  0.76444000  0.45361000  0.50341000  1.0
  Ca  Ca3  1  0.72129000  0.04656000  0.99651000  1.0
  H  H4  1  0.51383000  0.44590000  0.40021000  1.0
  H  H5  1  0.36005000  0.05429000  0.09966000  1.0
  H  H6  1  0.48618000  0.55409000  0.59979000  1.0
  H  H7  1  0.63995000  0.94571000  0.90034000  1.0
  H  H8  1  0.57262000  0.54349000  0.38176000  1.0
  H  H9  1  0.49808000  0.95672000  0.11817000  1.0
  H  H10  1  0.42737000  0.45651000  0.61824000  1.0
  H  H11  1  0.50192000  0.04328000  0.88183000  1.0
  H  H12  1  0.98793000  0.64662000  0.91062000  1.0
  H  H13  1  0.54425000  0.85341000  0.58913000  1.0
  H  H14  1  0.01206000  0.35338000  0.08938000  1.0
  H  H15  1  0.45575000  0.14659000  0.41087000  1.0
  H  H16  1  0.65893000  0.79201000  0.73462000  1.0
  H  H17  1  0.18584000  0.70781000  0.76556000  1.0
  H  H18  1  0.34106000  0.20799000  0.26538000  1.0
  H  H19  1  0.81414000  0.29219000  0.23443000  1.0
  H  H20  1  0.57486000  0.92611000  0.78265000  1.0
  H  H21  1  0.28426000  0.57359000  0.71768000  1.0
  H  H22  1  0.42513000  0.07389000  0.21735000  1.0
  H  H23  1  0.71572000  0.42641000  0.28232000  1.0
  H  H24  1  0.89759000  0.78796000  0.94894000  1.0
  H  H25  1  0.63427000  0.71187000  0.55106000  1.0
  H  H26  1  0.10240000  0.21204000  0.05107000  1.0
  H  H27  1  0.36574000  0.28812000  0.44894000  1.0
  H  H28  1  0.96393000  0.86725000  0.65252000  1.0
  H  H29  1  0.48339000  0.63226000  0.84768000  1.0
  H  H30  1  0.03606000  0.13275000  0.34748000  1.0
  H  H31  1  0.51660000  0.36775000  0.15231000  1.0
  H  H32  1  0.69579000  0.51123000  0.68678000  1.0
  H  H33  1  0.89375000  0.98872000  0.81329000  1.0
  H  H34  1  0.30421000  0.48877000  0.31322000  1.0
  H  H35  1  0.10627000  0.01127000  0.18671000  1.0
  H  H36  1  0.87621000  0.41581000  0.71822000  1.0
  H  H37  1  0.01011000  0.08413000  0.78182000  1.0
  H  H38  1  0.12379000  0.58419000  0.28178000  1.0
  H  H39  1  0.98989000  0.91587000  0.21818000  1.0
  H  H40  1  0.68279000  0.03092000  0.46595000  1.0
  H  H41  1  0.17936000  0.46851000  0.03423000  1.0
  H  H42  1  0.31722000  0.96909000  0.53405000  1.0
  H  H43  1  0.82064000  0.53150000  0.96577000  1.0
  H  H44  1  0.06842000  0.74110000  0.59535000  1.0
  H  H45  1  0.40463000  0.75834000  0.90490000  1.0
  H  H46  1  0.93158000  0.25890000  0.40464000  1.0
  H  H47  1  0.59536000  0.24167000  0.09510000  1.0
  H  H48  1  0.80246000  0.90069000  0.41623000  1.0
  H  H49  1  0.11854000  0.59883000  0.08389000  1.0
  H  H50  1  0.19755000  0.09932000  0.58377000  1.0
  H  H51  1  0.88146000  0.40117000  0.91611000  1.0
  H  H52  1  0.40003000  0.22581000  0.67838000  1.0
  H  H53  1  0.30275000  0.27414000  0.82148000  1.0
  H  H54  1  0.59997000  0.77419000  0.32162000  1.0
  H  H55  1  0.69727000  0.72585000  0.17852000  1.0
  H  H56  1  0.29371000  0.20285000  0.61604000  1.0
  H  H57  1  0.11154000  0.29696000  0.88405000  1.0
  H  H58  1  0.70629000  0.79715000  0.38396000  1.0
  H  H59  1  0.88848000  0.70303000  0.11595000  1.0
  H  H60  1  0.90340000  0.66091000  0.43934000  1.0
  H  H61  1  0.00361000  0.83915000  0.06050000  1.0
  H  H62  1  0.09659000  0.33909000  0.56066000  1.0
  H  H63  1  0.99641000  0.16085000  0.93950000  1.0
  H  H64  1  0.99536000  0.72809000  0.46227000  1.0
  H  H65  1  0.18538000  0.77165000  0.03768000  1.0
  H  H66  1  0.00464000  0.27191000  0.53773000  1.0
  H  H67  1  0.81463000  0.22835000  0.96232000  1.0
  C  C68  1  0.87153000  0.62614000  0.79671000  1.0
  C  C69  1  0.29403000  0.87384000  0.70320000  1.0
  C  C70  1  0.12846000  0.37386000  0.20329000  1.0
  C  C71  1  0.70597000  0.12616000  0.29680000  1.0
  C  C72  1  0.44928000  0.31498000  0.56943000  1.0
  C  C73  1  0.33322000  0.18499000  0.93034000  1.0
  C  C74  1  0.55072000  0.68502000  0.43056000  1.0
  C  C75  1  0.66679000  0.81501000  0.06966000  1.0
  C  C76  1  0.82732000  0.70793000  0.81988000  1.0
  C  C77  1  0.35477000  0.79200000  0.68009000  1.0
  C  C78  1  0.17266000  0.29207000  0.18012000  1.0
  C  C79  1  0.64522000  0.20800000  0.31991000  1.0
  C  C80  1  0.74034000  0.03247000  0.59654000  1.0
  C  C81  1  0.36891000  0.46714000  0.90351000  1.0
  C  C82  1  0.25965000  0.96754000  0.40346000  1.0
  C  C83  1  0.63109000  0.53287000  0.09648000  1.0
  C  C84  1  0.89676000  0.70729000  0.88058000  1.0
  C  C85  1  0.48406000  0.79266000  0.61930000  1.0
  C  C86  1  0.10322000  0.29271000  0.11942000  1.0
  C  C87  1  0.51594000  0.20734000  0.38070000  1.0
  C  C88  1  0.71235000  0.78842000  0.78275000  1.0
  C  C89  1  0.28367000  0.71139000  0.71739000  1.0
  C  C90  1  0.28764000  0.21158000  0.21725000  1.0
  C  C91  1  0.71632000  0.28861000  0.28261000  1.0
  C  C92  1  0.66712000  0.86304000  0.80891000  1.0
  C  C93  1  0.33941000  0.63672000  0.69131000  1.0
  C  C94  1  0.33287000  0.13696000  0.19109000  1.0
  C  C95  1  0.66057000  0.36328000  0.30869000  1.0
  C  C96  1  0.96210000  0.52188000  0.62232000  1.0
  C  C97  1  0.10615000  0.97806000  0.87773000  1.0
  C  C98  1  0.03791000  0.47812000  0.37768000  1.0
  C  C99  1  0.89386000  0.02194000  0.12226000  1.0
  C  C100  1  0.84555000  0.78565000  0.90224000  1.0
  C  C101  1  0.53328000  0.71419000  0.59777000  1.0
  C  C102  1  0.15445000  0.21434000  0.09776000  1.0
  C  C103  1  0.46671000  0.28581000  0.40223000  1.0
  C  C104  1  0.92673000  0.87701000  0.59979000  1.0
  C  C105  1  0.40318000  0.62247000  0.90041000  1.0
  C  C106  1  0.07326000  0.12299000  0.40021000  1.0
  C  C107  1  0.59681000  0.37753000  0.09959000  1.0
  C  C108  1  0.81479000  0.95966000  0.56359000  1.0
  C  C109  1  0.33772000  0.53981000  0.93659000  1.0
  C  C110  1  0.18521000  0.04034000  0.43641000  1.0
  C  C111  1  0.66228000  0.46019000  0.06341000  1.0
  C  C112  1  0.84159000  0.49122000  0.69469000  1.0
  C  C113  1  0.02746000  0.00871000  0.80536000  1.0
  C  C114  1  0.15842000  0.50877000  0.30531000  1.0
  C  C115  1  0.97255000  0.99128000  0.19464000  1.0
  C  C116  1  0.76919000  0.96840000  0.49622000  1.0
  C  C117  1  0.23354000  0.53102000  0.00398000  1.0
  C  C118  1  0.23081000  0.03161000  0.50378000  1.0
  C  C119  1  0.76646000  0.46898000  0.99601000  1.0
  C  C120  1  0.98480000  0.80713000  0.56810000  1.0
  C  C121  1  0.35966000  0.69232000  0.93212000  1.0
  C  C122  1  0.01520000  0.19287000  0.43190000  1.0
  C  C123  1  0.64034000  0.30768000  0.06788000  1.0
  C  C124  1  0.83535000  0.89519000  0.46867000  1.0
  C  C125  1  0.19861000  0.60429000  0.03149000  1.0
  C  C126  1  0.16465000  0.10482000  0.53133000  1.0
  C  C127  1  0.80138000  0.39572000  0.96850000  1.0
  C  C128  1  0.41872000  0.22062000  0.62386000  1.0
  C  C129  1  0.26215000  0.27929000  0.87602000  1.0
  C  C130  1  0.58128000  0.77938000  0.37614000  1.0
  C  C131  1  0.73787000  0.72070000  0.12399000  1.0
  N  N132  1  0.79353000  0.61691000  0.74488000  1.0
  N  N133  1  0.15516000  0.88304000  0.75513000  1.0
  N  N134  1  0.20646000  0.38309000  0.25512000  1.0
  N  N135  1  0.84484000  0.11696000  0.24487000  1.0
  N  N136  1  0.87156000  0.53159000  0.74563000  1.0
  N  N137  1  0.14865000  0.96836000  0.75438000  1.0
  N  N138  1  0.12845000  0.46841000  0.25437000  1.0
  N  N139  1  0.85135000  0.03164000  0.24562000  1.0
  N  N140  1  0.57022000  0.14440000  0.62230000  1.0
  N  N141  1  0.33594000  0.35549000  0.87755000  1.0
  N  N142  1  0.42977000  0.85561000  0.37770000  1.0
  N  N143  1  0.66407000  0.64451000  0.12245000  1.0
  N  N144  1  0.99355000  0.54850000  0.82661000  1.0
  N  N145  1  0.36823000  0.95150000  0.67325000  1.0
  N  N146  1  0.00646000  0.45149000  0.17339000  1.0
  N  N147  1  0.63178000  0.04849000  0.32675000  1.0
  N  N148  1  0.73107000  0.86169000  0.86790000  1.0
  N  N149  1  0.46085000  0.63807000  0.63227000  1.0
  N  N150  1  0.26893000  0.13831000  0.13211000  1.0
  N  N151  1  0.53915000  0.36192000  0.36774000  1.0
  N  N152  1  0.60219000  0.10288000  0.57249000  1.0
  N  N153  1  0.27682000  0.39685000  0.92747000  1.0
  N  N154  1  0.39781000  0.89712000  0.42751000  1.0
  N  N155  1  0.72317000  0.60316000  0.07253000  1.0
  N  N156  1  0.99292000  0.48908000  0.79348000  1.0
  N  N157  1  0.27518000  0.01090000  0.70643000  1.0
  N  N158  1  0.00709000  0.51091000  0.20652000  1.0
  N  N159  1  0.72482000  0.98910000  0.29357000  1.0
  N  N160  1  0.79032000  0.03351000  0.65855000  1.0
  N  N161  1  0.48190000  0.46616000  0.84148000  1.0
  N  N162  1  0.20968000  0.96649000  0.34145000  1.0
  N  N163  1  0.51809000  0.53385000  0.15851000  1.0
  N  N164  1  0.93984000  0.81538000  0.50364000  1.0
  N  N165  1  0.25831000  0.68409000  0.99655000  1.0
  N  N166  1  0.06016000  0.18463000  0.49636000  1.0
  N  N167  1  0.74169000  0.31591000  0.00345000  1.0
  N  N168  1  0.68120000  0.10458000  0.67455000  1.0
  N  N169  1  0.45952000  0.39524000  0.82536000  1.0
  N  N170  1  0.31880000  0.89542000  0.32545000  1.0
  N  N171  1  0.54049000  0.60476000  0.17464000  1.0
  O  O172  1  0.60991000  0.32447000  0.54186000  1.0
  O  O173  1  0.47596000  0.17564000  0.95777000  1.0
  O  O174  1  0.39009000  0.67553000  0.45814000  1.0
  O  O175  1  0.52406000  0.82436000  0.04224000  1.0
  O  O176  1  0.91533000  0.50815000  0.56973000  1.0
  O  O177  1  0.99296000  0.99187000  0.93028000  1.0
  O  O178  1  0.08465000  0.49185000  0.43027000  1.0
  O  O179  1  0.00705000  0.00813000  0.06972000  1.0
  O  O180  1  0.50481000  0.50028000  0.41910000  1.0
  O  O181  1  0.42441000  0.99988000  0.08082000  1.0
  O  O182  1  0.49519000  0.49972000  0.58090000  1.0
  O  O183  1  0.57559000  0.00012000  0.91918000  1.0
  O  O184  1  0.30213000  0.37639000  0.56053000  1.0
  O  O185  1  0.23879000  0.12345000  0.93940000  1.0
  O  O186  1  0.69787000  0.62361000  0.43947000  1.0
  O  O187  1  0.76122000  0.87655000  0.06060000  1.0
  O  O188  1  0.10052000  0.55574000  0.61930000  1.0
  O  O189  1  0.27539000  0.94412000  0.88081000  1.0
  O  O190  1  0.89947000  0.44426000  0.38070000  1.0
  O  O191  1  0.72462000  0.05589000  0.11919000  1.0
  O  O192  1  0.02163000  0.67820000  0.43913000  1.0
  O  O193  1  0.13894000  0.82171000  0.06066000  1.0
  O  O194  1  0.97836000  0.32180000  0.56087000  1.0
  O  O195  1  0.86107000  0.17829000  0.93934000  1.0
