# generated using pymatgen
data_TmH19C30N5O7
_symmetry_space_group_name_H-M   'P 1'
_cell_length_a   10.39810000
_cell_length_b   11.19470000
_cell_length_c   13.33670000
_cell_angle_alpha   109.86700000
_cell_angle_beta   101.51200000
_cell_angle_gamma   107.87300000
_symmetry_Int_Tables_number   1
_chemical_formula_structural   TmH19C30N5O7
_chemical_formula_sum   'Tm2 H38 C60 N10 O14'
_cell_volume   1307.05635929
_cell_formula_units_Z   2
loop_
 _symmetry_equiv_pos_site_id
 _symmetry_equiv_pos_as_xyz
  1  'x, y, z'
loop_
 _atom_site_type_symbol
 _atom_site_label
 _atom_site_symmetry_multiplicity
 _atom_site_fract_x
 _atom_site_fract_y
 _atom_site_fract_z
 _atom_site_occupancy
  Tm  Tm0  1  0.49944000  0.91519000  0.62425000  1.0
  Tm  Tm1  1  0.50056000  0.08481000  0.37575000  1.0
  H  H2  1  0.58832000  0.43911000  0.01353000  1.0
  H  H3  1  0.41167000  0.56089000  0.98647000  1.0
  H  H4  1  0.73190000  0.68008000  0.04092000  1.0
  H  H5  1  0.26809000  0.31992000  0.95908000  1.0
  H  H6  1  0.03759000  0.54651000  0.61175000  1.0
  H  H7  1  0.96241000  0.45349000  0.38825000  1.0
  H  H8  1  0.96973000  0.69193000  0.52201000  1.0
  H  H9  1  0.03027000  0.30807000  0.47799000  1.0
  H  H10  1  0.76011000  0.75187000  0.55049000  1.0
  H  H11  1  0.23988000  0.24813000  0.44951000  1.0
  H  H12  1  0.92537000  0.30881000  0.70901000  1.0
  H  H13  1  0.07463000  0.69119000  0.29099000  1.0
  H  H14  1  0.19322000  0.43876000  0.78988000  1.0
  H  H15  1  0.80678000  0.56124000  0.21012000  1.0
  H  H16  1  0.34343000  0.32434000  0.70544000  1.0
  H  H17  1  0.65657000  0.67566000  0.29456000  1.0
  H  H18  1  0.84933000  0.05418000  0.77061000  1.0
  H  H19  1  0.15067000  0.94582000  0.22939000  1.0
  H  H20  1  0.03558000  0.21376000  0.96582000  1.0
  H  H21  1  0.96442000  0.78624000  0.03418000  1.0
  H  H22  1  0.95489000  0.31344000  0.12640000  1.0
  H  H23  1  0.04511000  0.68656000  0.87360000  1.0
  H  H24  1  0.74712000  0.31983000  0.19703000  1.0
  H  H25  1  0.25288000  0.68017000  0.80297000  1.0
  H  H26  1  0.48666000  0.25121000  0.15614000  1.0
  H  H27  1  0.51334000  0.74879000  0.84385000  1.0
  H  H28  1  0.23558000  0.11772000  0.01573000  1.0
  H  H29  1  0.76442000  0.88228000  0.98427000  1.0
  H  H30  1  0.07334000  0.96087000  0.81233000  1.0
  H  H31  1  0.92666000  0.03913000  0.18767000  1.0
  H  H32  1  0.18566000  0.89010000  0.66489000  1.0
  H  H33  1  0.81434000  0.10990000  0.33511000  1.0
  H  H34  1  0.50991000  0.24286000  0.81934000  1.0
  H  H35  1  0.49008000  0.75714000  0.18066000  1.0
  H  H36  1  0.36151000  0.64829000  0.62681000  1.0
  H  H37  1  0.63849000  0.35171000  0.37319000  1.0
  H  H38  1  0.25589000  0.65860000  0.52984000  1.0
  H  H39  1  0.74411000  0.34140000  0.47016000  1.0
  C  C40  1  0.57273000  0.25107000  0.64060000  1.0
  C  C41  1  0.42727000  0.74893000  0.35940000  1.0
  C  C42  1  0.61962000  0.37408000  0.75236000  1.0
  C  C43  1  0.38038000  0.62591000  0.24764000  1.0
  C  C44  1  0.61841000  0.45734000  0.94468000  1.0
  C  C45  1  0.38159000  0.54266000  0.05532000  1.0
  C  C46  1  0.69829000  0.59088000  0.95941000  1.0
  C  C47  1  0.30171000  0.40912000  0.04059000  1.0
  C  C48  1  0.70111000  0.51252000  0.77589000  1.0
  C  C49  1  0.29889000  0.48748000  0.22411000  1.0
  C  C50  1  0.76293000  0.55434000  0.69493000  1.0
  C  C51  1  0.23707000  0.44566000  0.30507000  1.0
  C  C52  1  0.94601000  0.57253000  0.62023000  1.0
  C  C53  1  0.05399000  0.42747000  0.37978000  1.0
  C  C54  1  0.90875000  0.65436000  0.57081000  1.0
  C  C55  1  0.09125000  0.34564000  0.42919000  1.0
  C  C56  1  0.79282000  0.68680000  0.58574000  1.0
  C  C57  1  0.20718000  0.31320000  0.41426000  1.0
  C  C58  1  0.71686000  0.63509000  0.64806000  1.0
  C  C59  1  0.28314000  0.36491000  0.35194000  1.0
  C  C60  1  0.59126000  0.66973000  0.66299000  1.0
  C  C61  1  0.40874000  0.33027000  0.33701000  1.0
  C  C62  1  0.77144000  0.05962000  0.54306000  1.0
  C  C63  1  0.22856000  0.94038000  0.45694000  1.0
  C  C64  1  0.93345000  0.12633000  0.58888000  1.0
  C  C65  1  0.06655000  0.87367000  0.41112000  1.0
  C  C66  1  0.99464000  0.26035000  0.67780000  1.0
  C  C67  1  0.00536000  0.73966000  0.32220000  1.0
  C  C68  1  0.14321000  0.33337000  0.72223000  1.0
  C  C69  1  0.85679000  0.66666667  0.27777000  1.0
  C  C70  1  0.22690000  0.26924000  0.67583000  1.0
  C  C71  1  0.77310000  0.73076000  0.32417000  1.0
  C  C72  1  0.02680000  0.06974000  0.54780000  1.0
  C  C73  1  0.97320000  0.93026000  0.45220000  1.0
  C  C74  1  0.81907000  0.09901000  0.84381000  1.0
  C  C75  1  0.18093000  0.90099000  0.15619000  1.0
  C  C76  1  0.92187000  0.18775000  0.95223000  1.0
  C  C77  1  0.07813000  0.81225000  0.04777000  1.0
  C  C78  1  0.87727000  0.24251000  0.04164000  1.0
  C  C79  1  0.12273000  0.75749000  0.95836000  1.0
  C  C80  1  0.72896000  0.20523000  0.02254000  1.0
  C  C81  1  0.27104000  0.79477000  0.97746000  1.0
  C  C82  1  0.63303000  0.11464000  0.91010000  1.0
  C  C83  1  0.36697000  0.88536000  0.08990000  1.0
  C  C84  1  0.67258000  0.25329000  0.11058000  1.0
  C  C85  1  0.32742000  0.74671000  0.88942000  1.0
  C  C86  1  0.52807000  0.21424000  0.08818000  1.0
  C  C87  1  0.47193000  0.78576000  0.91182000  1.0
  C  C88  1  0.42858000  0.12412000  0.97556000  1.0
  C  C89  1  0.57142000  0.87589000  0.02444000  1.0
  C  C90  1  0.48062000  0.07396000  0.88610000  1.0
  C  C91  1  0.51937000  0.92604000  0.11390000  1.0
  C  C92  1  0.27838000  0.08176000  0.94823000  1.0
  C  C93  1  0.72162000  0.91824000  0.05177000  1.0
  C  C94  1  0.18980000  0.99700000  0.83693000  1.0
  C  C95  1  0.81020000  0.00300000  0.16307000  1.0
  C  C96  1  0.25143000  0.95508000  0.75366000  1.0
  C  C97  1  0.74857000  0.04492000  0.24634000  1.0
  C  C98  1  0.57711000  0.34891000  0.83873000  1.0
  C  C99  1  0.42289000  0.65108000  0.16127000  1.0
  N  N100  1  0.73795000  0.61897000  0.87740000  1.0
  N  N101  1  0.26205000  0.38103000  0.12260000  1.0
  N  N102  1  0.87560000  0.52339000  0.68165000  1.0
  N  N103  1  0.12440000  0.47661000  0.31835000  1.0
  N  N104  1  0.17045000  0.14101000  0.59217000  1.0
  N  N105  1  0.82955000  0.85899000  0.40783000  1.0
  N  N106  1  0.67874000  0.06496000  0.82260000  1.0
  N  N107  1  0.32126000  0.93504000  0.17740000  1.0
  N  N108  1  0.39240000  0.99159000  0.77687000  1.0
  N  N109  1  0.60760000  0.00841000  0.22313000  1.0
  O  O110  1  0.54338000  0.13354000  0.64315000  1.0
  O  O111  1  0.45662000  0.86646000  0.35685000  1.0
  O  O112  1  0.56334000  0.26951000  0.55119000  1.0
  O  O113  1  0.43666000  0.73049000  0.44881000  1.0
  O  O114  1  0.47835000  0.57939000  0.65742000  1.0
  O  O115  1  0.52165000  0.42061000  0.34258000  1.0
  O  O116  1  0.60994000  0.79453000  0.68012000  1.0
  O  O117  1  0.39006000  0.20547000  0.31988000  1.0
  O  O118  1  0.71496000  0.10084000  0.47533000  1.0
  O  O119  1  0.28504000  0.89916000  0.52467000  1.0
  O  O120  1  0.70758000  0.98454000  0.58558000  1.0
  O  O121  1  0.29242000  0.01546000  0.41442000  1.0
  O  O122  1  0.31002000  0.70677000  0.61092000  1.0
  O  O123  1  0.68998000  0.29323000  0.38909000  1.0
