# generated using pymatgen
data_ZnH22C32N4O7
_symmetry_space_group_name_H-M   'P 1'
_cell_length_a   9.80960000
_cell_length_b   11.81990000
_cell_length_c   14.07000000
_cell_angle_alpha   89.62510000
_cell_angle_beta   69.82680000
_cell_angle_gamma   66.92870000
_symmetry_Int_Tables_number   1
_chemical_formula_structural   ZnH22C32N4O7
_chemical_formula_sum   'Zn2 H44 C64 N8 O14'
_cell_volume   1393.13018110
_cell_formula_units_Z   2
loop_
 _symmetry_equiv_pos_site_id
 _symmetry_equiv_pos_as_xyz
  1  'x, y, z'
loop_
 _atom_site_type_symbol
 _atom_site_label
 _atom_site_symmetry_multiplicity
 _atom_site_fract_x
 _atom_site_fract_y
 _atom_site_fract_z
 _atom_site_occupancy
  Zn  Zn0  1  0.98792000  0.46080000  0.71629000  1.0
  Zn  Zn1  1  0.01208000  0.53920000  0.28372000  1.0
  H  H2  1  0.32174000  0.26327000  0.93534000  1.0
  H  H3  1  0.67826000  0.73673000  0.06466000  1.0
  H  H4  1  0.01390000  0.19367000  0.40923000  1.0
  H  H5  1  0.98610000  0.80633000  0.59077000  1.0
  H  H6  1  0.28970000  0.72223000  0.50321000  1.0
  H  H7  1  0.71031000  0.27776000  0.49679000  1.0
  H  H8  1  0.52807000  0.76668000  0.47145000  1.0
  H  H9  1  0.47193000  0.23331000  0.52855000  1.0
  H  H10  1  0.70871000  0.67091000  0.56658000  1.0
  H  H11  1  0.29129000  0.32909000  0.43342000  1.0
  H  H12  1  0.41623000  0.48460000  0.72060000  1.0
  H  H13  1  0.58377000  0.51540000  0.27940000  1.0
  H  H14  1  0.19283000  0.37208000  0.83197000  1.0
  H  H15  1  0.80717000  0.62792000  0.16803000  1.0
  H  H16  1  0.91895000  0.33030000  0.13347000  1.0
  H  H17  1  0.08105000  0.66970000  0.86654000  1.0
  H  H18  1  0.67584000  0.42163000  0.08734000  1.0
  H  H19  1  0.32416000  0.57837000  0.91266000  1.0
  H  H20  1  0.71004000  0.47191000  0.90740000  1.0
  H  H21  1  0.28996000  0.52809000  0.09261000  1.0
  H  H22  1  0.52700000  0.12046000  0.91996000  1.0
  H  H23  1  0.47300000  0.87953000  0.08004000  1.0
  H  H24  1  0.78861000  0.99486000  0.92815000  1.0
  H  H25  1  0.21139000  0.00514000  0.07185000  1.0
  H  H26  1  0.59721000  0.10948000  0.25457000  1.0
  H  H27  1  0.40280000  0.89052000  0.74542000  1.0
  H  H28  1  0.32997000  0.23433000  0.24744000  1.0
  H  H29  1  0.67003000  0.76567000  0.75256000  1.0
  H  H30  1  0.05567000  0.78554000  0.13798000  1.0
  H  H31  1  0.94433000  0.21447000  0.86202000  1.0
  H  H32  1  0.19325000  0.80126000  0.25360000  1.0
  H  H33  1  0.80674000  0.19875000  0.74640000  1.0
  H  H34  1  0.94786000  0.20075000  0.29435000  1.0
  H  H35  1  0.05214000  0.79925000  0.70565000  1.0
  H  H36  1  0.80815000  0.18415000  0.18360000  1.0
  H  H37  1  0.19185000  0.81586000  0.81640000  1.0
  H  H38  1  0.33244000  0.94987000  0.47811000  1.0
  H  H39  1  0.66756000  0.05013000  0.52190000  1.0
  H  H40  1  0.40597000  0.00631000  0.61938000  1.0
  H  H41  1  0.59403000  0.99369000  0.38062000  1.0
  H  H42  1  0.25756000  0.22254000  0.71490000  1.0
  H  H43  1  0.74245000  0.77745000  0.28510000  1.0
  H  H44  1  0.97289000  0.32632000  0.54116000  1.0
  H  H45  1  0.02711000  0.67368000  0.45884000  1.0
  C  C46  1  0.19349000  0.57497000  0.63253000  1.0
  C  C47  1  0.80651000  0.42503000  0.36747000  1.0
  C  C48  1  0.33638000  0.60196000  0.61499000  1.0
  C  C49  1  0.66362000  0.39804000  0.38501000  1.0
  C  C50  1  0.36815000  0.68191000  0.54506000  1.0
  C  C51  1  0.63185000  0.31809000  0.45494000  1.0
  C  C52  1  0.50117000  0.70732000  0.52781000  1.0
  C  C53  1  0.49883000  0.29267000  0.47219000  1.0
  C  C54  1  0.60257000  0.65405000  0.58035000  1.0
  C  C55  1  0.39743000  0.34595000  0.41965000  1.0
  C  C56  1  0.57118000  0.57475000  0.65113000  1.0
  C  C57  1  0.42883000  0.42524000  0.34887000  1.0
  C  C58  1  0.43840000  0.54862000  0.66764000  1.0
  C  C59  1  0.56160000  0.45138000  0.33236000  1.0
  C  C60  1  0.68117000  0.51630000  0.70728000  1.0
  C  C61  1  0.31883000  0.48369000  0.29272000  1.0
  C  C62  1  0.08201000  0.37592000  0.88952000  1.0
  C  C63  1  0.91799000  0.62408000  0.11048000  1.0
  C  C64  1  0.07750000  0.33618000  0.98415000  1.0
  C  C65  1  0.92250000  0.66382000  0.01585000  1.0
  C  C66  1  0.92786000  0.35435000  0.05772000  1.0
  C  C67  1  0.07214000  0.64565000  0.94228000  1.0
  C  C68  1  0.79359000  0.40605000  0.03174000  1.0
  C  C69  1  0.20641000  0.59395000  0.96826000  1.0
  C  C70  1  0.80899000  0.43782000  0.93422000  1.0
  C  C71  1  0.19101000  0.56218000  0.06578000  1.0
  C  C72  1  0.24269000  0.25841000  0.09025000  1.0
  C  C73  1  0.75731000  0.74159000  0.90975000  1.0
  C  C74  1  0.40890000  0.18818000  0.08448000  1.0
  C  C75  1  0.59110000  0.81181000  0.91552000  1.0
  C  C76  1  0.53922000  0.12156000  0.99415000  1.0
  C  C77  1  0.46078000  0.87844000  0.00585000  1.0
  C  C78  1  0.68802000  0.04947000  0.99729000  1.0
  C  C79  1  0.31198000  0.95053000  0.00271000  1.0
  C  C80  1  0.70883000  0.04475000  0.09093000  1.0
  C  C81  1  0.29117000  0.95525000  0.90907000  1.0
  C  C82  1  0.58093000  0.11197000  0.18176000  1.0
  C  C83  1  0.41907000  0.88803000  0.81824000  1.0
  C  C84  1  0.43204000  0.18220000  0.17789000  1.0
  C  C85  1  0.56796000  0.81780000  0.82210000  1.0
  C  C86  1  0.92168000  0.98278000  0.15604000  1.0
  C  C87  1  0.07831000  0.01722000  0.84396000  1.0
  C  C88  1  0.03132000  0.87554000  0.17463000  1.0
  C  C89  1  0.96867000  0.12446000  0.82537000  1.0
  C  C90  1  0.10823000  0.88487000  0.23856000  1.0
  C  C91  1  0.89177000  0.11514000  0.76144000  1.0
  C  C92  1  0.07647000  0.00210000  0.28489000  1.0
  C  C93  1  0.92353000  0.99791000  0.71511000  1.0
  C  C94  1  0.96885000  0.10884000  0.26355000  1.0
  C  C95  1  0.03115000  0.89117000  0.73645000  1.0
  C  C96  1  0.89094000  0.10026000  0.19958000  1.0
  C  C97  1  0.10905000  0.89974000  0.80042000  1.0
  C  C98  1  0.15998000  0.00417000  0.35524000  1.0
  C  C99  1  0.84002000  0.99583000  0.64476000  1.0
  C  C100  1  0.14897000  0.13382000  0.49720000  1.0
  C  C101  1  0.85103000  0.86618000  0.50280000  1.0
  C  C102  1  0.27099000  0.04261000  0.52150000  1.0
  C  C103  1  0.72901000  0.95738000  0.47850000  1.0
  C  C104  1  0.30989000  0.07458000  0.60042000  1.0
  C  C105  1  0.69011000  0.92541000  0.39958000  1.0
  C  C106  1  0.22774000  0.19431000  0.65403000  1.0
  C  C107  1  0.77226000  0.80569000  0.34597000  1.0
  C  C108  1  0.06877000  0.25262000  0.55684000  1.0
  C  C109  1  0.93123000  0.74738000  0.44316000  1.0
  N  N110  1  0.95206000  0.42340000  0.86489000  1.0
  N  N111  1  0.04794000  0.57660000  0.13511000  1.0
  N  N112  1  0.22201000  0.28126000  0.99846000  1.0
  N  N113  1  0.77799000  0.71874000  0.00154000  1.0
  N  N114  1  0.10001000  0.11465000  0.41924000  1.0
  N  N115  1  0.89999000  0.88535000  0.58076000  1.0
  N  N116  1  0.10804000  0.28108000  0.63275000  1.0
  N  N117  1  0.89196000  0.71891000  0.36725000  1.0
  O  O118  1  0.18140000  0.49006000  0.68939000  1.0
  O  O119  1  0.81860000  0.50994000  0.31061000  1.0
  O  O120  1  0.09250000  0.63484000  0.59450000  1.0
  O  O121  1  0.90750000  0.36516000  0.40550000  1.0
  O  O122  1  0.64782000  0.45354000  0.77631000  1.0
  O  O123  1  0.35218000  0.54646000  0.22369000  1.0
  O  O124  1  0.80817000  0.53898000  0.67648000  1.0
  O  O125  1  0.19183000  0.46102000  0.32353000  1.0
  O  O126  1  0.12777000  0.29368000  0.17294000  1.0
  O  O127  1  0.87223000  0.70632000  0.82705000  1.0
  O  O128  1  0.85733000  0.96375000  0.08751000  1.0
  O  O129  1  0.14267000  0.03625000  0.91249000  1.0
  O  O130  1  0.27370000  0.90927000  0.35720000  1.0
  O  O131  1  0.72630000  0.09073000  0.64280000  1.0
