# generated using pymatgen
data_CuH16C10N3ClO3
_symmetry_space_group_name_H-M   'P 1'
_cell_length_a   5.58547000
_cell_length_b   10.20990000
_cell_length_c   10.76580000
_cell_angle_alpha   89.99960000
_cell_angle_beta   89.99960000
_cell_angle_gamma   94.71120000
_symmetry_Int_Tables_number   1
_chemical_formula_structural   CuH16C10N3ClO3
_chemical_formula_sum   'Cu2 H32 C20 N6 Cl2 O6'
_cell_volume   611.86795159
_cell_formula_units_Z   2
loop_
 _symmetry_equiv_pos_site_id
 _symmetry_equiv_pos_as_xyz
  1  'x, y, z'
loop_
 _atom_site_type_symbol
 _atom_site_label
 _atom_site_symmetry_multiplicity
 _atom_site_fract_x
 _atom_site_fract_y
 _atom_site_fract_z
 _atom_site_occupancy
  Cu  Cu0  1  0.88982000  0.33590000  0.60346000  1.0
  Cu  Cu1  1  0.11019000  0.66409000  0.10345000  1.0
  H  H2  1  0.15500000  0.47642000  0.34828000  1.0
  H  H3  1  0.84498000  0.52357000  0.84828000  1.0
  H  H4  1  0.44829000  0.33697000  0.56968000  1.0
  H  H5  1  0.55170000  0.66304000  0.06968000  1.0
  H  H6  1  0.66902000  0.55301000  0.41742000  1.0
  H  H7  1  0.33097000  0.44699000  0.91742000  1.0
  H  H8  1  0.24731000  0.55808000  0.59754000  1.0
  H  H9  1  0.75269000  0.44192000  0.09754000  1.0
  H  H10  1  0.35427000  0.69706000  0.34858000  1.0
  H  H11  1  0.64574000  0.30294000  0.84858000  1.0
  H  H12  1  0.40450000  0.76807000  0.49823000  1.0
  H  H13  1  0.59551000  0.23193000  0.99823000  1.0
  H  H14  1  0.10552000  0.71936000  0.44789000  1.0
  H  H15  1  0.89449000  0.28064000  0.94788000  1.0
  H  H16  1  0.70650000  0.35630000  0.32913000  1.0
  H  H17  1  0.29352000  0.64369000  0.82912000  1.0
  H  H18  1  0.40496000  0.28655000  0.35240000  1.0
  H  H19  1  0.59502000  0.71345000  0.85240000  1.0
  H  H20  1  0.75970000  0.86475000  0.41161000  1.0
  H  H21  1  0.24031000  0.13525000  0.91161000  1.0
  H  H22  1  0.23556000  0.03151000  0.32271000  1.0
  H  H23  1  0.76443000  0.96850000  0.82270000  1.0
  H  H24  1  0.42408000  0.92886000  0.24193000  1.0
  H  H25  1  0.57591000  0.07113000  0.74193000  1.0
  H  H26  1  0.42558000  0.09923000  0.20392000  1.0
  H  H27  1  0.57441000  0.90077000  0.70393000  1.0
  H  H28  1  0.26533000  0.99734000  0.54931000  1.0
  H  H29  1  0.73468000  0.00266000  0.04931000  1.0
  H  H30  1  0.03871000  0.89620000  0.62654000  1.0
  H  H31  1  0.96130000  0.10380000  0.12654000  1.0
  H  H32  1  0.11726000  0.06089000  0.67870000  1.0
  H  H33  1  0.88274000  0.93912000  0.17869000  1.0
  C  C34  1  0.71457000  0.58278000  0.61391000  1.0
  C  C35  1  0.28543000  0.41720000  0.11392000  1.0
  C  C36  1  0.57514000  0.51857000  0.50292000  1.0
  C  C37  1  0.42485000  0.48143000  0.00292000  1.0
  C  C38  1  0.31131000  0.55916000  0.50091000  1.0
  C  C39  1  0.68871000  0.44084000  0.00091000  1.0
  C  C40  1  0.29270000  0.69450000  0.44556000  1.0
  C  C41  1  0.70729000  0.30549000  0.94556000  1.0
  C  C42  1  0.58386000  0.30189000  0.39460000  1.0
  C  C43  1  0.41612000  0.69811000  0.89460000  1.0
  C  C44  1  0.60824000  0.05408000  0.37317000  1.0
  C  C45  1  0.39176000  0.94591000  0.87318000  1.0
  C  C46  1  0.75781000  0.96907000  0.42943000  1.0
  C  C47  1  0.24218000  0.03093000  0.92944000  1.0
  C  C48  1  0.90504000  0.04412000  0.51335000  1.0
  C  C49  1  0.09496000  0.95588000  0.01334000  1.0
  C  C50  1  0.41395000  0.02772000  0.28010000  1.0
  C  C51  1  0.58605000  0.97229000  0.78010000  1.0
  C  C52  1  0.09141000  0.99737000  0.59721000  1.0
  C  C53  1  0.90860000  0.00263000  0.09721000  1.0
  N  N54  1  0.58560000  0.37503000  0.51153000  1.0
  N  N55  1  0.41442000  0.62497000  0.01152000  1.0
  N  N56  1  0.85107000  0.17052000  0.50810000  1.0
  N  N57  1  0.14893000  0.82948000  0.00810000  1.0
  N  N58  1  0.66936000  0.17463000  0.42291000  1.0
  N  N59  1  0.33063000  0.82537000  0.92291000  1.0
  Cl  Cl60  1  0.20673000  0.30666000  0.72562000  1.0
  Cl  Cl61  1  0.79327000  0.69335000  0.22562000  1.0
  O  O62  1  0.83706000  0.50530000  0.68209000  1.0
  O  O63  1  0.16295000  0.49470000  0.18208000  1.0
  O  O64  1  0.70694000  0.70121000  0.63688000  1.0
  O  O65  1  0.29309000  0.29881000  0.13689000  1.0
  O  O66  1  0.15496000  0.46087000  0.43948000  1.0
  O  O67  1  0.84504000  0.53913000  0.93949000  1.0
