# generated using pymatgen
data_CoH14C20S(NO)4
_symmetry_space_group_name_H-M   'P 1'
_cell_length_a   9.21973000
_cell_length_b   14.93990000
_cell_length_c   16.70730000
_cell_angle_alpha   90.00030000
_cell_angle_beta   90.00080000
_cell_angle_gamma   107.66300000
_symmetry_Int_Tables_number   1
_chemical_formula_structural   CoH14C20S(NO)4
_chemical_formula_sum   'Co4 H56 C80 S4 N16 O16'
_cell_volume   2192.80581943
_cell_formula_units_Z   4
loop_
 _symmetry_equiv_pos_site_id
 _symmetry_equiv_pos_as_xyz
  1  'x, y, z'
loop_
 _atom_site_type_symbol
 _atom_site_label
 _atom_site_symmetry_multiplicity
 _atom_site_fract_x
 _atom_site_fract_y
 _atom_site_fract_z
 _atom_site_occupancy
  Co  Co0  1  0.49664000  0.72837000  0.98831000  1.0
  Co  Co1  1  0.00337000  0.77163000  0.48830000  1.0
  Co  Co2  1  0.50336000  0.27162000  0.01170000  1.0
  Co  Co3  1  0.99663000  0.22837000  0.51170000  1.0
  H  H4  1  0.34841000  0.86950000  0.05199000  1.0
  H  H5  1  0.15160000  0.63050000  0.55199000  1.0
  H  H6  1  0.65160000  0.13050000  0.94801000  1.0
  H  H7  1  0.84842000  0.36951000  0.44801000  1.0
  H  H8  1  0.13517000  0.92670000  0.00116000  1.0
  H  H9  1  0.36482000  0.57328000  0.50114000  1.0
  H  H10  1  0.86484000  0.07330000  0.99884000  1.0
  H  H11  1  0.63519000  0.42673000  0.49885000  1.0
  H  H12  1  0.98180000  0.84412000  0.88269000  1.0
  H  H13  1  0.51819000  0.65587000  0.38268000  1.0
  H  H14  1  0.01820000  0.15588000  0.11731000  1.0
  H  H15  1  0.48181000  0.34415000  0.61731000  1.0
  H  H16  1  0.04529000  0.70928000  0.82083000  1.0
  H  H17  1  0.45471000  0.79071000  0.32083000  1.0
  H  H18  1  0.95471000  0.29071000  0.17917000  1.0
  H  H19  1  0.54528000  0.20931000  0.67917000  1.0
  H  H20  1  0.13045000  0.58948000  0.77662000  1.0
  H  H21  1  0.36957000  0.91053000  0.27662000  1.0
  H  H22  1  0.86956000  0.41052000  0.22338000  1.0
  H  H23  1  0.63043000  0.08948000  0.72339000  1.0
  H  H24  1  0.47850000  0.45410000  0.82219000  1.0
  H  H25  1  0.02151000  0.04590000  0.32219000  1.0
  H  H26  1  0.52150000  0.54590000  0.17781000  1.0
  H  H27  1  0.97847000  0.95410000  0.67781000  1.0
  H  H28  1  0.68263000  0.46646000  0.90077000  1.0
  H  H29  1  0.81736000  0.03353000  0.40076000  1.0
  H  H30  1  0.31737000  0.53353000  0.09924000  1.0
  H  H31  1  0.18262000  0.96647000  0.59924000  1.0
  H  H32  1  0.90904000  0.50344000  0.98905000  1.0
  H  H33  1  0.59094000  0.99654000  0.48903000  1.0
  H  H34  1  0.09096000  0.49656000  0.01095000  1.0
  H  H35  1  0.40905000  0.00346000  0.51098000  1.0
  H  H36  1  0.96548000  0.64428000  0.08134000  1.0
  H  H37  1  0.53453000  0.85572000  0.58133000  1.0
  H  H38  1  0.03452000  0.35572000  0.91866000  1.0
  H  H39  1  0.46547000  0.14429000  0.41869000  1.0
  H  H40  1  0.78326000  0.74074000  0.08168000  1.0
  H  H41  1  0.71677000  0.75926000  0.58167000  1.0
  H  H42  1  0.21673000  0.25926000  0.91833000  1.0
  H  H43  1  0.28324000  0.24074000  0.41834000  1.0
  H  H44  1  0.06157000  0.43194000  0.54314000  1.0
  H  H45  1  0.43841000  0.06806000  0.04314000  1.0
  H  H46  1  0.93842000  0.56807000  0.45686000  1.0
  H  H47  1  0.56158000  0.93193000  0.95686000  1.0
  H  H48  1  0.15453000  0.54594000  0.65536000  1.0
  H  H49  1  0.34547000  0.95406000  0.15536000  1.0
  H  H50  1  0.84547000  0.45406000  0.34464000  1.0
  H  H51  1  0.65450000  0.04593000  0.84464000  1.0
  H  H52  1  0.30072000  0.32805000  0.77322000  1.0
  H  H53  1  0.19930000  0.17196000  0.27323000  1.0
  H  H54  1  0.69929000  0.67196000  0.22677000  1.0
  H  H55  1  0.80069000  0.82804000  0.72677000  1.0
  H  H56  1  0.19025000  0.22430000  0.66279000  1.0
  H  H57  1  0.30974000  0.27570000  0.16279000  1.0
  H  H58  1  0.80975000  0.77571000  0.33721000  1.0
  H  H59  1  0.69026000  0.72429000  0.83721000  1.0
  C  C60  1  0.27944000  0.83785000  0.00053000  1.0
  C  C61  1  0.22057000  0.66215000  0.50052000  1.0
  C  C62  1  0.72057000  0.16215000  0.99947000  1.0
  C  C63  1  0.77944000  0.33786000  0.49948000  1.0
  C  C64  1  0.15957000  0.86753000  0.97218000  1.0
  C  C65  1  0.34043000  0.63246000  0.47217000  1.0
  C  C66  1  0.84043000  0.13246000  0.02782000  1.0
  C  C67  1  0.65958000  0.36755000  0.52782000  1.0
  C  C68  1  0.07461000  0.82149000  0.90695000  1.0
  C  C69  1  0.42539000  0.67850000  0.40694000  1.0
  C  C70  1  0.92539000  0.17850000  0.09306000  1.0
  C  C71  1  0.57462000  0.32152000  0.59305000  1.0
  C  C72  1  0.10955000  0.74564000  0.87234000  1.0
  C  C73  1  0.39045000  0.75435000  0.37234000  1.0
  C  C74  1  0.89045000  0.25435000  0.12766000  1.0
  C  C75  1  0.60955000  0.24567000  0.62766000  1.0
  C  C76  1  0.23068000  0.71905000  0.90353000  1.0
  C  C77  1  0.26933000  0.78094000  0.40353000  1.0
  C  C78  1  0.76932000  0.28094000  0.09647000  1.0
  C  C79  1  0.73067000  0.21907000  0.59647000  1.0
  C  C80  1  0.28443000  0.64295000  0.87377000  1.0
  C  C81  1  0.21558000  0.85705000  0.37376000  1.0
  C  C82  1  0.71557000  0.35705000  0.12623000  1.0
  C  C83  1  0.78441000  0.14295000  0.62624000  1.0
  C  C84  1  0.22605000  0.58147000  0.81113000  1.0
  C  C85  1  0.27397000  0.91853000  0.31113000  1.0
  C  C86  1  0.77396000  0.41852000  0.18887000  1.0
  C  C87  1  0.72602000  0.08148000  0.68887000  1.0
  C  C88  1  0.29520000  0.51240000  0.79146000  1.0
  C  C89  1  0.20482000  0.98760000  0.29147000  1.0
  C  C90  1  0.70481000  0.48760000  0.20853000  1.0
  C  C91  1  0.79516000  0.01240000  0.70853000  1.0
  C  C92  1  0.42255000  0.50720000  0.83533000  1.0
  C  C93  1  0.07747000  0.99280000  0.33532000  1.0
  C  C94  1  0.57745000  0.49280000  0.16467000  1.0
  C  C95  1  0.92252000  0.00720000  0.66468000  1.0
  C  C96  1  0.47904000  0.57228000  0.89590000  1.0
  C  C97  1  0.02098000  0.92772000  0.39589000  1.0
  C  C98  1  0.52096000  0.42771000  0.10411000  1.0
  C  C99  1  0.97901000  0.07229000  0.60411000  1.0
  C  C100  1  0.61527000  0.58432000  0.94414000  1.0
  C  C101  1  0.88474000  0.91568000  0.44413000  1.0
  C  C102  1  0.38473000  0.41568000  0.05586000  1.0
  C  C103  1  0.11526000  0.08432000  0.55587000  1.0
  C  C104  1  0.71015000  0.52750000  0.94034000  1.0
  C  C105  1  0.78985000  0.97250000  0.44033000  1.0
  C  C106  1  0.28985000  0.47250000  0.05967000  1.0
  C  C107  1  0.21014000  0.02750000  0.55968000  1.0
  C  C108  1  0.83654000  0.54870000  0.99029000  1.0
  C  C109  1  0.66345000  0.95129000  0.49028000  1.0
  C  C110  1  0.16346000  0.45130000  0.00971000  1.0
  C  C111  1  0.33654000  0.04871000  0.50973000  1.0
  C  C112  1  0.86680000  0.62587000  0.04176000  1.0
  C  C113  1  0.63321000  0.87413000  0.54175000  1.0
  C  C114  1  0.13320000  0.37413000  0.95824000  1.0
  C  C115  1  0.36679000  0.12588000  0.45826000  1.0
  C  C116  1  0.76756000  0.67998000  0.04271000  1.0
  C  C117  1  0.73246000  0.82002000  0.54270000  1.0
  C  C118  1  0.23244000  0.32002000  0.95729000  1.0
  C  C119  1  0.26755000  0.17998000  0.45730000  1.0
  C  C120  1  0.11226000  0.41229000  0.59667000  1.0
  C  C121  1  0.38774000  0.08770000  0.09667000  1.0
  C  C122  1  0.88774000  0.58771000  0.40333000  1.0
  C  C123  1  0.61225000  0.91229000  0.90333000  1.0
  C  C124  1  0.16646000  0.47549000  0.65851000  1.0
  C  C125  1  0.33354000  0.02451000  0.15851000  1.0
  C  C126  1  0.83353000  0.52451000  0.34149000  1.0
  C  C127  1  0.66644000  0.97549000  0.84148000  1.0
  C  C128  1  0.23579000  0.44739000  0.72486000  1.0
  C  C129  1  0.26422000  0.05262000  0.22486000  1.0
  C  C130  1  0.76422000  0.55262000  0.27514000  1.0
  C  C131  1  0.73576000  0.94738000  0.77514000  1.0
  C  C132  1  0.24690000  0.35588000  0.72518000  1.0
  C  C133  1  0.25312000  0.14412000  0.22519000  1.0
  C  C134  1  0.75311000  0.64412000  0.27482000  1.0
  C  C135  1  0.74688000  0.85588000  0.77481000  1.0
  C  C136  1  0.18511000  0.29624000  0.66195000  1.0
  C  C137  1  0.31489000  0.20376000  0.16195000  1.0
  C  C138  1  0.81489000  0.70376000  0.33805000  1.0
  C  C139  1  0.68511000  0.79624000  0.83805000  1.0
  S  S140  1  0.50720000  0.77840000  0.15365000  1.0
  S  S141  1  0.99282000  0.72160000  0.65364000  1.0
  S  S142  1  0.49280000  0.22159000  0.84635000  1.0
  S  S143  1  0.00718000  0.27839000  0.34636000  1.0
  N  N144  1  0.31588000  0.76573000  0.96680000  1.0
  N  N145  1  0.18414000  0.73427000  0.46679000  1.0
  N  N146  1  0.68413000  0.23427000  0.03320000  1.0
  N  N147  1  0.81587000  0.26574000  0.53321000  1.0
  N  N148  1  0.40926000  0.63773000  0.91473000  1.0
  N  N149  1  0.09076000  0.86227000  0.41473000  1.0
  N  N150  1  0.59074000  0.36226000  0.08527000  1.0
  N  N151  1  0.90924000  0.13773000  0.58527000  1.0
  N  N152  1  0.64368000  0.65961000  0.99534000  1.0
  N  N153  1  0.85633000  0.84039000  0.49533000  1.0
  N  N154  1  0.35632000  0.34039000  0.00467000  1.0
  N  N155  1  0.14367000  0.15961000  0.50468000  1.0
  N  N156  1  0.11842000  0.32335000  0.59864000  1.0
  N  N157  1  0.38158000  0.17665000  0.09864000  1.0
  N  N158  1  0.88158000  0.67666000  0.40136000  1.0
  N  N159  1  0.61843000  0.82334000  0.90136000  1.0
  O  O160  1  0.58079000  0.82049000  0.07233000  1.0
  O  O161  1  0.91922000  0.67951000  0.57233000  1.0
  O  O162  1  0.41922000  0.17951000  0.92767000  1.0
  O  O163  1  0.08079000  0.32049000  0.42767000  1.0
  O  O164  1  0.44106000  0.67552000  0.13697000  1.0
  O  O165  1  0.05895000  0.82449000  0.63697000  1.0
  O  O166  1  0.55892000  0.32448000  0.86301000  1.0
  O  O167  1  0.94106000  0.17551000  0.36303000  1.0
  O  O168  1  0.38768000  0.82166000  0.17410000  1.0
  O  O169  1  0.11235000  0.67835000  0.67409000  1.0
  O  O170  1  0.61234000  0.17834000  0.82590000  1.0
  O  O171  1  0.88765000  0.32165000  0.32591000  1.0
  O  O172  1  0.62821000  0.79848000  0.21434000  1.0
  O  O173  1  0.87182000  0.70152000  0.71434000  1.0
  O  O174  1  0.37179000  0.20150000  0.78566000  1.0
  O  O175  1  0.12818000  0.29848000  0.28566000  1.0
