# generated using pymatgen
data_PrH8C10N2Cl3
_symmetry_space_group_name_H-M   'P 1'
_cell_length_a   11.80310000
_cell_length_b   11.85160000
_cell_length_c   16.06200000
_cell_angle_alpha   90.00000000
_cell_angle_beta   90.00000000
_cell_angle_gamma   117.77300000
_symmetry_Int_Tables_number   1
_chemical_formula_structural   PrH8C10N2Cl3
_chemical_formula_sum   'Pr6 H48 C60 N12 Cl18'
_cell_volume   1988.00800912
_cell_formula_units_Z   6
loop_
 _symmetry_equiv_pos_site_id
 _symmetry_equiv_pos_as_xyz
  1  'x, y, z'
loop_
 _atom_site_type_symbol
 _atom_site_label
 _atom_site_symmetry_multiplicity
 _atom_site_fract_x
 _atom_site_fract_y
 _atom_site_fract_z
 _atom_site_occupancy
  Pr  Pr0  1  0.93606000  0.06391000  0.11754000  1.0
  Pr  Pr1  1  0.06394000  0.93609000  0.61754000  1.0
  Pr  Pr2  1  0.06394000  0.93609000  0.88246000  1.0
  Pr  Pr3  1  0.93606000  0.06391000  0.38246000  1.0
  Pr  Pr4  1  0.74927000  0.25103000  0.25000000  1.0
  Pr  Pr5  1  0.25073000  0.74897000  0.75000000  1.0
  H  H6  1  0.64331000  0.92474000  0.01802000  1.0
  H  H7  1  0.35669000  0.07526000  0.51802000  1.0
  H  H8  1  0.92592000  0.64397000  0.98224000  1.0
  H  H9  1  0.07408000  0.35602000  0.48224000  1.0
  H  H10  1  0.35669000  0.07526000  0.98198000  1.0
  H  H11  1  0.64331000  0.92474000  0.48198000  1.0
  H  H12  1  0.07408000  0.35602000  0.01776000  1.0
  H  H13  1  0.92592000  0.64397000  0.51776000  1.0
  H  H14  1  0.43480000  0.72960000  0.01606000  1.0
  H  H15  1  0.56520000  0.27040000  0.51606000  1.0
  H  H16  1  0.73054000  0.43569000  0.98399000  1.0
  H  H17  1  0.26946000  0.56431000  0.48399000  1.0
  H  H18  1  0.56520000  0.27040000  0.98394000  1.0
  H  H19  1  0.43480000  0.72960000  0.48394000  1.0
  H  H20  1  0.26946000  0.56431000  0.01601000  1.0
  H  H21  1  0.73054000  0.43569000  0.51601000  1.0
  H  H22  1  0.61393000  0.54650000  0.16098000  1.0
  H  H23  1  0.38607000  0.45350000  0.66098000  1.0
  H  H24  1  0.54571000  0.61299000  0.83895000  1.0
  H  H25  1  0.45429000  0.38701000  0.33896000  1.0
  H  H26  1  0.38607000  0.45350000  0.83902000  1.0
  H  H27  1  0.61393000  0.54650000  0.33902000  1.0
  H  H28  1  0.45429000  0.38701000  0.16104000  1.0
  H  H29  1  0.54571000  0.61299000  0.66105000  1.0
  H  H30  1  0.81301000  0.74892000  0.15605000  1.0
  H  H31  1  0.18698000  0.25108000  0.65606000  1.0
  H  H32  1  0.74821000  0.81176000  0.84416000  1.0
  H  H33  1  0.25179000  0.18824000  0.34416000  1.0
  H  H34  1  0.18698000  0.25108000  0.84394000  1.0
  H  H35  1  0.81301000  0.74892000  0.34395000  1.0
  H  H36  1  0.25179000  0.18824000  0.15584000  1.0
  H  H37  1  0.74821000  0.81176000  0.65584000  1.0
  H  H38  1  0.50008000  0.06573000  0.37874000  1.0
  H  H39  1  0.49992000  0.93427000  0.87874000  1.0
  H  H40  1  0.06570000  0.50011000  0.62127000  1.0
  H  H41  1  0.93430000  0.49989000  0.12127000  1.0
  H  H42  1  0.49992000  0.93427000  0.62126000  1.0
  H  H43  1  0.50008000  0.06573000  0.12126000  1.0
  H  H44  1  0.93430000  0.49989000  0.37873000  1.0
  H  H45  1  0.06570000  0.50011000  0.87873000  1.0
  H  H46  1  0.29075000  0.87180000  0.38518000  1.0
  H  H47  1  0.70925000  0.12820000  0.88518000  1.0
  H  H48  1  0.87194000  0.29082000  0.61483000  1.0
  H  H49  1  0.12806000  0.70918000  0.11483000  1.0
  H  H50  1  0.70925000  0.12820000  0.61482000  1.0
  H  H51  1  0.29075000  0.87180000  0.11482000  1.0
  H  H52  1  0.12806000  0.70918000  0.38517000  1.0
  H  H53  1  0.87194000  0.29082000  0.88517000  1.0
  C  C54  1  0.63145000  0.83843000  0.04971000  1.0
  C  C55  1  0.36855000  0.16157000  0.54971000  1.0
  C  C56  1  0.83914000  0.63177000  0.95054000  1.0
  C  C57  1  0.16086000  0.36823000  0.45054000  1.0
  C  C58  1  0.36855000  0.16157000  0.95029000  1.0
  C  C59  1  0.63145000  0.83843000  0.45029000  1.0
  C  C60  1  0.16086000  0.36823000  0.04946000  1.0
  C  C61  1  0.83914000  0.63177000  0.54946000  1.0
  C  C62  1  0.51416000  0.72877000  0.05008000  1.0
  C  C63  1  0.48584000  0.27123000  0.55008000  1.0
  C  C64  1  0.72943000  0.51464000  0.95003000  1.0
  C  C65  1  0.27057000  0.48536000  0.45003000  1.0
  C  C66  1  0.48584000  0.27123000  0.94992000  1.0
  C  C67  1  0.51416000  0.72877000  0.44992000  1.0
  C  C68  1  0.27057000  0.48536000  0.04997000  1.0
  C  C69  1  0.72943000  0.51464000  0.54997000  1.0
  C  C70  1  0.50234000  0.61887000  0.09093000  1.0
  C  C71  1  0.49766000  0.38114000  0.59093000  1.0
  C  C72  1  0.61895000  0.50235000  0.90909000  1.0
  C  C73  1  0.38105000  0.49766000  0.40909000  1.0
  C  C74  1  0.49766000  0.38114000  0.90907000  1.0
  C  C75  1  0.50234000  0.61887000  0.40907000  1.0
  C  C76  1  0.38105000  0.49766000  0.09091000  1.0
  C  C77  1  0.61895000  0.50235000  0.59091000  1.0
  C  C78  1  0.61278000  0.62765000  0.12997000  1.0
  C  C79  1  0.38722000  0.37235000  0.62997000  1.0
  C  C80  1  0.62727000  0.61214000  0.87004000  1.0
  C  C81  1  0.37273000  0.38787000  0.37004000  1.0
  C  C82  1  0.38722000  0.37235000  0.87003000  1.0
  C  C83  1  0.61278000  0.62765000  0.37003000  1.0
  C  C84  1  0.37273000  0.38787000  0.12996000  1.0
  C  C85  1  0.62727000  0.61214000  0.62996000  1.0
  C  C86  1  0.72624000  0.74096000  0.12651000  1.0
  C  C87  1  0.27377000  0.25904000  0.62651000  1.0
  C  C88  1  0.74066000  0.72547000  0.87370000  1.0
  C  C89  1  0.25934000  0.27453000  0.37370000  1.0
  C  C90  1  0.27377000  0.25904000  0.87349000  1.0
  C  C91  1  0.72624000  0.74096000  0.37349000  1.0
  C  C92  1  0.25934000  0.27453000  0.12630000  1.0
  C  C93  1  0.74066000  0.72547000  0.62630000  1.0
  C  C94  1  0.45026000  0.01835000  0.32171000  1.0
  C  C95  1  0.54974000  0.98165000  0.82171000  1.0
  C  C96  1  0.01826000  0.45035000  0.67830000  1.0
  C  C97  1  0.98174000  0.54965000  0.17830000  1.0
  C  C98  1  0.54974000  0.98165000  0.67829000  1.0
  C  C99  1  0.45026000  0.01835000  0.17829000  1.0
  C  C100  1  0.98174000  0.54965000  0.32170000  1.0
  C  C101  1  0.01826000  0.45035000  0.82170000  1.0
  C  C102  1  0.33273000  0.90900000  0.32452000  1.0
  C  C103  1  0.66727000  0.09100000  0.82452000  1.0
  C  C104  1  0.90910000  0.33281000  0.67547000  1.0
  C  C105  1  0.09090000  0.66719000  0.17547000  1.0
  C  C106  1  0.66727000  0.09100000  0.67548000  1.0
  C  C107  1  0.33273000  0.90900000  0.17548000  1.0
  C  C108  1  0.09090000  0.66719000  0.32453000  1.0
  C  C109  1  0.90910000  0.33281000  0.82453000  1.0
  C  C110  1  0.27140000  0.84971000  0.25000000  1.0
  C  C111  1  0.72860000  0.15029000  0.75000000  1.0
  C  C112  1  0.84978000  0.27149000  0.75000000  1.0
  C  C113  1  0.15022000  0.72851000  0.25000000  1.0
  N  N114  1  0.73664000  0.84583000  0.08734000  1.0
  N  N115  1  0.26336000  0.15417000  0.58734000  1.0
  N  N116  1  0.84606000  0.73639000  0.91299000  1.0
  N  N117  1  0.15394000  0.26361000  0.41299000  1.0
  N  N118  1  0.26336000  0.15417000  0.91266000  1.0
  N  N119  1  0.73664000  0.84583000  0.41266000  1.0
  N  N120  1  0.15394000  0.26361000  0.08701000  1.0
  N  N121  1  0.84606000  0.73639000  0.58701000  1.0
  N  N122  1  0.50989000  0.07217000  0.25000000  1.0
  N  N123  1  0.49011000  0.92783000  0.75000000  1.0
  N  N124  1  0.07196000  0.51003000  0.75000000  1.0
  N  N125  1  0.92804000  0.48997000  0.25000000  1.0
  Cl  Cl126  1  0.00556000  0.26140000  0.25000000  1.0
  Cl  Cl127  1  0.99444000  0.73860000  0.75000000  1.0
  Cl  Cl128  1  0.26171000  0.00514000  0.75000000  1.0
  Cl  Cl129  1  0.73829000  0.99486000  0.25000000  1.0
  Cl  Cl130  1  0.02664000  0.97403000  0.25000000  1.0
  Cl  Cl131  1  0.97336000  0.02597000  0.75000000  1.0
  Cl  Cl132  1  0.80118000  0.19835000  0.07798000  1.0
  Cl  Cl133  1  0.19882000  0.80165000  0.57798000  1.0
  Cl  Cl134  1  0.19882000  0.80165000  0.92202000  1.0
  Cl  Cl135  1  0.80118000  0.19835000  0.42202000  1.0
  Cl  Cl136  1  0.92997000  0.06947000  0.94270000  1.0
  Cl  Cl137  1  0.07003000  0.93053000  0.44270000  1.0
  Cl  Cl138  1  0.07003000  0.93053000  0.05730000  1.0
  Cl  Cl139  1  0.92997000  0.06947000  0.55730000  1.0
  Cl  Cl140  1  0.64640000  0.35367000  0.35959000  1.0
  Cl  Cl141  1  0.35360000  0.64632000  0.85959000  1.0
  Cl  Cl142  1  0.35360000  0.64632000  0.64041000  1.0
  Cl  Cl143  1  0.64640000  0.35367000  0.14041000  1.0
