# generated using pymatgen
data_Zn2H3(C3O4)2
_symmetry_space_group_name_H-M   'P 1'
_cell_length_a   13.03810000
_cell_length_b   14.37485234
_cell_length_c   15.79430891
_cell_angle_alpha   69.90467197
_cell_angle_beta   68.68299867
_cell_angle_gamma   66.18750245
_symmetry_Int_Tables_number   1
_chemical_formula_structural   Zn2H3(C3O4)2
_chemical_formula_sum   'Zn8 H12 C24 O32'
_cell_volume   2454.71232873
_cell_formula_units_Z   4
loop_
 _symmetry_equiv_pos_site_id
 _symmetry_equiv_pos_as_xyz
  1  'x, y, z'
loop_
 _atom_site_type_symbol
 _atom_site_label
 _atom_site_symmetry_multiplicity
 _atom_site_fract_x
 _atom_site_fract_y
 _atom_site_fract_z
 _atom_site_occupancy
  Zn  Zn0  1  0.98646000  0.03534000  0.08845000  1.0
  Zn  Zn1  1  0.74367000  0.04937000  0.07059000  1.0
  Zn  Zn2  1  0.95103000  0.82847000  0.08430000  1.0
  Zn  Zn3  1  0.97621000  0.01038000  0.89981000  1.0
  Zn  Zn4  1  0.32562000  0.41725000  0.50071000  1.0
  Zn  Zn5  1  0.57792000  0.42441000  0.47911000  1.0
  Zn  Zn6  1  0.38416000  0.44454000  0.67065000  1.0
  Zn  Zn7  1  0.35731000  0.63303000  0.49156000  1.0
  H  H8  1  0.76444000  0.26622000  0.26053000  1.0
  H  H9  1  0.52954000  0.24129000  0.27332000  1.0
  H  H10  1  0.17621000  0.81247000  0.29696000  1.0
  H  H11  1  0.06242000  0.63902000  0.34114000  1.0
  H  H12  1  0.20999000  0.22848000  0.88667000  1.0
  H  H13  1  0.21384000  0.16016000  0.71593000  1.0
  H  H14  1  0.52928000  0.84221000  0.26019000  1.0
  H  H15  1  0.75065000  0.64132000  0.26141000  1.0
  H  H16  1  0.59190000  0.28862000  0.84898000  1.0
  H  H17  1  0.80045000  0.22265000  0.67803000  1.0
  H  H18  1  0.15011000  0.81988000  0.70404000  1.0
  H  H19  1  0.15852000  0.62690000  0.87741000  1.0
  C  C20  1  0.76387000  0.17083000  0.17728000  1.0
  C  C21  1  0.70730000  0.25458000  0.23166000  1.0
  C  C22  1  0.58149000  0.28107000  0.27940000  1.0
  C  C23  1  0.53605000  0.32526000  0.36473000  1.0
  C  C24  1  0.06792000  0.83070000  0.20898000  1.0
  C  C25  1  0.10946000  0.78513000  0.29656000  1.0
  C  C26  1  0.09795000  0.68411000  0.35961000  1.0
  C  C27  1  0.18355000  0.62264000  0.41802000  1.0
  C  C28  1  0.12468000  0.11400000  0.90713000  1.0
  C  C29  1  0.20996000  0.17346000  0.85318000  1.0
  C  C30  1  0.24830000  0.19123000  0.74988000  1.0
  C  C31  1  0.28293000  0.28679000  0.69207000  1.0
  C  C32  1  0.70204000  0.84918000  0.16709000  1.0
  C  C33  1  0.61462000  0.79333000  0.22813000  1.0
  C  C34  1  0.65716000  0.68108000  0.27371000  1.0
  C  C35  1  0.58355000  0.63233000  0.36283000  1.0
  C  C36  1  0.75222000  0.16210000  0.87441000  1.0
  C  C37  1  0.68406000  0.25733000  0.81558000  1.0
  C  C38  1  0.72215000  0.27741000  0.71206000  1.0
  C  C39  1  0.63188000  0.34022000  0.65781000  1.0
  C  C40  1  0.25152000  0.66006000  0.68274000  1.0
  C  C41  1  0.15921000  0.73780000  0.73778000  1.0
  C  C42  1  0.11909000  0.70641000  0.84087000  1.0
  C  C43  1  0.06463000  0.78849000  0.89738000  1.0
  O  O44  1  0.91274000  0.98069000  0.03604000  1.0
  O  O45  1  0.70211000  0.15634000  0.13968000  1.0
  O  O46  1  0.87079000  0.12224000  0.17480000  1.0
  O  O47  1  0.62530000  0.34841000  0.19412000  1.0
  O  O48  1  0.60457000  0.35480000  0.38203000  1.0
  O  O49  1  0.43175000  0.33001000  0.41035000  1.0
  O  O50  1  0.01631000  0.78303000  0.19223000  1.0
  O  O51  1  0.08680000  0.91643000  0.16079000  1.0
  O  O52  1  0.01778000  0.78154000  0.38170000  1.0
  O  O53  1  0.22224000  0.67470000  0.44255000  1.0
  O  O54  1  0.20978000  0.52357000  0.43552000  1.0
  O  O55  1  0.10967000  0.06098000  0.86535000  1.0
  O  O56  1  0.07585000  0.12285000  0.99132000  1.0
  O  O57  1  0.32266000  0.11395000  0.80680000  1.0
  O  O58  1  0.32882000  0.32249000  0.72726000  1.0
  O  O59  1  0.26142000  0.32249000  0.61238000  1.0
  O  O60  1  0.80517000  0.79331000  0.13604000  1.0
  O  O61  1  0.66202000  0.94862000  0.15264000  1.0
  O  O62  1  0.61359000  0.71396000  0.19292000  1.0
  O  O63  1  0.47555000  0.68245000  0.38623000  1.0
  O  O64  1  0.63777000  0.54308000  0.40553000  1.0
  O  O65  1  0.86065000  0.12473000  0.83897000  1.0
  O  O66  1  0.69279000  0.12936000  0.95555000  1.0
  O  O67  1  0.74077000  0.33450000  0.76089000  1.0
  O  O68  1  0.53498000  0.39585000  0.69972000  1.0
  O  O69  1  0.66274000  0.33190000  0.57349000  1.0
  O  O70  1  0.27400000  0.56374000  0.72416000  1.0
  O  O71  1  0.29655000  0.69922000  0.59825000  1.0
  O  O72  1  0.05131000  0.71505000  0.78252000  1.0
  O  O73  1  0.03285000  0.88339000  0.85336000  1.0
  O  O74  1  0.05388000  0.75353000  0.98501000  1.0
  O  O75  1  0.41017000  0.48004000  0.53435000  1.0
