# generated using pymatgen
data_Zn2H15C14NO8
_symmetry_space_group_name_H-M   'P 1'
_cell_length_a   10.30820000
_cell_length_b   11.69830000
_cell_length_c   20.48420000
_cell_angle_alpha   90.00020000
_cell_angle_beta   90.00010000
_cell_angle_gamma   90.00000000
_symmetry_Int_Tables_number   1
_chemical_formula_structural   Zn2H15C14NO8
_chemical_formula_sum   'Zn8 H60 C56 N4 O32'
_cell_volume   2470.15723224
_cell_formula_units_Z   4
loop_
 _symmetry_equiv_pos_site_id
 _symmetry_equiv_pos_as_xyz
  1  'x, y, z'
loop_
 _atom_site_type_symbol
 _atom_site_label
 _atom_site_symmetry_multiplicity
 _atom_site_fract_x
 _atom_site_fract_y
 _atom_site_fract_z
 _atom_site_occupancy
  Zn  Zn0  1  0.03664000  0.92391000  0.01048000  1.0
  Zn  Zn1  1  0.34697000  0.82019000  0.01031000  1.0
  Zn  Zn2  1  0.46336000  0.07609000  0.51048000  1.0
  Zn  Zn3  1  0.15303000  0.17981000  0.51031000  1.0
  Zn  Zn4  1  0.96336000  0.42391000  0.48952000  1.0
  Zn  Zn5  1  0.65303000  0.32019000  0.48969000  1.0
  Zn  Zn6  1  0.53664000  0.57609000  0.98952000  1.0
  Zn  Zn7  1  0.84697000  0.67981000  0.98969000  1.0
  H  H8  1  0.24916000  0.51505000  0.98588000  1.0
  H  H9  1  0.35085000  0.53283000  0.87682000  1.0
  H  H10  1  0.17821000  0.54336000  0.87012000  1.0
  H  H11  1  0.27673000  0.66912000  0.86505000  1.0
  H  H12  1  0.03112000  0.01837000  0.20714000  1.0
  H  H13  1  0.42291000  0.89476000  0.20223000  1.0
  H  H14  1  0.45138000  0.95020000  0.31999000  1.0
  H  H15  1  0.05706000  0.06796000  0.32603000  1.0
  H  H16  1  0.02505000  0.15360000  0.92763000  1.0
  H  H17  1  0.73957000  0.35762000  0.00603000  1.0
  H  H18  1  0.75837000  0.21535000  0.03804000  1.0
  H  H19  1  0.85971000  0.32849000  0.06649000  1.0
  H  H20  1  0.83558000  0.37468000  0.89521000  1.0
  H  H21  1  0.96173000  0.43376000  0.94483000  1.0
  H  H22  1  0.99783000  0.32301000  0.88750000  1.0
  H  H23  1  0.25084000  0.48495000  0.48588000  1.0
  H  H24  1  0.14914000  0.46717000  0.37682000  1.0
  H  H25  1  0.32179000  0.45664000  0.37013000  1.0
  H  H26  1  0.22327000  0.33088000  0.36505000  1.0
  H  H27  1  0.46888000  0.98163000  0.70714000  1.0
  H  H28  1  0.07708000  0.10524000  0.70223000  1.0
  H  H29  1  0.04862000  0.04980000  0.81999000  1.0
  H  H30  1  0.44294000  0.93204000  0.82603000  1.0
  H  H31  1  0.47495000  0.84640000  0.42763000  1.0
  H  H32  1  0.76043000  0.64239000  0.50603000  1.0
  H  H33  1  0.74163000  0.78465000  0.53804000  1.0
  H  H34  1  0.64030000  0.67151000  0.56649000  1.0
  H  H35  1  0.66442000  0.62532000  0.39521000  1.0
  H  H36  1  0.53827000  0.56624000  0.44483000  1.0
  H  H37  1  0.50217000  0.67699000  0.38750000  1.0
  H  H38  1  0.75084000  0.01505000  0.51412000  1.0
  H  H39  1  0.64915000  0.03283000  0.62318000  1.0
  H  H40  1  0.82179000  0.04336000  0.62988000  1.0
  H  H41  1  0.72327000  0.16912000  0.63495000  1.0
  H  H42  1  0.96888000  0.51837000  0.29286000  1.0
  H  H43  1  0.57708000  0.39476000  0.29777000  1.0
  H  H44  1  0.54862000  0.45021000  0.18001000  1.0
  H  H45  1  0.94294000  0.56796000  0.17397000  1.0
  H  H46  1  0.97495000  0.65360000  0.57237000  1.0
  H  H47  1  0.26043000  0.85761000  0.49398000  1.0
  H  H48  1  0.24164000  0.71535000  0.46196000  1.0
  H  H49  1  0.14030000  0.82849000  0.43351000  1.0
  H  H50  1  0.16442000  0.87468000  0.60479000  1.0
  H  H51  1  0.03827000  0.93376000  0.55517000  1.0
  H  H52  1  0.00217000  0.82301000  0.61250000  1.0
  H  H53  1  0.74916000  0.98495000  0.01412000  1.0
  H  H54  1  0.85086000  0.96717000  0.12318000  1.0
  H  H55  1  0.67821000  0.95664000  0.12988000  1.0
  H  H56  1  0.77674000  0.83088000  0.13495000  1.0
  H  H57  1  0.53112000  0.48163000  0.79286000  1.0
  H  H58  1  0.92291000  0.60525000  0.79777000  1.0
  H  H59  1  0.95138000  0.54981000  0.68001000  1.0
  H  H60  1  0.55706000  0.43204000  0.67397000  1.0
  H  H61  1  0.52505000  0.34640000  0.07237000  1.0
  H  H62  1  0.23957000  0.14238000  0.99397000  1.0
  H  H63  1  0.25836000  0.28465000  0.96196000  1.0
  H  H64  1  0.35970000  0.17151000  0.93351000  1.0
  H  H65  1  0.33558000  0.12531000  0.10479000  1.0
  H  H66  1  0.46173000  0.06624000  0.05517000  1.0
  H  H67  1  0.49783000  0.17699000  0.11250000  1.0
  C  C68  1  0.13456000  0.66544000  0.98097000  1.0
  C  C69  1  0.25832000  0.60024000  0.96326000  1.0
  C  C70  1  0.26593000  0.58543000  0.88889000  1.0
  C  C71  1  0.21276000  0.92432000  0.12704000  1.0
  C  C72  1  0.22552000  0.95341000  0.19811000  1.0
  C  C73  1  0.12213000  0.00244000  0.23263000  1.0
  C  C74  1  0.34383000  0.93313000  0.22991000  1.0
  C  C75  1  0.27208000  0.04365000  0.40024000  1.0
  C  C76  1  0.25537000  0.01121000  0.32993000  1.0
  C  C77  1  0.35899000  0.96285000  0.29516000  1.0
  C  C78  1  0.13658000  0.03029000  0.29832000  1.0
  C  C79  1  0.96055000  0.16689000  0.96990000  1.0
  C  C80  1  0.80901000  0.29381000  0.02362000  1.0
  C  C81  1  0.92511000  0.35501000  0.92207000  1.0
  C  C82  1  0.36544000  0.33456000  0.48097000  1.0
  C  C83  1  0.24168000  0.39975000  0.46326000  1.0
  C  C84  1  0.23407000  0.41457000  0.38889000  1.0
  C  C85  1  0.28724000  0.07568000  0.62704000  1.0
  C  C86  1  0.27448000  0.04659000  0.69811000  1.0
  C  C87  1  0.37787000  0.99755000  0.73263000  1.0
  C  C88  1  0.15617000  0.06687000  0.72991000  1.0
  C  C89  1  0.22792000  0.95635000  0.90024000  1.0
  C  C90  1  0.24463000  0.98878000  0.82993000  1.0
  C  C91  1  0.14100000  0.03714000  0.79516000  1.0
  C  C92  1  0.36343000  0.96971000  0.79832000  1.0
  C  C93  1  0.53945000  0.83311000  0.46990000  1.0
  C  C94  1  0.69100000  0.70619000  0.52362000  1.0
  C  C95  1  0.57489000  0.64499000  0.42207000  1.0
  C  C96  1  0.86544000  0.16544000  0.51903000  1.0
  C  C97  1  0.74168000  0.10024000  0.53674000  1.0
  C  C98  1  0.73407000  0.08543000  0.61111000  1.0
  C  C99  1  0.78724000  0.42433000  0.37296000  1.0
  C  C100  1  0.77447000  0.45341000  0.30189000  1.0
  C  C101  1  0.87787000  0.50245000  0.26737000  1.0
  C  C102  1  0.65617000  0.43313000  0.27009000  1.0
  C  C103  1  0.72792000  0.54365000  0.09976000  1.0
  C  C104  1  0.74463000  0.51122000  0.17007000  1.0
  C  C105  1  0.64100000  0.46286000  0.20484000  1.0
  C  C106  1  0.86342000  0.53028000  0.20168000  1.0
  C  C107  1  0.03946000  0.66689000  0.53010000  1.0
  C  C108  1  0.19100000  0.79381000  0.47639000  1.0
  C  C109  1  0.07489000  0.85501000  0.57793000  1.0
  C  C110  1  0.63456000  0.83456000  0.01903000  1.0
  C  C111  1  0.75833000  0.89976000  0.03674000  1.0
  C  C112  1  0.76593000  0.91457000  0.11111000  1.0
  C  C113  1  0.71276000  0.57568000  0.87296000  1.0
  C  C114  1  0.72552000  0.54659000  0.80189000  1.0
  C  C115  1  0.62213000  0.49755000  0.76737000  1.0
  C  C116  1  0.84383000  0.56688000  0.77009000  1.0
  C  C117  1  0.77208000  0.45635000  0.59976000  1.0
  C  C118  1  0.75537000  0.48879000  0.67007000  1.0
  C  C119  1  0.85899000  0.53715000  0.70484000  1.0
  C  C120  1  0.63657000  0.46972000  0.70168000  1.0
  C  C121  1  0.46054000  0.33311000  0.03009000  1.0
  C  C122  1  0.30900000  0.20619000  0.97638000  1.0
  C  C123  1  0.42511000  0.14499000  0.07793000  1.0
  N  N124  1  0.89993000  0.26767000  0.97118000  1.0
  N  N125  1  0.60007000  0.73233000  0.47118000  1.0
  N  N126  1  0.10007000  0.76766000  0.52882000  1.0
  N  N127  1  0.39993000  0.23233000  0.02881000  1.0
  O  O128  1  0.14712000  0.76792000  0.00157000  1.0
  O  O129  1  0.36989000  0.65626000  0.98808000  1.0
  O  O130  1  0.02788000  0.61408000  0.97329000  1.0
  O  O131  1  0.11201000  0.96142000  0.09755000  1.0
  O  O132  1  0.30558000  0.86790000  0.10219000  1.0
  O  O133  1  0.38533000  0.02990000  0.42449000  1.0
  O  O134  1  0.17243000  0.08018000  0.43018000  1.0
  O  O135  1  0.94631000  0.09151000  0.01288000  1.0
  O  O136  1  0.35288000  0.23208000  0.50157000  1.0
  O  O137  1  0.13011000  0.34374000  0.48808000  1.0
  O  O138  1  0.47212000  0.38592000  0.47329000  1.0
  O  O139  1  0.38799000  0.03858000  0.59755000  1.0
  O  O140  1  0.19442000  0.13210000  0.60219000  1.0
  O  O141  1  0.11467000  0.97010000  0.92449000  1.0
  O  O142  1  0.32757000  0.91982000  0.93018000  1.0
  O  O143  1  0.55369000  0.90849000  0.51288000  1.0
  O  O144  1  0.85288000  0.26792000  0.49843000  1.0
  O  O145  1  0.63011000  0.15626000  0.51192000  1.0
  O  O146  1  0.97212000  0.11408000  0.52671000  1.0
  O  O147  1  0.88799000  0.46142000  0.40245000  1.0
  O  O148  1  0.69442000  0.36790000  0.39781000  1.0
  O  O149  1  0.61468000  0.52990000  0.07551000  1.0
  O  O150  1  0.82758000  0.58018000  0.06982000  1.0
  O  O151  1  0.05369000  0.59151000  0.48712000  1.0
  O  O152  1  0.64712000  0.73208000  0.99843000  1.0
  O  O153  1  0.86989000  0.84374000  0.01192000  1.0
  O  O154  1  0.52788000  0.88592000  0.02671000  1.0
  O  O155  1  0.61201000  0.53858000  0.90245000  1.0
  O  O156  1  0.80558000  0.63210000  0.89781000  1.0
  O  O157  1  0.88533000  0.47010000  0.57551000  1.0
  O  O158  1  0.67243000  0.41982000  0.56982000  1.0
  O  O159  1  0.44631000  0.40849000  0.98712000  1.0
