# generated using pymatgen
data_Co3H38C58(N5O4)2
_symmetry_space_group_name_H-M   'P 1'
_cell_length_a   11.39500000
_cell_length_b   11.88660000
_cell_length_c   15.62150000
_cell_angle_alpha   73.41220000
_cell_angle_beta   69.12620000
_cell_angle_gamma   61.68500000
_symmetry_Int_Tables_number   1
_chemical_formula_structural   Co3H38C58(N5O4)2
_chemical_formula_sum   'Co3 H38 C58 N10 O8'
_cell_volume   1722.94331828
_cell_formula_units_Z   1
loop_
 _symmetry_equiv_pos_site_id
 _symmetry_equiv_pos_as_xyz
  1  'x, y, z'
loop_
 _atom_site_type_symbol
 _atom_site_label
 _atom_site_symmetry_multiplicity
 _atom_site_fract_x
 _atom_site_fract_y
 _atom_site_fract_z
 _atom_site_occupancy
  Co  Co0  1  0.50000000  0.50000000  0.00000000  1.0
  Co  Co1  1  0.00000000  0.50000000  0.00000000  1.0
  Co  Co2  1  0.00000000  0.00000000  0.00000000  1.0
  H  H3  1  0.42693000  0.56800000  0.18360000  1.0
  H  H4  1  0.96820000  0.69921000  0.54438000  1.0
  H  H5  1  0.38752000  0.45900000  0.34511000  1.0
  H  H6  1  0.32697000  0.09032000  0.36960000  1.0
  H  H7  1  0.15734000  0.31549000  0.13850000  1.0
  H  H8  1  0.30639000  0.81099000  0.05260000  1.0
  H  H9  1  0.16410000  0.30443000  0.29921000  1.0
  H  H10  1  0.14978000  0.31362000  0.85941000  1.0
  H  H11  1  0.15161000  0.30596000  0.70119000  1.0
  H  H12  1  0.90781000  0.96482000  0.34198000  1.0
  H  H13  1  0.97418000  0.99589000  0.82333000  1.0
  H  H14  1  0.45587000  0.31480000  0.46069000  1.0
  H  H15  1  0.38255000  0.08246000  0.74766000  1.0
  H  H16  1  0.02581000  0.00412000  0.17667000  1.0
  H  H17  1  0.03183000  0.30075000  0.45562000  1.0
  H  H18  1  0.61274000  0.77952000  0.37956000  1.0
  H  H19  1  0.02389000  0.30228000  0.61533000  1.0
  H  H20  1  0.47969000  0.25690000  0.08123000  1.0
  H  H21  1  0.25311000  0.03924000  0.90895000  1.0
  H  H22  1  0.67300000  0.90970000  0.63040000  1.0
  H  H23  1  0.45007000  0.13191000  0.23677000  1.0
  H  H24  1  0.84268000  0.68451000  0.86148000  1.0
  H  H25  1  0.61744000  0.91754000  0.25235000  1.0
  H  H26  1  0.09219000  0.03519000  0.65802000  1.0
  H  H27  1  0.25760000  0.99651000  0.52943000  1.0
  H  H28  1  0.74688000  0.96076000  0.09106000  1.0
  H  H29  1  0.61246000  0.54103000  0.65489000  1.0
  H  H30  1  0.52031000  0.74310000  0.91877000  1.0
  H  H31  1  0.57306000  0.43202000  0.81640000  1.0
  H  H32  1  0.54992000  0.86810000  0.76323000  1.0
  H  H33  1  0.83593000  0.69555000  0.70077000  1.0
  H  H34  1  0.85021000  0.68637000  0.14061000  1.0
  H  H35  1  0.69360000  0.18901000  0.94739000  1.0
  H  H36  1  0.97614000  0.69769000  0.38467000  1.0
  H  H37  1  0.54410000  0.68522000  0.53932000  1.0
  H  H38  1  0.84840000  0.69400000  0.29883000  1.0
  H  H39  1  0.74239000  0.00350000  0.47056000  1.0
  H  H40  1  0.38726000  0.22049000  0.62044000  1.0
  C  C41  1  0.28269000  0.49081000  0.96829000  1.0
  C  C42  1  0.22902000  0.61835000  0.99478000  1.0
  C  C43  1  0.70699000  0.93688000  0.23989000  1.0
  C  C44  1  0.75025000  0.93540000  0.31459000  1.0
  C  C45  1  0.91987000  0.60448000  0.17777000  1.0
  C  C46  1  0.31042000  0.10485000  0.58916000  1.0
  C  C47  1  0.88887000  0.26579000  0.00626000  1.0
  C  C48  1  0.46170000  0.29658000  0.14175000  1.0
  C  C49  1  0.86609000  0.96446000  0.28927000  1.0
  C  C50  1  0.44301000  0.22846000  0.22964000  1.0
  C  C51  1  0.91872000  0.60778000  0.26615000  1.0
  C  C52  1  0.98115000  0.61184000  0.52528000  1.0
  C  C53  1  0.77806000  0.96117000  0.14922000  1.0
  C  C54  1  0.00590000  0.49903000  0.31365000  1.0
  C  C55  1  0.68958000  0.89516000  0.41084000  1.0
  C  C56  1  0.43118000  0.47106000  0.19921000  1.0
  C  C57  1  0.99572000  0.50087000  0.59149000  1.0
  C  C58  1  0.71732000  0.50919000  0.03171000  1.0
  C  C59  1  0.26018000  0.76449000  0.03237000  1.0
  C  C60  1  0.73981000  0.23552000  0.96762000  1.0
  C  C61  1  0.97955000  0.77743000  0.97067000  1.0
  C  C62  1  0.41094000  0.24605000  0.47525000  1.0
  C  C63  1  0.58905000  0.75397000  0.52476000  1.0
  C  C64  1  0.13390000  0.03555000  0.71073000  1.0
  C  C65  1  0.06560000  0.01507000  0.80271000  1.0
  C  C66  1  0.98547000  0.61105000  0.43533000  1.0
  C  C67  1  0.58811000  0.59216000  0.71103000  1.0
  C  C68  1  0.09248000  0.39136000  0.26689000  1.0
  C  C69  1  0.01454000  0.38893000  0.56467000  1.0
  C  C70  1  0.02045000  0.22257000  0.02933000  1.0
  C  C71  1  0.29902000  0.06791000  0.51508000  1.0
  C  C72  1  0.99412000  0.50095000  0.68635000  1.0
  C  C73  1  0.93439000  0.98494000  0.19729000  1.0
  C  C74  1  0.60799000  0.78521000  0.59818000  1.0
  C  C75  1  0.08129000  0.39220000  0.73386000  1.0
  C  C76  1  0.33979000  0.12027000  0.42431000  1.0
  C  C77  1  0.90755000  0.60862000  0.73310000  1.0
  C  C78  1  0.11113000  0.73420000  0.99374000  1.0
  C  C79  1  0.29300000  0.06312000  0.76012000  1.0
  C  C80  1  0.58204000  0.71812000  0.69237000  1.0
  C  C81  1  0.56881000  0.52896000  0.80079000  1.0
  C  C82  1  0.53830000  0.70343000  0.85825000  1.0
  C  C83  1  0.24975000  0.06460000  0.68541000  1.0
  C  C84  1  0.55699000  0.77155000  0.77036000  1.0
  C  C85  1  0.37339000  0.19122000  0.56588000  1.0
  C  C86  1  0.08013000  0.39551000  0.82224000  1.0
  C  C87  1  0.41795000  0.28190000  0.30763000  1.0
  C  C88  1  0.70098000  0.93210000  0.48492000  1.0
  C  C89  1  0.77098000  0.38165000  0.00521000  1.0
  C  C90  1  0.90956000  0.60320000  0.82267000  1.0
  C  C91  1  0.09046000  0.39680000  0.17732000  1.0
  C  C92  1  0.22193000  0.03883000  0.85079000  1.0
  C  C93  1  0.00430000  0.49910000  0.40851000  1.0
  C  C94  1  0.01887000  0.38813000  0.47471000  1.0
  C  C95  1  0.41188000  0.40785000  0.28897000  1.0
  C  C96  1  0.66020000  0.87975000  0.57570000  1.0
  C  C97  1  0.39199000  0.21480000  0.40182000  1.0
  C  C98  1  0.62660000  0.80879000  0.43413000  1.0
  N  N99  1  0.00502000  0.50141000  0.13279000  1.0
  N  N100  1  0.67929000  0.35999000  0.98104000  1.0
  N  N101  1  0.89344000  0.98179000  0.12670000  1.0
  N  N102  1  0.32071000  0.64001000  0.01895000  1.0
  N  N103  1  0.99499000  0.49859000  0.86720000  1.0
  N  N104  1  0.10655000  0.01821000  0.87330000  1.0
  N  N105  1  0.13374000  0.82427000  0.01687000  1.0
  N  N106  1  0.45716000  0.41636000  0.12565000  1.0
  N  N107  1  0.86626000  0.17573000  0.98312000  1.0
  N  N108  1  0.54284000  0.58364000  0.87435000  1.0
  O  O109  1  0.21332000  0.44893000  0.94979000  1.0
  O  O110  1  0.05598000  0.30394000  0.03865000  1.0
  O  O111  1  0.41427000  0.42126000  0.96386000  1.0
  O  O112  1  0.94402000  0.69606000  0.96136000  1.0
  O  O113  1  0.78669000  0.55106000  0.05021000  1.0
  O  O114  1  0.09347000  0.10070000  0.03812000  1.0
  O  O115  1  0.90653000  0.89930000  0.96189000  1.0
  O  O116  1  0.58574000  0.57874000  0.03614000  1.0
