# generated using pymatgen
data_CuH18C24(NO2)6
_symmetry_space_group_name_H-M   'P 1'
_cell_length_a   7.04339000
_cell_length_b   8.04266000
_cell_length_c   12.15020000
_cell_angle_alpha   106.33100000
_cell_angle_beta   97.76140000
_cell_angle_gamma   97.46370000
_symmetry_Int_Tables_number   1
_chemical_formula_structural   CuH18C24(NO2)6
_chemical_formula_sum   'Cu1 H18 C24 N6 O12'
_cell_volume   644.17876935
_cell_formula_units_Z   1
loop_
 _symmetry_equiv_pos_site_id
 _symmetry_equiv_pos_as_xyz
  1  'x, y, z'
loop_
 _atom_site_type_symbol
 _atom_site_label
 _atom_site_symmetry_multiplicity
 _atom_site_fract_x
 _atom_site_fract_y
 _atom_site_fract_z
 _atom_site_occupancy
  Cu  Cu0  1  0.00000000  0.00000000  0.00000000  1.0
  H  H1  1  0.03603000  0.11896000  0.43923000  1.0
  H  H2  1  0.96397000  0.88104000  0.56077000  1.0
  H  H3  1  0.02617000  0.10941000  0.70364000  1.0
  H  H4  1  0.97383000  0.89059000  0.29635000  1.0
  H  H5  1  0.31755000  0.63789000  0.65317000  1.0
  H  H6  1  0.68245000  0.36212000  0.34684000  1.0
  H  H7  1  0.25824000  0.49922000  0.27906000  1.0
  H  H8  1  0.74176000  0.50078000  0.72094000  1.0
  H  H9  1  0.48977000  0.93193000  0.40212000  1.0
  H  H10  1  0.51023000  0.06807000  0.59788000  1.0
  H  H11  1  0.34104000  0.09052000  0.82822000  1.0
  H  H12  1  0.65897000  0.90947000  0.17178000  1.0
  H  H13  1  0.81410000  0.34809000  0.10367000  1.0
  H  H14  1  0.18589000  0.65191000  0.89633000  1.0
  H  H15  1  0.45029000  0.44930000  0.10748000  1.0
  H  H16  1  0.54971000  0.55070000  0.89251000  1.0
  H  H17  1  0.29832000  0.38026000  0.96639000  1.0
  H  H18  1  0.70169000  0.61974000  0.03361000  1.0
  C  C19  1  0.06997000  0.16137000  0.22798000  1.0
  C  C20  1  0.93003000  0.83864000  0.77202000  1.0
  C  C21  1  0.14244000  0.29301000  0.34579000  1.0
  C  C22  1  0.85755000  0.70699000  0.65421000  1.0
  C  C23  1  0.11179000  0.24882000  0.44600000  1.0
  C  C24  1  0.88821000  0.75118000  0.55400000  1.0
  C  C25  1  0.17644000  0.37107000  0.55686000  1.0
  C  C26  1  0.82356000  0.62893000  0.44314000  1.0
  C  C27  1  0.14679000  0.31899000  0.66297000  1.0
  C  C28  1  0.85320000  0.68100000  0.33701000  1.0
  C  C29  1  0.26777000  0.54082000  0.56757000  1.0
  C  C30  1  0.73223000  0.45919000  0.43243000  1.0
  C  C31  1  0.29522000  0.58691000  0.46716000  1.0
  C  C32  1  0.70478000  0.41309000  0.53284000  1.0
  C  C33  1  0.38491000  0.77026000  0.48076000  1.0
  C  C34  1  0.61508000  0.22974000  0.51923000  1.0
  C  C35  1  0.23558000  0.46305000  0.35674000  1.0
  C  C36  1  0.76442000  0.53695000  0.64327000  1.0
  C  C37  1  0.48188000  0.11865000  0.88485000  1.0
  C  C38  1  0.51812000  0.88134000  0.11515000  1.0
  C  C39  1  0.72388000  0.25146000  0.02737000  1.0
  C  C40  1  0.27612000  0.74854000  0.97263000  1.0
  C  C41  1  0.44900000  0.41972000  0.01358000  1.0
  C  C42  1  0.55100000  0.58028000  0.98641000  1.0
  N  N43  1  0.76160000  0.09668000  0.96976000  1.0
  N  N44  1  0.23841000  0.90332000  0.03024000  1.0
  N  N45  1  0.60898000  0.01159000  0.87955000  1.0
  N  N46  1  0.39102000  0.98840000  0.12045000  1.0
  N  N47  1  0.54749000  0.27003000  0.97619000  1.0
  N  N48  1  0.45251000  0.72997000  0.02381000  1.0
  O  O49  1  0.09576000  0.21329000  0.13952000  1.0
  O  O50  1  0.90424000  0.78672000  0.86048000  1.0
  O  O51  1  0.98302000  0.00702000  0.21611000  1.0
  O  O52  1  0.01699000  0.99298000  0.78389000  1.0
  O  O53  1  0.03315000  0.16278000  0.63615000  1.0
  O  O54  1  0.96685000  0.83722000  0.36385000  1.0
  O  O55  1  0.22051000  0.41122000  0.76324000  1.0
  O  O56  1  0.77949000  0.58878000  0.23677000  1.0
  O  O57  1  0.42766000  0.79970000  0.38506000  1.0
  O  O58  1  0.57234000  0.20030000  0.61495000  1.0
  O  O59  1  0.41465000  0.88477000  0.57826000  1.0
  O  O60  1  0.58535000  0.11525000  0.42175000  1.0
