# generated using pymatgen
data_PrH14C7N10ClO6
_symmetry_space_group_name_H-M   'P 1'
_cell_length_a   8.88014000
_cell_length_b   10.09440000
_cell_length_c   10.14960000
_cell_angle_alpha   65.49280000
_cell_angle_beta   85.04130000
_cell_angle_gamma   70.68070000
_symmetry_Int_Tables_number   1
_chemical_formula_structural   PrH14C7N10ClO6
_chemical_formula_sum   'Pr2 H28 C14 N20 Cl2 O12'
_cell_volume   779.85750370
_cell_formula_units_Z   2
loop_
 _symmetry_equiv_pos_site_id
 _symmetry_equiv_pos_as_xyz
  1  'x, y, z'
loop_
 _atom_site_type_symbol
 _atom_site_label
 _atom_site_symmetry_multiplicity
 _atom_site_fract_x
 _atom_site_fract_y
 _atom_site_fract_z
 _atom_site_occupancy
  Pr  Pr0  1  0.60979000  0.17693000  0.55900000  1.0
  Pr  Pr1  1  0.39021000  0.82307000  0.44100000  1.0
  H  H2  1  0.87146000  0.88900000  0.56842000  1.0
  H  H3  1  0.12854000  0.11100000  0.43158000  1.0
  H  H4  1  0.72137000  0.83533000  0.60610000  1.0
  H  H5  1  0.27863000  0.16467000  0.39390000  1.0
  H  H6  1  0.34018000  0.36922000  0.31721000  1.0
  H  H7  1  0.65982000  0.63078000  0.68279000  1.0
  H  H8  1  0.99287000  0.81452000  0.24556000  1.0
  H  H9  1  0.00713000  0.18548000  0.75444000  1.0
  H  H10  1  0.05238000  0.71262000  0.13420000  1.0
  H  H11  1  0.94762000  0.28738000  0.86580000  1.0
  H  H12  1  0.91902000  0.32175000  0.27549000  1.0
  H  H13  1  0.08098000  0.67825000  0.72451000  1.0
  H  H14  1  0.02984000  0.24660000  0.15726000  1.0
  H  H15  1  0.97016000  0.75341000  0.84274000  1.0
  H  H16  1  0.68816000  0.22702000  0.10901000  1.0
  H  H17  1  0.31184000  0.77298000  0.89099000  1.0
  H  H18  1  0.85421000  0.07145000  0.21778000  1.0
  H  H19  1  0.14579000  0.92855000  0.78222000  1.0
  H  H20  1  0.60308000  0.74904000  0.10936000  1.0
  H  H21  1  0.39692000  0.25096000  0.89064000  1.0
  H  H22  1  0.79000000  0.62736000  0.20701000  1.0
  H  H23  1  0.21000000  0.37264000  0.79299000  1.0
  H  H24  1  0.08974000  0.44447000  0.39325000  1.0
  H  H25  1  0.91026000  0.55553000  0.60675000  1.0
  H  H26  1  0.21705000  0.51224000  0.45969000  1.0
  H  H27  1  0.78295000  0.48776000  0.54031000  1.0
  H  H28  1  0.16905000  0.34240000  0.57666000  1.0
  H  H29  1  0.83095000  0.65760000  0.42334000  1.0
  C  C30  1  0.62463000  0.04303000  0.27546000  1.0
  C  C31  1  0.37537000  0.95697000  0.72454000  1.0
  C  C32  1  0.73888000  0.10150000  0.16226000  1.0
  C  C33  1  0.26112000  0.89850000  0.83774000  1.0
  C  C34  1  0.86712000  0.91044000  0.04936000  1.0
  C  C35  1  0.13288000  0.08956000  0.95064000  1.0
  C  C36  1  0.59255000  0.54580000  0.29580000  1.0
  C  C37  1  0.40745000  0.45420000  0.70420000  1.0
  C  C38  1  0.67800000  0.62913000  0.16620000  1.0
  C  C39  1  0.32200000  0.37087000  0.83380000  1.0
  C  C40  1  0.83390000  0.43367000  0.06458000  1.0
  C  C41  1  0.16610000  0.56633000  0.93542000  1.0
  C  C42  1  0.19393000  0.40955000  0.46574000  1.0
  C  C43  1  0.80607000  0.59045000  0.53426000  1.0
  N  N44  1  0.84826000  0.91303000  0.91788000  1.0
  N  N45  1  0.15174000  0.08697000  0.08212000  1.0
  N  N46  1  0.73385000  0.04969000  0.84316000  1.0
  N  N47  1  0.26614000  0.95031000  0.15683000  1.0
  N  N48  1  0.68256000  0.12985000  0.91931000  1.0
  N  N49  1  0.31744000  0.87015000  0.08069000  1.0
  N  N50  1  0.76518000  0.04464000  0.05018000  1.0
  N  N51  1  0.23482000  0.95536000  0.94982000  1.0
  N  N52  1  0.96552000  0.79463000  0.16078000  1.0
  N  N53  1  0.03448000  0.20537000  0.83922000  1.0
  N  N54  1  0.71527000  0.56175000  0.06162000  1.0
  N  N55  1  0.28473000  0.43825000  0.93838000  1.0
  N  N56  1  0.62708000  0.63043000  0.93374000  1.0
  N  N57  1  0.37293000  0.36956000  0.06626000  1.0
  N  N58  1  0.69228000  0.54742000  0.86253000  1.0
  N  N59  1  0.30772000  0.45258000  0.13747000  1.0
  N  N60  1  0.81958000  0.42478000  0.93772000  1.0
  N  N61  1  0.18042000  0.57522000  0.06228000  1.0
  N  N62  1  0.94802000  0.33916000  0.17141000  1.0
  N  N63  1  0.05198000  0.66084000  0.82859000  1.0
  Cl  Cl64  1  0.93211000  0.17804000  0.54913000  1.0
  Cl  Cl65  1  0.06789000  0.82196000  0.45087000  1.0
  O  O66  1  0.57525000  0.93946000  0.27446000  1.0
  O  O67  1  0.42475000  0.06054000  0.72554000  1.0
  O  O68  1  0.58846000  0.10503000  0.36469000  1.0
  O  O69  1  0.41154000  0.89497000  0.63531000  1.0
  O  O70  1  0.62453000  0.40269000  0.33559000  1.0
  O  O71  1  0.37546000  0.59731000  0.66440000  1.0
  O  O72  1  0.50030000  0.62731000  0.35571000  1.0
  O  O73  1  0.49970000  0.37269000  0.64429000  1.0
  O  O74  1  0.77417000  0.89936000  0.62415000  1.0
  O  O75  1  0.22583000  0.10064000  0.37585000  1.0
  O  O76  1  0.33106000  0.31176000  0.42542000  1.0
  O  O77  1  0.66894000  0.68824000  0.57458000  1.0
