# generated using pymatgen
data_AgH6C6NO4
_symmetry_space_group_name_H-M   'P 1'
_cell_length_a   5.57490000
_cell_length_b   9.81127000
_cell_length_c   13.09500000
_cell_angle_alpha   89.99890000
_cell_angle_beta   89.99960000
_cell_angle_gamma   96.38400000
_symmetry_Int_Tables_number   1
_chemical_formula_structural   AgH6C6NO4
_chemical_formula_sum   'Ag4 H24 C24 N4 O16'
_cell_volume   711.81374639
_cell_formula_units_Z   4
loop_
 _symmetry_equiv_pos_site_id
 _symmetry_equiv_pos_as_xyz
  1  'x, y, z'
loop_
 _atom_site_type_symbol
 _atom_site_label
 _atom_site_symmetry_multiplicity
 _atom_site_fract_x
 _atom_site_fract_y
 _atom_site_fract_z
 _atom_site_occupancy
  Ag  Ag0  1  0.60939000  0.24414000  0.37787000  1.0
  Ag  Ag1  1  0.89062000  0.75585000  0.87787000  1.0
  Ag  Ag2  1  0.39059000  0.75586000  0.62213000  1.0
  Ag  Ag3  1  0.10942000  0.24415000  0.12214000  1.0
  H  H4  1  0.67023000  0.99189000  0.31559000  1.0
  H  H5  1  0.82976000  0.00812000  0.81561000  1.0
  H  H6  1  0.32974000  0.00810000  0.68442000  1.0
  H  H7  1  0.17029000  0.99189000  0.18440000  1.0
  H  H8  1  0.75097000  0.74832000  0.30262000  1.0
  H  H9  1  0.74904000  0.25168000  0.80264000  1.0
  H  H10  1  0.24902000  0.25167000  0.69737000  1.0
  H  H11  1  0.25099000  0.74832000  0.19737000  1.0
  H  H12  1  0.07854000  0.62008000  0.45743000  1.0
  H  H13  1  0.42147000  0.37993000  0.95743000  1.0
  H  H14  1  0.92147000  0.37994000  0.54257000  1.0
  H  H15  1  0.57853000  0.62008000  0.04256000  1.0
  H  H16  1  0.99872000  0.86512000  0.47254000  1.0
  H  H17  1  0.50129000  0.13488000  0.97254000  1.0
  H  H18  1  0.00128000  0.13488000  0.52745000  1.0
  H  H19  1  0.49874000  0.86513000  0.02744000  1.0
  H  H20  1  0.10469000  0.32582000  0.33843000  1.0
  H  H21  1  0.39532000  0.67418000  0.83843000  1.0
  H  H22  1  0.89529000  0.67417000  0.66158000  1.0
  H  H23  1  0.60472000  0.32583000  0.16159000  1.0
  H  H24  1  0.09358000  0.16738000  0.34836000  1.0
  H  H25  1  0.40643000  0.83262000  0.84835000  1.0
  H  H26  1  0.90640000  0.83262000  0.65165000  1.0
  H  H27  1  0.59362000  0.16738000  0.15165000  1.0
  C  C28  1  0.32966000  0.94699000  0.39583000  1.0
  C  C29  1  0.17033000  0.05301000  0.89583000  1.0
  C  C30  1  0.67030000  0.05301000  0.60418000  1.0
  C  C31  1  0.82969000  0.94699000  0.10418000  1.0
  C  C32  1  0.54260000  0.90978000  0.34682000  1.0
  C  C33  1  0.95739000  0.09023000  0.84683000  1.0
  C  C34  1  0.45737000  0.09022000  0.65317000  1.0
  C  C35  1  0.04263000  0.90978000  0.15318000  1.0
  C  C36  1  0.58796000  0.77539000  0.33931000  1.0
  C  C37  1  0.91203000  0.22460000  0.83932000  1.0
  C  C38  1  0.41200000  0.22459000  0.66069000  1.0
  C  C39  1  0.08800000  0.77541000  0.16068000  1.0
  C  C40  1  0.42219000  0.67049000  0.38043000  1.0
  C  C41  1  0.07778000  0.32950000  0.88044000  1.0
  C  C42  1  0.57775000  0.32950000  0.61956000  1.0
  C  C43  1  0.92223000  0.67050000  0.11955000  1.0
  C  C44  1  0.20891000  0.70261000  0.42950000  1.0
  C  C45  1  0.29108000  0.29739000  0.92951000  1.0
  C  C46  1  0.79106000  0.29740000  0.57050000  1.0
  C  C47  1  0.70893000  0.70260000  0.07049000  1.0
  C  C48  1  0.16346000  0.83813000  0.43653000  1.0
  C  C49  1  0.33654000  0.16186000  0.93654000  1.0
  C  C50  1  0.83655000  0.16187000  0.56347000  1.0
  C  C51  1  0.66345000  0.83814000  0.06346000  1.0
  N  N52  1  0.47206000  0.53385000  0.37385000  1.0
  N  N53  1  0.02794000  0.46615000  0.87385000  1.0
  N  N54  1  0.52789000  0.46614000  0.62615000  1.0
  N  N55  1  0.97210000  0.53386000  0.12615000  1.0
  O  O56  1  0.28792000  0.07381000  0.40447000  1.0
  O  O57  1  0.21209000  0.92619000  0.90447000  1.0
  O  O58  1  0.71205000  0.92619000  0.59553000  1.0
  O  O59  1  0.78795000  0.07381000  0.09553000  1.0
  O  O60  1  0.66442000  0.50490000  0.33266000  1.0
  O  O61  1  0.83557000  0.49511000  0.83266000  1.0
  O  O62  1  0.33554000  0.49512000  0.66735000  1.0
  O  O63  1  0.16445000  0.50489000  0.16734000  1.0
  O  O64  1  0.32356000  0.43943000  0.41231000  1.0
  O  O65  1  0.17643000  0.56057000  0.91231000  1.0
  O  O66  1  0.67641000  0.56056000  0.58770000  1.0
  O  O67  1  0.82358000  0.43945000  0.08769000  1.0
  O  O68  1  0.00800000  0.24086000  0.31613000  1.0
  O  O69  1  0.49201000  0.75914000  0.81613000  1.0
  O  O70  1  0.99199000  0.75914000  0.68387000  1.0
  O  O71  1  0.50802000  0.24085000  0.18387000  1.0
