# generated using pymatgen
data_CuH6C9IN6
_symmetry_space_group_name_H-M   'P 1'
_cell_length_a   7.32338000
_cell_length_b   11.64100000
_cell_length_c   13.19870000
_cell_angle_alpha   70.80600000
_cell_angle_beta   89.99980000
_cell_angle_gamma   89.99980000
_symmetry_Int_Tables_number   1
_chemical_formula_structural   CuH6C9IN6
_chemical_formula_sum   'Cu4 H24 C36 I4 N24'
_cell_volume   1062.65909420
_cell_formula_units_Z   4
loop_
 _symmetry_equiv_pos_site_id
 _symmetry_equiv_pos_as_xyz
  1  'x, y, z'
loop_
 _atom_site_type_symbol
 _atom_site_label
 _atom_site_symmetry_multiplicity
 _atom_site_fract_x
 _atom_site_fract_y
 _atom_site_fract_z
 _atom_site_occupancy
  Cu  Cu0  1  0.08287000  0.52810000  0.10939000  1.0
  Cu  Cu1  1  0.58287000  0.97190000  0.39060000  1.0
  Cu  Cu2  1  0.91713000  0.47190000  0.89061000  1.0
  Cu  Cu3  1  0.41714000  0.02810000  0.60939000  1.0
  H  H4  1  0.89711000  0.25763000  0.72621000  1.0
  H  H5  1  0.39711000  0.24237000  0.77379000  1.0
  H  H6  1  0.10289000  0.74237000  0.27379000  1.0
  H  H7  1  0.60289000  0.75763000  0.22621000  1.0
  H  H8  1  0.55543000  0.54834000  0.41255000  1.0
  H  H9  1  0.05543000  0.95166000  0.08745000  1.0
  H  H10  1  0.44457000  0.45166000  0.58745000  1.0
  H  H11  1  0.94457000  0.04834000  0.91255000  1.0
  H  H12  1  0.18801000  0.09796000  0.78175000  1.0
  H  H13  1  0.68801000  0.40204000  0.71825000  1.0
  H  H14  1  0.81199000  0.90204000  0.21825000  1.0
  H  H15  1  0.31199000  0.59796000  0.28175000  1.0
  H  H16  1  0.46377000  0.21338000  0.40562000  1.0
  H  H17  1  0.96377000  0.28662000  0.09437000  1.0
  H  H18  1  0.53623000  0.78662000  0.59437000  1.0
  H  H19  1  0.03623000  0.71337000  0.90562000  1.0
  H  H20  1  0.78421000  0.52441000  0.25175000  1.0
  H  H21  1  0.28421000  0.97559000  0.24825000  1.0
  H  H22  1  0.21579000  0.47559000  0.74824000  1.0
  H  H23  1  0.71579000  0.02441000  0.75176000  1.0
  H  H24  1  0.39900000  0.34873000  0.19097000  1.0
  H  H25  1  0.89900000  0.15127000  0.30903000  1.0
  H  H26  1  0.60099000  0.65127000  0.80903000  1.0
  H  H27  1  0.10100000  0.84873000  0.69097000  1.0
  C  C28  1  0.08594000  0.37051000  0.35092000  1.0
  C  C29  1  0.58594000  0.12949000  0.14908000  1.0
  C  C30  1  0.91406000  0.62949000  0.64908000  1.0
  C  C31  1  0.41406000  0.87051000  0.85092000  1.0
  C  C32  1  0.00516000  0.23841000  0.67837000  1.0
  C  C33  1  0.50516000  0.26159000  0.82163000  1.0
  C  C34  1  0.99484000  0.76159000  0.32163000  1.0
  C  C35  1  0.49484000  0.73841000  0.17837000  1.0
  C  C36  1  0.16500000  0.24915000  0.53231000  1.0
  C  C37  1  0.66500000  0.25085000  0.96769000  1.0
  C  C38  1  0.83500000  0.75085000  0.46769000  1.0
  C  C39  1  0.33500000  0.74915000  0.03231000  1.0
  C  C40  1  0.68064000  0.49635000  0.41980000  1.0
  C  C41  1  0.18064000  0.00365000  0.08020000  1.0
  C  C42  1  0.31936000  0.50365000  0.58020000  1.0
  C  C43  1  0.81936000  0.99635000  0.91981000  1.0
  C  C44  1  0.89575000  0.37617000  0.49916000  1.0
  C  C45  1  0.39575000  0.12383000  0.00084000  1.0
  C  C46  1  0.10425000  0.62383000  0.50084000  1.0
  C  C47  1  0.60425000  0.87617000  0.99916000  1.0
  C  C48  1  0.14987000  0.15976000  0.70333000  1.0
  C  C49  1  0.64987000  0.34024000  0.79667000  1.0
  C  C50  1  0.85013000  0.84024000  0.29667000  1.0
  C  C51  1  0.35013000  0.65975000  0.20333000  1.0
  C  C52  1  0.35167000  0.27217000  0.36631000  1.0
  C  C53  1  0.85167000  0.22783000  0.13369000  1.0
  C  C54  1  0.64833000  0.72783000  0.63369000  1.0
  C  C55  1  0.14834000  0.77217000  0.86631000  1.0
  C  C56  1  0.79068000  0.48683000  0.33866000  1.0
  C  C57  1  0.29068000  0.01317000  0.16134000  1.0
  C  C58  1  0.20932000  0.51317000  0.66134000  1.0
  C  C59  1  0.70932000  0.98683000  0.83867000  1.0
  C  C60  1  0.31650000  0.33868000  0.26164000  1.0
  C  C61  1  0.81650000  0.16132000  0.23836000  1.0
  C  C62  1  0.68350000  0.66132000  0.73836000  1.0
  C  C63  1  0.18350000  0.83868000  0.76164000  1.0
  I  I64  1  0.75385000  0.55944000  0.03587000  1.0
  I  I65  1  0.25385000  0.94056000  0.46413000  1.0
  I  I66  1  0.24615000  0.44056000  0.96413000  1.0
  I  I67  1  0.74616000  0.05944000  0.53587000  1.0
  N  N68  1  0.24993000  0.16621000  0.61171000  1.0
  N  N69  1  0.74993000  0.33379000  0.88829000  1.0
  N  N70  1  0.75007000  0.83379000  0.38829000  1.0
  N  N71  1  0.25007000  0.66621000  0.11171000  1.0
  N  N72  1  0.93122000  0.40887000  0.39016000  1.0
  N  N73  1  0.43122000  0.09113000  0.10984000  1.0
  N  N74  1  0.06878000  0.59113000  0.60984000  1.0
  N  N75  1  0.56878000  0.90887000  0.89016000  1.0
  N  N76  1  0.20300000  0.29219000  0.42411000  1.0
  N  N77  1  0.70300000  0.20781000  0.07589000  1.0
  N  N78  1  0.79700000  0.70781000  0.57589000  1.0
  N  N79  1  0.29701000  0.79219000  0.92411000  1.0
  N  N80  1  0.01498000  0.29620000  0.56832000  1.0
  N  N81  1  0.51498000  0.20379000  0.93168000  1.0
  N  N82  1  0.98502000  0.70380000  0.43168000  1.0
  N  N83  1  0.48502000  0.79620000  0.06832000  1.0
  N  N84  1  0.15004000  0.40006000  0.25198000  1.0
  N  N85  1  0.65004000  0.09994000  0.24802000  1.0
  N  N86  1  0.84996000  0.59994000  0.74802000  1.0
  N  N87  1  0.34997000  0.90006000  0.75198000  1.0
  N  N88  1  0.74725000  0.42747000  0.52023000  1.0
  N  N89  1  0.24726000  0.07253000  0.97977000  1.0
  N  N90  1  0.25275000  0.57253000  0.47977000  1.0
  N  N91  1  0.75274000  0.92747000  0.02024000  1.0
