# generated using pymatgen
data_ErH17C18(NO3)4
_symmetry_space_group_name_H-M   'P 1'
_cell_length_a   7.46666000
_cell_length_b   12.09000000
_cell_length_c   13.84500000
_cell_angle_alpha   71.49460000
_cell_angle_beta   82.66940000
_cell_angle_gamma   78.77580000
_symmetry_Int_Tables_number   1
_chemical_formula_structural   ErH17C18(NO3)4
_chemical_formula_sum   'Er2 H34 C36 N8 O24'
_cell_volume   1159.60868726
_cell_formula_units_Z   2
loop_
 _symmetry_equiv_pos_site_id
 _symmetry_equiv_pos_as_xyz
  1  'x, y, z'
loop_
 _atom_site_type_symbol
 _atom_site_label
 _atom_site_symmetry_multiplicity
 _atom_site_fract_x
 _atom_site_fract_y
 _atom_site_fract_z
 _atom_site_occupancy
  Er  Er0  1  0.99448000  0.06782000  0.16941000  1.0
  Er  Er1  1  0.00551000  0.93219000  0.83059000  1.0
  H  H2  1  0.80557000  0.32459000  0.21548000  1.0
  H  H3  1  0.19442000  0.67542000  0.78453000  1.0
  H  H4  1  0.26997000  0.60184000  0.46189000  1.0
  H  H5  1  0.73004000  0.39816000  0.53811000  1.0
  H  H6  1  0.34427000  0.10948000  0.37152000  1.0
  H  H7  1  0.65573000  0.89053000  0.62847000  1.0
  H  H8  1  0.80473000  0.11892000  0.98418000  1.0
  H  H9  1  0.19528000  0.88108000  0.01581000  1.0
  H  H10  1  0.78896000  0.98904000  0.04388000  1.0
  H  H11  1  0.21105000  0.01096000  0.95612000  1.0
  H  H12  1  0.90282000  0.53902000  0.05881000  1.0
  H  H13  1  0.09719000  0.46097000  0.94120000  1.0
  H  H14  1  0.80615000  0.68574000  0.36662000  1.0
  H  H15  1  0.19385000  0.31426000  0.63338000  1.0
  H  H16  1  0.70677000  0.27336000  0.40124000  1.0
  H  H17  1  0.29323000  0.72665000  0.59876000  1.0
  H  H18  1  0.14632000  0.38662000  0.49620000  1.0
  H  H19  1  0.85369000  0.61339000  0.50380000  1.0
  H  H20  1  0.39002000  0.44856000  0.12980000  1.0
  H  H21  1  0.60997000  0.55144000  0.87019000  1.0
  H  H22  1  0.39410000  0.75817000  0.29948000  1.0
  H  H23  1  0.60592000  0.24182000  0.70051000  1.0
  H  H24  1  0.08083000  0.03543000  0.38132000  1.0
  H  H25  1  0.91917000  0.96456000  0.61867000  1.0
  H  H26  1  0.97457000  0.92873000  0.39783000  1.0
  H  H27  1  0.02542000  0.07126000  0.60217000  1.0
  H  H28  1  0.72187000  0.10986000  0.30677000  1.0
  H  H29  1  0.27811000  0.89014000  0.69323000  1.0
  H  H30  1  0.60434000  0.18154000  0.20729000  1.0
  H  H31  1  0.39564000  0.81847000  0.79271000  1.0
  H  H32  1  0.37926000  0.06203000  0.17117000  1.0
  H  H33  1  0.62074000  0.93798000  0.82883000  1.0
  H  H34  1  0.37109000  0.93902000  0.15405000  1.0
  H  H35  1  0.62891000  0.06097000  0.84596000  1.0
  C  C36  1  0.92730000  0.84001000  0.20114000  1.0
  C  C37  1  0.07270000  0.15999000  0.79886000  1.0
  C  C38  1  0.88515000  0.72218000  0.20708000  1.0
  C  C39  1  0.11486000  0.27782000  0.79292000  1.0
  C  C40  1  0.91061000  0.68228000  0.11938000  1.0
  C  C41  1  0.08940000  0.31772000  0.88062000  1.0
  C  C42  1  0.94451000  0.76572000  0.01608000  1.0
  C  C43  1  0.05551000  0.23428000  0.98393000  1.0
  C  C44  1  0.88682000  0.56840000  0.12655000  1.0
  C  C45  1  0.11319000  0.43159000  0.87346000  1.0
  C  C46  1  0.83382000  0.49677000  0.22258000  1.0
  C  C47  1  0.16619000  0.50323000  0.77742000  1.0
  C  C48  1  0.80329000  0.53589000  0.31091000  1.0
  C  C49  1  0.19672000  0.46411000  0.68909000  1.0
  C  C50  1  0.82858000  0.65038000  0.30220000  1.0
  C  C51  1  0.17143000  0.34963000  0.69780000  1.0
  C  C52  1  0.74326000  0.35857000  0.35696000  1.0
  C  C53  1  0.25673000  0.64144000  0.64304000  1.0
  C  C54  1  0.26968000  0.23817000  0.21557000  1.0
  C  C55  1  0.73030000  0.76183000  0.78442000  1.0
  C  C56  1  0.28036000  0.32936000  0.26690000  1.0
  C  C57  1  0.71962000  0.67064000  0.73311000  1.0
  C  C58  1  0.21243000  0.31221000  0.37103000  1.0
  C  C59  1  0.78756000  0.68779000  0.62897000  1.0
  C  C60  1  0.15926000  0.20189000  0.44016000  1.0
  C  C61  1  0.84073000  0.79811000  0.55984000  1.0
  C  C62  1  0.20241000  0.40047000  0.41780000  1.0
  C  C63  1  0.79759000  0.59953000  0.58220000  1.0
  C  C64  1  0.26923000  0.50230000  0.36105000  1.0
  C  C65  1  0.73076000  0.49771000  0.63895000  1.0
  C  C66  1  0.33730000  0.52242000  0.25699000  1.0
  C  C67  1  0.66269000  0.47758000  0.74301000  1.0
  C  C68  1  0.34194000  0.43455000  0.20983000  1.0
  C  C69  1  0.65806000  0.56545000  0.79017000  1.0
  C  C70  1  0.36278000  0.67374000  0.30024000  1.0
  C  C71  1  0.63723000  0.32626000  0.69976000  1.0
  N  N72  1  0.74713000  0.44630000  0.39438000  1.0
  N  N73  1  0.25287000  0.55371000  0.60563000  1.0
  N  N74  1  0.79303000  0.38400000  0.25538000  1.0
  N  N75  1  0.20697000  0.61600000  0.74463000  1.0
  N  N76  1  0.28740000  0.60035000  0.38627000  1.0
  N  N77  1  0.71261000  0.39965000  0.61373000  1.0
  N  N78  1  0.39307000  0.63163000  0.22080000  1.0
  N  N79  1  0.60693000  0.36837000  0.77920000  1.0
  O  O80  1  0.82509000  0.90361000  0.25083000  1.0
  O  O81  1  0.17489000  0.09640000  0.74917000  1.0
  O  O82  1  0.06891000  0.87698000  0.14580000  1.0
  O  O83  1  0.93109000  0.12302000  0.85419000  1.0
  O  O84  1  0.84707000  0.87022000  0.99206000  1.0
  O  O85  1  0.15294000  0.12978000  0.00795000  1.0
  O  O86  1  0.06366000  0.73483000  0.95145000  1.0
  O  O87  1  0.93636000  0.26516000  0.04856000  1.0
  O  O88  1  0.11728000  0.20308000  0.22429000  1.0
  O  O89  1  0.88271000  0.79691000  0.77573000  1.0
  O  O90  1  0.41426000  0.19776000  0.16900000  1.0
  O  O91  1  0.58573000  0.80224000  0.83100000  1.0
  O  O92  1  0.25142000  0.09584000  0.42884000  1.0
  O  O93  1  0.74857000  0.90417000  0.57115000  1.0
  O  O94  1  0.04293000  0.19759000  0.51212000  1.0
  O  O95  1  0.95709000  0.80241000  0.48787000  1.0
  O  O96  1  0.31634000  0.99087000  0.19491000  1.0
  O  O97  1  0.68364000  0.00914000  0.80509000  1.0
  O  O98  1  0.99089000  0.00902000  0.35171000  1.0
  O  O99  1  0.00912000  0.99097000  0.64828000  1.0
  O  O100  1  0.72814000  0.16487000  0.23798000  1.0
  O  O101  1  0.27185000  0.83513000  0.76202000  1.0
  O  O102  1  0.77835000  0.06794000  0.05393000  1.0
  O  O103  1  0.22164000  0.93206000  0.94607000  1.0
