# generated using pymatgen
data_AgH17C15S(NO)2
_symmetry_space_group_name_H-M   'P 1'
_cell_length_a   7.89005000
_cell_length_b   8.08648000
_cell_length_c   12.45190000
_cell_angle_alpha   94.85970000
_cell_angle_beta   95.65180000
_cell_angle_gamma   107.47400000
_symmetry_Int_Tables_number   1
_chemical_formula_structural   AgH17C15S(NO)2
_chemical_formula_sum   'Ag2 H34 C30 S2 N4 O4'
_cell_volume   748.63335894
_cell_formula_units_Z   2
loop_
 _symmetry_equiv_pos_site_id
 _symmetry_equiv_pos_as_xyz
  1  'x, y, z'
loop_
 _atom_site_type_symbol
 _atom_site_label
 _atom_site_symmetry_multiplicity
 _atom_site_fract_x
 _atom_site_fract_y
 _atom_site_fract_z
 _atom_site_occupancy
  Ag  Ag0  1  0.50000000  0.50000000  0.00000000  1.0
  Ag  Ag1  1  0.00000000  0.50000000  0.00000000  1.0
  H  H2  1  0.72833000  0.13309000  0.95333000  1.0
  H  H3  1  0.27167000  0.86691000  0.04666000  1.0
  H  H4  1  0.72210000  0.83642000  0.87474000  1.0
  H  H5  1  0.27790000  0.16359000  0.12525000  1.0
  H  H6  1  0.00195000  0.80211000  0.80560000  1.0
  H  H7  1  0.99805000  0.19789000  0.19440000  1.0
  H  H8  1  0.30621000  0.06239000  0.70718000  1.0
  H  H9  1  0.69379000  0.93761000  0.29281000  1.0
  H  H10  1  0.32759000  0.93106000  0.81142000  1.0
  H  H11  1  0.67241000  0.06894000  0.18858000  1.0
  H  H12  1  0.43061000  0.16338000  0.83365000  1.0
  H  H13  1  0.56939000  0.83663000  0.16635000  1.0
  H  H14  1  0.09804000  0.14336000  0.43457000  1.0
  H  H15  1  0.90196000  0.85665000  0.56543000  1.0
  H  H16  1  0.89485000  0.21355000  0.51647000  1.0
  H  H17  1  0.10515000  0.78645000  0.48353000  1.0
  H  H18  1  0.95760000  0.43202000  0.58211000  1.0
  H  H19  1  0.04239000  0.56799000  0.41788000  1.0
  H  H20  1  0.92635000  0.25781000  0.66079000  1.0
  H  H21  1  0.07364000  0.74219000  0.33921000  1.0
  H  H22  1  0.30017000  0.01127000  0.34912000  1.0
  H  H23  1  0.69983000  0.98873000  0.65088000  1.0
  H  H24  1  0.52197000  0.05081000  0.41397000  1.0
  H  H25  1  0.47803000  0.94919000  0.58604000  1.0
  H  H26  1  0.47459000  0.19808000  0.32816000  1.0
  H  H27  1  0.52541000  0.80192000  0.67184000  1.0
  H  H28  1  0.65584000  0.30990000  0.55924000  1.0
  H  H29  1  0.34415000  0.69009000  0.44077000  1.0
  H  H30  1  0.76299000  0.44660000  0.72448000  1.0
  H  H31  1  0.23701000  0.55339000  0.27552000  1.0
  H  H32  1  0.62476000  0.47802000  0.82369000  1.0
  H  H33  1  0.37523000  0.52197000  0.17632000  1.0
  H  H34  1  0.69717000  0.63749000  0.73577000  1.0
  H  H35  1  0.30283000  0.36250000  0.26423000  1.0
  C  C36  1  0.84228000  0.11254000  0.91759000  1.0
  C  C37  1  0.15772000  0.88746000  0.08240000  1.0
  C  C38  1  0.84121000  0.94785000  0.87518000  1.0
  C  C39  1  0.15879000  0.05216000  0.12481000  1.0
  C  C40  1  0.99524000  0.93058000  0.83589000  1.0
  C  C41  1  0.00476000  0.06942000  0.16411000  1.0
  C  C42  1  0.14501000  0.07725000  0.83552000  1.0
  C  C43  1  0.85500000  0.92275000  0.16448000  1.0
  C  C44  1  0.13352000  0.24139000  0.87641000  1.0
  C  C45  1  0.86649000  0.75861000  0.12359000  1.0
  C  C46  1  0.31163000  0.05726000  0.79542000  1.0
  C  C47  1  0.68838000  0.94274000  0.20458000  1.0
  C  C48  1  0.31350000  0.40989000  0.66550000  1.0
  C  C49  1  0.68649000  0.59011000  0.33450000  1.0
  C  C50  1  0.17036000  0.31423000  0.58465000  1.0
  C  C51  1  0.82964000  0.68578000  0.41535000  1.0
  C  C52  1  0.20895000  0.21858000  0.49618000  1.0
  C  C53  1  0.79104000  0.78142000  0.50382000  1.0
  C  C54  1  0.97694000  0.30384000  0.58614000  1.0
  C  C55  1  0.02306000  0.69617000  0.41386000  1.0
  C  C56  1  0.42091000  0.11319000  0.38931000  1.0
  C  C57  1  0.57908000  0.88680000  0.61069000  1.0
  C  C58  1  0.38207000  0.21547000  0.48470000  1.0
  C  C59  1  0.61793000  0.78453000  0.51530000  1.0
  C  C60  1  0.51973000  0.31129000  0.56594000  1.0
  C  C61  1  0.48026000  0.68871000  0.43406000  1.0
  C  C62  1  0.49069000  0.40681000  0.65717000  1.0
  C  C63  1  0.50930000  0.59319000  0.34283000  1.0
  C  C64  1  0.65186000  0.49631000  0.73971000  1.0
  C  C65  1  0.34813000  0.50368000  0.26029000  1.0
  S  S66  1  0.27213000  0.52221000  0.78607000  1.0
  S  S67  1  0.72786000  0.47779000  0.21393000  1.0
  N  N68  1  0.98543000  0.25505000  0.91916000  1.0
  N  N69  1  0.01458000  0.74495000  0.08084000  1.0
  N  N70  1  0.27624000  0.39644000  0.87995000  1.0
  N  N71  1  0.72377000  0.60356000  0.12005000  1.0
  O  O72  1  0.09811000  0.54888000  0.76450000  1.0
  O  O73  1  0.90190000  0.45112000  0.23551000  1.0
  O  O74  1  0.42402000  0.67943000  0.82030000  1.0
  O  O75  1  0.57599000  0.32057000  0.17969000  1.0
