# generated using pymatgen
data_CuH7C4NO5
_symmetry_space_group_name_H-M   'P 1'
_cell_length_a   6.00743000
_cell_length_b   9.95128000
_cell_length_c   11.16510000
_cell_angle_alpha   89.99940000
_cell_angle_beta   80.85080000
_cell_angle_gamma   89.99990000
_symmetry_Int_Tables_number   1
_chemical_formula_structural   CuH7C4NO5
_chemical_formula_sum   'Cu4 H28 C16 N4 O20'
_cell_volume   658.97597300
_cell_formula_units_Z   4
loop_
 _symmetry_equiv_pos_site_id
 _symmetry_equiv_pos_as_xyz
  1  'x, y, z'
loop_
 _atom_site_type_symbol
 _atom_site_label
 _atom_site_symmetry_multiplicity
 _atom_site_fract_x
 _atom_site_fract_y
 _atom_site_fract_z
 _atom_site_occupancy
  Cu  Cu0  1  0.85716000  0.75942000  0.24777000  1.0
  Cu  Cu1  1  0.14285000  0.25941000  0.25223000  1.0
  Cu  Cu2  1  0.14284000  0.24058000  0.75223000  1.0
  Cu  Cu3  1  0.85714000  0.74058000  0.74777000  1.0
  H  H4  1  0.87845000  0.79111000  0.01736000  1.0
  H  H5  1  0.12156000  0.29110000  0.48265000  1.0
  H  H6  1  0.12155000  0.20890000  0.98264000  1.0
  H  H7  1  0.87844000  0.70892000  0.51735000  1.0
  H  H8  1  0.11795000  0.83039000  0.05795000  1.0
  H  H9  1  0.88208000  0.33039000  0.44205000  1.0
  H  H10  1  0.88206000  0.16960000  0.94206000  1.0
  H  H11  1  0.11792000  0.66962000  0.55794000  1.0
  H  H12  1  0.49305000  0.70696000  0.16365000  1.0
  H  H13  1  0.50696000  0.20696000  0.33634000  1.0
  H  H14  1  0.50695000  0.29304000  0.83633000  1.0
  H  H15  1  0.49303000  0.79304000  0.66366000  1.0
  H  H16  1  0.49011000  0.50255000  0.35006000  1.0
  H  H17  1  0.50992000  0.00253000  0.14995000  1.0
  H  H18  1  0.50988000  0.49745000  0.64993000  1.0
  H  H19  1  0.49009000  0.99746000  0.85006000  1.0
  H  H20  1  0.27172000  0.61283000  0.32681000  1.0
  H  H21  1  0.72831000  0.11283000  0.17319000  1.0
  H  H22  1  0.72829000  0.38717000  0.67318000  1.0
  H  H23  1  0.27169000  0.88717000  0.82682000  1.0
  H  H24  1  0.72163000  0.56120000  0.04496000  1.0
  H  H25  1  0.27839000  0.06120000  0.45505000  1.0
  H  H26  1  0.27838000  0.43879000  0.95504000  1.0
  H  H27  1  0.72161000  0.93879000  0.54496000  1.0
  H  H28  1  0.53504000  0.45394000  0.14147000  1.0
  H  H29  1  0.46497000  0.95394000  0.35854000  1.0
  H  H30  1  0.46497000  0.54605000  0.85853000  1.0
  H  H31  1  0.53501000  0.04605000  0.64145000  1.0
  C  C32  1  0.45235000  0.60784000  0.33033000  1.0
  C  C33  1  0.54768000  0.10783000  0.16968000  1.0
  C  C34  1  0.54765000  0.39216000  0.66967000  1.0
  C  C35  1  0.45233000  0.89216000  0.83033000  1.0
  C  C36  1  0.51332000  0.68762000  0.43535000  1.0
  C  C37  1  0.48669000  0.18761000  0.06463000  1.0
  C  C38  1  0.48668000  0.31238000  0.56464000  1.0
  C  C39  1  0.51329000  0.81238000  0.93537000  1.0
  C  C40  1  0.66951000  0.52905000  0.13949000  1.0
  C  C41  1  0.33051000  0.02904000  0.36051000  1.0
  C  C42  1  0.33050000  0.47095000  0.86050000  1.0
  C  C43  1  0.66948000  0.97095000  0.63949000  1.0
  C  C44  1  0.87582000  0.46980000  0.18530000  1.0
  C  C45  1  0.12417000  0.96980000  0.31470000  1.0
  C  C46  1  0.12418000  0.53020000  0.81469000  1.0
  C  C47  1  0.87582000  0.03021000  0.68531000  1.0
  N  N48  1  0.58741000  0.64757000  0.21289000  1.0
  N  N49  1  0.41261000  0.14756000  0.28711000  1.0
  N  N50  1  0.41260000  0.35243000  0.78710000  1.0
  N  N51  1  0.58738000  0.85243000  0.71290000  1.0
  O  O52  1  0.70119000  0.75418000  0.41659000  1.0
  O  O53  1  0.29882000  0.25415000  0.08341000  1.0
  O  O54  1  0.29882000  0.24582000  0.58340000  1.0
  O  O55  1  0.70117000  0.74583000  0.91660000  1.0
  O  O56  1  0.39234000  0.68370000  0.53790000  1.0
  O  O57  1  0.60766000  0.18368000  0.96211000  1.0
  O  O58  1  0.60766000  0.31630000  0.46210000  1.0
  O  O59  1  0.39235000  0.81631000  0.03789000  1.0
  O  O60  1  0.02317000  0.54890000  0.21180000  1.0
  O  O61  1  0.97687000  0.04889000  0.28821000  1.0
  O  O62  1  0.97684000  0.45110000  0.78820000  1.0
  O  O63  1  0.02309000  0.95112000  0.71182000  1.0
  O  O64  1  0.88202000  0.34098000  0.19211000  1.0
  O  O65  1  0.11800000  0.84098000  0.30788000  1.0
  O  O66  1  0.11799000  0.65902000  0.80788000  1.0
  O  O67  1  0.88200000  0.15902000  0.69210000  1.0
  O  O68  1  0.94956000  0.83353000  0.08222000  1.0
  O  O69  1  0.05046000  0.33353000  0.41778000  1.0
  O  O70  1  0.05044000  0.16648000  0.91778000  1.0
  O  O71  1  0.94954000  0.66649000  0.58221000  1.0
