# generated using pymatgen
data_LuH9C5(NO4)2
_symmetry_space_group_name_H-M   'P 1'
_cell_length_a   6.48804000
_cell_length_b   6.60155000
_cell_length_c   6.60132000
_cell_angle_alpha   64.65310000
_cell_angle_beta   73.23170000
_cell_angle_gamma   73.22850000
_symmetry_Int_Tables_number   1
_chemical_formula_structural   LuH9C5(NO4)2
_chemical_formula_sum   'Lu1 H9 C5 N2 O8'
_cell_volume   240.16623825
_cell_formula_units_Z   1
loop_
 _symmetry_equiv_pos_site_id
 _symmetry_equiv_pos_as_xyz
  1  'x, y, z'
loop_
 _atom_site_type_symbol
 _atom_site_label
 _atom_site_symmetry_multiplicity
 _atom_site_fract_x
 _atom_site_fract_y
 _atom_site_fract_z
 _atom_site_occupancy
  Lu  Lu0  1  0.00003000  0.18507000  0.81496000  1.0
  H  H1  1  0.59761000  0.54001000  0.01852000  1.0
  H  H2  1  0.40239000  0.98151000  0.45997000  1.0
  H  H3  1  0.46773000  0.44199000  0.31295000  1.0
  H  H4  1  0.53226000  0.68696000  0.55808000  1.0
  H  H5  1  0.17323000  0.72127000  0.26718000  1.0
  H  H6  1  0.82680000  0.73280000  0.27870000  1.0
  H  H7  1  0.13141000  0.71268000  0.65693000  1.0
  H  H8  1  0.86856000  0.34304000  0.28737000  1.0
  H  H9  1  0.50000000  0.09736000  0.90273000  1.0
  C  C10  1  0.29299000  0.71771000  0.11095000  1.0
  C  C11  1  0.70704000  0.88912000  0.28221000  1.0
  C  C12  1  0.96350000  0.71334000  0.76092000  1.0
  C  C13  1  0.03647000  0.23904000  0.28667000  1.0
  C  C14  1  0.50001000  0.25267000  0.74734000  1.0
  N  N15  1  0.46621000  0.55269000  0.14763000  1.0
  N  N16  1  0.53381000  0.85233000  0.44732000  1.0
  O  O17  1  0.26005000  0.86239000  0.91735000  1.0
  O  O18  1  0.73990000  0.08277000  0.13754000  1.0
  O  O19  1  0.66943000  0.34359000  0.66865000  1.0
  O  O20  1  0.33059000  0.33136000  0.65635000  1.0
  O  O21  1  0.87678000  0.54404000  0.80601000  1.0
  O  O22  1  0.12323000  0.19396000  0.45598000  1.0
  O  O23  1  0.87106000  0.87583000  0.82668000  1.0
  O  O24  1  0.12892000  0.17325000  0.12421000  1.0
