# generated using pymatgen
data_ErH30C30(SO3)3
_symmetry_space_group_name_H-M   'P 1'
_cell_length_a   11.77300000
_cell_length_b   11.77320000
_cell_length_c   11.77300000
_cell_angle_alpha   79.76730000
_cell_angle_beta   79.76700000
_cell_angle_gamma   79.76670000
_symmetry_Int_Tables_number   1
_chemical_formula_structural   ErH30C30(SO3)3
_chemical_formula_sum   'Er2 H60 C60 S6 O18'
_cell_volume   1562.22254258
_cell_formula_units_Z   2
loop_
 _symmetry_equiv_pos_site_id
 _symmetry_equiv_pos_as_xyz
  1  'x, y, z'
loop_
 _atom_site_type_symbol
 _atom_site_label
 _atom_site_symmetry_multiplicity
 _atom_site_fract_x
 _atom_site_fract_y
 _atom_site_fract_z
 _atom_site_occupancy
  Er  Er0  1  0.82626000  0.82627000  0.82626000  1.0
  Er  Er1  1  0.17374000  0.17373000  0.17375000  1.0
  H  H2  1  0.72359000  0.76318000  0.55725000  1.0
  H  H3  1  0.76317000  0.55725000  0.72360000  1.0
  H  H4  1  0.55725000  0.72360000  0.76318000  1.0
  H  H5  1  0.27641000  0.23682000  0.44275000  1.0
  H  H6  1  0.23682000  0.44275000  0.27641000  1.0
  H  H7  1  0.44275000  0.27641000  0.23682000  1.0
  H  H8  1  0.70716000  0.62538000  0.42859000  1.0
  H  H9  1  0.62537000  0.42859000  0.70717000  1.0
  H  H10  1  0.42859000  0.70717000  0.62537000  1.0
  H  H11  1  0.29284000  0.37462000  0.57141000  1.0
  H  H12  1  0.37462000  0.57140000  0.29283000  1.0
  H  H13  1  0.57141000  0.29283000  0.37462000  1.0
  H  H14  1  0.55903000  0.67555000  0.29190000  1.0
  H  H15  1  0.67554000  0.29190000  0.55904000  1.0
  H  H16  1  0.29190000  0.55904000  0.67554000  1.0
  H  H17  1  0.44097000  0.32445000  0.70810000  1.0
  H  H18  1  0.32445000  0.70809000  0.44097000  1.0
  H  H19  1  0.70811000  0.44096000  0.32445000  1.0
  H  H20  1  0.42256000  0.86112000  0.29096000  1.0
  H  H21  1  0.86111000  0.29097000  0.42256000  1.0
  H  H22  1  0.29096000  0.42257000  0.86111000  1.0
  H  H23  1  0.57744000  0.13888000  0.70904000  1.0
  H  H24  1  0.13889000  0.70903000  0.57744000  1.0
  H  H25  1  0.70904000  0.57744000  0.13889000  1.0
  H  H26  1  0.61831000  0.93617000  0.13072000  1.0
  H  H27  1  0.93617000  0.13073000  0.61830000  1.0
  H  H28  1  0.13072000  0.61830000  0.93617000  1.0
  H  H29  1  0.38169000  0.06383000  0.86927000  1.0
  H  H30  1  0.06383000  0.86927000  0.38170000  1.0
  H  H31  1  0.86928000  0.38170000  0.06383000  1.0
  H  H32  1  0.54015000  0.08180000  0.13466000  1.0
  H  H33  1  0.08181000  0.13466000  0.54014000  1.0
  H  H34  1  0.13465000  0.54014000  0.08181000  1.0
  H  H35  1  0.45985000  0.91819000  0.86534000  1.0
  H  H36  1  0.91819000  0.86534000  0.45986000  1.0
  H  H37  1  0.86535000  0.45985000  0.91819000  1.0
  H  H38  1  0.69822000  0.05478000  0.12804000  1.0
  H  H39  1  0.05478000  0.12804000  0.69822000  1.0
  H  H40  1  0.12804000  0.69821000  0.05478000  1.0
  H  H41  1  0.30178000  0.94522000  0.87196000  1.0
  H  H42  1  0.94522000  0.87196000  0.30178000  1.0
  H  H43  1  0.87196000  0.30179000  0.94522000  1.0
  H  H44  1  0.71712000  0.21842000  0.97104000  1.0
  H  H45  1  0.21843000  0.97103000  0.71711000  1.0
  H  H46  1  0.97103000  0.71712000  0.21842000  1.0
  H  H47  1  0.28289000  0.78158000  0.02896000  1.0
  H  H48  1  0.78158000  0.02897000  0.28288000  1.0
  H  H49  1  0.02897000  0.28288000  0.78157000  1.0
  H  H50  1  0.56808000  0.25164000  0.93998000  1.0
  H  H51  1  0.25164000  0.93998000  0.56808000  1.0
  H  H52  1  0.93997000  0.56809000  0.25164000  1.0
  H  H53  1  0.43192000  0.74836000  0.06003000  1.0
  H  H54  1  0.74836000  0.06002000  0.43192000  1.0
  H  H55  1  0.06003000  0.43191000  0.74836000  1.0
  H  H56  1  0.68815000  0.22300000  0.82484000  1.0
  H  H57  1  0.22301000  0.82484000  0.68814000  1.0
  H  H58  1  0.82483000  0.68815000  0.22300000  1.0
  H  H59  1  0.31185000  0.77700000  0.17516000  1.0
  H  H60  1  0.77700000  0.17516000  0.31185000  1.0
  H  H61  1  0.17517000  0.31184000  0.77700000  1.0
  C  C62  1  0.67557000  0.94652000  0.65661000  1.0
  C  C63  1  0.94652000  0.65660000  0.67557000  1.0
  C  C64  1  0.65659000  0.67560000  0.94653000  1.0
  C  C65  1  0.32444000  0.05348000  0.34339000  1.0
  C  C66  1  0.05348000  0.34339000  0.32443000  1.0
  C  C67  1  0.34341000  0.32442000  0.05347000  1.0
  C  C68  1  0.58580000  0.97342000  0.57515000  1.0
  C  C69  1  0.97342000  0.57515000  0.58581000  1.0
  C  C70  1  0.57514000  0.58582000  0.97343000  1.0
  C  C71  1  0.41420000  0.02658000  0.42485000  1.0
  C  C72  1  0.02658000  0.42485000  0.41420000  1.0
  C  C73  1  0.42485000  0.41420000  0.02658000  1.0
  C  C74  1  0.57970000  0.89313000  0.50146000  1.0
  C  C75  1  0.89312000  0.50146000  0.57970000  1.0
  C  C76  1  0.50146000  0.57970000  0.89313000  1.0
  C  C77  1  0.42030000  0.10687000  0.49854000  1.0
  C  C78  1  0.10687000  0.49854000  0.42030000  1.0
  C  C79  1  0.49854000  0.42031000  0.10687000  1.0
  C  C80  1  0.65736000  0.78501000  0.49952000  1.0
  C  C81  1  0.78501000  0.49952000  0.65737000  1.0
  C  C82  1  0.49952000  0.65736000  0.78502000  1.0
  C  C83  1  0.34264000  0.21499000  0.50048000  1.0
  C  C84  1  0.21498000  0.50047000  0.34264000  1.0
  C  C85  1  0.50048000  0.34264000  0.21498000  1.0
  C  C86  1  0.64895000  0.70865000  0.42663000  1.0
  C  C87  1  0.70865000  0.42664000  0.64896000  1.0
  C  C88  1  0.42663000  0.64895000  0.70865000  1.0
  C  C89  1  0.35105000  0.29135000  0.57336000  1.0
  C  C90  1  0.29135000  0.57336000  0.35105000  1.0
  C  C91  1  0.57337000  0.35105000  0.29135000  1.0
  C  C92  1  0.56393000  0.73648000  0.35001000  1.0
  C  C93  1  0.73647000  0.35001000  0.56394000  1.0
  C  C94  1  0.35001000  0.56394000  0.73647000  1.0
  C  C95  1  0.43607000  0.26353000  0.64999000  1.0
  C  C96  1  0.26353000  0.64999000  0.43607000  1.0
  C  C97  1  0.64999000  0.43607000  0.26353000  1.0
  C  C98  1  0.48806000  0.83959000  0.34933000  1.0
  C  C99  1  0.83958000  0.34934000  0.48806000  1.0
  C  C100  1  0.34934000  0.48806000  0.83959000  1.0
  C  C101  1  0.51194000  0.16041000  0.65067000  1.0
  C  C102  1  0.16041000  0.65066000  0.51194000  1.0
  C  C103  1  0.65066000  0.51194000  0.16041000  1.0
  C  C104  1  0.49214000  0.92085000  0.42477000  1.0
  C  C105  1  0.92085000  0.42477000  0.49214000  1.0
  C  C106  1  0.42477000  0.49214000  0.92085000  1.0
  C  C107  1  0.50786000  0.07915000  0.57523000  1.0
  C  C108  1  0.07915000  0.57522000  0.50787000  1.0
  C  C109  1  0.57523000  0.50787000  0.07915000  1.0
  C  C110  1  0.62249000  0.02936000  0.10198000  1.0
  C  C111  1  0.02936000  0.10198000  0.62249000  1.0
  C  C112  1  0.10198000  0.62249000  0.02936000  1.0
  C  C113  1  0.37751000  0.97063000  0.89802000  1.0
  C  C114  1  0.97064000  0.89802000  0.37751000  1.0
  C  C115  1  0.89803000  0.37751000  0.97063000  1.0
  C  C116  1  0.65536000  0.20252000  0.91817000  1.0
  C  C117  1  0.20253000  0.91816000  0.65535000  1.0
  C  C118  1  0.91816000  0.65536000  0.20252000  1.0
  C  C119  1  0.34464000  0.79748000  0.08184000  1.0
  C  C120  1  0.79748000  0.08184000  0.34464000  1.0
  C  C121  1  0.08185000  0.34464000  0.79748000  1.0
  S  S122  1  0.64112000  0.05076000  0.94565000  1.0
  S  S123  1  0.05075000  0.94565000  0.64112000  1.0
  S  S124  1  0.94564000  0.64113000  0.05075000  1.0
  S  S125  1  0.35889000  0.94924000  0.05435000  1.0
  S  S126  1  0.94924000  0.05435000  0.35888000  1.0
  S  S127  1  0.05436000  0.35887000  0.94925000  1.0
  O  O128  1  0.65180000  0.87626000  0.75142000  1.0
  O  O129  1  0.87626000  0.75142000  0.65181000  1.0
  O  O130  1  0.75142000  0.65182000  0.87627000  1.0
  O  O131  1  0.34820000  0.12374000  0.24858000  1.0
  O  O132  1  0.12374000  0.24858000  0.34820000  1.0
  O  O133  1  0.24859000  0.34818000  0.12373000  1.0
  O  O134  1  0.76787000  0.99202000  0.63119000  1.0
  O  O135  1  0.99203000  0.63118000  0.76788000  1.0
  O  O136  1  0.63117000  0.76788000  0.99202000  1.0
  O  O137  1  0.23213000  0.00798000  0.36881000  1.0
  O  O138  1  0.00797000  0.36882000  0.23213000  1.0
  O  O139  1  0.36884000  0.23213000  0.00796000  1.0
  O  O140  1  0.76473000  0.98993000  0.90796000  1.0
  O  O141  1  0.98993000  0.90796000  0.76473000  1.0
  O  O142  1  0.90796000  0.76474000  0.98993000  1.0
  O  O143  1  0.23527000  0.01007000  0.09204000  1.0
  O  O144  1  0.01007000  0.09204000  0.23527000  1.0
  O  O145  1  0.09204000  0.23526000  0.01007000  1.0
