# generated using pymatgen
data_Cu3H18C10N6O5
_symmetry_space_group_name_H-M   'P 1'
_cell_length_a   11.16040000
_cell_length_b   14.13450000
_cell_length_c   14.13470000
_cell_angle_alpha   113.31700000
_cell_angle_beta   105.23200000
_cell_angle_gamma   105.23100000
_symmetry_Int_Tables_number   1
_chemical_formula_structural   Cu3H18C10N6O5
_chemical_formula_sum   'Cu9 H54 C30 N18 O15'
_cell_volume   1798.53461854
_cell_formula_units_Z   3
loop_
 _symmetry_equiv_pos_site_id
 _symmetry_equiv_pos_as_xyz
  1  'x, y, z'
loop_
 _atom_site_type_symbol
 _atom_site_label
 _atom_site_symmetry_multiplicity
 _atom_site_fract_x
 _atom_site_fract_y
 _atom_site_fract_z
 _atom_site_occupancy
  Cu  Cu0  1  0.58848000  0.37999000  0.49380000  1.0
  Cu  Cu1  1  0.20828000  0.11373000  0.62014000  1.0
  Cu  Cu2  1  0.09436000  0.50625000  0.88625000  1.0
  Cu  Cu3  1  0.09435000  0.88624000  0.50624000  1.0
  Cu  Cu4  1  0.58848000  0.49380000  0.37999000  1.0
  Cu  Cu5  1  0.20828000  0.62015000  0.11374000  1.0
  Cu  Cu6  1  0.29174000  0.38166000  0.38166000  1.0
  Cu  Cu7  1  0.90934000  0.00000000  0.61752000  1.0
  Cu  Cu8  1  0.90933000  0.61751000  0.00000000  1.0
  H  H9  1  0.12882000  0.15013000  0.21571000  1.0
  H  H10  1  0.04356000  0.24837000  0.39535000  1.0
  H  H11  1  0.05221000  0.26370000  0.52799000  1.0
  H  H12  1  0.00627000  0.12839000  0.41663000  1.0
  H  H13  1  0.57018000  0.27621000  0.71881000  1.0
  H  H14  1  0.59908000  0.21679000  0.59479000  1.0
  H  H15  1  0.47266000  0.12942000  0.61638000  1.0
  H  H16  1  0.24312000  0.62422000  0.69901000  1.0
  H  H17  1  0.98136000  0.06532000  0.84529000  1.0
  H  H18  1  0.79519000  0.14687000  0.75236000  1.0
  H  H19  1  0.78806000  0.26380000  0.73633000  1.0
  H  H20  1  0.87732000  0.28824000  0.87194000  1.0
  H  H21  1  0.29354000  0.44221000  0.72350000  1.0
  H  H22  1  0.38151000  0.37739000  0.78285000  1.0
  H  H23  1  0.34241000  0.48636000  0.87026000  1.0
  H  H24  1  0.61841000  0.07462000  0.37523000  1.0
  H  H25  1  0.91479000  0.78072000  0.93438000  1.0
  H  H26  1  0.64818000  0.60541000  0.85314000  1.0
  H  H27  1  0.52441000  0.47248000  0.73644000  1.0
  H  H28  1  0.58898000  0.58349000  0.71165000  1.0
  H  H29  1  0.85160000  0.28133000  0.55790000  1.0
  H  H30  1  0.00423000  0.40536000  0.62242000  1.0
  H  H31  1  0.85627000  0.38385000  0.51354000  1.0
  H  H32  1  0.54402000  0.30076000  0.92509000  1.0
  H  H33  1  0.91477000  0.93439000  0.78085000  1.0
  H  H34  1  0.64818000  0.85314000  0.60540000  1.0
  H  H35  1  0.52441000  0.73643000  0.47247000  1.0
  H  H36  1  0.58898000  0.71165000  0.58349000  1.0
  H  H37  1  0.85158000  0.55789000  0.28132000  1.0
  H  H38  1  0.00421000  0.62240000  0.40533000  1.0
  H  H39  1  0.85625000  0.51352000  0.38383000  1.0
  H  H40  1  0.54401000  0.92510000  0.30078000  1.0
  H  H41  1  0.12885000  0.21574000  0.15015000  1.0
  H  H42  1  0.04355000  0.39536000  0.24837000  1.0
  H  H43  1  0.05223000  0.52801000  0.26371000  1.0
  H  H44  1  0.00626000  0.41664000  0.12840000  1.0
  H  H45  1  0.57017000  0.71880000  0.27620000  1.0
  H  H46  1  0.59908000  0.59478000  0.21679000  1.0
  H  H47  1  0.47265000  0.61638000  0.12942000  1.0
  H  H48  1  0.24312000  0.69904000  0.62420000  1.0
  H  H49  1  0.98134000  0.84521000  0.06531000  1.0
  H  H50  1  0.79518000  0.75237000  0.14687000  1.0
  H  H51  1  0.78805000  0.73632000  0.26379000  1.0
  H  H52  1  0.87732000  0.87194000  0.28824000  1.0
  H  H53  1  0.29352000  0.72349000  0.44220000  1.0
  H  H54  1  0.38149000  0.78284000  0.37739000  1.0
  H  H55  1  0.34239000  0.87025000  0.48636000  1.0
  H  H56  1  0.61841000  0.37521000  0.07460000  1.0
  H  H57  1  0.43879000  0.28364000  0.28365000  1.0
  H  H58  1  0.09537000  0.57314000  0.57312000  1.0
  H  H59  1  0.15451000  0.99960000  0.71624000  1.0
  H  H60  1  0.52156000  0.99992000  0.42645000  1.0
  H  H61  1  0.15451000  0.71626000  0.99962000  1.0
  H  H62  1  0.52156000  0.42643000  0.99991000  1.0
  C  C63  1  0.07209000  0.21841000  0.45472000  1.0
  C  C64  1  0.21836000  0.23971000  0.49116000  1.0
  C  C65  1  0.41366000  0.23820000  0.56604000  1.0
  C  C66  1  0.52042000  0.21401000  0.62766000  1.0
  C  C67  1  0.85336000  0.23616000  0.78200000  1.0
  C  C68  1  0.97828000  0.25133000  0.76061000  1.0
  C  C69  1  0.17485000  0.32747000  0.76161000  1.0
  C  C70  1  0.30574000  0.41312000  0.78566000  1.0
  C  C71  1  0.61717000  0.54574000  0.76390000  1.0
  C  C72  1  0.72700000  0.50925000  0.74873000  1.0
  C  C73  1  0.84754000  0.43413000  0.67255000  1.0
  C  C74  1  0.89281000  0.37250000  0.58683000  1.0
  C  C75  1  0.61716000  0.76389000  0.54573000  1.0
  C  C76  1  0.72699000  0.74872000  0.50924000  1.0
  C  C77  1  0.84754000  0.67254000  0.43412000  1.0
  C  C78  1  0.89281000  0.58681000  0.37248000  1.0
  C  C79  1  0.07209000  0.45473000  0.21841000  1.0
  C  C80  1  0.21836000  0.49116000  0.23971000  1.0
  C  C81  1  0.41365000  0.56603000  0.23819000  1.0
  C  C82  1  0.52042000  0.62766000  0.21401000  1.0
  C  C83  1  0.85335000  0.78199000  0.23615000  1.0
  C  C84  1  0.97827000  0.76060000  0.25132000  1.0
  C  C85  1  0.17483000  0.76161000  0.32747000  1.0
  C  C86  1  0.30572000  0.78565000  0.41311000  1.0
  C  C87  1  0.20707000  0.61381000  0.61378000  1.0
  C  C88  1  0.26984000  0.54572000  0.54570000  1.0
  C  C89  1  0.59281000  0.99994000  0.38591000  1.0
  C  C90  1  0.72355000  0.00012000  0.45425000  1.0
  C  C91  1  0.59280000  0.38587000  0.99992000  1.0
  C  C92  1  0.72354000  0.45424000  0.00011000  1.0
  N  N93  1  0.30618000  0.29589000  0.46333000  1.0
  N  N94  1  0.43002000  0.29525000  0.51107000  1.0
  N  N95  1  0.28303000  0.20304000  0.55587000  1.0
  N  N96  1  0.00988000  0.16727000  0.70438000  1.0
  N  N97  1  0.13421000  0.21553000  0.70470000  1.0
  N  N98  1  0.07950000  0.35257000  0.79705000  1.0
  N  N99  1  0.84263000  0.53715000  0.83277000  1.0
  N  N100  1  0.91877000  0.48920000  0.78448000  1.0
  N  N101  1  0.72710000  0.44440000  0.64752000  1.0
  N  N102  1  0.84262000  0.83276000  0.53714000  1.0
  N  N103  1  0.91876000  0.78447000  0.48919000  1.0
  N  N104  1  0.72709000  0.64752000  0.44439000  1.0
  N  N105  1  0.30618000  0.46332000  0.29589000  1.0
  N  N106  1  0.43002000  0.51106000  0.29525000  1.0
  N  N107  1  0.28303000  0.55586000  0.20303000  1.0
  N  N108  1  0.00988000  0.70438000  0.16726000  1.0
  N  N109  1  0.13421000  0.70470000  0.21553000  1.0
  N  N110  1  0.07949000  0.79704000  0.35256000  1.0
  O  O111  1  0.44604000  0.34880000  0.34880000  1.0
  O  O112  1  0.70960000  0.44602000  0.44602000  1.0
  O  O113  1  0.18303000  0.45261000  0.45261000  1.0
  O  O114  1  0.39671000  0.57977000  0.57975000  1.0
  O  O115  1  0.09558000  0.20310000  0.20310000  1.0
  O  O116  1  0.09666000  0.00000000  0.65135000  1.0
  O  O117  1  0.26333000  0.99985000  0.55431000  1.0
  O  O118  1  0.72961000  0.00013000  0.54739000  1.0
  O  O119  1  0.81662000  0.00021000  0.42038000  1.0
  O  O120  1  0.89344000  0.00031000  0.80247000  1.0
  O  O121  1  0.09666000  0.65136000  0.00000000  1.0
  O  O122  1  0.26334000  0.55433000  0.99987000  1.0
  O  O123  1  0.72960000  0.54737000  0.00013000  1.0
  O  O124  1  0.81663000  0.42038000  0.00020000  1.0
  O  O125  1  0.89345000  0.80255000  0.00029000  1.0
