# generated using pymatgen
data_HgH6C8I2N2O
_symmetry_space_group_name_H-M   'P 1'
_cell_length_a   4.25158000
_cell_length_b   16.79850000
_cell_length_c   28.74560000
_cell_angle_alpha   89.99640000
_cell_angle_beta   89.99880000
_cell_angle_gamma   83.64730000
_symmetry_Int_Tables_number   1
_chemical_formula_structural   HgH6C8I2N2O
_chemical_formula_sum   'Hg6 H36 C48 I12 N12 O6'
_cell_volume   2040.40920648
_cell_formula_units_Z   6
loop_
 _symmetry_equiv_pos_site_id
 _symmetry_equiv_pos_as_xyz
  1  'x, y, z'
loop_
 _atom_site_type_symbol
 _atom_site_label
 _atom_site_symmetry_multiplicity
 _atom_site_fract_x
 _atom_site_fract_y
 _atom_site_fract_z
 _atom_site_occupancy
  Hg  Hg0  1  0.95551000  0.04104000  0.57562000  1.0
  Hg  Hg1  1  0.04464000  0.95899000  0.07566000  1.0
  Hg  Hg2  1  0.99639000  0.31047000  0.06335000  1.0
  Hg  Hg3  1  0.00361000  0.68952000  0.56335000  1.0
  Hg  Hg4  1  0.06793000  0.87799000  0.87497000  1.0
  Hg  Hg5  1  0.93198000  0.12200000  0.37496000  1.0
  H  H6  1  0.82231000  0.71912000  0.82961000  1.0
  H  H7  1  0.17770000  0.28086000  0.32960000  1.0
  H  H8  1  0.03357000  0.13652000  0.01243000  1.0
  H  H9  1  0.96651000  0.86349000  0.51241000  1.0
  H  H10  1  0.20459000  0.30179000  0.74889000  1.0
  H  H11  1  0.79541000  0.69820000  0.24889000  1.0
  H  H12  1  0.69703000  0.35900000  0.95956000  1.0
  H  H13  1  0.30292000  0.64100000  0.45957000  1.0
  H  H14  1  0.15351000  0.18825000  0.63798000  1.0
  H  H15  1  0.84650000  0.81176000  0.13799000  1.0
  H  H16  1  0.92770000  0.06838000  0.93716000  1.0
  H  H17  1  0.07237000  0.93161000  0.43714000  1.0
  H  H18  1  0.69896000  0.15120000  0.87024000  1.0
  H  H19  1  0.30099000  0.84878000  0.37021000  1.0
  H  H20  1  0.94732000  0.70323000  0.68019000  1.0
  H  H21  1  0.05277000  0.29678000  0.18018000  1.0
  H  H22  1  0.55863000  0.35567000  0.52053000  1.0
  H  H23  1  0.44130000  0.64437000  0.02052000  1.0
  H  H24  1  0.67686000  0.45497000  0.83952000  1.0
  H  H25  1  0.32313000  0.54500000  0.33952000  1.0
  H  H26  1  0.32189000  0.54343000  0.70744000  1.0
  H  H27  1  0.67815000  0.45657000  0.20744000  1.0
  H  H28  1  0.21574000  0.90159000  0.76101000  1.0
  H  H29  1  0.78425000  0.09840000  0.26099000  1.0
  H  H30  1  0.78749000  0.42386000  0.58869000  1.0
  H  H31  1  0.21244000  0.57616000  0.08868000  1.0
  H  H32  1  0.63763000  0.20544000  0.51546000  1.0
  H  H33  1  0.36238000  0.79460000  0.01546000  1.0
  H  H34  1  0.17240000  0.83413000  0.68334000  1.0
  H  H35  1  0.82765000  0.16589000  0.18333000  1.0
  H  H36  1  0.73147000  0.60220000  0.72008000  1.0
  H  H37  1  0.26856000  0.39782000  0.22007000  1.0
  H  H38  1  0.27823000  0.30060000  0.67553000  1.0
  H  H39  1  0.72175000  0.69940000  0.17553000  1.0
  H  H40  1  0.55005000  0.37392000  0.88336000  1.0
  H  H41  1  0.44982000  0.62606000  0.38336000  1.0
  C  C42  1  0.89755000  0.74219000  0.79652000  1.0
  C  C43  1  0.10246000  0.25780000  0.29650000  1.0
  C  C44  1  0.93172000  0.17015000  0.98256000  1.0
  C  C45  1  0.06833000  0.82984000  0.48255000  1.0
  C  C46  1  0.07438000  0.41582000  0.67817000  1.0
  C  C47  1  0.92563000  0.58419000  0.17817000  1.0
  C  C48  1  0.29072000  0.35971000  0.75517000  1.0
  C  C49  1  0.70928000  0.64028000  0.25517000  1.0
  C  C50  1  0.24687000  0.42246000  0.72318000  1.0
  C  C51  1  0.75315000  0.57754000  0.22318000  1.0
  C  C52  1  0.74573000  0.29456000  0.95281000  1.0
  C  C53  1  0.25425000  0.70543000  0.45281000  1.0
  C  C54  1  0.44169000  0.37006000  0.79777000  1.0
  C  C55  1  0.55829000  0.62992000  0.29777000  1.0
  C  C56  1  0.49289000  0.29827000  0.82907000  1.0
  C  C57  1  0.50708000  0.70172000  0.32907000  1.0
  C  C58  1  0.02179000  0.22799000  0.61272000  1.0
  C  C59  1  0.97821000  0.77203000  0.11273000  1.0
  C  C60  1  0.98587000  0.31132000  0.61871000  1.0
  C  C61  1  0.01409000  0.68870000  0.11871000  1.0
  C  C62  1  0.86643000  0.70030000  0.75470000  1.0
  C  C63  1  0.13359000  0.29970000  0.25468000  1.0
  C  C64  1  0.87195000  0.13295000  0.94074000  1.0
  C  C65  1  0.12809000  0.86704000  0.44072000  1.0
  C  C66  1  0.74572000  0.17854000  0.90340000  1.0
  C  C67  1  0.25425000  0.82144000  0.40338000  1.0
  C  C68  1  0.51466000  0.50625000  0.77517000  1.0
  C  C69  1  0.48534000  0.49374000  0.27517000  1.0
  C  C70  1  0.96985000  0.73362000  0.71343000  1.0
  C  C71  1  0.03020000  0.26639000  0.21341000  1.0
  C  C72  1  0.69095000  0.32076000  0.54751000  1.0
  C  C73  1  0.30898000  0.67927000  0.04751000  1.0
  C  C74  1  0.55118000  0.44357000  0.80753000  1.0
  C  C75  1  0.44877000  0.55641000  0.30753000  1.0
  C  C76  1  0.35916000  0.49585000  0.73327000  1.0
  C  C77  1  0.64086000  0.50414000  0.23327000  1.0
  C  C78  1  0.11793000  0.84442000  0.75778000  1.0
  C  C79  1  0.88208000  0.15557000  0.25776000  1.0
  C  C80  1  0.81662000  0.35902000  0.58510000  1.0
  C  C81  1  0.18332000  0.64100000  0.08509000  1.0
  C  C82  1  0.64704000  0.58194000  0.78888000  1.0
  C  C83  1  0.35296000  0.41804000  0.28888000  1.0
  C  C84  1  0.68136000  0.26166000  0.90942000  1.0
  C  C85  1  0.31861000  0.73832000  0.40941000  1.0
  C  C86  1  0.73473000  0.23744000  0.54421000  1.0
  C  C87  1  0.26524000  0.76259000  0.04420000  1.0
  C  C88  1  0.09468000  0.80656000  0.71499000  1.0
  C  C89  1  0.90534000  0.19345000  0.21498000  1.0
  I  I90  1  0.42392000  0.19634000  0.09710000  1.0
  I  I91  1  0.57620000  0.80366000  0.59712000  1.0
  I  I92  1  0.81602000  0.77060000  0.92774000  1.0
  I  I93  1  0.18373000  0.22943000  0.42772000  1.0
  I  I94  1  0.54437000  0.02765000  0.50520000  1.0
  I  I95  1  0.45571000  0.97239000  0.00523000  1.0
  I  I96  1  0.41337000  0.99511000  0.84833000  1.0
  I  I97  1  0.58654000  0.00488000  0.34834000  1.0
  I  I98  1  0.28521000  0.01437000  0.65495000  1.0
  I  I99  1  0.71485000  0.98562000  0.15498000  1.0
  I  I100  1  0.67331000  0.45368000  0.05061000  1.0
  I  I101  1  0.32684000  0.54634000  0.55060000  1.0
  N  N102  1  0.89807000  0.19254000  0.57660000  1.0
  N  N103  1  0.10193000  0.80748000  0.07660000  1.0
  N  N104  1  0.86952000  0.24966000  0.98796000  1.0
  N  N105  1  0.13049000  0.75033000  0.48795000  1.0
  N  N106  1  0.02190000  0.81198000  0.79719000  1.0
  N  N107  1  0.97810000  0.18800000  0.29717000  1.0
  N  N108  1  0.73506000  0.62749000  0.75226000  1.0
  N  N109  1  0.26497000  0.37251000  0.25225000  1.0
  N  N110  1  0.12503000  0.34107000  0.65832000  1.0
  N  N111  1  0.87494000  0.65893000  0.15832000  1.0
  N  N112  1  0.56735000  0.31513000  0.87439000  1.0
  N  N113  1  0.43257000  0.68485000  0.37439000  1.0
  O  O114  1  0.90318000  0.47312000  0.66154000  1.0
  O  O115  1  0.09686000  0.52688000  0.16154000  1.0
  O  O116  1  0.47333000  0.23010000  0.81423000  1.0
  O  O117  1  0.52670000  0.76987000  0.31423000  1.0
  O  O118  1  0.67667000  0.59932000  0.83021000  1.0
  O  O119  1  0.32335000  0.40064000  0.33021000  1.0
