# generated using pymatgen
data_CdH21C33N5O4
_symmetry_space_group_name_H-M   'P 1'
_cell_length_a   11.28700000
_cell_length_b   11.28700000
_cell_length_c   25.29970000
_cell_angle_alpha   84.19820000
_cell_angle_beta   84.19810000
_cell_angle_gamma   73.56850000
_symmetry_Int_Tables_number   1
_chemical_formula_structural   CdH21C33N5O4
_chemical_formula_sum   'Cd4 H84 C132 N20 O16'
_cell_volume   3066.73015122
_cell_formula_units_Z   4
loop_
 _symmetry_equiv_pos_site_id
 _symmetry_equiv_pos_as_xyz
  1  'x, y, z'
loop_
 _atom_site_type_symbol
 _atom_site_label
 _atom_site_symmetry_multiplicity
 _atom_site_fract_x
 _atom_site_fract_y
 _atom_site_fract_z
 _atom_site_occupancy
  Cd  Cd0  1  0.57423000  0.72408000  0.00403000  1.0
  Cd  Cd1  1  0.27592000  0.42576000  0.49597000  1.0
  Cd  Cd2  1  0.42577000  0.27592000  0.99597000  1.0
  Cd  Cd3  1  0.72408000  0.57423000  0.50403000  1.0
  H  H4  1  0.21025000  0.85004000  0.11695000  1.0
  H  H5  1  0.14996000  0.78975000  0.38305000  1.0
  H  H6  1  0.78975000  0.14996000  0.88305000  1.0
  H  H7  1  0.85004000  0.21025000  0.61695000  1.0
  H  H8  1  0.05991000  0.82709000  0.19468000  1.0
  H  H9  1  0.17291000  0.94009000  0.30532000  1.0
  H  H10  1  0.94009000  0.17291000  0.80532000  1.0
  H  H11  1  0.82709000  0.05991000  0.69468000  1.0
  H  H12  1  0.20895000  0.43120000  0.19880000  1.0
  H  H13  1  0.56880000  0.79105000  0.30120000  1.0
  H  H14  1  0.79105000  0.56880000  0.80120000  1.0
  H  H15  1  0.43120000  0.20895000  0.69880000  1.0
  H  H16  1  0.36584000  0.45567000  0.12464000  1.0
  H  H17  1  0.54434000  0.63417000  0.37536000  1.0
  H  H18  1  0.63417000  0.54433000  0.87536000  1.0
  H  H19  1  0.45567000  0.36583000  0.62464000  1.0
  H  H20  1  0.08458000  0.76539000  0.28601000  1.0
  H  H21  1  0.23461000  0.91542000  0.21399000  1.0
  H  H22  1  0.91542000  0.23462000  0.71399000  1.0
  H  H23  1  0.76538000  0.08458000  0.78601000  1.0
  H  H24  1  0.96162000  0.74068000  0.37195000  1.0
  H  H25  1  0.25933000  0.03838000  0.12805000  1.0
  H  H26  1  0.03837000  0.25933000  0.62805000  1.0
  H  H27  1  0.74067000  0.96162000  0.87195000  1.0
  H  H28  1  0.86578000  0.43686000  0.31525000  1.0
  H  H29  1  0.56314000  0.13422000  0.18475000  1.0
  H  H30  1  0.13422000  0.56314000  0.68475000  1.0
  H  H31  1  0.43686000  0.86578000  0.81525000  1.0
  H  H32  1  0.99061000  0.45949000  0.22914000  1.0
  H  H33  1  0.54051000  0.00940000  0.27086000  1.0
  H  H34  1  0.00940000  0.54051000  0.77086000  1.0
  H  H35  1  0.45949000  0.99061000  0.72914000  1.0
  H  H36  1  0.66844000  0.41954000  0.04840000  1.0
  H  H37  1  0.58046000  0.33156000  0.45159000  1.0
  H  H38  1  0.33156000  0.58046000  0.95160000  1.0
  H  H39  1  0.41954000  0.66844000  0.54840000  1.0
  H  H40  1  0.81694000  0.70925000  0.91391000  1.0
  H  H41  1  0.29075000  0.18306000  0.58608000  1.0
  H  H42  1  0.18306000  0.29075000  0.08609000  1.0
  H  H43  1  0.70925000  0.81694000  0.41391000  1.0
  H  H44  1  0.02144000  0.63611000  0.86127000  1.0
  H  H45  1  0.36389000  0.97856000  0.63873000  1.0
  H  H46  1  0.97856000  0.36389000  0.13873000  1.0
  H  H47  1  0.63611000  0.02144000  0.36127000  1.0
  H  H48  1  0.14925000  0.41891000  0.87418000  1.0
  H  H49  1  0.58109000  0.85075000  0.62582000  1.0
  H  H50  1  0.85075000  0.58109000  0.12582000  1.0
  H  H51  1  0.41891000  0.14925000  0.37418000  1.0
  H  H52  1  0.08348000  0.26979000  0.94093000  1.0
  H  H53  1  0.73021000  0.91652000  0.55907000  1.0
  H  H54  1  0.91652000  0.73021000  0.05907000  1.0
  H  H55  1  0.26979000  0.08348000  0.44093000  1.0
  H  H56  1  0.70137000  0.19643000  0.03378000  1.0
  H  H57  1  0.80357000  0.29863000  0.46622000  1.0
  H  H58  1  0.29863000  0.80357000  0.96622000  1.0
  H  H59  1  0.19643000  0.70137000  0.53378000  1.0
  H  H60  1  0.00257000  0.89787000  0.09234000  1.0
  H  H61  1  0.10214000  0.99742000  0.40766000  1.0
  H  H62  1  0.99743000  0.10213000  0.90766000  1.0
  H  H63  1  0.89787000  0.00257000  0.59234000  1.0
  H  H64  1  0.07663000  0.22519000  0.02984000  1.0
  H  H65  1  0.77481000  0.92337000  0.47016000  1.0
  H  H66  1  0.92337000  0.77481000  0.97016000  1.0
  H  H67  1  0.22519000  0.07663000  0.52984000  1.0
  H  H68  1  0.69804000  0.96792000  0.99776000  1.0
  H  H69  1  0.03209000  0.30196000  0.50224000  1.0
  H  H70  1  0.30196000  0.03208000  0.00224000  1.0
  H  H71  1  0.96792000  0.69804000  0.49776000  1.0
  H  H72  1  0.84953000  0.93962000  0.18207000  1.0
  H  H73  1  0.06038000  0.15047000  0.31793000  1.0
  H  H74  1  0.15047000  0.06039000  0.81793000  1.0
  H  H75  1  0.93961000  0.84953000  0.68207000  1.0
  H  H76  1  0.79393000  0.78632000  0.25126000  1.0
  H  H77  1  0.21368000  0.20607000  0.24874000  1.0
  H  H78  1  0.20607000  0.21368000  0.74874000  1.0
  H  H79  1  0.78631000  0.79393000  0.75126000  1.0
  H  H80  1  0.66248000  0.65688000  0.23189000  1.0
  H  H81  1  0.34312000  0.33752000  0.26811000  1.0
  H  H82  1  0.33752000  0.34312000  0.76811000  1.0
  H  H83  1  0.65688000  0.66248000  0.73189000  1.0
  H  H84  1  0.58247000  0.67310000  0.14197000  1.0
  H  H85  1  0.32690000  0.41753000  0.35803000  1.0
  H  H86  1  0.41753000  0.32690000  0.85803000  1.0
  H  H87  1  0.67310000  0.58247000  0.64197000  1.0
  C  C88  1  0.39557000  0.67039000  0.07499000  1.0
  C  C89  1  0.32962000  0.60443000  0.42501000  1.0
  C  C90  1  0.60443000  0.32961000  0.92501000  1.0
  C  C91  1  0.67038000  0.39557000  0.57499000  1.0
  C  C92  1  0.29782000  0.65460000  0.11707000  1.0
  C  C93  1  0.34540000  0.70219000  0.38293000  1.0
  C  C94  1  0.70219000  0.34539000  0.88293000  1.0
  C  C95  1  0.65460000  0.29781000  0.61707000  1.0
  C  C96  1  0.20957000  0.75909000  0.13593000  1.0
  C  C97  1  0.24091000  0.79043000  0.36407000  1.0
  C  C98  1  0.79043000  0.24091000  0.86406000  1.0
  C  C99  1  0.75909000  0.20957000  0.63594000  1.0
  C  C100  1  0.12640000  0.74559000  0.17900000  1.0
  C  C101  1  0.25441000  0.87360000  0.32100000  1.0
  C  C102  1  0.87361000  0.25441000  0.82100000  1.0
  C  C103  1  0.74559000  0.12640000  0.67900000  1.0
  C  C104  1  0.12598000  0.62759000  0.20284000  1.0
  C  C105  1  0.37241000  0.87403000  0.29716000  1.0
  C  C106  1  0.87403000  0.37241000  0.79716000  1.0
  C  C107  1  0.62759000  0.12598000  0.70284000  1.0
  C  C108  1  0.20965000  0.52319000  0.18126000  1.0
  C  C109  1  0.47681000  0.79035000  0.31874000  1.0
  C  C110  1  0.79036000  0.47680000  0.81874000  1.0
  C  C111  1  0.52320000  0.20965000  0.68126000  1.0
  C  C112  1  0.29685000  0.53631000  0.13976000  1.0
  C  C113  1  0.46369000  0.70315000  0.36024000  1.0
  C  C114  1  0.70315000  0.46369000  0.86024000  1.0
  C  C115  1  0.53631000  0.29685000  0.63976000  1.0
  C  C116  1  0.04552000  0.61474000  0.25152000  1.0
  C  C117  1  0.38526000  0.95449000  0.24848000  1.0
  C  C118  1  0.95449000  0.38526000  0.74848000  1.0
  C  C119  1  0.61474000  0.04552000  0.75152000  1.0
  C  C120  1  0.03409000  0.69529000  0.29182000  1.0
  C  C121  1  0.30472000  0.96591000  0.20818000  1.0
  C  C122  1  0.96591000  0.30472000  0.70818000  1.0
  C  C123  1  0.69528000  0.03409000  0.79182000  1.0
  C  C124  1  0.96641000  0.68143000  0.33989000  1.0
  C  C125  1  0.31858000  0.03359000  0.16011000  1.0
  C  C126  1  0.03359000  0.31858000  0.66012000  1.0
  C  C127  1  0.68142000  0.96641000  0.83989000  1.0
  C  C128  1  0.90608000  0.58741000  0.34862000  1.0
  C  C129  1  0.41259000  0.09392000  0.15138000  1.0
  C  C130  1  0.09391000  0.41259000  0.65138000  1.0
  C  C131  1  0.58741000  0.90608000  0.84862000  1.0
  C  C132  1  0.91393000  0.50886000  0.30810000  1.0
  C  C133  1  0.49114000  0.08608000  0.19190000  1.0
  C  C134  1  0.08607000  0.49114000  0.69190000  1.0
  C  C135  1  0.50886000  0.91393000  0.80810000  1.0
  C  C136  1  0.98379000  0.52162000  0.26031000  1.0
  C  C137  1  0.47838000  0.01621000  0.23969000  1.0
  C  C138  1  0.01621000  0.47838000  0.73969000  1.0
  C  C139  1  0.52162000  0.98379000  0.76031000  1.0
  C  C140  1  0.83876000  0.57066000  0.40165000  1.0
  C  C141  1  0.42935000  0.16124000  0.09835000  1.0
  C  C142  1  0.16123000  0.42935000  0.59835000  1.0
  C  C143  1  0.57065000  0.83876000  0.90165000  1.0
  C  C144  1  0.73857000  0.43777000  0.01849000  1.0
  C  C145  1  0.56223000  0.26143000  0.48151000  1.0
  C  C146  1  0.26142000  0.56223000  0.98151000  1.0
  C  C147  1  0.43777000  0.73857000  0.51849000  1.0
  C  C148  1  0.83947000  0.53098000  0.95807000  1.0
  C  C149  1  0.46902000  0.16053000  0.54193000  1.0
  C  C150  1  0.16053000  0.46902000  0.04193000  1.0
  C  C151  1  0.53098000  0.83947000  0.45807000  1.0
  C  C152  1  0.87648000  0.61513000  0.92023000  1.0
  C  C153  1  0.38487000  0.12352000  0.57977000  1.0
  C  C154  1  0.12352000  0.38487000  0.07977000  1.0
  C  C155  1  0.61513000  0.87648000  0.42023000  1.0
  C  C156  1  0.98947000  0.57284000  0.89106000  1.0
  C  C157  1  0.42716000  0.01053000  0.60894000  1.0
  C  C158  1  0.01053000  0.42716000  0.10894000  1.0
  C  C159  1  0.57284000  0.98947000  0.39106000  1.0
  C  C160  1  0.06266000  0.44969000  0.89851000  1.0
  C  C161  1  0.55031000  0.93734000  0.60148000  1.0
  C  C162  1  0.93734000  0.55031000  0.10149000  1.0
  C  C163  1  0.44969000  0.06266000  0.39852000  1.0
  C  C164  1  0.02633000  0.36490000  0.93598000  1.0
  C  C165  1  0.63510000  0.97367000  0.56401000  1.0
  C  C166  1  0.97367000  0.63510000  0.06402000  1.0
  C  C167  1  0.36490000  0.02633000  0.43599000  1.0
  C  C168  1  0.91424000  0.40774000  0.96604000  1.0
  C  C169  1  0.59226000  0.08576000  0.53396000  1.0
  C  C170  1  0.08576000  0.59226000  0.03396000  1.0
  C  C171  1  0.40774000  0.91424000  0.46604000  1.0
  C  C172  1  0.88446000  0.22726000  0.02852000  1.0
  C  C173  1  0.77274000  0.11554000  0.47148000  1.0
  C  C174  1  0.11554000  0.77274000  0.97148000  1.0
  C  C175  1  0.22726000  0.88446000  0.52852000  1.0
  C  C176  1  0.79827000  0.15934000  0.04199000  1.0
  C  C177  1  0.84066000  0.20173000  0.45801000  1.0
  C  C178  1  0.20173000  0.84066000  0.95801000  1.0
  C  C179  1  0.15934000  0.79827000  0.54199000  1.0
  C  C180  1  0.84201000  0.03940000  0.06511000  1.0
  C  C181  1  0.96060000  0.15798000  0.43489000  1.0
  C  C182  1  0.15798000  0.96060000  0.93489000  1.0
  C  C183  1  0.03940000  0.84202000  0.56511000  1.0
  C  C184  1  0.96735000  0.99237000  0.07473000  1.0
  C  C185  1  0.00764000  0.03265000  0.42527000  1.0
  C  C186  1  0.03265000  0.00764000  0.92527000  1.0
  C  C187  1  0.99237000  0.96735000  0.57473000  1.0
  C  C188  1  0.00842000  0.17315000  0.03934000  1.0
  C  C189  1  0.82685000  0.99158000  0.46066000  1.0
  C  C190  1  0.99158000  0.82685000  0.96066000  1.0
  C  C191  1  0.17315000  0.00842000  0.53934000  1.0
  C  C192  1  0.69910000  0.92814000  0.03876000  1.0
  C  C193  1  0.07186000  0.30090000  0.46124000  1.0
  C  C194  1  0.30090000  0.07186000  0.96124000  1.0
  C  C195  1  0.92814000  0.69910000  0.53876000  1.0
  C  C196  1  0.74825000  0.88892000  0.12327000  1.0
  C  C197  1  0.11108000  0.25175000  0.37673000  1.0
  C  C198  1  0.25175000  0.11108000  0.87673000  1.0
  C  C199  1  0.88892000  0.74825000  0.62327000  1.0
  C  C200  1  0.79245000  0.88168000  0.17338000  1.0
  C  C201  1  0.11832000  0.20755000  0.32662000  1.0
  C  C202  1  0.20755000  0.11832000  0.82662000  1.0
  C  C203  1  0.88168000  0.79245000  0.67338000  1.0
  C  C204  1  0.75985000  0.79660000  0.21178000  1.0
  C  C205  1  0.20340000  0.24015000  0.28822000  1.0
  C  C206  1  0.24015000  0.20340000  0.78822000  1.0
  C  C207  1  0.79660000  0.75985000  0.71178000  1.0
  C  C208  1  0.68500000  0.72254000  0.20062000  1.0
  C  C209  1  0.27746000  0.31500000  0.29938000  1.0
  C  C210  1  0.31500000  0.27746000  0.79938000  1.0
  C  C211  1  0.72254000  0.68500000  0.70062000  1.0
  C  C212  1  0.63964000  0.73093000  0.15081000  1.0
  C  C213  1  0.26907000  0.36035000  0.34919000  1.0
  C  C214  1  0.36036000  0.26907000  0.84919000  1.0
  C  C215  1  0.73093000  0.63964000  0.65081000  1.0
  C  C216  1  0.67285000  0.81513000  0.11166000  1.0
  C  C217  1  0.18487000  0.32715000  0.38833000  1.0
  C  C218  1  0.32715000  0.18487000  0.88833000  1.0
  C  C219  1  0.81513000  0.67285000  0.61166000  1.0
  N  N220  1  0.76267000  0.96064000  0.07599000  1.0
  N  N221  1  0.03936000  0.23733000  0.42401000  1.0
  N  N222  1  0.23733000  0.03936000  0.92401000  1.0
  N  N223  1  0.96064000  0.76267000  0.57599000  1.0
  N  N224  1  0.64563000  0.84123000  0.05857000  1.0
  N  N225  1  0.15877000  0.35436000  0.44143000  1.0
  N  N226  1  0.35437000  0.15877000  0.94143000  1.0
  N  N227  1  0.84123000  0.64563000  0.55857000  1.0
  N  N228  1  0.84726000  0.35024000  0.00504000  1.0
  N  N229  1  0.64976000  0.15274000  0.49496000  1.0
  N  N230  1  0.15274000  0.64976000  0.99496000  1.0
  N  N231  1  0.35024000  0.84726000  0.50504000  1.0
  N  N232  1  0.73146000  0.54584000  0.99158000  1.0
  N  N233  1  0.45416000  0.26854000  0.50842000  1.0
  N  N234  1  0.26854000  0.45416000  0.00842000  1.0
  N  N235  1  0.54584000  0.73146000  0.49158000  1.0
  N  N236  1  0.04901000  0.05835000  0.06227000  1.0
  N  N237  1  0.94166000  0.95098000  0.43773000  1.0
  N  N238  1  0.95098000  0.94166000  0.93773000  1.0
  N  N239  1  0.05835000  0.04901000  0.56227000  1.0
  O  O240  1  0.37715000  0.77352000  0.04609000  1.0
  O  O241  1  0.22648000  0.62285000  0.45391000  1.0
  O  O242  1  0.62285000  0.22648000  0.95391000  1.0
  O  O243  1  0.77352000  0.37715000  0.54609000  1.0
  O  O244  1  0.49550000  0.58352000  0.06997000  1.0
  O  O245  1  0.41648000  0.50450000  0.43003000  1.0
  O  O246  1  0.50450000  0.41648000  0.93003000  1.0
  O  O247  1  0.58352000  0.49550000  0.56997000  1.0
  O  O248  1  0.84646000  0.64151000  0.43730000  1.0
  O  O249  1  0.35849000  0.15354000  0.06270000  1.0
  O  O250  1  0.15354000  0.35849000  0.56270000  1.0
  O  O251  1  0.64151000  0.84646000  0.93730000  1.0
  O  O252  1  0.77772000  0.49105000  0.41048000  1.0
  O  O253  1  0.50895000  0.22228000  0.08952000  1.0
  O  O254  1  0.22228000  0.50896000  0.58952000  1.0
  O  O255  1  0.49105000  0.77772000  0.91048000  1.0
