# generated using pymatgen
data_CdH24C16(BrN6)2
_symmetry_space_group_name_H-M   'P 1'
_cell_length_a   7.70099000
_cell_length_b   8.76392000
_cell_length_c   18.22370000
_cell_angle_alpha   90.00000000
_cell_angle_beta   90.00000000
_cell_angle_gamma   113.53300000
_symmetry_Int_Tables_number   1
_chemical_formula_structural   CdH24C16(BrN6)2
_chemical_formula_sum   'Cd2 H48 C32 Br4 N24'
_cell_volume   1127.63996598
_cell_formula_units_Z   2
loop_
 _symmetry_equiv_pos_site_id
 _symmetry_equiv_pos_as_xyz
  1  'x, y, z'
loop_
 _atom_site_type_symbol
 _atom_site_label
 _atom_site_symmetry_multiplicity
 _atom_site_fract_x
 _atom_site_fract_y
 _atom_site_fract_z
 _atom_site_occupancy
  Cd  Cd0  1  0.00000000  0.00000000  0.50000000  1.0
  Cd  Cd1  1  0.50000000  0.50000000  0.00000000  1.0
  H  H2  1  0.45882000  0.14613000  0.57029000  1.0
  H  H3  1  0.04119000  0.35387000  0.07029000  1.0
  H  H4  1  0.54119000  0.85387000  0.42971000  1.0
  H  H5  1  0.95881000  0.64614000  0.92971000  1.0
  H  H6  1  0.13726000  0.43363000  0.54763000  1.0
  H  H7  1  0.36274000  0.06637000  0.04763000  1.0
  H  H8  1  0.86273000  0.56637000  0.45237000  1.0
  H  H9  1  0.63726000  0.93363000  0.95237000  1.0
  H  H10  1  0.81043000  0.52037000  0.58475000  1.0
  H  H11  1  0.68957000  0.97963000  0.08475000  1.0
  H  H12  1  0.18957000  0.47963000  0.41525000  1.0
  H  H13  1  0.31044000  0.02037000  0.91525000  1.0
  H  H14  1  0.71088000  0.57206000  0.66390000  1.0
  H  H15  1  0.78912000  0.92794000  0.16390000  1.0
  H  H16  1  0.28912000  0.42794000  0.33610000  1.0
  H  H17  1  0.21088000  0.07206000  0.83610000  1.0
  H  H18  1  0.74872000  0.24095000  0.63532000  1.0
  H  H19  1  0.75128000  0.25905000  0.13532000  1.0
  H  H20  1  0.25128000  0.75905000  0.36468000  1.0
  H  H21  1  0.24872000  0.74095000  0.86468000  1.0
  H  H22  1  0.62101000  0.27588000  0.70999000  1.0
  H  H23  1  0.87899000  0.22412000  0.20999000  1.0
  H  H24  1  0.37899000  0.72412000  0.29001000  1.0
  H  H25  1  0.12101000  0.77588000  0.79001000  1.0
  H  H26  1  0.04684000  0.46605000  0.67903000  1.0
  H  H27  1  0.45316000  0.03395000  0.17903000  1.0
  H  H28  1  0.95316000  0.53395000  0.32097000  1.0
  H  H29  1  0.54684000  0.96605000  0.82097000  1.0
  H  H30  1  0.92326000  0.51433000  0.75136000  1.0
  H  H31  1  0.57674000  0.98567000  0.25136000  1.0
  H  H32  1  0.07674000  0.48567000  0.24864000  1.0
  H  H33  1  0.42326000  0.01433000  0.74864000  1.0
  H  H34  1  0.83947000  0.23538000  0.80706000  1.0
  H  H35  1  0.66053000  0.26462000  0.30706000  1.0
  H  H36  1  0.16053000  0.76462000  0.19294000  1.0
  H  H37  1  0.33947000  0.73538000  0.69294000  1.0
  H  H38  1  0.93917000  0.17178000  0.73102000  1.0
  H  H39  1  0.56083000  0.32822000  0.23102000  1.0
  H  H40  1  0.06083000  0.82822000  0.26899000  1.0
  H  H41  1  0.43917000  0.67178000  0.76899000  1.0
  H  H42  1  0.05852000  0.39337000  0.90977000  1.0
  H  H43  1  0.44148000  0.10664000  0.40977000  1.0
  H  H44  1  0.94148000  0.60663000  0.09023000  1.0
  H  H45  1  0.55852000  0.89337000  0.59023000  1.0
  H  H46  1  0.56754000  0.42073000  0.81415000  1.0
  H  H47  1  0.93246000  0.07926000  0.31415000  1.0
  H  H48  1  0.43246000  0.57927000  0.18585000  1.0
  H  H49  1  0.06754000  0.92073000  0.68585000  1.0
  C  C50  1  0.41180000  0.24733000  0.57251000  1.0
  C  C51  1  0.08820000  0.25267000  0.07251000  1.0
  C  C52  1  0.58820000  0.75267000  0.42749000  1.0
  C  C53  1  0.91180000  0.74733000  0.92749000  1.0
  C  C54  1  0.25174000  0.39586000  0.56101000  1.0
  C  C55  1  0.24826000  0.10414000  0.06101000  1.0
  C  C56  1  0.74826000  0.60414000  0.43899000  1.0
  C  C57  1  0.75174000  0.89586000  0.93899000  1.0
  C  C58  1  0.70436000  0.46889000  0.62849000  1.0
  C  C59  1  0.79564000  0.03111000  0.12849000  1.0
  C  C60  1  0.29564000  0.53111000  0.37151000  1.0
  C  C61  1  0.20437000  0.96889000  0.87151000  1.0
  C  C62  1  0.74123000  0.33722000  0.67252000  1.0
  C  C63  1  0.75877000  0.16278000  0.17252000  1.0
  C  C64  1  0.25877000  0.66278000  0.32748000  1.0
  C  C65  1  0.24123000  0.83722000  0.82748000  1.0
  C  C66  1  0.92500000  0.41243000  0.71631000  1.0
  C  C67  1  0.57500000  0.08757000  0.21631000  1.0
  C  C68  1  0.07500000  0.58757000  0.28369000  1.0
  C  C69  1  0.42501000  0.91243000  0.78369000  1.0
  C  C70  1  0.94866000  0.27913000  0.76415000  1.0
  C  C71  1  0.55134000  0.22087000  0.26415000  1.0
  C  C72  1  0.05134000  0.72087000  0.23585000  1.0
  C  C73  1  0.44866000  0.77913000  0.73585000  1.0
  C  C74  1  0.16662000  0.39175000  0.87157000  1.0
  C  C75  1  0.33338000  0.10825000  0.37157000  1.0
  C  C76  1  0.83338000  0.60825000  0.12843000  1.0
  C  C77  1  0.66666667  0.89175000  0.62843000  1.0
  C  C78  1  0.42034000  0.40183000  0.82089000  1.0
  C  C79  1  0.07967000  0.09817000  0.32089000  1.0
  C  C80  1  0.57967000  0.59817000  0.17911000  1.0
  C  C81  1  0.92033000  0.90183000  0.67911000  1.0
  Br  Br82  1  0.20254000  0.80427000  0.53757000  1.0
  Br  Br83  1  0.29746000  0.69573000  0.03757000  1.0
  Br  Br84  1  0.79746000  0.19573000  0.46243000  1.0
  Br  Br85  1  0.70254000  0.30426000  0.96243000  1.0
  N  N86  1  0.24348000  0.23910000  0.54964000  1.0
  N  N87  1  0.25652000  0.26089000  0.04964000  1.0
  N  N88  1  0.75652000  0.76089000  0.45036000  1.0
  N  N89  1  0.74348000  0.73911000  0.95036000  1.0
  N  N90  1  0.41491000  0.49926000  0.58983000  1.0
  N  N91  1  0.08509000  0.00074000  0.08983000  1.0
  N  N92  1  0.58509000  0.50074000  0.41017000  1.0
  N  N93  1  0.91491000  0.99926000  0.91017000  1.0
  N  N94  1  0.51477000  0.40211000  0.59676000  1.0
  N  N95  1  0.98523000  0.09789000  0.09675000  1.0
  N  N96  1  0.48523000  0.59789000  0.40325000  1.0
  N  N97  1  0.01477000  0.90211000  0.90324000  1.0
  N  N98  1  0.12993000  0.33807000  0.80192000  1.0
  N  N99  1  0.37007000  0.16193000  0.30192000  1.0
  N  N100  1  0.87007000  0.66193000  0.19808000  1.0
  N  N101  1  0.62993000  0.83807000  0.69808000  1.0
  N  N102  1  0.29055000  0.34289000  0.76826000  1.0
  N  N103  1  0.20945000  0.15711000  0.26826000  1.0
  N  N104  1  0.70945000  0.65711000  0.23174000  1.0
  N  N105  1  0.79055000  0.84289000  0.73174000  1.0
  N  N106  1  0.35041000  0.43402000  0.88506000  1.0
  N  N107  1  0.14959000  0.06597000  0.38506000  1.0
  N  N108  1  0.64958000  0.56597000  0.11494000  1.0
  N  N109  1  0.85041000  0.93403000  0.61494000  1.0
