# generated using pymatgen
data_Hg5H14C6(NCl)10
_symmetry_space_group_name_H-M   'P 1'
_cell_length_a   9.29062000
_cell_length_b   10.02940000
_cell_length_c   14.87690000
_cell_angle_alpha   91.38650000
_cell_angle_beta   90.00000000
_cell_angle_gamma   90.00000000
_symmetry_Int_Tables_number   1
_chemical_formula_structural   Hg5H14C6(NCl)10
_chemical_formula_sum   'Hg10 H28 C12 N20 Cl20'
_cell_volume   1385.81392695
_cell_formula_units_Z   2
loop_
 _symmetry_equiv_pos_site_id
 _symmetry_equiv_pos_as_xyz
  1  'x, y, z'
loop_
 _atom_site_type_symbol
 _atom_site_label
 _atom_site_symmetry_multiplicity
 _atom_site_fract_x
 _atom_site_fract_y
 _atom_site_fract_z
 _atom_site_occupancy
  Hg  Hg0  1  0.00000000  0.00000000  0.50000000  1.0
  Hg  Hg1  1  0.50000000  0.50000000  0.00000000  1.0
  Hg  Hg2  1  0.46292000  0.11958000  0.40016000  1.0
  Hg  Hg3  1  0.96292000  0.38042000  0.09984000  1.0
  Hg  Hg4  1  0.53708000  0.88042000  0.59984000  1.0
  Hg  Hg5  1  0.03708000  0.61958000  0.90016000  1.0
  Hg  Hg6  1  0.13441000  0.88384000  0.72411000  1.0
  Hg  Hg7  1  0.63441000  0.61616000  0.77589000  1.0
  Hg  Hg8  1  0.86560000  0.11617000  0.27589000  1.0
  Hg  Hg9  1  0.36559000  0.38384000  0.22411000  1.0
  H  H10  1  0.09437000  0.29618000  0.43472000  1.0
  H  H11  1  0.59437000  0.20382000  0.06528000  1.0
  H  H12  1  0.90563000  0.70382000  0.56528000  1.0
  H  H13  1  0.40563000  0.79618000  0.93472000  1.0
  H  H14  1  0.15829000  0.43493000  0.49475000  1.0
  H  H15  1  0.65829000  0.06507000  0.00526000  1.0
  H  H16  1  0.84171000  0.56508000  0.50525000  1.0
  H  H17  1  0.34171000  0.93493000  0.99475000  1.0
  H  H18  1  0.20419000  0.51584000  0.69176000  1.0
  H  H19  1  0.70418000  0.98416000  0.80824000  1.0
  H  H20  1  0.79582000  0.48416000  0.30824000  1.0
  H  H21  1  0.29582000  0.01584000  0.19176000  1.0
  H  H22  1  0.35765000  0.45003000  0.64882000  1.0
  H  H23  1  0.85765000  0.04997000  0.85118000  1.0
  H  H24  1  0.64235000  0.54997000  0.35118000  1.0
  H  H25  1  0.14235000  0.95003000  0.14882000  1.0
  H  H26  1  0.29903000  0.34543000  0.80814000  1.0
  H  H27  1  0.79899000  0.15455000  0.69185000  1.0
  H  H28  1  0.70097000  0.65457000  0.19186000  1.0
  H  H29  1  0.20097000  0.84544000  0.30814000  1.0
  H  H30  1  0.34537000  0.17214000  0.80191000  1.0
  H  H31  1  0.84538000  0.32783000  0.69810000  1.0
  H  H32  1  0.65464000  0.82786000  0.19809000  1.0
  H  H33  1  0.15464000  0.67214000  0.30191000  1.0
  H  H34  1  0.17925000  0.22400000  0.85075000  1.0
  H  H35  1  0.67925000  0.27603000  0.64925000  1.0
  H  H36  1  0.82075000  0.77600000  0.14925000  1.0
  H  H37  1  0.32075000  0.72400000  0.35075000  1.0
  C  C38  1  0.18835000  0.23091000  0.70772000  1.0
  C  C39  1  0.68833000  0.26908000  0.79228000  1.0
  C  C40  1  0.81166000  0.76909000  0.29228000  1.0
  C  C41  1  0.31166000  0.73091000  0.20772000  1.0
  C  C42  1  0.25685000  0.24428000  0.79721000  1.0
  C  C43  1  0.75684000  0.25571000  0.70280000  1.0
  C  C44  1  0.74315000  0.75572000  0.20279000  1.0
  C  C45  1  0.24316000  0.74428000  0.29721000  1.0
  C  C46  1  0.12066000  0.27756000  0.56856000  1.0
  C  C47  1  0.62066000  0.22243000  0.93144000  1.0
  C  C48  1  0.87934000  0.72244000  0.43144000  1.0
  C  C49  1  0.37934000  0.77756000  0.06856000  1.0
  N  N50  1  0.08088000  0.15302000  0.58684000  1.0
  N  N51  1  0.58088000  0.34698000  0.91316000  1.0
  N  N52  1  0.91912000  0.84698000  0.41316000  1.0
  N  N53  1  0.41912000  0.65302000  0.08684000  1.0
  N  N54  1  0.18602000  0.32977000  0.64419000  1.0
  N  N55  1  0.68602000  0.17023000  0.85581000  1.0
  N  N56  1  0.81398000  0.67024000  0.35581000  1.0
  N  N57  1  0.31398000  0.82976000  0.14419000  1.0
  N  N58  1  0.12414000  0.12454000  0.67357000  1.0
  N  N59  1  0.62412000  0.37545000  0.82643000  1.0
  N  N60  1  0.87587000  0.87546000  0.32643000  1.0
  N  N61  1  0.37587000  0.62454000  0.17357000  1.0
  N  N62  1  0.10107000  0.34813000  0.49451000  1.0
  N  N63  1  0.60107000  0.15187000  0.00549000  1.0
  N  N64  1  0.89893000  0.65188000  0.50548000  1.0
  N  N65  1  0.39893000  0.84813000  0.99451000  1.0
  N  N66  1  0.24807000  0.45527000  0.64266000  1.0
  N  N67  1  0.74807000  0.04473000  0.85734000  1.0
  N  N68  1  0.75193000  0.54473000  0.35734000  1.0
  N  N69  1  0.25193000  0.95527000  0.14266000  1.0
  Cl  Cl70  1  0.17237000  0.10330000  0.35115000  1.0
  Cl  Cl71  1  0.67237000  0.39670000  0.14885000  1.0
  Cl  Cl72  1  0.82763000  0.89670000  0.64885000  1.0
  Cl  Cl73  1  0.32763000  0.60330000  0.85115000  1.0
  Cl  Cl74  1  0.08105000  0.92425000  0.87810000  1.0
  Cl  Cl75  1  0.58105000  0.57575000  0.62190000  1.0
  Cl  Cl76  1  0.91895000  0.07575000  0.12190000  1.0
  Cl  Cl77  1  0.41895000  0.42425000  0.37810000  1.0
  Cl  Cl78  1  0.45510000  0.16038000  0.55907000  1.0
  Cl  Cl79  1  0.95510000  0.33962000  0.94093000  1.0
  Cl  Cl80  1  0.54490000  0.83962000  0.44093000  1.0
  Cl  Cl81  1  0.04490000  0.66038000  0.05906000  1.0
  Cl  Cl82  1  0.53397000  0.08017000  0.24595000  1.0
  Cl  Cl83  1  0.03397000  0.41983000  0.25405000  1.0
  Cl  Cl84  1  0.46603000  0.91983000  0.75405000  1.0
  Cl  Cl85  1  0.96603000  0.58017000  0.74595000  1.0
  Cl  Cl86  1  0.20628000  0.79954000  0.57988000  1.0
  Cl  Cl87  1  0.70627000  0.70046000  0.92012000  1.0
  Cl  Cl88  1  0.79373000  0.20046000  0.42012000  1.0
  Cl  Cl89  1  0.29372000  0.29954000  0.07988000  1.0
