# generated using pymatgen
data_TbH8C10NO9
_symmetry_space_group_name_H-M   'P 1'
_cell_length_a   9.45222000
_cell_length_b   11.04040000
_cell_length_c   13.38948199
_cell_angle_alpha   96.03923226
_cell_angle_beta   110.66518989
_cell_angle_gamma   115.33440000
_symmetry_Int_Tables_number   1
_chemical_formula_structural   TbH8C10NO9
_chemical_formula_sum   'Tb4 H32 C40 N4 O36'
_cell_volume   1126.09922366
_cell_formula_units_Z   4
loop_
 _symmetry_equiv_pos_site_id
 _symmetry_equiv_pos_as_xyz
  1  'x, y, z'
loop_
 _atom_site_type_symbol
 _atom_site_label
 _atom_site_symmetry_multiplicity
 _atom_site_fract_x
 _atom_site_fract_y
 _atom_site_fract_z
 _atom_site_occupancy
  Tb  Tb0  1  0.12060000  0.92547000  0.18727000  1.0
  Tb  Tb1  1  0.50787000  0.57454000  0.31272000  1.0
  Tb  Tb2  1  0.87941000  0.07453000  0.81273000  1.0
  Tb  Tb3  1  0.49213000  0.42546000  0.68728000  1.0
  H  H4  1  0.66744000  0.00558000  0.14938000  1.0
  H  H5  1  0.01253000  0.49440000  0.35058000  1.0
  H  H6  1  0.33255000  0.99442000  0.85061000  1.0
  H  H7  1  0.98748000  0.50560000  0.64943000  1.0
  H  H8  1  0.49087000  0.30342000  0.08377000  1.0
  H  H9  1  0.60392000  0.19662000  0.41625000  1.0
  H  H10  1  0.50913000  0.69658000  0.91623000  1.0
  H  H11  1  0.39607000  0.80338000  0.58374000  1.0
  H  H12  1  0.93971000  0.35002000  0.04200000  1.0
  H  H13  1  0.04793000  0.14998000  0.45802000  1.0
  H  H14  1  0.06029000  0.64998000  0.95800000  1.0
  H  H15  1  0.95207000  0.85001000  0.54198000  1.0
  H  H16  1  0.65586000  0.49588000  0.03424000  1.0
  H  H17  1  0.62594000  0.00424000  0.46580000  1.0
  H  H18  1  0.34414000  0.50412000  0.96576000  1.0
  H  H19  1  0.37406000  0.99576000  0.53420000  1.0
  H  H20  1  0.73655000  0.45144000  0.95170000  1.0
  H  H21  1  0.83349000  0.04852000  0.54833000  1.0
  H  H22  1  0.26345000  0.54857000  0.04830000  1.0
  H  H23  1  0.16651000  0.95148000  0.45167000  1.0
  H  H24  1  0.87235000  0.55416000  0.08436000  1.0
  H  H25  1  0.73394000  0.94582000  0.41565000  1.0
  H  H26  1  0.12765000  0.44584000  0.91564000  1.0
  H  H27  1  0.26606000  0.05418000  0.58435000  1.0
  H  H28  1  0.28955000  0.17859000  0.40482000  1.0
  H  H29  1  0.20626000  0.32144000  0.09522000  1.0
  H  H30  1  0.71045000  0.82141000  0.59518000  1.0
  H  H31  1  0.79374000  0.67857000  0.90478000  1.0
  H  H32  1  0.39697000  0.22144000  0.33887000  1.0
  H  H33  1  0.33668000  0.27847000  0.16115000  1.0
  H  H34  1  0.60304000  0.77856000  0.66114000  1.0
  H  H35  1  0.66332000  0.72153000  0.83885000  1.0
  C  C36  1  0.73638000  0.72228000  0.17411000  1.0
  C  C37  1  0.33989000  0.77775000  0.32588000  1.0
  C  C38  1  0.26362000  0.27772000  0.82589000  1.0
  C  C39  1  0.66011000  0.22225000  0.67412000  1.0
  C  C40  1  0.41892000  0.06939000  0.14921000  1.0
  C  C41  1  0.70024000  0.43048000  0.35074000  1.0
  C  C42  1  0.58108000  0.93060000  0.85079000  1.0
  C  C43  1  0.29976000  0.56952000  0.64926000  1.0
  C  C44  1  0.56674000  0.14768000  0.12212000  1.0
  C  C45  1  0.79702000  0.35230000  0.37783000  1.0
  C  C46  1  0.43326000  0.85232000  0.87788000  1.0
  C  C47  1  0.20298000  0.64770000  0.62217000  1.0
  C  C48  1  0.68413000  0.10072000  0.12622000  1.0
  C  C49  1  0.95724000  0.39927000  0.37374000  1.0
  C  C50  1  0.31587000  0.89928000  0.87378000  1.0
  C  C51  1  0.04276000  0.60073000  0.62626000  1.0
  C  C52  1  0.72290000  0.34204000  0.06619000  1.0
  C  C53  1  0.81490000  0.15797000  0.43386000  1.0
  C  C54  1  0.27710000  0.65796000  0.93380000  1.0
  C  C55  1  0.18510000  0.84203000  0.56614000  1.0
  C  C56  1  0.58443000  0.26834000  0.09019000  1.0
  C  C57  1  0.72612000  0.23167000  0.40982000  1.0
  C  C58  1  0.41558000  0.73166000  0.90981000  1.0
  C  C59  1  0.27388000  0.76833000  0.59018000  1.0
  C  C60  1  0.83773000  0.29512000  0.06714000  1.0
  C  C61  1  0.97568000  0.20489000  0.43289000  1.0
  C  C62  1  0.16226000  0.70487000  0.93285000  1.0
  C  C63  1  0.02432000  0.79511000  0.56711000  1.0
  C  C64  1  0.81685000  0.17245000  0.09558000  1.0
  C  C65  1  0.04893000  0.32756000  0.40443000  1.0
  C  C66  1  0.18315000  0.82755000  0.90442000  1.0
  C  C67  1  0.95107000  0.67244000  0.59557000  1.0
  C  C68  1  0.83977000  0.82410000  0.29430000  1.0
  C  C69  1  0.22139000  0.67592000  0.20567000  1.0
  C  C70  1  0.16024000  0.17590000  0.70570000  1.0
  C  C71  1  0.77861000  0.32408000  0.79433000  1.0
  C  C72  1  0.93114000  0.11637000  0.08339000  1.0
  C  C73  1  0.23150000  0.38368000  0.41667000  1.0
  C  C74  1  0.06886000  0.88363000  0.91661000  1.0
  C  C75  1  0.76850000  0.61632000  0.58333000  1.0
  N  N76  1  0.74690000  0.46853000  0.03356000  1.0
  N  N77  1  0.74498000  0.03150000  0.46647000  1.0
  N  N78  1  0.25310000  0.53147000  0.96644000  1.0
  N  N79  1  0.25502000  0.96850000  0.53353000  1.0
  O  O80  1  0.30585000  0.13628000  0.34455000  1.0
  O  O81  1  0.32509000  0.36367000  0.15548000  1.0
  O  O82  1  0.69415000  0.86372000  0.65545000  1.0
  O  O83  1  0.67491000  0.63633000  0.84452000  1.0
  O  O84  1  0.31581000  0.11792000  0.14537000  1.0
  O  O85  1  0.55255000  0.38200000  0.35470000  1.0
  O  O86  1  0.68419000  0.88208000  0.85463000  1.0
  O  O87  1  0.44745000  0.61800000  0.64530000  1.0
  O  O88  1  0.81579000  0.74398000  0.11323000  1.0
  O  O89  1  0.45854000  0.75613000  0.38677000  1.0
  O  O90  1  0.18422000  0.25601000  0.88678000  1.0
  O  O91  1  0.54146000  0.24388000  0.61323000  1.0
  O  O92  1  0.39160000  0.95607000  0.17387000  1.0
  O  O93  1  0.76147000  0.54377000  0.32601000  1.0
  O  O94  1  0.60840000  0.04393000  0.82613000  1.0
  O  O95  1  0.23853000  0.45623000  0.67399000  1.0
  O  O96  1  0.75654000  0.81405000  0.35223000  1.0
  O  O97  1  0.09030000  0.68593000  0.14767000  1.0
  O  O98  1  0.24346000  0.18595000  0.64777000  1.0
  O  O99  1  0.90970000  0.31407000  0.85233000  1.0
  O  O100  1  0.00067000  0.90883000  0.32556000  1.0
  O  O101  1  0.26652000  0.59130000  0.17446000  1.0
  O  O102  1  0.99934000  0.09117000  0.67445000  1.0
  O  O103  1  0.73348000  0.40870000  0.82554000  1.0
  O  O104  1  0.58362000  0.62446000  0.14762000  1.0
  O  O105  1  0.31135000  0.87554000  0.35236000  1.0
  O  O106  1  0.41637000  0.37553000  0.85238000  1.0
  O  O107  1  0.68865000  0.12446000  0.64764000  1.0
  O  O108  1  0.98708000  0.14745000  0.00992000  1.0
  O  O109  1  0.32979000  0.35254000  0.49012000  1.0
  O  O110  1  0.01292000  0.85254000  0.99008000  1.0
  O  O111  1  0.67021000  0.64746000  0.50988000  1.0
  O  O112  1  0.96428000  0.04409000  0.14518000  1.0
  O  O113  1  0.27521000  0.45604000  0.35495000  1.0
  O  O114  1  0.03572000  0.95592000  0.85482000  1.0
  O  O115  1  0.72479000  0.54397000  0.64505000  1.0
