# generated using pymatgen
data_MnH12(C11O4)2
_symmetry_space_group_name_H-M   'P 1'
_cell_length_a   4.68464000
_cell_length_b   9.72428000
_cell_length_c   9.87455000
_cell_angle_alpha   75.33530000
_cell_angle_beta   80.78960000
_cell_angle_gamma   79.96200000
_symmetry_Int_Tables_number   1
_chemical_formula_structural   MnH12(C11O4)2
_chemical_formula_sum   'Mn1 H12 C22 O8'
_cell_volume   425.33208337
_cell_formula_units_Z   1
loop_
 _symmetry_equiv_pos_site_id
 _symmetry_equiv_pos_as_xyz
  1  'x, y, z'
loop_
 _atom_site_type_symbol
 _atom_site_label
 _atom_site_symmetry_multiplicity
 _atom_site_fract_x
 _atom_site_fract_y
 _atom_site_fract_z
 _atom_site_occupancy
  Mn  Mn0  1  0.00000000  0.00000000  0.50000000  1.0
  H  H1  1  0.52054000  0.76642000  0.49185000  1.0
  H  H2  1  0.47946000  0.23358000  0.50815000  1.0
  H  H3  1  0.68083000  0.80507000  0.87520000  1.0
  H  H4  1  0.31917000  0.19492000  0.12481000  1.0
  H  H5  1  0.92700000  0.17788000  0.75355000  1.0
  H  H6  1  0.07299000  0.82212000  0.24645000  1.0
  H  H7  1  0.70293000  0.40984000  0.61963000  1.0
  H  H8  1  0.29706000  0.59016000  0.38037000  1.0
  H  H9  1  0.18155000  0.63298000  0.81213000  1.0
  H  H10  1  0.81845000  0.36702000  0.18786000  1.0
  H  H11  1  0.41488000  0.39895000  0.94607000  1.0
  H  H12  1  0.58513000  0.60105000  0.05393000  1.0
  C  C13  1  0.42346000  0.03280000  0.70702000  1.0
  C  C14  1  0.57655000  0.96720000  0.29298000  1.0
  C  C15  1  0.59605000  0.88925000  0.93186000  1.0
  C  C16  1  0.40394000  0.11075000  0.06814000  1.0
  C  C17  1  0.45067000  0.01803000  0.86001000  1.0
  C  C18  1  0.54933000  0.98197000  0.13999000  1.0
  C  C19  1  0.35026000  0.13212000  0.92811000  1.0
  C  C20  1  0.64975000  0.86787000  0.07188000  1.0
  C  C21  1  0.19609000  0.27082000  0.85633000  1.0
  C  C22  1  0.80392000  0.72918000  0.14367000  1.0
  C  C23  1  0.98981000  0.27631000  0.76546000  1.0
  C  C24  1  0.01019000  0.72369000  0.23454000  1.0
  C  C25  1  0.85974000  0.40695000  0.69088000  1.0
  C  C26  1  0.14026000  0.59305000  0.30913000  1.0
  C  C27  1  0.93185000  0.53600000  0.70564000  1.0
  C  C28  1  0.06815000  0.46400000  0.29436000  1.0
  C  C29  1  0.12785000  0.53214000  0.80067000  1.0
  C  C30  1  0.87215000  0.46786000  0.19933000  1.0
  C  C31  1  0.25611000  0.40116000  0.87575000  1.0
  C  C32  1  0.74388000  0.59884000  0.12424000  1.0
  C  C33  1  0.80829000  0.67485000  0.62019000  1.0
  C  C34  1  0.19171000  0.32515000  0.37981000  1.0
  O  O35  1  0.61107000  0.10056000  0.61552000  1.0
  O  O36  1  0.38893000  0.89944000  0.38448000  1.0
  O  O37  1  0.22489000  0.97716000  0.67781000  1.0
  O  O38  1  0.77511000  0.02284000  0.32219000  1.0
  O  O39  1  0.59434000  0.66763000  0.55113000  1.0
  O  O40  1  0.40567000  0.33238000  0.44886000  1.0
  O  O41  1  0.90104000  0.78930000  0.61489000  1.0
  O  O42  1  0.09896000  0.21070000  0.38511000  1.0
