# generated using pymatgen
data_Cd3H28C46(S3N7)2
_symmetry_space_group_name_H-M   'P 1'
_cell_length_a   8.97257000
_cell_length_b   11.32380000
_cell_length_c   14.18150000
_cell_angle_alpha   77.03670000
_cell_angle_beta   81.30150000
_cell_angle_gamma   68.65680000
_symmetry_Int_Tables_number   1
_chemical_formula_structural   Cd3H28C46(S3N7)2
_chemical_formula_sum   'Cd3 H28 C46 S6 N14'
_cell_volume   1304.01715235
_cell_formula_units_Z   1
loop_
 _symmetry_equiv_pos_site_id
 _symmetry_equiv_pos_as_xyz
  1  'x, y, z'
loop_
 _atom_site_type_symbol
 _atom_site_label
 _atom_site_symmetry_multiplicity
 _atom_site_fract_x
 _atom_site_fract_y
 _atom_site_fract_z
 _atom_site_occupancy
  Cd  Cd0  1  0.78382000  0.35798000  0.26572000  1.0
  Cd  Cd1  1  0.21618000  0.64203000  0.73427000  1.0
  Cd  Cd2  1  0.00000000  0.00000000  0.00001000  1.0
  H  H3  1  0.83612000  0.70816000  0.80293000  1.0
  H  H4  1  0.16387000  0.29186000  0.19708000  1.0
  H  H5  1  0.56394000  0.80656000  0.73476000  1.0
  H  H6  1  0.43606000  0.19344000  0.26523000  1.0
  H  H7  1  0.54975000  0.90448000  0.55914000  1.0
  H  H8  1  0.45025000  0.09554000  0.44085000  1.0
  H  H9  1  0.80207000  0.90073000  0.45637000  1.0
  H  H10  1  0.19794000  0.09927000  0.54363000  1.0
  H  H11  1  0.01664000  0.90691000  0.38348000  1.0
  H  H12  1  0.98336000  0.09309000  0.61652000  1.0
  H  H13  1  0.53067000  0.72836000  0.38496000  1.0
  H  H14  1  0.46934000  0.27161000  0.61503000  1.0
  H  H15  1  0.71210000  0.58444000  0.45993000  1.0
  H  H16  1  0.28790000  0.41552000  0.54007000  1.0
  H  H17  1  0.93087000  0.44906000  0.56891000  1.0
  H  H18  1  0.06913000  0.55090000  0.43110000  1.0
  H  H19  1  0.86232000  0.40103000  0.74770000  1.0
  H  H20  1  0.13767000  0.59895000  0.25230000  1.0
  H  H21  1  0.57420000  0.48573000  0.81057000  1.0
  H  H22  1  0.42580000  0.51427000  0.18942000  1.0
  H  H23  1  0.52094000  0.90729000  0.27890000  1.0
  H  H24  1  0.47908000  0.09271000  0.72109000  1.0
  H  H25  1  0.52951000  0.02883000  0.11079000  1.0
  H  H26  1  0.47048000  0.97119000  0.88920000  1.0
  H  H27  1  0.30091000  0.07373000  0.00769000  1.0
  H  H28  1  0.69907000  0.92628000  0.99231000  1.0
  H  H29  1  0.07475000  0.87537000  0.22678000  1.0
  H  H30  1  0.92526000  0.12463000  0.77323000  1.0
  C  C31  1  0.82319000  0.75003000  0.72603000  1.0
  C  C32  1  0.17682000  0.24997000  0.27397000  1.0
  C  C33  1  0.67296000  0.80538000  0.68862000  1.0
  C  C34  1  0.32704000  0.19463000  0.31138000  1.0
  C  C35  1  0.66563000  0.86025000  0.59045000  1.0
  C  C36  1  0.33437000  0.13976000  0.40954000  1.0
  C  C37  1  0.80696000  0.85744000  0.53302000  1.0
  C  C38  1  0.19305000  0.14256000  0.46697000  1.0
  C  C39  1  0.95386000  0.79672000  0.57515000  1.0
  C  C40  1  0.04614000  0.20329000  0.42485000  1.0
  C  C41  1  0.11056000  0.78272000  0.51741000  1.0
  C  C42  1  0.88945000  0.21728000  0.48259000  1.0
  C  C43  1  0.12299000  0.84238000  0.42028000  1.0
  C  C44  1  0.87702000  0.15761000  0.57972000  1.0
  C  C45  1  0.27551000  0.82256000  0.37090000  1.0
  C  C46  1  0.72451000  0.17743000  0.62910000  1.0
  C  C47  1  0.41096000  0.74429000  0.42138000  1.0
  C  C48  1  0.58906000  0.25570000  0.57861000  1.0
  C  C49  1  0.38978000  0.68878000  0.51880000  1.0
  C  C50  1  0.61022000  0.31122000  0.48119000  1.0
  C  C51  1  0.52650000  0.60720000  0.57879000  1.0
  C  C52  1  0.47351000  0.39278000  0.42121000  1.0
  C  C53  1  0.68464000  0.56217000  0.53791000  1.0
  C  C54  1  0.31537000  0.43780000  0.46209000  1.0
  C  C55  1  0.80695000  0.48732000  0.59844000  1.0
  C  C56  1  0.19306000  0.51265000  0.40156000  1.0
  C  C57  1  0.76990000  0.45918000  0.69812000  1.0
  C  C58  1  0.23010000  0.54081000  0.30188000  1.0
  C  C59  1  0.60979000  0.50616000  0.73322000  1.0
  C  C60  1  0.39021000  0.49384000  0.26678000  1.0
  C  C61  1  0.29255000  0.88616000  0.26906000  1.0
  C  C62  1  0.70745000  0.11384000  0.73094000  1.0
  C  C63  1  0.42402000  0.92661000  0.23321000  1.0
  C  C64  1  0.57598000  0.07339000  0.76679000  1.0
  C  C65  1  0.42987000  0.99415000  0.13858000  1.0
  C  C66  1  0.57011000  0.00587000  0.86141000  1.0
  C  C67  1  0.30522000  0.01836000  0.08142000  1.0
  C  C68  1  0.69477000  0.98165000  0.91858000  1.0
  C  C69  1  0.17550000  0.91064000  0.20489000  1.0
  C  C70  1  0.82450000  0.08937000  0.79512000  1.0
  C  C71  1  0.80552000  0.64521000  0.28282000  1.0
  C  C72  1  0.19447000  0.35480000  0.71718000  1.0
  C  C73  1  0.89245000  0.30597000  0.03921000  1.0
  C  C74  1  0.10754000  0.69404000  0.96080000  1.0
  C  C75  1  0.77436000  0.07103000  0.19482000  1.0
  C  C76  1  0.22564000  0.92897000  0.80518000  1.0
  S  S77  1  0.82667000  0.76772000  0.31288000  1.0
  S  S78  1  0.17332000  0.23229000  0.68712000  1.0
  S  S79  1  0.02154000  0.74373000  0.06137000  1.0
  S  S80  1  0.97845000  0.25628000  0.93864000  1.0
  S  S81  1  0.75909000  0.09943000  0.30402000  1.0
  S  S82  1  0.24093000  0.90058000  0.69599000  1.0
  N  N83  1  0.95931000  0.74531000  0.67080000  1.0
  N  N84  1  0.04069000  0.25470000  0.32919000  1.0
  N  N85  1  0.24232000  0.70833000  0.56375000  1.0
  N  N86  1  0.75769000  0.29168000  0.43624000  1.0
  N  N87  1  0.49154000  0.57793000  0.67538000  1.0
  N  N88  1  0.50846000  0.42208000  0.32462000  1.0
  N  N89  1  0.18236000  0.97480000  0.11362000  1.0
  N  N90  1  0.81764000  0.02522000  0.88639000  1.0
  N  N91  1  0.78587000  0.55664000  0.26165000  1.0
  N  N92  1  0.21413000  0.44338000  0.73836000  1.0
  N  N93  1  0.83014000  0.34429000  0.11143000  1.0
  N  N94  1  0.16985000  0.65573000  0.88856000  1.0
  N  N95  1  0.78438000  0.05015000  0.11535000  1.0
  N  N96  1  0.21561000  0.94987000  0.88466000  1.0
