# generated using pymatgen
data_ZnH12C10(NO)4
_symmetry_space_group_name_H-M   'P 1'
_cell_length_a   7.79630000
_cell_length_b   12.84690000
_cell_length_c   13.14500000
_cell_angle_alpha   90.00000000
_cell_angle_beta   90.00000000
_cell_angle_gamma   90.00000000
_symmetry_Int_Tables_number   1
_chemical_formula_structural   ZnH12C10(NO)4
_chemical_formula_sum   'Zn4 H48 C40 N16 O16'
_cell_volume   1316.58067565
_cell_formula_units_Z   4
loop_
 _symmetry_equiv_pos_site_id
 _symmetry_equiv_pos_as_xyz
  1  'x, y, z'
loop_
 _atom_site_type_symbol
 _atom_site_label
 _atom_site_symmetry_multiplicity
 _atom_site_fract_x
 _atom_site_fract_y
 _atom_site_fract_z
 _atom_site_occupancy
  Zn  Zn0  1  0.97389000  0.08314000  0.21180000  1.0
  Zn  Zn1  1  0.52611000  0.91686000  0.71180000  1.0
  Zn  Zn2  1  0.47389000  0.41686000  0.78820000  1.0
  Zn  Zn3  1  0.02611000  0.58314000  0.28820000  1.0
  H  H4  1  0.60028000  0.97540000  0.20108000  1.0
  H  H5  1  0.89972000  0.02460000  0.70108000  1.0
  H  H6  1  0.10028000  0.52460000  0.79892000  1.0
  H  H7  1  0.39972000  0.47540000  0.29892000  1.0
  H  H8  1  0.61351000  0.22640000  0.44112000  1.0
  H  H9  1  0.88649000  0.77360000  0.94112000  1.0
  H  H10  1  0.11351000  0.27360000  0.55888000  1.0
  H  H11  1  0.38649000  0.72640000  0.05888000  1.0
  H  H12  1  0.80195000  0.29763000  0.46781000  1.0
  H  H13  1  0.69806000  0.70237000  0.96780000  1.0
  H  H14  1  0.30194000  0.20237000  0.53220000  1.0
  H  H15  1  0.19805000  0.79763000  0.03220000  1.0
  H  H16  1  0.04866000  0.44078000  0.05788000  1.0
  H  H17  1  0.45134000  0.55922000  0.55788000  1.0
  H  H18  1  0.54866000  0.05922000  0.94212000  1.0
  H  H19  1  0.95134000  0.94078000  0.44212000  1.0
  H  H20  1  0.85557000  0.18574000  0.62291000  1.0
  H  H21  1  0.64443000  0.81426000  0.12291000  1.0
  H  H22  1  0.35557000  0.31426000  0.37709000  1.0
  H  H23  1  0.14443000  0.68574000  0.87709000  1.0
  H  H24  1  0.65822000  0.25216000  0.62987000  1.0
  H  H25  1  0.84179000  0.74783000  0.12987000  1.0
  H  H26  1  0.15822000  0.24783000  0.37014000  1.0
  H  H27  1  0.34178000  0.75217000  0.87014000  1.0
  H  H28  1  0.56177000  0.02234000  0.38651000  1.0
  H  H29  1  0.93823000  0.97766000  0.88651000  1.0
  H  H30  1  0.06177000  0.47766000  0.61349000  1.0
  H  H31  1  0.43823000  0.52234000  0.11349000  1.0
  H  H32  1  0.30636000  0.98405000  0.10424000  1.0
  H  H33  1  0.19364000  0.01594000  0.60424000  1.0
  H  H34  1  0.80636000  0.51595000  0.89576000  1.0
  H  H35  1  0.69364000  0.48405000  0.39576000  1.0
  H  H36  1  0.21627000  0.06901000  0.40974000  1.0
  H  H37  1  0.28373000  0.93099000  0.90974000  1.0
  H  H38  1  0.71627000  0.43099000  0.59026000  1.0
  H  H39  1  0.78373000  0.56901000  0.09026000  1.0
  H  H40  1  0.94850000  0.32953000  0.20925000  1.0
  H  H41  1  0.55151000  0.67047000  0.70925000  1.0
  H  H42  1  0.44850000  0.17047000  0.79075000  1.0
  H  H43  1  0.05150000  0.82953000  0.29075000  1.0
  H  H44  1  0.12477000  0.32544000  0.90458000  1.0
  H  H45  1  0.37524000  0.67456000  0.40458000  1.0
  H  H46  1  0.62476000  0.17456000  0.09542000  1.0
  H  H47  1  0.87524000  0.82544000  0.59542000  1.0
  H  H48  1  0.07700000  0.12191000  0.97239000  1.0
  H  H49  1  0.42300000  0.87809000  0.47239000  1.0
  H  H50  1  0.57700000  0.37809000  0.02761000  1.0
  H  H51  1  0.92300000  0.62191000  0.52761000  1.0
  C  C52  1  0.74106000  0.22076000  0.47637000  1.0
  C  C53  1  0.75894000  0.77924000  0.97637000  1.0
  C  C54  1  0.24106000  0.27924000  0.52363000  1.0
  C  C55  1  0.25894000  0.72076000  0.02363000  1.0
  C  C56  1  0.63004000  0.09094000  0.60698000  1.0
  C  C57  1  0.86996000  0.90906000  0.10698000  1.0
  C  C58  1  0.13004000  0.40906000  0.39302000  1.0
  C  C59  1  0.36996000  0.59094000  0.89302000  1.0
  C  C60  1  0.72793000  0.19104000  0.58814000  1.0
  C  C61  1  0.77207000  0.80896000  0.08814000  1.0
  C  C62  1  0.22793000  0.30896000  0.41186000  1.0
  C  C63  1  0.27207000  0.69104000  0.91185000  1.0
  C  C64  1  0.84580000  0.14443000  0.41368000  1.0
  C  C65  1  0.65421000  0.85557000  0.91368000  1.0
  C  C66  1  0.34579000  0.35557000  0.58632000  1.0
  C  C67  1  0.15420000  0.64443000  0.08632000  1.0
  C  C68  1  0.45804000  0.02166000  0.33196000  1.0
  C  C69  1  0.04196000  0.97834000  0.83196000  1.0
  C  C70  1  0.95804000  0.47834000  0.66804000  1.0
  C  C71  1  0.54196000  0.52166000  0.16804000  1.0
  C  C72  1  0.32800000  0.00163000  0.18377000  1.0
  C  C73  1  0.17200000  0.99836000  0.68378000  1.0
  C  C74  1  0.82800000  0.49837000  0.81622000  1.0
  C  C75  1  0.67200000  0.50163000  0.31622000  1.0
  C  C76  1  0.28737000  0.04494000  0.34304000  1.0
  C  C77  1  0.21262000  0.95506000  0.84304000  1.0
  C  C78  1  0.78737000  0.45506000  0.65696000  1.0
  C  C79  1  0.71262000  0.54494000  0.15696000  1.0
  C  C80  1  0.99033000  0.29986000  0.13620000  1.0
  C  C81  1  0.50967000  0.70014000  0.63620000  1.0
  C  C82  1  0.49033000  0.20014000  0.86381000  1.0
  C  C83  1  0.00967000  0.79986000  0.36381000  1.0
  C  C84  1  0.08089000  0.29541000  0.97699000  1.0
  C  C85  1  0.41912000  0.70459000  0.47699000  1.0
  C  C86  1  0.58088000  0.20460000  0.02301000  1.0
  C  C87  1  0.91911000  0.79540000  0.52301000  1.0
  C  C88  1  0.05753000  0.19531000  0.01119000  1.0
  C  C89  1  0.44247000  0.80469000  0.51119000  1.0
  C  C90  1  0.55753000  0.30469000  0.98881000  1.0
  C  C91  1  0.94246000  0.69531000  0.48881000  1.0
  N  N92  1  0.20722000  0.03220000  0.24985000  1.0
  N  N93  1  0.29278000  0.96780000  0.74985000  1.0
  N  N94  1  0.70722000  0.46780000  0.75015000  1.0
  N  N95  1  0.79278000  0.53220000  0.25015000  1.0
  N  N96  1  0.48043000  0.99445000  0.23160000  1.0
  N  N97  1  0.01957000  0.00555000  0.73160000  1.0
  N  N98  1  0.98043000  0.50555000  0.76840000  1.0
  N  N99  1  0.51957000  0.49445000  0.26840000  1.0
  N  N100  1  0.00075000  0.19918000  0.11082000  1.0
  N  N101  1  0.49925000  0.80082000  0.61082000  1.0
  N  N102  1  0.50075000  0.30082000  0.88918000  1.0
  N  N103  1  0.99925000  0.69918000  0.38918000  1.0
  N  N104  1  0.03802000  0.35977000  0.05691000  1.0
  N  N105  1  0.46198000  0.64023000  0.55691000  1.0
  N  N106  1  0.53802000  0.14023000  0.94310000  1.0
  N  N107  1  0.96198000  0.85977000  0.44310000  1.0
  O  O108  1  0.68818000  0.03228000  0.68101000  1.0
  O  O109  1  0.81182000  0.96772000  0.18101000  1.0
  O  O110  1  0.18818000  0.46772000  0.31899000  1.0
  O  O111  1  0.31182000  0.53228000  0.81899000  1.0
  O  O112  1  0.49834000  0.06837000  0.55801000  1.0
  O  O113  1  0.00166000  0.93163000  0.05801000  1.0
  O  O114  1  0.99834000  0.43162000  0.44199000  1.0
  O  O115  1  0.50166000  0.56837000  0.94199000  1.0
  O  O116  1  0.85377000  0.16540000  0.31792000  1.0
  O  O117  1  0.64624000  0.83460000  0.81792000  1.0
  O  O118  1  0.35377000  0.33460000  0.68208000  1.0
  O  O119  1  0.14623000  0.66540000  0.18208000  1.0
  O  O120  1  0.91801000  0.06842000  0.45668000  1.0
  O  O121  1  0.58198000  0.93158000  0.95668000  1.0
  O  O122  1  0.41802000  0.43158000  0.54332000  1.0
  O  O123  1  0.08198000  0.56842000  0.04332000  1.0
