# generated using pymatgen
data_CuH20C26S8(NO)14
_symmetry_space_group_name_H-M   'P 1'
_cell_length_a   8.57214000
_cell_length_b   11.39730000
_cell_length_c   11.68830000
_cell_angle_alpha   66.70850000
_cell_angle_beta   71.49210000
_cell_angle_gamma   75.15270000
_symmetry_Int_Tables_number   1
_chemical_formula_structural   CuH20C26S8(NO)14
_chemical_formula_sum   'Cu1 H20 C26 S8 N14 O14'
_cell_volume   983.36143310
_cell_formula_units_Z   1
loop_
 _symmetry_equiv_pos_site_id
 _symmetry_equiv_pos_as_xyz
  1  'x, y, z'
loop_
 _atom_site_type_symbol
 _atom_site_label
 _atom_site_symmetry_multiplicity
 _atom_site_fract_x
 _atom_site_fract_y
 _atom_site_fract_z
 _atom_site_occupancy
  Cu  Cu0  1  0.50000000  0.00000000  0.50000000  1.0
  H  H1  1  0.13330000  0.14019000  0.48167000  1.0
  H  H2  1  0.86669000  0.85981000  0.51833000  1.0
  H  H3  1  0.20560000  0.65442000  0.89547000  1.0
  H  H4  1  0.79440000  0.34559000  0.10453000  1.0
  H  H5  1  0.27135000  0.73285000  0.97419000  1.0
  H  H6  1  0.72865000  0.26716000  0.02581000  1.0
  H  H7  1  0.00248000  0.55337000  0.10412000  1.0
  H  H8  1  0.99752000  0.44663000  0.89588000  1.0
  H  H9  1  0.06267000  0.63622000  0.17950000  1.0
  H  H10  1  0.93733000  0.36378000  0.82050000  1.0
  H  H11  1  0.50395000  0.90399000  0.29378000  1.0
  H  H12  1  0.49605000  0.09601000  0.70622000  1.0
  H  H13  1  0.19712000  0.41735000  0.24537000  1.0
  H  H14  1  0.80288000  0.58265000  0.75463000  1.0
  H  H15  1  0.35605000  0.51298000  0.13951000  1.0
  H  H16  1  0.64395000  0.48702000  0.86049000  1.0
  H  H17  1  0.73935000  0.54929000  0.25118000  1.0
  H  H18  1  0.26065000  0.45071000  0.74883000  1.0
  H  H19  1  0.20233000  0.60928000  0.35818000  1.0
  H  H20  1  0.79768000  0.39072000  0.64182000  1.0
  C  C21  1  0.13274000  0.06448000  0.57450000  1.0
  C  C22  1  0.86726000  0.93552000  0.42550000  1.0
  C  C23  1  0.07983000  0.91398000  0.78838000  1.0
  C  C24  1  0.92017000  0.08601000  0.21162000  1.0
  C  C25  1  0.16770000  0.69254000  0.97467000  1.0
  C  C26  1  0.83230000  0.30746000  0.02533000  1.0
  C  C27  1  0.10792000  0.59127000  0.10475000  1.0
  C  C28  1  0.89208000  0.40873000  0.89525000  1.0
  C  C29  1  0.45678000  0.00651000  0.26035000  1.0
  C  C30  1  0.54322000  0.99349000  0.73965000  1.0
  C  C31  1  0.36312000  0.22869000  0.15665000  1.0
  C  C32  1  0.63688000  0.77131000  0.84335000  1.0
  C  C33  1  0.24352000  0.47894000  0.14630000  1.0
  C  C34  1  0.75648000  0.52106000  0.85370000  1.0
  C  C35  1  0.47492000  0.32476000  0.45804000  1.0
  C  C36  1  0.52508000  0.67524000  0.54196000  1.0
  C  C37  1  0.62555000  0.38265000  0.38265000  1.0
  C  C38  1  0.37445000  0.61735000  0.61735000  1.0
  C  C39  1  0.62361000  0.51053000  0.30428000  1.0
  C  C40  1  0.37639000  0.48947000  0.69572000  1.0
  C  C41  1  0.47172000  0.59116000  0.29489000  1.0
  C  C42  1  0.52828000  0.40884000  0.70512000  1.0
  C  C43  1  0.31996000  0.54494000  0.36480000  1.0
  C  C44  1  0.68004000  0.45506000  0.63520000  1.0
  C  C45  1  0.32385000  0.41845000  0.44455000  1.0
  C  C46  1  0.67615000  0.58155000  0.55545000  1.0
  S  S47  1  0.95649000  0.03662000  0.69474000  1.0
  S  S48  1  0.04351000  0.96338000  0.30526000  1.0
  S  S49  1  0.99482000  0.82292000  0.94441000  1.0
  S  S50  1  0.00518000  0.17708000  0.05559000  1.0
  S  S51  1  0.42476000  0.09156000  0.11110000  1.0
  S  S52  1  0.57524000  0.90844000  0.88890000  1.0
  S  S53  1  0.30144000  0.37649000  0.04840000  1.0
  S  S54  1  0.69856000  0.62351000  0.95160000  1.0
  N  N55  1  0.26607000  0.98681000  0.60664000  1.0
  N  N56  1  0.73393000  0.01319000  0.39336000  1.0
  N  N57  1  0.23842000  0.89914000  0.72826000  1.0
  N  N58  1  0.76158000  0.10086000  0.27174000  1.0
  N  N59  1  0.42300000  0.07728000  0.33290000  1.0
  N  N60  1  0.57700000  0.92272000  0.66709000  1.0
  N  N61  1  0.36930000  0.20510000  0.27547000  1.0
  N  N62  1  0.63070000  0.79490000  0.72453000  1.0
  N  N63  1  0.78694000  0.30426000  0.38891000  1.0
  N  N64  1  0.21305000  0.69574000  0.61109000  1.0
  N  N65  1  0.47094000  0.72219000  0.20972000  1.0
  N  N66  1  0.52906000  0.27781000  0.79028000  1.0
  N  N67  1  0.16657000  0.37161000  0.51890000  1.0
  N  N68  1  0.83343000  0.62839000  0.48111000  1.0
  O  O69  1  0.79937000  0.21486000  0.49152000  1.0
  O  O70  1  0.20063000  0.78514000  0.50847000  1.0
  O  O71  1  0.90511000  0.33073000  0.29210000  1.0
  O  O72  1  0.09489000  0.66927000  0.70790000  1.0
  O  O73  1  0.60609000  0.76639000  0.16050000  1.0
  O  O74  1  0.39391000  0.23361000  0.83950000  1.0
  O  O75  1  0.33574000  0.78683000  0.18598000  1.0
  O  O76  1  0.66426000  0.21317000  0.81402000  1.0
  O  O77  1  0.05866000  0.39048000  0.46039000  1.0
  O  O78  1  0.94135000  0.60951000  0.53961000  1.0
  O  O79  1  0.14955000  0.31428000  0.63596000  1.0
  O  O80  1  0.85045000  0.68572000  0.36404000  1.0
  O  O81  1  0.47113000  0.20754000  0.52304000  1.0
  O  O82  1  0.52888000  0.79246000  0.47696000  1.0
