# generated using pymatgen
data_V8Co2H32C48N8O23
_symmetry_space_group_name_H-M   'P 1'
_cell_length_a   8.87313000
_cell_length_b   11.89970000
_cell_length_c   13.06000000
_cell_angle_alpha   97.08000000
_cell_angle_beta   96.33760000
_cell_angle_gamma   102.95200000
_symmetry_Int_Tables_number   1
_chemical_formula_structural   V8Co2H32C48N8O23
_chemical_formula_sum   'V8 Co2 H32 C48 N8 O23'
_cell_volume   1319.99395173
_cell_formula_units_Z   1
loop_
 _symmetry_equiv_pos_site_id
 _symmetry_equiv_pos_as_xyz
  1  'x, y, z'
loop_
 _atom_site_type_symbol
 _atom_site_label
 _atom_site_symmetry_multiplicity
 _atom_site_fract_x
 _atom_site_fract_y
 _atom_site_fract_z
 _atom_site_occupancy
  V  V0  1  0.38337000  0.59871000  0.86796000  1.0
  V  V1  1  0.61662000  0.40129000  0.13205000  1.0
  V  V2  1  0.53399000  0.66838000  0.13064000  1.0
  V  V3  1  0.46601000  0.33162000  0.86936000  1.0
  V  V4  1  0.39024000  0.85165000  0.48959000  1.0
  V  V5  1  0.60976000  0.14835000  0.51041000  1.0
  V  V6  1  0.58104000  0.70720000  0.66960000  1.0
  V  V7  1  0.41896000  0.29280000  0.33040000  1.0
  Co  Co8  1  0.23262000  0.74689000  0.23927000  1.0
  Co  Co9  1  0.76738000  0.25311000  0.76073000  1.0
  H  H10  1  0.95138000  0.54828000  0.11943000  1.0
  H  H11  1  0.04862000  0.45172000  0.88057000  1.0
  H  H12  1  0.77656000  0.53660000  0.95579000  1.0
  H  H13  1  0.22343000  0.46340000  0.04421000  1.0
  H  H14  1  0.81673000  0.70545000  0.85288000  1.0
  H  H15  1  0.18327000  0.29455000  0.14712000  1.0
  H  H16  1  0.46097000  0.15191000  0.04549000  1.0
  H  H17  1  0.53903000  0.84809000  0.95451000  1.0
  H  H18  1  0.61757000  0.12543000  0.20865000  1.0
  H  H19  1  0.38243000  0.87457000  0.79135000  1.0
  H  H20  1  0.52314000  0.95003000  0.29493000  1.0
  H  H21  1  0.47686000  0.04997000  0.70507000  1.0
  H  H22  1  0.17858000  0.99985000  0.28268000  1.0
  H  H23  1  0.82142000  0.00015000  0.71732000  1.0
  H  H24  1  0.97202000  0.07253000  0.36329000  1.0
  H  H25  1  0.02798000  0.92747000  0.63671000  1.0
  H  H26  1  0.75939000  0.93526000  0.42598000  1.0
  H  H27  1  0.24061000  0.06474000  0.57402000  1.0
  H  H28  1  0.84650000  0.36995000  0.40331000  1.0
  H  H29  1  0.15351000  0.63005000  0.59670000  1.0
  H  H30  1  0.08840000  0.33752000  0.33240000  1.0
  H  H31  1  0.91160000  0.66248000  0.66760000  1.0
  H  H32  1  0.25883000  0.49891000  0.26315000  1.0
  H  H33  1  0.74117000  0.50110000  0.73685000  1.0
  H  H34  1  0.67388000  0.52005000  0.44546000  1.0
  H  H35  1  0.32612000  0.47995000  0.55454000  1.0
  H  H36  1  0.64225000  0.71879000  0.44989000  1.0
  H  H37  1  0.35775000  0.28121000  0.55011000  1.0
  H  H38  1  0.22218000  0.06471000  0.90153000  1.0
  H  H39  1  0.77782000  0.93529000  0.09847000  1.0
  H  H40  1  0.98806000  0.90104000  0.83320000  1.0
  H  H41  1  0.01194000  0.09896000  0.16680000  1.0
  C  C42  1  0.97005000  0.62012000  0.07452000  1.0
  C  C43  1  0.02995000  0.37988000  0.92548000  1.0
  C  C44  1  0.87046000  0.61481000  0.98159000  1.0
  C  C45  1  0.12953000  0.38519000  0.01841000  1.0
  C  C46  1  0.89298000  0.70602000  0.92448000  1.0
  C  C47  1  0.10702000  0.29398000  0.07552000  1.0
  C  C48  1  0.02042000  0.80316000  0.95930000  1.0
  C  C49  1  0.97958000  0.19684000  0.04070000  1.0
  C  C50  1  0.11480000  0.80148000  0.05305000  1.0
  C  C51  1  0.88519000  0.19852000  0.94695000  1.0
  C  C52  1  0.24685000  0.89412000  0.09257000  1.0
  C  C53  1  0.75315000  0.10588000  0.90743000  1.0
  C  C54  1  0.28764000  0.98993000  0.03885000  1.0
  C  C55  1  0.71236000  0.01007000  0.96115000  1.0
  C  C56  1  0.42464000  0.07552000  0.08317000  1.0
  C  C57  1  0.57536000  0.92448000  0.91683000  1.0
  C  C58  1  0.51098000  0.06109000  0.17359000  1.0
  C  C59  1  0.48902000  0.93891000  0.82641000  1.0
  C  C60  1  0.46062000  0.96359000  0.22282000  1.0
  C  C61  1  0.53938000  0.03641000  0.77718000  1.0
  C  C62  1  0.08573000  0.93896000  0.30961000  1.0
  C  C63  1  0.91427000  0.06104000  0.69038000  1.0
  C  C64  1  0.96795000  0.97966000  0.35525000  1.0
  C  C65  1  0.03205000  0.02034000  0.64475000  1.0
  C  C66  1  0.85037000  0.90313000  0.39057000  1.0
  C  C67  1  0.14963000  0.09687000  0.60942000  1.0
  C  C68  1  0.85239000  0.78415000  0.38292000  1.0
  C  C69  1  0.14761000  0.21585000  0.61708000  1.0
  C  C70  1  0.97626000  0.75082000  0.33786000  1.0
  C  C71  1  0.02374000  0.24919000  0.66214000  1.0
  C  C72  1  0.99407000  0.63524000  0.33410000  1.0
  C  C73  1  0.00593000  0.36477000  0.66590000  1.0
  C  C74  1  0.88922000  0.55033000  0.37498000  1.0
  C  C75  1  0.11078000  0.44967000  0.62502000  1.0
  C  C76  1  0.92323000  0.43942000  0.37296000  1.0
  C  C77  1  0.07677000  0.56058000  0.62704000  1.0
  C  C78  1  0.05544000  0.42057000  0.33352000  1.0
  C  C79  1  0.94456000  0.57943000  0.66648000  1.0
  C  C80  1  0.15296000  0.51006000  0.29331000  1.0
  C  C81  1  0.84704000  0.48994000  0.70669000  1.0
  C  C82  1  0.75975000  0.58390000  0.41572000  1.0
  C  C83  1  0.24026000  0.41610000  0.58428000  1.0
  C  C84  1  0.74200000  0.69568000  0.41881000  1.0
  C  C85  1  0.25800000  0.30432000  0.58119000  1.0
  C  C86  1  0.19008000  0.99118000  0.94382000  1.0
  C  C87  1  0.80992000  0.00882000  0.05618000  1.0
  C  C88  1  0.06207000  0.90137000  0.90577000  1.0
  C  C89  1  0.93793000  0.09863000  0.09423000  1.0
  N  N90  1  0.08865000  0.71236000  0.10990000  1.0
  N  N91  1  0.91135000  0.28764000  0.89010000  1.0
  N  N92  1  0.33015000  0.88300000  0.18319000  1.0
  N  N93  1  0.66985000  0.11700000  0.81681000  1.0
  N  N94  1  0.08835000  0.82633000  0.30019000  1.0
  N  N95  1  0.91165000  0.17367000  0.69981000  1.0
  N  N96  1  0.12089000  0.61396000  0.29263000  1.0
  N  N97  1  0.87911000  0.38604000  0.70737000  1.0
  O  O98  1  0.21951000  0.84870000  0.52522000  1.0
  O  O99  1  0.78049000  0.15131000  0.47478000  1.0
  O  O100  1  0.45673000  0.67714000  0.77308000  1.0
  O  O101  1  0.54327000  0.32286000  0.22692000  1.0
  O  O102  1  0.49077000  0.77871000  0.57375000  1.0
  O  O103  1  0.50923000  0.22129000  0.42625000  1.0
  O  O104  1  0.59796000  0.58123000  0.61413000  1.0
  O  O105  1  0.40203000  0.41877000  0.38587000  1.0
  O  O106  1  0.20897000  0.61484000  0.87789000  1.0
  O  O107  1  0.79103000  0.38516000  0.12211000  1.0
  O  O108  1  0.75600000  0.78883000  0.72043000  1.0
  O  O109  1  0.24400000  0.21116000  0.27957000  1.0
  O  O110  1  0.65118000  0.79469000  0.17413000  1.0
  O  O111  1  0.34882000  0.20531000  0.82587000  1.0
  O  O112  1  0.50328000  0.65501000  0.98982000  1.0
  O  O113  1  0.49672000  0.34499000  0.01018000  1.0
  O  O114  1  0.62277000  0.55176000  0.16266000  1.0
  O  O115  1  0.37723000  0.44825000  0.83734000  1.0
  O  O116  1  0.35931000  0.65775000  0.17533000  1.0
  O  O117  1  0.64069000  0.34225000  0.82467000  1.0
  O  O118  1  0.37622000  0.79025000  0.36169000  1.0
  O  O119  1  0.62378000  0.20975000  0.63831000  1.0
  O  O120  1  0.50001000  0.00000000  0.50000000  1.0
