# generated using pymatgen
data_ZnH8C19(NO3)2
_symmetry_space_group_name_H-M   'P 1'
_cell_length_a   5.62110000
_cell_length_b   18.95410000
_cell_length_c   25.46340000
_cell_angle_alpha   90.00000000
_cell_angle_beta   90.00000000
_cell_angle_gamma   95.41460000
_symmetry_Int_Tables_number   1
_chemical_formula_structural   ZnH8C19(NO3)2
_chemical_formula_sum   'Zn4 H32 C76 N8 O24'
_cell_volume   2700.83897556
_cell_formula_units_Z   4
loop_
 _symmetry_equiv_pos_site_id
 _symmetry_equiv_pos_as_xyz
  1  'x, y, z'
loop_
 _atom_site_type_symbol
 _atom_site_label
 _atom_site_symmetry_multiplicity
 _atom_site_fract_x
 _atom_site_fract_y
 _atom_site_fract_z
 _atom_site_occupancy
  Zn  Zn0  1  0.10270000  0.55989000  0.53302000  1.0
  Zn  Zn1  1  0.89730000  0.94011000  0.03302000  1.0
  Zn  Zn2  1  0.89730000  0.44011000  0.46698000  1.0
  Zn  Zn3  1  0.10270000  0.05989000  0.96698000  1.0
  H  H4  1  0.46288000  0.91689000  0.10443000  1.0
  H  H5  1  0.53712000  0.58311000  0.60443000  1.0
  H  H6  1  0.53712000  0.08311000  0.89557000  1.0
  H  H7  1  0.46288000  0.41689000  0.39557000  1.0
  H  H8  1  0.37263000  0.84824000  0.18768000  1.0
  H  H9  1  0.62738000  0.65176000  0.68769000  1.0
  H  H10  1  0.62737000  0.15176000  0.81231000  1.0
  H  H11  1  0.37263000  0.34824000  0.31231000  1.0
  H  H12  1  0.01023000  0.74257000  0.16011000  1.0
  H  H13  1  0.98977000  0.75743000  0.66011000  1.0
  H  H14  1  0.98977000  0.25743000  0.83989000  1.0
  H  H15  1  0.01023000  0.24257000  0.33989000  1.0
  H  H16  1  0.07498000  0.81565000  0.07800000  1.0
  H  H17  1  0.92502000  0.68435000  0.57800000  1.0
  H  H18  1  0.92502000  0.18435000  0.92200000  1.0
  H  H19  1  0.07499000  0.31565000  0.42200000  1.0
  H  H20  1  0.11285000  0.59912000  0.25188000  1.0
  H  H21  1  0.88715000  0.90088000  0.75188000  1.0
  H  H22  1  0.88715000  0.40088000  0.74812000  1.0
  H  H23  1  0.11285000  0.09912000  0.24812000  1.0
  H  H24  1  0.05267000  0.52893000  0.33549000  1.0
  H  H25  1  0.94733000  0.97107000  0.83549000  1.0
  H  H26  1  0.94733000  0.47107000  0.66451000  1.0
  H  H27  1  0.05267000  0.02893000  0.16451000  1.0
  H  H28  1  0.04686000  0.70807000  0.43625000  1.0
  H  H29  1  0.95314000  0.79193000  0.93625000  1.0
  H  H30  1  0.95314000  0.29193000  0.56375000  1.0
  H  H31  1  0.04686000  0.20807000  0.06375000  1.0
  H  H32  1  0.08679000  0.78233000  0.35432000  1.0
  H  H33  1  0.91321000  0.71767000  0.85432000  1.0
  H  H34  1  0.91321000  0.21767000  0.64568000  1.0
  H  H35  1  0.08679000  0.28233000  0.14568000  1.0
  C  C36  1  0.57921000  0.87777000  0.11819000  1.0
  C  C37  1  0.42079000  0.62223000  0.61819000  1.0
  C  C38  1  0.42079000  0.12223000  0.88181000  1.0
  C  C39  1  0.57921000  0.37777000  0.38181000  1.0
  C  C40  1  0.52952000  0.83963000  0.16425000  1.0
  C  C41  1  0.47048000  0.66037000  0.66425000  1.0
  C  C42  1  0.47048000  0.16037000  0.83574000  1.0
  C  C43  1  0.52952000  0.33963000  0.33575000  1.0
  C  C44  1  0.68717000  0.79113000  0.17987000  1.0
  C  C45  1  0.31284000  0.70887000  0.67987000  1.0
  C  C46  1  0.31283000  0.20887000  0.82013000  1.0
  C  C47  1  0.68717000  0.29113000  0.32013000  1.0
  C  C48  1  0.88455000  0.78028000  0.14878000  1.0
  C  C49  1  0.11545000  0.71972000  0.64878000  1.0
  C  C50  1  0.11545000  0.21972000  0.85122000  1.0
  C  C51  1  0.88455000  0.28028000  0.35122000  1.0
  C  C52  1  0.92166000  0.82063000  0.10351000  1.0
  C  C53  1  0.07834000  0.67937000  0.60351000  1.0
  C  C54  1  0.07834000  0.17937000  0.89649000  1.0
  C  C55  1  0.92166000  0.32063000  0.39649000  1.0
  C  C56  1  0.45002000  0.70215000  0.23148000  1.0
  C  C57  1  0.54998000  0.79786000  0.73148000  1.0
  C  C58  1  0.54998000  0.29786000  0.76852000  1.0
  C  C59  1  0.45002000  0.20215000  0.26852000  1.0
  C  C60  1  0.42304000  0.66113000  0.28063000  1.0
  C  C61  1  0.57696000  0.83887000  0.78063000  1.0
  C  C62  1  0.57696000  0.33887000  0.71937000  1.0
  C  C63  1  0.42304000  0.16113000  0.21937000  1.0
  C  C64  1  0.58742000  0.67406000  0.32264000  1.0
  C  C65  1  0.41258000  0.82594000  0.82264000  1.0
  C  C66  1  0.41258000  0.32594000  0.67736000  1.0
  C  C67  1  0.58742000  0.17406000  0.17736000  1.0
  C  C68  1  0.78184000  0.72722000  0.31757000  1.0
  C  C69  1  0.21816000  0.77278000  0.81757000  1.0
  C  C70  1  0.21816000  0.27278000  0.68243000  1.0
  C  C71  1  0.78184000  0.22722000  0.18243000  1.0
  C  C72  1  0.82221000  0.76766000  0.26839000  1.0
  C  C73  1  0.17779000  0.73234000  0.76839000  1.0
  C  C74  1  0.17779000  0.23234000  0.73161000  1.0
  C  C75  1  0.82221000  0.26766000  0.23161000  1.0
  C  C76  1  0.23564000  0.60833000  0.28481000  1.0
  C  C77  1  0.76435000  0.89167000  0.78481000  1.0
  C  C78  1  0.76436000  0.39167000  0.71519000  1.0
  C  C79  1  0.23564000  0.10833000  0.21519000  1.0
  C  C80  1  0.20383000  0.56889000  0.33119000  1.0
  C  C81  1  0.79617000  0.93111000  0.83119000  1.0
  C  C82  1  0.79617000  0.43111000  0.66881000  1.0
  C  C83  1  0.20383000  0.06889000  0.16881000  1.0
  C  C84  1  0.35722000  0.58150000  0.37367000  1.0
  C  C85  1  0.64278000  0.91850000  0.87367000  1.0
  C  C86  1  0.64278000  0.41850000  0.62633000  1.0
  C  C87  1  0.35722000  0.08150000  0.12633000  1.0
  C  C88  1  0.55887000  0.63289000  0.36991000  1.0
  C  C89  1  0.44113000  0.86711000  0.86991000  1.0
  C  C90  1  0.44113000  0.36711000  0.63009000  1.0
  C  C91  1  0.55887000  0.13289000  0.13009000  1.0
  C  C92  1  0.73518000  0.64515000  0.41006000  1.0
  C  C93  1  0.26482000  0.85485000  0.91006000  1.0
  C  C94  1  0.26483000  0.35485000  0.58994000  1.0
  C  C95  1  0.73518000  0.14515000  0.08994000  1.0
  C  C96  1  0.91567000  0.70012000  0.40483000  1.0
  C  C97  1  0.08433000  0.79988000  0.90483000  1.0
  C  C98  1  0.08433000  0.29988000  0.59517000  1.0
  C  C99  1  0.91567000  0.20012000  0.09517000  1.0
  C  C100  1  0.93975000  0.74105000  0.35896000  1.0
  C  C101  1  0.06025000  0.75894000  0.85896000  1.0
  C  C102  1  0.06025000  0.25895000  0.64104000  1.0
  C  C103  1  0.93975000  0.24106000  0.14104000  1.0
  C  C104  1  0.27615000  0.54507000  0.42389000  1.0
  C  C105  1  0.72385000  0.95493000  0.92389000  1.0
  C  C106  1  0.72385000  0.45493000  0.57611000  1.0
  C  C107  1  0.27615000  0.04507000  0.07611000  1.0
  C  C108  1  0.76908000  0.59405000  0.45418000  1.0
  C  C109  1  0.23092000  0.90595000  0.95418000  1.0
  C  C110  1  0.23092000  0.40595000  0.54582000  1.0
  C  C111  1  0.76908000  0.09405000  0.04582000  1.0
  N  N112  1  0.77375000  0.86903000  0.08884000  1.0
  N  N113  1  0.22625000  0.63097000  0.58883000  1.0
  N  N114  1  0.22625000  0.13097000  0.91116000  1.0
  N  N115  1  0.77375000  0.36903000  0.41116000  1.0
  N  N116  1  0.65016000  0.75278000  0.22827000  1.0
  N  N117  1  0.34985000  0.74722000  0.72827000  1.0
  N  N118  1  0.34985000  0.24722000  0.77173000  1.0
  N  N119  1  0.65015000  0.25278000  0.27173000  1.0
  O  O120  1  0.28748000  0.58318000  0.46523000  1.0
  O  O121  1  0.71252000  0.91682000  0.96523000  1.0
  O  O122  1  0.71252000  0.41682000  0.53477000  1.0
  O  O123  1  0.28748000  0.08318000  0.03477000  1.0
  O  O124  1  0.18184000  0.48192000  0.41989000  1.0
  O  O125  1  0.81816000  0.01808000  0.91989000  1.0
  O  O126  1  0.81816000  0.51808000  0.58011000  1.0
  O  O127  1  0.18184000  0.98192000  0.08011000  1.0
  O  O128  1  0.74041000  0.52852000  0.44147000  1.0
  O  O129  1  0.25959000  0.97148000  0.94147000  1.0
  O  O130  1  0.25959000  0.47148000  0.55853000  1.0
  O  O131  1  0.74041000  0.02852000  0.05853000  1.0
  O  O132  1  0.84998000  0.61939000  0.49726000  1.0
  O  O133  1  0.15002000  0.88061000  0.99726000  1.0
  O  O134  1  0.15002000  0.38061000  0.50274000  1.0
  O  O135  1  0.84998000  0.11939000  0.00274000  1.0
  O  O136  1  0.31240000  0.69271000  0.19388000  1.0
  O  O137  1  0.68760000  0.80729000  0.69388000  1.0
  O  O138  1  0.68760000  0.30729000  0.80612000  1.0
  O  O139  1  0.31240000  0.19271000  0.30612000  1.0
  O  O140  1  0.99276000  0.81239000  0.26127000  1.0
  O  O141  1  0.00724000  0.68761000  0.76127000  1.0
  O  O142  1  0.00724000  0.18761000  0.73873000  1.0
  O  O143  1  0.99276000  0.31239000  0.23873000  1.0
