# generated using pymatgen
data_GdH8C3N9O5
_symmetry_space_group_name_H-M   'P 1'
_cell_length_a   6.55541000
_cell_length_b   6.55563000
_cell_length_c   7.39566000
_cell_angle_alpha   99.06140000
_cell_angle_beta   99.05850000
_cell_angle_gamma   119.18500000
_symmetry_Int_Tables_number   1
_chemical_formula_structural   GdH8C3N9O5
_chemical_formula_sum   'Gd1 H8 C3 N9 O5'
_cell_volume   263.70877374
_cell_formula_units_Z   1
loop_
 _symmetry_equiv_pos_site_id
 _symmetry_equiv_pos_as_xyz
  1  'x, y, z'
loop_
 _atom_site_type_symbol
 _atom_site_label
 _atom_site_symmetry_multiplicity
 _atom_site_fract_x
 _atom_site_fract_y
 _atom_site_fract_z
 _atom_site_occupancy
  Gd  Gd0  1  0.09111000  0.09110000  0.21686000  1.0
  H  H1  1  0.39587000  0.25596000  0.64474000  1.0
  H  H2  1  0.25597000  0.39587000  0.64474000  1.0
  H  H3  1  0.84746000  0.34835000  0.19649000  1.0
  H  H4  1  0.47402000  0.99207000  0.42719000  1.0
  H  H5  1  0.99207000  0.47401000  0.42719000  1.0
  H  H6  1  0.34836000  0.84746000  0.19649000  1.0
  H  H7  1  0.85703000  0.85700000  0.51432000  1.0
  H  H8  1  0.55234000  0.55246000  0.40564000  1.0
  C  C9  1  0.78428000  0.99954000  0.74279000  1.0
  C  C10  1  0.99955000  0.78433000  0.74279000  1.0
  C  C11  1  0.56904000  0.56908000  0.26077000  1.0
  N  N12  1  0.82725000  0.08505000  0.93078000  1.0
  N  N13  1  0.08508000  0.82725000  0.93077000  1.0
  N  N14  1  0.70544000  0.20346000  0.94571000  1.0
  N  N15  1  0.20346000  0.70541000  0.94571000  1.0
  N  N16  1  0.59729000  0.18768000  0.77579000  1.0
  N  N17  1  0.18769000  0.59725000  0.77579000  1.0
  N  N18  1  0.64133000  0.05908000  0.64314000  1.0
  N  N19  1  0.05913000  0.64135000  0.64317000  1.0
  N  N20  1  0.87082000  0.87085000  0.65657000  1.0
  O  O21  1  0.40230000  0.40229000  0.12196000  1.0
  O  O22  1  0.76014000  0.76015000  0.25510000  1.0
  O  O23  1  0.28434000  0.28433000  0.55706000  1.0
  O  O24  1  0.96163000  0.35331000  0.30552000  1.0
  O  O25  1  0.35332000  0.96162000  0.30553000  1.0
