# generated using pymatgen
data_Zn4H39C36N3O13
_symmetry_space_group_name_H-M   'P 1'
_cell_length_a   19.29180000
_cell_length_b   19.50180000
_cell_length_c   19.56240000
_cell_angle_alpha   90.35490000
_cell_angle_beta   119.41500000
_cell_angle_gamma   119.35300000
_symmetry_Int_Tables_number   1
_chemical_formula_structural   Zn4H39C36N3O13
_chemical_formula_sum   'Zn8 H78 C72 N6 O26'
_cell_volume   5284.17248353
_cell_formula_units_Z   2
loop_
 _symmetry_equiv_pos_site_id
 _symmetry_equiv_pos_as_xyz
  1  'x, y, z'
loop_
 _atom_site_type_symbol
 _atom_site_label
 _atom_site_symmetry_multiplicity
 _atom_site_fract_x
 _atom_site_fract_y
 _atom_site_fract_z
 _atom_site_occupancy
  Zn  Zn0  1  0.91326000  0.04631000  0.95312000  1.0
  Zn  Zn1  1  0.07548000  0.04141000  0.11466000  1.0
  Zn  Zn2  1  0.08116000  0.04662000  0.95484000  1.0
  Zn  Zn3  1  0.91610000  0.88260000  0.95190000  1.0
  Zn  Zn4  1  0.08171000  0.46331000  0.53677000  1.0
  Zn  Zn5  1  0.92450000  0.46565000  0.37252000  1.0
  Zn  Zn6  1  0.08005000  0.62545000  0.53868000  1.0
  Zn  Zn7  1  0.91086000  0.45673000  0.53080000  1.0
  H  H8  1  0.91756000  0.17422000  0.14486000  1.0
  H  H9  1  0.95457000  0.12088000  0.21236000  1.0
  H  H10  1  0.13093000  0.24739000  0.24532000  1.0
  H  H11  1  0.07497000  0.30005000  0.22912000  1.0
  H  H12  1  0.07687000  0.29382000  0.41370000  1.0
  H  H13  1  0.96712000  0.22319000  0.31651000  1.0
  H  H14  1  0.11764000  0.39823000  0.33681000  1.0
  H  H15  1  0.99257000  0.33583000  0.25474000  1.0
  H  H16  1  0.19943000  0.20512000  0.31816000  1.0
  H  H17  1  0.24880000  0.12075000  0.39235000  1.0
  H  H18  1  0.20163000  0.06759000  0.48908000  1.0
  H  H19  1  0.10151000  0.10162000  0.50757000  1.0
  H  H20  1  0.05009000  0.18507000  0.43299000  1.0
  H  H21  1  0.99313000  0.24478000  0.84080000  1.0
  H  H22  1  0.10980000  0.26519000  0.88560000  1.0
  H  H23  1  0.00846000  0.13072000  0.75129000  1.0
  H  H24  1  0.93881000  0.17118000  0.70743000  1.0
  H  H25  1  0.12459000  0.35412000  0.70849000  1.0
  H  H26  1  0.09393000  0.36061000  0.77915000  1.0
  H  H27  1  0.94376000  0.23309000  0.60474000  1.0
  H  H28  1  0.92144000  0.27601000  0.66602000  1.0
  H  H29  1  0.12573000  0.13842000  0.78876000  1.0
  H  H30  1  0.28585000  0.16496000  0.86450000  1.0
  H  H31  1  0.43275000  0.30806000  0.91412000  1.0
  H  H32  1  0.41274000  0.42419000  0.88617000  1.0
  H  H33  1  0.25321000  0.39928000  0.81144000  1.0
  H  H34  1  0.60303000  0.85736000  0.75577000  1.0
  H  H35  1  0.62983000  0.78839000  0.73324000  1.0
  H  H36  1  0.62736000  0.75232000  0.86754000  1.0
  H  H37  1  0.54020000  0.77507000  0.82660000  1.0
  H  H38  1  0.36484000  0.59315000  0.64532000  1.0
  H  H39  1  0.42637000  0.69306000  0.63725000  1.0
  H  H40  1  0.37683000  0.66674000  0.76541000  1.0
  H  H41  1  0.39466000  0.74966000  0.72290000  1.0
  H  H42  1  0.66475000  0.67937000  0.85861000  1.0
  H  H43  1  0.71979000  0.60015000  0.83205000  1.0
  H  H44  1  0.62873000  0.50304000  0.68998000  1.0
  H  H45  1  0.48087000  0.48998000  0.57488000  1.0
  H  H46  1  0.42506000  0.56954000  0.59970000  1.0
  H  H47  1  0.61051000  0.27039000  0.24077000  1.0
  H  H48  1  0.63314000  0.24355000  0.33265000  1.0
  H  H49  1  0.62219000  0.37441000  0.36607000  1.0
  H  H50  1  0.53641000  0.33107000  0.25826000  1.0
  H  H51  1  0.36672000  0.14505000  0.26901000  1.0
  H  H52  1  0.43078000  0.14205000  0.22917000  1.0
  H  H53  1  0.36958000  0.26267000  0.20770000  1.0
  H  H54  1  0.39378000  0.22677000  0.14350000  1.0
  H  H55  1  0.65652000  0.36661000  0.47565000  1.0
  H  H56  1  0.71637000  0.34135000  0.60826000  1.0
  H  H57  1  0.63696000  0.19721000  0.61564000  1.0
  H  H58  1  0.49631000  0.07877000  0.48401000  1.0
  H  H59  1  0.43636000  0.10259000  0.35029000  1.0
  H  H60  1  0.09351000  0.75584000  0.35524000  1.0
  H  H61  1  0.05310000  0.66383000  0.28761000  1.0
  H  H62  1  0.87768000  0.62860000  0.24720000  1.0
  H  H63  1  0.94112000  0.73658000  0.26717000  1.0
  H  H64  1  0.94566000  0.72573000  0.08595000  1.0
  H  H65  1  0.05296000  0.76613000  0.18638000  1.0
  H  H66  1  0.89331000  0.78740000  0.15289000  1.0
  H  H67  1  0.01702000  0.85158000  0.23789000  1.0
  H  H68  1  0.81472000  0.51895000  0.17607000  1.0
  H  H69  1  0.76833000  0.38637000  0.10376000  1.0
  H  H70  1  0.82252000  0.37921000  0.01250000  1.0
  H  H71  1  0.92775000  0.51118000  0.99856000  1.0
  H  H72  1  0.97654000  0.64489000  0.07173000  1.0
  H  H73  1  0.95904000  0.63904000  0.71457000  1.0
  H  H74  1  0.08188000  0.70175000  0.74922000  1.0
  H  H75  1  0.99875000  0.75328000  0.61687000  1.0
  H  H76  1  0.93338000  0.73881000  0.65984000  1.0
  H  H77  1  0.13342000  0.91323000  0.84549000  1.0
  H  H78  1  0.10055000  0.81240000  0.85230000  1.0
  H  H79  1  0.95290000  0.84691000  0.73339000  1.0
  H  H80  1  0.92871000  0.76088000  0.77134000  1.0
  H  H81  1  0.11624000  0.81821000  0.62276000  1.0
  H  H82  1  0.27344000  0.88234000  0.64523000  1.0
  H  H83  1  0.42570000  0.96923000  0.78746000  1.0
  H  H84  1  0.41353000  0.98753000  0.90685000  1.0
  H  H85  1  0.25664000  0.92227000  0.88600000  1.0
  C  C86  1  0.98080000  0.12122000  0.12032000  1.0
  C  C87  1  0.97546000  0.16482000  0.17995000  1.0
  C  C88  1  0.07408000  0.24625000  0.24607000  1.0
  C  C89  1  0.04319000  0.27703000  0.34661000  1.0
  C  C90  1  0.04476000  0.35166000  0.32113000  1.0
  C  C91  1  0.02718000  0.39432000  0.36996000  1.0
  C  C92  1  0.12193000  0.20420000  0.37015000  1.0
  C  C93  1  0.17730000  0.18324000  0.35949000  1.0
  C  C94  1  0.20523000  0.13482000  0.40169000  1.0
  C  C95  1  0.17901000  0.10501000  0.45573000  1.0
  C  C96  1  0.12343000  0.12436000  0.46610000  1.0
  C  C97  1  0.09446000  0.17254000  0.42371000  1.0
  C  C98  1  0.01042000  0.14891000  0.88104000  1.0
  C  C99  1  0.03160000  0.21730000  0.84283000  1.0
  C  C100  1  0.01069000  0.18773000  0.75703000  1.0
  C  C101  1  0.07354000  0.31799000  0.72479000  1.0
  C  C102  1  0.97311000  0.28989000  0.65022000  1.0
  C  C103  1  0.97911000  0.35418000  0.60587000  1.0
  C  C104  1  0.17471000  0.26601000  0.79115000  1.0
  C  C105  1  0.18760000  0.20147000  0.80918000  1.0
  C  C106  1  0.27912000  0.21673000  0.85274000  1.0
  C  C107  1  0.36129000  0.29654000  0.88057000  1.0
  C  C108  1  0.34981000  0.36112000  0.86457000  1.0
  C  C109  1  0.25838000  0.34669000  0.82127000  1.0
  C  C110  1  0.73938000  0.88005000  0.85027000  1.0
  C  C111  1  0.63322000  0.82149000  0.78191000  1.0
  C  C112  1  0.57619000  0.75534000  0.81053000  1.0
  C  C113  1  0.41540000  0.65972000  0.68057000  1.0
  C  C114  1  0.36635000  0.68336000  0.70893000  1.0
  C  C115  1  0.25799000  0.63292000  0.64452000  1.0
  C  C116  1  0.53824000  0.62982000  0.73209000  1.0
  C  C117  1  0.62295000  0.63786000  0.79603000  1.0
  C  C118  1  0.65461000  0.59281000  0.78076000  1.0
  C  C119  1  0.60406000  0.53867000  0.70149000  1.0
  C  C120  1  0.52138000  0.53128000  0.63751000  1.0
  C  C121  1  0.48905000  0.57641000  0.65192000  1.0
  C  C122  1  0.74246000  0.36394000  0.35483000  1.0
  C  C123  1  0.63650000  0.29354000  0.30538000  1.0
  C  C124  1  0.57421000  0.31707000  0.31363000  1.0
  C  C125  1  0.41641000  0.18273000  0.25184000  1.0
  C  C126  1  0.36397000  0.20884000  0.18076000  1.0
  C  C127  1  0.25669000  0.14107000  0.12339000  1.0
  C  C128  1  0.53942000  0.23713000  0.40133000  1.0
  C  C129  1  0.61997000  0.30312000  0.47620000  1.0
  C  C130  1  0.65419000  0.28862000  0.55185000  1.0
  C  C131  1  0.61013000  0.20816000  0.55614000  1.0
  C  C132  1  0.53139000  0.14233000  0.48264000  1.0
  C  C133  1  0.49668000  0.15602000  0.40620000  1.0
  C  C134  1  0.01982000  0.64161000  0.37562000  1.0
  C  C135  1  0.03301000  0.69079000  0.31847000  1.0
  C  C136  1  0.93874000  0.68145000  0.25001000  1.0
  C  C137  1  0.97565000  0.74318000  0.15234000  1.0
  C  C138  1  0.96794000  0.81435000  0.17197000  1.0
  C  C139  1  0.98556000  0.87204000  0.12186000  1.0
  C  C140  1  0.89743000  0.59359000  0.12846000  1.0
  C  C141  1  0.83965000  0.51857000  0.13696000  1.0
  C  C142  1  0.81337000  0.44289000  0.09576000  1.0
  C  C143  1  0.84372000  0.43873000  0.04494000  1.0
  C  C144  1  0.90199000  0.51241000  0.03699000  1.0
  C  C145  1  0.92936000  0.58887000  0.07842000  1.0
  C  C146  1  0.99010000  0.61993000  0.62777000  1.0
  C  C147  1  0.00746000  0.67641000  0.69609000  1.0
  C  C148  1  0.00141000  0.75041000  0.67387000  1.0
  C  C149  1  0.07960000  0.84673000  0.81019000  1.0
  C  C150  1  0.98224000  0.82711000  0.78737000  1.0
  C  C151  1  0.99266000  0.87642000  0.85620000  1.0
  C  C152  1  0.17210000  0.86588000  0.75205000  1.0
  C  C153  1  0.18043000  0.85545000  0.68547000  1.0
  C  C154  1  0.27034000  0.89208000  0.69839000  1.0
  C  C155  1  0.35545000  0.94043000  0.77774000  1.0
  C  C156  1  0.34837000  0.95070000  0.84412000  1.0
  C  C157  1  0.25852000  0.91375000  0.83208000  1.0
  N  N158  1  0.09785000  0.25659000  0.33018000  1.0
  N  N159  1  0.08122000  0.24891000  0.74328000  1.0
  N  N160  1  0.50416000  0.67248000  0.74920000  1.0
  N  N161  1  0.50328000  0.25315000  0.32555000  1.0
  N  N162  1  0.92015000  0.66934000  0.16767000  1.0
  N  N163  1  0.08095000  0.83112000  0.73808000  1.0
  O  O164  1  0.99612000  0.00424000  0.99328000  1.0
  O  O165  1  0.05490000  0.11860000  0.15265000  1.0
  O  O166  1  0.91182000  0.08989000  0.04354000  1.0
  O  O167  1  0.96976000  0.41590000  0.33028000  1.0
  O  O168  1  0.07355000  0.40636000  0.44780000  1.0
  O  O169  1  0.04339000  0.10626000  0.87960000  1.0
  O  O170  1  0.96290000  0.13916000  0.91222000  1.0
  O  O171  1  0.91694000  0.37148000  0.58302000  1.0
  O  O172  1  0.04616000  0.38466000  0.59393000  1.0
  O  O173  1  0.78081000  0.84586000  0.89162000  1.0
  O  O174  1  0.77969000  0.95788000  0.86131000  1.0
  O  O175  1  0.21693000  0.67133000  0.62504000  1.0
  O  O176  1  0.21684000  0.55491000  0.61599000  1.0
  O  O177  1  0.77978000  0.40256000  0.42922000  1.0
  O  O178  1  0.78671000  0.37883000  0.31942000  1.0
  O  O179  1  0.21832000  0.12483000  0.04550000  1.0
  O  O180  1  0.21344000  0.10703000  0.15834000  1.0
  O  O181  1  0.94656000  0.56618000  0.34050000  1.0
  O  O182  1  0.08244000  0.67822000  0.45376000  1.0
  O  O183  1  0.04272000  0.95003000  0.16077000  1.0
  O  O184  1  0.94008000  0.83722000  0.04432000  1.0
  O  O185  1  0.02834000  0.65551000  0.58965000  1.0
  O  O186  1  0.94023000  0.54164000  0.61435000  1.0
  O  O187  1  0.93182000  0.83712000  0.87445000  1.0
  O  O188  1  0.06046000  0.95375000  0.88878000  1.0
  O  O189  1  0.99840000  0.50324000  0.49438000  1.0
