# generated using pymatgen
data_MgH8(C4O3)2
_symmetry_space_group_name_H-M   'P 1'
_cell_length_a   6.51832000
_cell_length_b   7.37574000
_cell_length_c   9.63302275
_cell_angle_alpha   81.92415029
_cell_angle_beta   70.26196358
_cell_angle_gamma   89.99680000
_symmetry_Int_Tables_number   1
_chemical_formula_structural   MgH8(C4O3)2
_chemical_formula_sum   'Mg2 H16 C16 O12'
_cell_volume   431.03905449
_cell_formula_units_Z   2
loop_
 _symmetry_equiv_pos_site_id
 _symmetry_equiv_pos_as_xyz
  1  'x, y, z'
loop_
 _atom_site_type_symbol
 _atom_site_label
 _atom_site_symmetry_multiplicity
 _atom_site_fract_x
 _atom_site_fract_y
 _atom_site_fract_z
 _atom_site_occupancy
  Mg  Mg0  1  0.00002000  0.99999000  0.49999000  1.0
  Mg  Mg1  1  0.50001000  0.50000000  0.50001000  1.0
  H  H2  1  0.73793000  0.05785000  0.86297000  1.0
  H  H3  1  0.39901000  0.55731000  0.86339000  1.0
  H  H4  1  0.26203000  0.94215000  0.13701000  1.0
  H  H5  1  0.60103000  0.44269000  0.13661000  1.0
  H  H6  1  0.38482000  0.11948000  0.87777000  1.0
  H  H7  1  0.73782000  0.62009000  0.87742000  1.0
  H  H8  1  0.61512000  0.88055000  0.12223000  1.0
  H  H9  1  0.26222000  0.37991000  0.12259000  1.0
  H  H10  1  0.59950000  0.09687000  0.56063000  1.0
  H  H11  1  0.84013000  0.59694000  0.56022000  1.0
  H  H12  1  0.40056000  0.90313000  0.43936000  1.0
  H  H13  1  0.15987000  0.40305000  0.43984000  1.0
  H  H14  1  0.55499000  0.88460000  0.62237000  1.0
  H  H15  1  0.82304000  0.38472000  0.62226000  1.0
  H  H16  1  0.44504000  0.11540000  0.37763000  1.0
  H  H17  1  0.17696000  0.61526000  0.37776000  1.0
  C  C18  1  0.06822000  0.09995000  0.85645000  1.0
  C  C19  1  0.07549000  0.59994000  0.85648000  1.0
  C  C20  1  0.93174000  0.90006000  0.14354000  1.0
  C  C21  1  0.92448000  0.40006000  0.14353000  1.0
  C  C22  1  0.85057000  0.03362000  0.92450000  1.0
  C  C23  1  0.22486000  0.53331000  0.92473000  1.0
  C  C24  1  0.14938000  0.96639000  0.07549000  1.0
  C  C25  1  0.77514000  0.46670000  0.07526000  1.0
  C  C26  1  0.21698000  0.06561000  0.93265000  1.0
  C  C27  1  0.85054000  0.56596000  0.93246000  1.0
  C  C28  1  0.78297000  0.93441000  0.06735000  1.0
  C  C29  1  0.14945000  0.43403000  0.06755000  1.0
  C  C30  1  0.14379000  0.20994000  0.70419000  1.0
  C  C31  1  0.15239000  0.70997000  0.70421000  1.0
  C  C32  1  0.85620000  0.79007000  0.29579000  1.0
  C  C33  1  0.84764000  0.29002000  0.29579000  1.0
  O  O34  1  0.02121000  0.21235000  0.62292000  1.0
  O  O35  1  0.35616000  0.71219000  0.62314000  1.0
  O  O36  1  0.97879000  0.78765000  0.37704000  1.0
  O  O37  1  0.64387000  0.28781000  0.37687000  1.0
  O  O38  1  0.32712000  0.29618000  0.66129000  1.0
  O  O39  1  0.01207000  0.79626000  0.66115000  1.0
  O  O40  1  0.67287000  0.70383000  0.33871000  1.0
  O  O41  1  0.98795000  0.20371000  0.33884000  1.0
  O  O42  1  0.66001000  0.98962000  0.60323000  1.0
  O  O43  1  0.73710000  0.48969000  0.60305000  1.0
  O  O44  1  0.34003000  0.01037000  0.39676000  1.0
  O  O45  1  0.26290000  0.51029000  0.39698000  1.0
