# generated using pymatgen
data_Ni2H72W(C5N2)8
_symmetry_space_group_name_H-M   'P 1'
_cell_length_a   15.65020000
_cell_length_b   15.65070000
_cell_length_c   15.90650000
_cell_angle_alpha   111.83300000
_cell_angle_beta   106.53000000
_cell_angle_gamma   109.44100000
_symmetry_Int_Tables_number   1
_chemical_formula_structural   Ni2H72W(C5N2)8
_chemical_formula_sum   'Ni4 H144 W2 C80 N32'
_cell_volume   3016.69117979
_cell_formula_units_Z   2
loop_
 _symmetry_equiv_pos_site_id
 _symmetry_equiv_pos_as_xyz
  1  'x, y, z'
loop_
 _atom_site_type_symbol
 _atom_site_label
 _atom_site_symmetry_multiplicity
 _atom_site_fract_x
 _atom_site_fract_y
 _atom_site_fract_z
 _atom_site_occupancy
  Ni  Ni0  1  0.00000000  0.50000000  0.00000000  1.0
  Ni  Ni1  1  0.50000000  0.50000000  0.50000000  1.0
  Ni  Ni2  1  0.00000000  0.50000000  0.50000000  1.0
  Ni  Ni3  1  0.00000000  0.00000000  0.00000000  1.0
  H  H4  1  0.01189000  0.44632000  0.77203000  1.0
  H  H5  1  0.67432000  0.73984000  0.72798000  1.0
  H  H6  1  0.98811000  0.55368000  0.22797000  1.0
  H  H7  1  0.32568000  0.26016000  0.27202000  1.0
  H  H8  1  0.06764000  0.36501000  0.74786000  1.0
  H  H9  1  0.61719000  0.81977000  0.75215000  1.0
  H  H10  1  0.93236000  0.63499000  0.25214000  1.0
  H  H11  1  0.38282000  0.18023000  0.24785000  1.0
  H  H12  1  0.00233000  0.30251000  0.86027000  1.0
  H  H13  1  0.44226000  0.64208000  0.63974000  1.0
  H  H14  1  0.99767000  0.69749000  0.13973000  1.0
  H  H15  1  0.55774000  0.35792000  0.36026000  1.0
  H  H16  1  0.14289000  0.74374000  0.10603000  1.0
  H  H17  1  0.63773000  0.53683000  0.39398000  1.0
  H  H18  1  0.85711000  0.25626000  0.89397000  1.0
  H  H19  1  0.36227000  0.46317000  0.60603000  1.0
  H  H20  1  0.23959000  0.76897000  0.21917000  1.0
  H  H21  1  0.54984000  0.52042000  0.28084000  1.0
  H  H22  1  0.76041000  0.23103000  0.78083000  1.0
  H  H23  1  0.45016000  0.47958000  0.71916000  1.0
  H  H24  1  0.24165000  0.60557000  0.11517000  1.0
  H  H25  1  0.49047000  0.62651000  0.38485000  1.0
  H  H26  1  0.75835000  0.39443000  0.88484000  1.0
  H  H27  1  0.50953000  0.37349000  0.61515000  1.0
  H  H28  1  0.27815000  0.70070000  0.07791000  1.0
  H  H29  1  0.62287000  0.70024000  0.42212000  1.0
  H  H30  1  0.72186000  0.29930000  0.92210000  1.0
  H  H31  1  0.37713000  0.29976000  0.57788000  1.0
  H  H32  1  0.20599000  0.38310000  0.88943000  1.0
  H  H33  1  0.49372000  0.81657000  0.61059000  1.0
  H  H34  1  0.79402000  0.61691000  0.11058000  1.0
  H  H35  1  0.50629000  0.18344000  0.38942000  1.0
  H  H36  1  0.16143000  0.40699000  0.98255000  1.0
  H  H37  1  0.42448000  0.67890000  0.51746000  1.0
  H  H38  1  0.83857000  0.59301000  0.01745000  1.0
  H  H39  1  0.57552000  0.32110000  0.48254000  1.0
  H  H40  1  0.28098000  0.50237000  0.00956000  1.0
  H  H41  1  0.49287000  0.77143000  0.49046000  1.0
  H  H42  1  0.71902000  0.49763000  0.99044000  1.0
  H  H43  1  0.50714000  0.22857000  0.50955000  1.0
  H  H44  1  0.18302000  0.59388000  0.83740000  1.0
  H  H45  1  0.75652000  0.84559000  0.66261000  1.0
  H  H46  1  0.81698000  0.40612000  0.16260000  1.0
  H  H47  1  0.24348000  0.15441000  0.33739000  1.0
  H  H48  1  0.23487000  0.50631000  0.81652000  1.0
  H  H49  1  0.68985000  0.91834000  0.68350000  1.0
  H  H50  1  0.76513000  0.49369000  0.18348000  1.0
  H  H51  1  0.31015000  0.08167000  0.31651000  1.0
  H  H52  1  0.29313000  0.62111000  0.93850000  1.0
  H  H53  1  0.68268000  0.85462000  0.56152000  1.0
  H  H54  1  0.70687000  0.37889000  0.06150000  1.0
  H  H55  1  0.31732000  0.14538000  0.43848000  1.0
  H  H56  1  0.83720000  0.16110000  0.70017000  1.0
  H  H57  1  0.46095000  0.63704000  0.79984000  1.0
  H  H58  1  0.16280000  0.83890000  0.29983000  1.0
  H  H59  1  0.53905000  0.36296000  0.20017000  1.0
  H  H60  1  0.94053000  0.19328000  0.67118000  1.0
  H  H61  1  0.52213000  0.76935000  0.82883000  1.0
  H  H62  1  0.05948000  0.80672000  0.32882000  1.0
  H  H63  1  0.47787000  0.23065000  0.17117000  1.0
  H  H64  1  0.85437000  0.24300000  0.64676000  1.0
  H  H65  1  0.59626000  0.70760000  0.85324000  1.0
  H  H66  1  0.14563000  0.75700000  0.35324000  1.0
  H  H67  1  0.40374000  0.29240000  0.14676000  1.0
  H  H68  1  0.87613000  0.24062000  0.29438000  1.0
  H  H69  1  0.94621000  0.08176000  0.20560000  1.0
  H  H70  1  0.12388000  0.75938000  0.70562000  1.0
  H  H71  1  0.05379000  0.91824000  0.79439000  1.0
  H  H72  1  0.77737000  0.15762000  0.30499000  1.0
  H  H73  1  0.85260000  0.97241000  0.19500000  1.0
  H  H74  1  0.22264000  0.84238000  0.69501000  1.0
  H  H75  1  0.14739000  0.02759000  0.80500000  1.0
  H  H76  1  0.88535000  0.30242000  0.50447000  1.0
  H  H77  1  0.79796000  0.88088000  0.99551000  1.0
  H  H78  1  0.11465000  0.69757000  0.49552000  1.0
  H  H79  1  0.20204000  0.11912000  0.00449000  1.0
  H  H80  1  0.93506000  0.58880000  0.36260000  1.0
  H  H81  1  0.22618000  0.07243000  0.13740000  1.0
  H  H82  1  0.06494000  0.41120000  0.63740000  1.0
  H  H83  1  0.77381000  0.92757000  0.86259000  1.0
  H  H84  1  0.87557000  0.65276000  0.42236000  1.0
  H  H85  1  0.23038000  0.95318000  0.07765000  1.0
  H  H86  1  0.12444000  0.34724000  0.57765000  1.0
  H  H87  1  0.76962000  0.04682000  0.92235000  1.0
  H  H88  1  0.79191000  0.49799000  0.44117000  1.0
  H  H89  1  0.05678000  0.85073000  0.05884000  1.0
  H  H90  1  0.20810000  0.50201000  0.55884000  1.0
  H  H91  1  0.94322000  0.14927000  0.94116000  1.0
  H  H92  1  0.75161000  0.46462000  0.31145000  1.0
  H  H93  1  0.15314000  0.94014000  0.18855000  1.0
  H  H94  1  0.24840000  0.53538000  0.68855000  1.0
  H  H95  1  0.84686000  0.05986000  0.81145000  1.0
  H  H96  1  0.64388000  0.16681000  0.19179000  1.0
  H  H97  1  0.97500000  0.95216000  0.30824000  1.0
  H  H98  1  0.35613000  0.83319000  0.80821000  1.0
  H  H99  1  0.02499000  0.04783000  0.69175000  1.0
  H  H100  1  0.74221000  0.24060000  0.17175000  1.0
  H  H101  1  0.06883000  0.07050000  0.32825000  1.0
  H  H102  1  0.25779000  0.75940000  0.82825000  1.0
  H  H103  1  0.93117000  0.92949000  0.67174000  1.0
  H  H104  1  0.66229000  0.29041000  0.20648000  1.0
  H  H105  1  0.08391000  0.95586000  0.29355000  1.0
  H  H106  1  0.33771000  0.70959000  0.79351000  1.0
  H  H107  1  0.91608000  0.04413000  0.70644000  1.0
  H  H108  1  0.77034000  0.34505000  0.47753000  1.0
  H  H109  1  0.86751000  0.79283000  0.02250000  1.0
  H  H110  1  0.22966000  0.65495000  0.52247000  1.0
  H  H111  1  0.13248000  0.20717000  0.97749000  1.0
  H  H112  1  0.66982000  0.21945000  0.37099000  1.0
  H  H113  1  0.84843000  0.79888000  0.12903000  1.0
  H  H114  1  0.33018000  0.78055000  0.62901000  1.0
  H  H115  1  0.15156000  0.20112000  0.87096000  1.0
  H  H116  1  0.67106000  0.33619000  0.38125000  1.0
  H  H117  1  0.95492000  0.78985000  0.11881000  1.0
  H  H118  1  0.32895000  0.66381000  0.61875000  1.0
  H  H119  1  0.04508000  0.21015000  0.88118000  1.0
  H  H120  1  0.95253000  0.15013000  0.39398000  1.0
  H  H121  1  0.75610000  0.05853000  0.10597000  1.0
  H  H122  1  0.04747000  0.84987000  0.60602000  1.0
  H  H123  1  0.24390000  0.94147000  0.89403000  1.0
  H  H124  1  0.84851000  0.11529000  0.42341000  1.0
  H  H125  1  0.69184000  0.92507000  0.07653000  1.0
  H  H126  1  0.15149000  0.88470000  0.57659000  1.0
  H  H127  1  0.30816000  0.07493000  0.92347000  1.0
  H  H128  1  0.97591000  0.20040000  0.52338000  1.0
  H  H129  1  0.67701000  0.95251000  0.97656000  1.0
  H  H130  1  0.02409000  0.79960000  0.47662000  1.0
  H  H131  1  0.32300000  0.04749000  0.02343000  1.0
  H  H132  1  0.10322000  0.60290000  0.94334000  1.0
  H  H133  1  0.65958000  0.65985000  0.55667000  1.0
  H  H134  1  0.89679000  0.39710000  0.05666000  1.0
  H  H135  1  0.34042000  0.34015000  0.44333000  1.0
  H  H136  1  0.87224000  0.38981000  0.80419000  1.0
  H  H137  1  0.58561000  0.56802000  0.69581000  1.0
  H  H138  1  0.12776000  0.61019000  0.19581000  1.0
  H  H139  1  0.41439000  0.43198000  0.30419000  1.0
  H  H140  1  0.88033000  0.40769000  0.31578000  1.0
  H  H141  1  0.09191000  0.06457000  0.18423000  1.0
  H  H142  1  0.11967000  0.59231000  0.68422000  1.0
  H  H143  1  0.90808000  0.93543000  0.81577000  1.0
  H  H144  1  0.03558000  0.34276000  0.42889000  1.0
  H  H145  1  0.91388000  0.10670000  0.07111000  1.0
  H  H146  1  0.96442000  0.65724000  0.57111000  1.0
  H  H147  1  0.08612000  0.89330000  0.92889000  1.0
  W  W148  1  0.14466000  0.39465000  0.25000000  1.0
  W  W149  1  0.85533000  0.60534000  0.75000000  1.0
  C  C150  1  0.07902000  0.40304000  0.11913000  1.0
  C  C151  1  0.28393000  0.45992000  0.38087000  1.0
  C  C152  1  0.92096000  0.59696000  0.88086000  1.0
  C  C153  1  0.71607000  0.54007000  0.61912000  1.0
  C  C154  1  0.09272000  0.46955000  0.34887000  1.0
  C  C155  1  0.12068000  0.24384000  0.15112000  1.0
  C  C156  1  0.90728000  0.53044000  0.65113000  1.0
  C  C157  1  0.87932000  0.75616000  0.84887000  1.0
  C  C158  1  0.97982000  0.29905000  0.17568000  1.0
  C  C159  1  0.12343000  0.30418000  0.32436000  1.0
  C  C160  1  0.02017000  0.70094000  0.82432000  1.0
  C  C161  1  0.87657000  0.69582000  0.67564000  1.0
  C  C162  1  0.21861000  0.56115000  0.30081000  1.0
  C  C163  1  0.26033000  0.41778000  0.19916000  1.0
  C  C164  1  0.78138000  0.43884000  0.69918000  1.0
  C  C165  1  0.73966000  0.58221000  0.80083000  1.0
  C  C166  1  0.14945000  0.49319000  0.90214000  1.0
  C  C167  1  0.59108000  0.74730000  0.59787000  1.0
  C  C168  1  0.85055000  0.50682000  0.09786000  1.0
  C  C169  1  0.40892000  0.25270000  0.40213000  1.0
  C  C170  1  0.04705000  0.40760000  0.80398000  1.0
  C  C171  1  0.60366000  0.74307000  0.69604000  1.0
  C  C172  1  0.95296000  0.59240000  0.19603000  1.0
  C  C173  1  0.39635000  0.25694000  0.30397000  1.0
  C  C174  1  0.96482000  0.32339000  0.80750000  1.0
  C  C175  1  0.51592000  0.65733000  0.69252000  1.0
  C  C176  1  0.03518000  0.67662000  0.19251000  1.0
  C  C177  1  0.48408000  0.34267000  0.30749000  1.0
  C  C178  1  0.17497000  0.70656000  0.14277000  1.0
  C  C179  1  0.56382000  0.53220000  0.35725000  1.0
  C  C180  1  0.82503000  0.29344000  0.85723000  1.0
  C  C181  1  0.43618000  0.46780000  0.64275000  1.0
  C  C182  1  0.21359000  0.64521000  0.07926000  1.0
  C  C183  1  0.56600000  0.63434000  0.42077000  1.0
  C  C184  1  0.78640000  0.35479000  0.92074000  1.0
  C  C185  1  0.43399000  0.36566000  0.57923000  1.0
  C  C186  1  0.20212000  0.44376000  0.94909000  1.0
  C  C187  1  0.49472000  0.75304000  0.55093000  1.0
  C  C188  1  0.79789000  0.55625000  0.05091000  1.0
  C  C189  1  0.50529000  0.24696000  0.44907000  1.0
  C  C190  1  0.21910000  0.55757000  0.87177000  1.0
  C  C191  1  0.68586000  0.84732000  0.62824000  1.0
  C  C192  1  0.78090000  0.44243000  0.12822000  1.0
  C  C193  1  0.31415000  0.15268000  0.37176000  1.0
  C  C194  1  0.89503000  0.22442000  0.70010000  1.0
  C  C195  1  0.52433000  0.69493000  0.79991000  1.0
  C  C196  1  0.10497000  0.77558000  0.29990000  1.0
  C  C197  1  0.47567000  0.30507000  0.20009000  1.0
  C  C198  1  0.77840000  0.30200000  0.33279000  1.0
  C  C199  1  0.96920000  0.94563000  0.16722000  1.0
  C  C200  1  0.22161000  0.69800000  0.66721000  1.0
  C  C201  1  0.03080000  0.05437000  0.83277000  1.0
  C  C202  1  0.83655000  0.24052000  0.34175000  1.0
  C  C203  1  0.89872000  0.99482000  0.15823000  1.0
  C  C204  1  0.16346000  0.75949000  0.65825000  1.0
  C  C205  1  0.10128000  0.00518000  0.84177000  1.0
  C  C206  1  0.91264000  0.27388000  0.44894000  1.0
  C  C207  1  0.82493000  0.96371000  0.05104000  1.0
  C  C208  1  0.08736000  0.72612000  0.55106000  1.0
  C  C209  1  0.17506000  0.03629000  0.94895000  1.0
  C  C210  1  0.90462000  0.59678000  0.41769000  1.0
  C  C211  1  0.17907000  0.98690000  0.08232000  1.0
  C  C212  1  0.09539000  0.40322000  0.58231000  1.0
  C  C213  1  0.82092000  0.01310000  0.91767000  1.0
  C  C214  1  0.81714000  0.48987000  0.38222000  1.0
  C  C215  1  0.10760000  0.93490000  0.11777000  1.0
  C  C216  1  0.18286000  0.51013000  0.61778000  1.0
  C  C217  1  0.89240000  0.06511000  0.88223000  1.0
  C  C218  1  0.70239000  0.24701000  0.21877000  1.0
  C  C219  1  0.02823000  0.98365000  0.28126000  1.0
  C  C220  1  0.29761000  0.75299000  0.78122000  1.0
  C  C221  1  0.97177000  0.01634000  0.71874000  1.0
  C  C222  1  0.72003000  0.30150000  0.39502000  1.0
  C  C223  1  0.90646000  0.82502000  0.10501000  1.0
  C  C224  1  0.27998000  0.69849000  0.60498000  1.0
  C  C225  1  0.09353000  0.17498000  0.89499000  1.0
  C  C226  1  0.92348000  0.17951000  0.44737000  1.0
  C  C227  1  0.73213000  0.97609000  0.05257000  1.0
  C  C228  1  0.07652000  0.82049000  0.55263000  1.0
  C  C229  1  0.26787000  0.02391000  0.94742000  1.0
  N  N230  1  0.04769000  0.41458000  0.04986000  1.0
  N  N231  1  0.36475000  0.49788000  0.45014000  1.0
  N  N232  1  0.95231000  0.58542000  0.95014000  1.0
  N  N233  1  0.63524000  0.50212000  0.54986000  1.0
  N  N234  1  0.05968000  0.50277000  0.40332000  1.0
  N  N235  1  0.09944000  0.15636000  0.09668000  1.0
  N  N236  1  0.94032000  0.49723000  0.59669000  1.0
  N  N237  1  0.90055000  0.84363000  0.90332000  1.0
  N  N238  1  0.88976000  0.24877000  0.13321000  1.0
  N  N239  1  0.11563000  0.25660000  0.36684000  1.0
  N  N240  1  0.11023000  0.75122000  0.86679000  1.0
  N  N241  1  0.88437000  0.74340000  0.63316000  1.0
  N  N242  1  0.25769000  0.65163000  0.32817000  1.0
  N  N243  1  0.32347000  0.42952000  0.17182000  1.0
  N  N244  1  0.74230000  0.34836000  0.67182000  1.0
  N  N245  1  0.67652000  0.57047000  0.82817000  1.0
  N  N246  1  0.12774000  0.56427000  0.97579000  1.0
  N  N247  1  0.58852000  0.65195000  0.52422000  1.0
  N  N248  1  0.87226000  0.43573000  0.02421000  1.0
  N  N249  1  0.41148000  0.34805000  0.47578000  1.0
  N  N250  1  0.90712000  0.36756000  0.85098000  1.0
  N  N251  1  0.51658000  0.55614000  0.64902000  1.0
  N  N252  1  0.09288000  0.63244000  0.14902000  1.0
  N  N253  1  0.48342000  0.44386000  0.35098000  1.0
  N  N254  1  0.85418000  0.41291000  0.36876000  1.0
  N  N255  1  0.04413000  0.98540000  0.13123000  1.0
  N  N256  1  0.14583000  0.58709000  0.63124000  1.0
  N  N257  1  0.95586000  0.01460000  0.86876000  1.0
  N  N258  1  0.01155000  0.36515000  0.48315000  1.0
  N  N259  1  0.88200000  0.02841000  0.01686000  1.0
  N  N260  1  0.98845000  0.63485000  0.51685000  1.0
  N  N261  1  0.11799000  0.97159000  0.98314000  1.0
