# generated using pymatgen
data_PrH9C7S2O11
_symmetry_space_group_name_H-M   'P 1'
_cell_length_a   6.80121000
_cell_length_b   9.23833000
_cell_length_c   11.39920000
_cell_angle_alpha   113.25600000
_cell_angle_beta   93.68160000
_cell_angle_gamma   104.83600000
_symmetry_Int_Tables_number   1
_chemical_formula_structural   PrH9C7S2O11
_chemical_formula_sum   'Pr2 H18 C14 S4 O22'
_cell_volume   624.98470483
_cell_formula_units_Z   2
loop_
 _symmetry_equiv_pos_site_id
 _symmetry_equiv_pos_as_xyz
  1  'x, y, z'
loop_
 _atom_site_type_symbol
 _atom_site_label
 _atom_site_symmetry_multiplicity
 _atom_site_fract_x
 _atom_site_fract_y
 _atom_site_fract_z
 _atom_site_occupancy
  Pr  Pr0  1  0.33552000  0.82453000  0.22824000  1.0
  Pr  Pr1  1  0.66448000  0.17547000  0.77176000  1.0
  H  H2  1  0.76773000  0.49443000  0.69321000  1.0
  H  H3  1  0.23227000  0.50557000  0.30679000  1.0
  H  H4  1  0.85831000  0.84938000  0.52838000  1.0
  H  H5  1  0.14169000  0.15062000  0.47162000  1.0
  H  H6  1  0.66278000  0.32414000  0.27828000  1.0
  H  H7  1  0.33722000  0.67586000  0.72172000  1.0
  H  H8  1  0.19804000  0.62931000  0.94190000  1.0
  H  H9  1  0.80196000  0.37069000  0.05810000  1.0
  H  H10  1  0.10621000  0.77302000  0.95183000  1.0
  H  H11  1  0.89379000  0.22698000  0.04817000  1.0
  H  H12  1  0.38321000  0.47152000  0.10810000  1.0
  H  H13  1  0.61679000  0.52848000  0.89190000  1.0
  H  H14  1  0.13696000  0.43620000  0.06609000  1.0
  H  H15  1  0.86304000  0.56380000  0.93391000  1.0
  H  H16  1  0.57793000  0.84212000  0.99283000  1.0
  H  H17  1  0.42207000  0.15788000  0.00717000  1.0
  H  H18  1  0.69015000  0.98753000  0.12591000  1.0
  H  H19  1  0.30985000  0.01247000  0.87409000  1.0
  C  C20  1  0.64625000  0.21346000  0.46665000  1.0
  C  C21  1  0.35375000  0.78654000  0.53335000  1.0
  C  C22  1  0.71356000  0.39075000  0.48391000  1.0
  C  C23  1  0.28644000  0.60925000  0.51608000  1.0
  C  C24  1  0.76900000  0.52083000  0.60819000  1.0
  C  C25  1  0.23100000  0.47917000  0.39181000  1.0
  C  C26  1  0.81919000  0.68442000  0.62321000  1.0
  C  C27  1  0.18081000  0.31558000  0.37679000  1.0
  C  C28  1  0.82043000  0.72171000  0.51608000  1.0
  C  C29  1  0.17957000  0.27829000  0.48391000  1.0
  C  C30  1  0.76633000  0.58979000  0.39224000  1.0
  C  C31  1  0.23367000  0.41021000  0.60776000  1.0
  C  C32  1  0.71167000  0.42568000  0.37492000  1.0
  C  C33  1  0.28832000  0.57432000  0.62508000  1.0
  S  S34  1  0.87333000  0.84392000  0.78437000  1.0
  S  S35  1  0.12667000  0.15608000  0.21563000  1.0
  S  S36  1  0.76245000  0.63247000  0.25337000  1.0
  S  S37  1  0.23755000  0.36753000  0.74663000  1.0
  O  O38  1  0.57076000  0.10172000  0.35205000  1.0
  O  O39  1  0.42924000  0.89828000  0.64795000  1.0
  O  O40  1  0.66688000  0.18644000  0.56672000  1.0
  O  O41  1  0.33312000  0.81356000  0.43328000  1.0
  O  O42  1  0.08093000  0.85645000  0.84366000  1.0
  O  O43  1  0.91907000  0.14355000  0.15634000  1.0
  O  O44  1  0.87709000  0.99614000  0.76966000  1.0
  O  O45  1  0.12291000  0.00386000  0.23034000  1.0
  O  O46  1  0.71118000  0.79120000  0.84951000  1.0
  O  O47  1  0.28882000  0.20880000  0.15049000  1.0
  O  O48  1  0.66147000  0.76152000  0.27855000  1.0
  O  O49  1  0.33853000  0.23847000  0.72145000  1.0
  O  O50  1  0.64503000  0.47462000  0.14258000  1.0
  O  O51  1  0.35497000  0.52537000  0.85742000  1.0
  O  O52  1  0.97768000  0.68683000  0.23945000  1.0
  O  O53  1  0.02232000  0.31317000  0.76055000  1.0
  O  O54  1  0.11771000  0.69937000  0.99477000  1.0
  O  O55  1  0.88229000  0.30064000  0.00523000  1.0
  O  O56  1  0.27115000  0.52267000  0.11476000  1.0
  O  O57  1  0.72885000  0.47733000  0.88524000  1.0
  O  O58  1  0.55977000  0.89468000  0.08329000  1.0
  O  O59  1  0.44023000  0.10532000  0.91672000  1.0
