# generated using pymatgen
data_CoH17C16(NO2)2
_symmetry_space_group_name_H-M   'P 1'
_cell_length_a   7.96738000
_cell_length_b   10.48504950
_cell_length_c   10.99280000
_cell_angle_alpha   68.70809735
_cell_angle_beta   74.94100000
_cell_angle_gamma   69.84627997
_symmetry_Int_Tables_number   1
_chemical_formula_structural   CoH17C16(NO2)2
_chemical_formula_sum   'Co2 H34 C32 N4 O8'
_cell_volume   793.66676438
_cell_formula_units_Z   2
loop_
 _symmetry_equiv_pos_site_id
 _symmetry_equiv_pos_as_xyz
  1  'x, y, z'
loop_
 _atom_site_type_symbol
 _atom_site_label
 _atom_site_symmetry_multiplicity
 _atom_site_fract_x
 _atom_site_fract_y
 _atom_site_fract_z
 _atom_site_occupancy
  Co  Co0  1  0.03994000  0.51640000  0.58778000  1.0
  Co  Co1  1  0.96006000  0.48361000  0.41221000  1.0
  H  H2  1  0.62341000  0.09070000  0.62751000  1.0
  H  H3  1  0.37657000  0.90931000  0.37253000  1.0
  H  H4  1  0.60157000  0.84101000  0.71362000  1.0
  H  H5  1  0.39842000  0.15900000  0.28641000  1.0
  H  H6  1  0.97016000  0.78886000  0.67340000  1.0
  H  H7  1  0.02981000  0.21114000  0.32660000  1.0
  H  H8  1  0.05563000  0.79294000  0.90363000  1.0
  H  H9  1  0.94436000  0.20706000  0.09637000  1.0
  H  H10  1  0.10588000  0.93295000  0.30763000  1.0
  H  H11  1  0.89412000  0.06704000  0.69236000  1.0
  H  H12  1  0.86938000  0.96727000  0.33240000  1.0
  H  H13  1  0.13063000  0.03272000  0.66758000  1.0
  H  H14  1  0.28924000  0.90912000  0.08921000  1.0
  H  H15  1  0.71078000  0.09086000  0.91077000  1.0
  H  H16  1  0.56677000  0.32561000  0.29313000  1.0
  H  H17  1  0.43323000  0.67437000  0.70688000  1.0
  H  H18  1  0.61323000  0.31134000  0.44836000  1.0
  H  H19  1  0.38677000  0.68867000  0.55164000  1.0
  H  H20  1  0.23973000  0.41717000  0.10254000  1.0
  H  H21  1  0.76028000  0.58283000  0.89746000  1.0
  H  H22  1  0.13832000  0.59226000  0.10982000  1.0
  H  H23  1  0.86168000  0.40774000  0.89018000  1.0
  H  H24  1  0.22108000  0.28423000  0.83241000  1.0
  H  H25  1  0.77894000  0.71577000  0.16757000  1.0
  H  H26  1  0.25774000  0.27789000  0.98812000  1.0
  H  H27  1  0.74227000  0.72211000  0.01187000  1.0
  H  H28  1  0.42502000  0.30820000  0.84578000  1.0
  H  H29  1  0.57500000  0.69181000  0.15421000  1.0
  H  H30  1  0.44864000  0.53016000  0.13388000  1.0
  H  H31  1  0.55135000  0.46984000  0.86613000  1.0
  H  H32  1  0.41991000  0.66126000  0.97924000  1.0
  H  H33  1  0.58009000  0.33875000  0.02076000  1.0
  H  H34  1  0.70880000  0.00834000  0.15343000  1.0
  H  H35  1  0.29122000  0.99164000  0.84655000  1.0
  C  C36  1  0.56949000  0.05065000  0.57131000  1.0
  C  C37  1  0.43051000  0.94936000  0.42871000  1.0
  C  C38  1  0.55473000  0.91147000  0.62051000  1.0
  C  C39  1  0.44524000  0.08854000  0.37953000  1.0
  C  C40  1  0.33085000  0.38667000  0.42979000  1.0
  C  C41  1  0.66916000  0.61333000  0.57021000  1.0
  C  C42  1  0.04091000  0.70390000  0.74988000  1.0
  C  C43  1  0.95908000  0.29610000  0.25013000  1.0
  C  C44  1  0.08260000  0.70775000  0.86177000  1.0
  C  C45  1  0.91739000  0.29225000  0.13823000  1.0
  C  C46  1  0.01104000  0.75095000  0.35842000  1.0
  C  C47  1  0.98896000  0.24904000  0.64157000  1.0
  C  C48  1  0.99675000  0.90752000  0.28510000  1.0
  C  C49  1  0.00326000  0.09247000  0.71488000  1.0
  C  C50  1  0.99865000  0.95213000  0.13847000  1.0
  C  C51  1  0.00135000  0.04787000  0.86151000  1.0
  C  C52  1  0.16165000  0.94879000  0.05035000  1.0
  C  C53  1  0.83836000  0.05120000  0.94963000  1.0
  C  C54  1  0.52149000  0.29459000  0.40031000  1.0
  C  C55  1  0.47851000  0.70541000  0.59970000  1.0
  C  C56  1  0.51547000  0.14125000  0.44995000  1.0
  C  C57  1  0.48453000  0.85875000  0.55008000  1.0
  C  C58  1  0.18847000  0.48612000  0.84883000  1.0
  C  C59  1  0.81153000  0.51388000  0.15116000  1.0
  C  C60  1  0.23873000  0.52843000  0.04985000  1.0
  C  C61  1  0.76127000  0.47158000  0.95015000  1.0
  C  C62  1  0.27848000  0.33044000  0.88111000  1.0
  C  C63  1  0.72153000  0.66956000  0.11888000  1.0
  C  C64  1  0.42391000  0.54911000  0.03408000  1.0
  C  C65  1  0.57609000  0.45090000  0.96592000  1.0
  C  C66  1  0.83692000  0.00385000  0.08596000  1.0
  C  C67  1  0.16309000  0.99614000  0.91403000  1.0
  N  N68  1  0.10646000  0.56620000  0.74333000  1.0
  N  N69  1  0.89354000  0.43380000  0.25667000  1.0
  N  N70  1  0.17512000  0.56998000  0.92398000  1.0
  N  N71  1  0.82488000  0.43002000  0.07601000  1.0
  O  O72  1  0.05254000  0.70626000  0.47423000  1.0
  O  O73  1  0.94743000  0.29375000  0.52576000  1.0
  O  O74  1  0.29354000  0.43177000  0.52963000  1.0
  O  O75  1  0.70646000  0.56824000  0.47037000  1.0
  O  O76  1  0.21823000  0.40466000  0.35645000  1.0
  O  O77  1  0.78177000  0.59533000  0.64355000  1.0
  O  O78  1  0.97531000  0.67728000  0.30323000  1.0
  O  O79  1  0.02470000  0.32271000  0.69676000  1.0
