# generated using pymatgen
data_Zn4Si3H68(C6O)14
_symmetry_space_group_name_H-M   'P 1'
_cell_length_a   11.98730000
_cell_length_b   14.75450000
_cell_length_c   28.06800000
_cell_angle_alpha   96.93610000
_cell_angle_beta   89.98520000
_cell_angle_gamma   113.97200000
_symmetry_Int_Tables_number   1
_chemical_formula_structural   Zn4Si3H68(C6O)14
_chemical_formula_sum   'Zn8 Si6 H136 C168 O28'
_cell_volume   4496.37204476
_cell_formula_units_Z   2
loop_
 _symmetry_equiv_pos_site_id
 _symmetry_equiv_pos_as_xyz
  1  'x, y, z'
loop_
 _atom_site_type_symbol
 _atom_site_label
 _atom_site_symmetry_multiplicity
 _atom_site_fract_x
 _atom_site_fract_y
 _atom_site_fract_z
 _atom_site_occupancy
  Zn  Zn0  1  0.50483000  0.07543000  0.74203000  1.0
  Zn  Zn1  1  0.65816000  0.94491000  0.76430000  1.0
  Zn  Zn2  1  0.92928000  0.92450000  0.75793000  1.0
  Zn  Zn3  1  0.21330000  0.05492000  0.73561000  1.0
  Zn  Zn4  1  0.49517000  0.92457000  0.25797000  1.0
  Zn  Zn5  1  0.34184000  0.05509000  0.23570000  1.0
  Zn  Zn6  1  0.07071000  0.07550000  0.24207000  1.0
  Zn  Zn7  1  0.78670000  0.94508000  0.26439000  1.0
  Si  Si8  1  0.65253000  0.26481000  0.04930000  1.0
  Si  Si9  1  0.88739000  0.73530000  0.45071000  1.0
  Si  Si10  1  0.34747000  0.73519000  0.95070000  1.0
  Si  Si11  1  0.11261000  0.26471000  0.54929000  1.0
  Si  Si12  1  0.89592000  0.49985000  0.74994000  1.0
  Si  Si13  1  0.10408000  0.50015000  0.25006000  1.0
  H  H14  1  0.62211000  0.33641000  0.95732000  1.0
  H  H15  1  0.60683000  0.26464000  0.87175000  1.0
  H  H16  1  0.70322000  0.03268000  0.91266000  1.0
  H  H17  1  0.71329000  0.10082000  0.99870000  1.0
  H  H18  1  0.42799000  0.16723000  0.98355000  1.0
  H  H19  1  0.20833000  0.08440000  0.99601000  1.0
  H  H20  1  0.28251000  0.15810000  0.14921000  1.0
  H  H21  1  0.50250000  0.24038000  0.13719000  1.0
  H  H22  1  0.07863000  0.02168000  0.11177000  1.0
  H  H23  1  0.05405000  0.11945000  0.08969000  1.0
  H  H24  1  0.04450000  0.01387000  0.04918000  1.0
  H  H25  1  0.55404000  0.07224000  0.09084000  1.0
  H  H26  1  0.64416000  0.99696000  0.14609000  1.0
  H  H27  1  0.99101000  0.24968000  0.14913000  1.0
  H  H28  1  0.90167000  0.32705000  0.09516000  1.0
  H  H29  1  0.67347000  0.42113000  0.13353000  1.0
  H  H30  1  0.81411000  0.59840000  0.15433000  1.0
  H  H31  1  0.97283000  0.59408000  0.01699000  1.0
  H  H32  1  0.83503000  0.41614000  0.99640000  1.0
  H  H33  1  0.02308000  0.73579000  0.13655000  1.0
  H  H34  1  0.06443000  0.74059000  0.07576000  1.0
  H  H35  1  0.93782000  0.76626000  0.09480000  1.0
  H  H36  1  0.98054000  0.69241000  0.70648000  1.0
  H  H37  1  0.18388000  0.83580000  0.70742000  1.0
  H  H38  1  0.34272000  0.69312000  0.79356000  1.0
  H  H39  1  0.14015000  0.55088000  0.79475000  1.0
  H  H40  1  0.92691000  0.46513000  0.85031000  1.0
  H  H41  1  0.85944000  0.51525000  0.92771000  1.0
  H  H42  1  0.64773000  0.63869000  0.85561000  1.0
  H  H43  1  0.71398000  0.58800000  0.77726000  1.0
  H  H44  1  0.77546000  0.62840000  0.97389000  1.0
  H  H45  1  0.68080000  0.67296000  0.94366000  1.0
  H  H46  1  0.62314000  0.54694000  0.95502000  1.0
  H  H47  1  0.41420000  0.20196000  0.74485000  1.0
  H  H48  1  0.78534000  0.66365000  0.54271000  1.0
  H  H49  1  0.84202000  0.73537000  0.62827000  1.0
  H  H50  1  0.17038000  0.96721000  0.58726000  1.0
  H  H51  1  0.11227000  0.89904000  0.50123000  1.0
  H  H52  1  0.76056000  0.83321000  0.51650000  1.0
  H  H53  1  0.62377000  0.91608000  0.50396000  1.0
  H  H54  1  0.62447000  0.84202000  0.35078000  1.0
  H  H55  1  0.76215000  0.75977000  0.36289000  1.0
  H  H56  1  0.55674000  0.97842000  0.38815000  1.0
  H  H57  1  0.43444000  0.88060000  0.41025000  1.0
  H  H58  1  0.53036000  0.98624000  0.45075000  1.0
  H  H59  1  0.98181000  0.92809000  0.40917000  1.0
  H  H60  1  0.14744000  0.00321000  0.35394000  1.0
  H  H61  1  0.24093000  0.75018000  0.35095000  1.0
  H  H62  1  0.07394000  0.67299000  0.40488000  1.0
  H  H63  1  0.75233000  0.57891000  0.36641000  1.0
  H  H64  1  0.71573000  0.40166000  0.34562000  1.0
  H  H65  1  0.87855000  0.40603000  0.48298000  1.0
  H  H66  1  0.91874000  0.58399000  0.50356000  1.0
  H  H67  1  0.78735000  0.26431000  0.36342000  1.0
  H  H68  1  0.82387000  0.25954000  0.42422000  1.0
  H  H69  1  0.67161000  0.23382000  0.40517000  1.0
  H  H70  1  0.78825000  0.30753000  0.79343000  1.0
  H  H71  1  0.84829000  0.16424000  0.79260000  1.0
  H  H72  1  0.14981000  0.30674000  0.70636000  1.0
  H  H73  1  0.08933000  0.44888000  0.70505000  1.0
  H  H74  1  0.96164000  0.53439000  0.64972000  1.0
  H  H75  1  0.84439000  0.48458000  0.57227000  1.0
  H  H76  1  0.50889000  0.36137000  0.64425000  1.0
  H  H77  1  0.62554000  0.41179000  0.72264000  1.0
  H  H78  1  0.64733000  0.37178000  0.52601000  1.0
  H  H79  1  0.50801000  0.32709000  0.55621000  1.0
  H  H80  1  0.57645000  0.45319000  0.54497000  1.0
  H  H81  1  0.71208000  0.79791000  0.75513000  1.0
  H  H82  1  0.37789000  0.66359000  0.04268000  1.0
  H  H83  1  0.39317000  0.73536000  0.12825000  1.0
  H  H84  1  0.29678000  0.96732000  0.08734000  1.0
  H  H85  1  0.28671000  0.89918000  0.00130000  1.0
  H  H86  1  0.57200000  0.83277000  0.01645000  1.0
  H  H87  1  0.79167000  0.91559000  0.00399000  1.0
  H  H88  1  0.71749000  0.84190000  0.85079000  1.0
  H  H89  1  0.49750000  0.75962000  0.86281000  1.0
  H  H90  1  0.92137000  0.97831000  0.88823000  1.0
  H  H91  1  0.94595000  0.88054000  0.91031000  1.0
  H  H92  1  0.95550000  0.98612000  0.95082000  1.0
  H  H93  1  0.44595000  0.92776000  0.90915000  1.0
  H  H94  1  0.35584000  0.00304000  0.85391000  1.0
  H  H95  1  0.00899000  0.75032000  0.85087000  1.0
  H  H96  1  0.09834000  0.67295000  0.90484000  1.0
  H  H97  1  0.32653000  0.57887000  0.86647000  1.0
  H  H98  1  0.18589000  0.40160000  0.84567000  1.0
  H  H99  1  0.02717000  0.40592000  0.98301000  1.0
  H  H100  1  0.16497000  0.58386000  0.00360000  1.0
  H  H101  1  0.97692000  0.26421000  0.86345000  1.0
  H  H102  1  0.93557000  0.25941000  0.92424000  1.0
  H  H103  1  0.06218000  0.23374000  0.90520000  1.0
  H  H104  1  0.01946000  0.30758000  0.29352000  1.0
  H  H105  1  0.81611000  0.16420000  0.29258000  1.0
  H  H106  1  0.65729000  0.30688000  0.20644000  1.0
  H  H107  1  0.85986000  0.44913000  0.20525000  1.0
  H  H108  1  0.07309000  0.53488000  0.14969000  1.0
  H  H109  1  0.14057000  0.48475000  0.07229000  1.0
  H  H110  1  0.35226000  0.36130000  0.14439000  1.0
  H  H111  1  0.28602000  0.41199000  0.22274000  1.0
  H  H112  1  0.22454000  0.37160000  0.02611000  1.0
  H  H113  1  0.31920000  0.32704000  0.05633000  1.0
  H  H114  1  0.37686000  0.45306000  0.04498000  1.0
  H  H115  1  0.58580000  0.79804000  0.25515000  1.0
  H  H116  1  0.21466000  0.33635000  0.45729000  1.0
  H  H117  1  0.15799000  0.26464000  0.37173000  1.0
  H  H118  1  0.82962000  0.03279000  0.41273000  1.0
  H  H119  1  0.88773000  0.10096000  0.49877000  1.0
  H  H120  1  0.23944000  0.16679000  0.48350000  1.0
  H  H121  1  0.37622000  0.08392000  0.49605000  1.0
  H  H122  1  0.37553000  0.15798000  0.64923000  1.0
  H  H123  1  0.23786000  0.24023000  0.63711000  1.0
  H  H124  1  0.44326000  0.02158000  0.61185000  1.0
  H  H125  1  0.56556000  0.11940000  0.58975000  1.0
  H  H126  1  0.46963000  0.01376000  0.54926000  1.0
  H  H127  1  0.01819000  0.07190000  0.59083000  1.0
  H  H128  1  0.85255000  0.99680000  0.64606000  1.0
  H  H129  1  0.75906000  0.24982000  0.64905000  1.0
  H  H130  1  0.92606000  0.32701000  0.59512000  1.0
  H  H131  1  0.24767000  0.42109000  0.63359000  1.0
  H  H132  1  0.28427000  0.59835000  0.65438000  1.0
  H  H133  1  0.12144000  0.59398000  0.51702000  1.0
  H  H134  1  0.08126000  0.41601000  0.49644000  1.0
  H  H135  1  0.21265000  0.73569000  0.63658000  1.0
  H  H136  1  0.17613000  0.74046000  0.57578000  1.0
  H  H137  1  0.32839000  0.76618000  0.59483000  1.0
  H  H138  1  0.21175000  0.69247000  0.20657000  1.0
  H  H139  1  0.15171000  0.83576000  0.20740000  1.0
  H  H140  1  0.85019000  0.69325000  0.29364000  1.0
  H  H141  1  0.91067000  0.55111000  0.29495000  1.0
  H  H142  1  0.03836000  0.46561000  0.35028000  1.0
  H  H143  1  0.15561000  0.51542000  0.42773000  1.0
  H  H144  1  0.49111000  0.63863000  0.35575000  1.0
  H  H145  1  0.37446000  0.58821000  0.27736000  1.0
  H  H146  1  0.35268000  0.62822000  0.47400000  1.0
  H  H147  1  0.49199000  0.67291000  0.44379000  1.0
  H  H148  1  0.42355000  0.54682000  0.45503000  1.0
  H  H149  1  0.28792000  0.20209000  0.24487000  1.0
  C  C150  1  0.66763000  0.22326000  0.98451000  1.0
  C  C151  1  0.63992000  0.26965000  0.94798000  1.0
  C  C152  1  0.63147000  0.23020000  0.89988000  1.0
  C  C153  1  0.65331000  0.14416000  0.88727000  1.0
  C  C154  1  0.68594000  0.09930000  0.92293000  1.0
  C  C155  1  0.69169000  0.13825000  0.97110000  1.0
  C  C156  1  0.63587000  0.09810000  0.83619000  1.0
  C  C157  1  0.48373000  0.21373000  0.05913000  1.0
  C  C158  1  0.39744000  0.16783000  0.02015000  1.0
  C  C159  1  0.27262000  0.12028000  0.02716000  1.0
  C  C160  1  0.22874000  0.11645000  0.07348000  1.0
  C  C161  1  0.31423000  0.16198000  0.11270000  1.0
  C  C162  1  0.43890000  0.20929000  0.10561000  1.0
  C  C163  1  0.09450000  0.06483000  0.08127000  1.0
  C  C164  1  0.72136000  0.20512000  0.08897000  1.0
  C  C165  1  0.65006000  0.11125000  0.10320000  1.0
  C  C166  1  0.69970000  0.06845000  0.13392000  1.0
  C  C167  1  0.82261000  0.11867000  0.15046000  1.0
  C  C168  1  0.89596000  0.21096000  0.13559000  1.0
  C  C169  1  0.84494000  0.25372000  0.10533000  1.0
  C  C170  1  0.87297000  0.07661000  0.18604000  1.0
  C  C171  1  0.74195000  0.40407000  0.06291000  1.0
  C  C172  1  0.73838000  0.45820000  0.10737000  1.0
  C  C173  1  0.81769000  0.55861000  0.11929000  1.0
  C  C174  1  0.90323000  0.60972000  0.08700000  1.0
  C  C175  1  0.90691000  0.55627000  0.04269000  1.0
  C  C176  1  0.82832000  0.45554000  0.03102000  1.0
  C  C177  1  0.98689000  0.71852000  0.09909000  1.0
  C  C178  1  0.04627000  0.61017000  0.74965000  1.0
  C  C179  1  0.05923000  0.69181000  0.72575000  1.0
  C  C180  1  0.17221000  0.77212000  0.72592000  1.0
  C  C181  1  0.27449000  0.77142000  0.74964000  1.0
  C  C182  1  0.26258000  0.69161000  0.77459000  1.0
  C  C183  1  0.14902000  0.61246000  0.77492000  1.0
  C  C184  1  0.39501000  0.85630000  0.74867000  1.0
  C  C185  1  0.82382000  0.52067000  0.80716000  1.0
  C  C186  1  0.86382000  0.50168000  0.85059000  1.0
  C  C187  1  0.82603000  0.53040000  0.89467000  1.0
  C  C188  1  0.74689000  0.57936000  0.89735000  1.0
  C  C189  1  0.70731000  0.59888000  0.85421000  1.0
  C  C190  1  0.74509000  0.57018000  0.81006000  1.0
  C  C191  1  0.70492000  0.60906000  0.94490000  1.0
  C  C192  1  0.94408000  0.77675000  0.51547000  1.0
  C  C193  1  0.86996000  0.73040000  0.55203000  1.0
  C  C194  1  0.90102000  0.76982000  0.60011000  1.0
  C  C195  1  0.00896000  0.85581000  0.61270000  1.0
  C  C196  1  0.08645000  0.90063000  0.57702000  1.0
  C  C197  1  0.05322000  0.86168000  0.52885000  1.0
  C  C198  1  0.03781000  0.90185000  0.66376000  1.0
  C  C199  1  0.76975000  0.78648000  0.44095000  1.0
  C  C200  1  0.72940000  0.83254000  0.47989000  1.0
  C  C201  1  0.65215000  0.88009000  0.47283000  1.0
  C  C202  1  0.61219000  0.88378000  0.42648000  1.0
  C  C203  1  0.65227000  0.83822000  0.38730000  1.0
  C  C204  1  0.72952000  0.79085000  0.39444000  1.0
  C  C205  1  0.52948000  0.93530000  0.41865000  1.0
  C  C206  1  0.01590000  0.79507000  0.41103000  1.0
  C  C207  1  0.03875000  0.88899000  0.39682000  1.0
  C  C208  1  0.13128000  0.93170000  0.36611000  1.0
  C  C209  1  0.20382000  0.88132000  0.34958000  1.0
  C  C210  1  0.18469000  0.78901000  0.36448000  1.0
  C  C211  1  0.09078000  0.74635000  0.39471000  1.0
  C  C212  1  0.29632000  0.92333000  0.31401000  1.0
  C  C213  1  0.83781000  0.59604000  0.43704000  1.0
  C  C214  1  0.78016000  0.54187000  0.39258000  1.0
  C  C215  1  0.75908000  0.44147000  0.38067000  1.0
  C  C216  1  0.79353000  0.39039000  0.41297000  1.0
  C  C217  1  0.85058000  0.44386000  0.45727000  1.0
  C  C218  1  0.87268000  0.54458000  0.46894000  1.0
  C  C219  1  0.76842000  0.28160000  0.40088000  1.0
  C  C220  1  0.93613000  0.38965000  0.75017000  1.0
  C  C221  1  0.86753000  0.30809000  0.77414000  1.0
  C  C222  1  0.90028000  0.22785000  0.77405000  1.0
  C  C223  1  0.00327000  0.22852000  0.75033000  1.0
  C  C224  1  0.07118000  0.30829000  0.72534000  1.0
  C  C225  1  0.03664000  0.38736000  0.72493000  1.0
  C  C226  1  0.03871000  0.14354000  0.75126000  1.0
  C  C227  1  0.80282000  0.47897000  0.69280000  1.0
  C  C228  1  0.86198000  0.49791000  0.64939000  1.0
  C  C229  1  0.79567000  0.46939000  0.60529000  1.0
  C  C230  1  0.66757000  0.42054000  0.60257000  1.0
  C  C231  1  0.60830000  0.40103000  0.64568000  1.0
  C  C232  1  0.67460000  0.42960000  0.68986000  1.0
  C  C233  1  0.59607000  0.39099000  0.55502000  1.0
  C  C234  1  0.33238000  0.77674000  0.01549000  1.0
  C  C235  1  0.36008000  0.73036000  0.05202000  1.0
  C  C236  1  0.36853000  0.76980000  0.10012000  1.0
  C  C237  1  0.34669000  0.85584000  0.11273000  1.0
  C  C238  1  0.31406000  0.90070000  0.07707000  1.0
  C  C239  1  0.30831000  0.86175000  0.02890000  1.0
  C  C240  1  0.36413000  0.90190000  0.16381000  1.0
  C  C241  1  0.51627000  0.78627000  0.94087000  1.0
  C  C242  1  0.60255000  0.83217000  0.97985000  1.0
  C  C243  1  0.72738000  0.87971000  0.97284000  1.0
  C  C244  1  0.77126000  0.88355000  0.92652000  1.0
  C  C245  1  0.68577000  0.83803000  0.88730000  1.0
  C  C246  1  0.56110000  0.79071000  0.89439000  1.0
  C  C247  1  0.90550000  0.93517000  0.91873000  1.0
  C  C248  1  0.27864000  0.79489000  0.91103000  1.0
  C  C249  1  0.34994000  0.88875000  0.89680000  1.0
  C  C250  1  0.30030000  0.93154000  0.86607000  1.0
  C  C251  1  0.17738000  0.88132000  0.84954000  1.0
  C  C252  1  0.10404000  0.78904000  0.86441000  1.0
  C  C253  1  0.15506000  0.74628000  0.89467000  1.0
  C  C254  1  0.12703000  0.92338000  0.81396000  1.0
  C  C255  1  0.25805000  0.59593000  0.93708000  1.0
  C  C256  1  0.26163000  0.54180000  0.89263000  1.0
  C  C257  1  0.18231000  0.44139000  0.88071000  1.0
  C  C258  1  0.09678000  0.39028000  0.91300000  1.0
  C  C259  1  0.09309000  0.44373000  0.95732000  1.0
  C  C260  1  0.17168000  0.54447000  0.96898000  1.0
  C  C261  1  0.01312000  0.28148000  0.90091000  1.0
  C  C262  1  0.95373000  0.38983000  0.25035000  1.0
  C  C263  1  0.94077000  0.30819000  0.27425000  1.0
  C  C264  1  0.82779000  0.22788000  0.27408000  1.0
  C  C265  1  0.72551000  0.22858000  0.25036000  1.0
  C  C266  1  0.73743000  0.30839000  0.22541000  1.0
  C  C267  1  0.85099000  0.38754000  0.22509000  1.0
  C  C268  1  0.60499000  0.14370000  0.25133000  1.0
  C  C269  1  0.17618000  0.47933000  0.19284000  1.0
  C  C270  1  0.13618000  0.49832000  0.14941000  1.0
  C  C271  1  0.17397000  0.46960000  0.10533000  1.0
  C  C272  1  0.25311000  0.42064000  0.10265000  1.0
  C  C273  1  0.29269000  0.40112000  0.14579000  1.0
  C  C274  1  0.25491000  0.42981000  0.18994000  1.0
  C  C275  1  0.29507000  0.39094000  0.05510000  1.0
  C  C276  1  0.05592000  0.22325000  0.48453000  1.0
  C  C277  1  0.13004000  0.26961000  0.44798000  1.0
  C  C278  1  0.09898000  0.23019000  0.39989000  1.0
  C  C279  1  0.99104000  0.14420000  0.38730000  1.0
  C  C280  1  0.91355000  0.09938000  0.42297000  1.0
  C  C281  1  0.94678000  0.13832000  0.47115000  1.0
  C  C282  1  0.96219000  0.09816000  0.33623000  1.0
  C  C283  1  0.23025000  0.21352000  0.55906000  1.0
  C  C284  1  0.27060000  0.16746000  0.52011000  1.0
  C  C285  1  0.34784000  0.11991000  0.52717000  1.0
  C  C286  1  0.38781000  0.11622000  0.57352000  1.0
  C  C287  1  0.34773000  0.16178000  0.61270000  1.0
  C  C288  1  0.27049000  0.20915000  0.60556000  1.0
  C  C289  1  0.47052000  0.06470000  0.58135000  1.0
  C  C290  1  0.98410000  0.20493000  0.58897000  1.0
  C  C291  1  0.96125000  0.11100000  0.60318000  1.0
  C  C292  1  0.86872000  0.06831000  0.63389000  1.0
  C  C293  1  0.79618000  0.11868000  0.65042000  1.0
  C  C294  1  0.81531000  0.21099000  0.63552000  1.0
  C  C295  1  0.90923000  0.25365000  0.60529000  1.0
  C  C296  1  0.70368000  0.07667000  0.68599000  1.0
  C  C297  1  0.16219000  0.40396000  0.56296000  1.0
  C  C298  1  0.21984000  0.45813000  0.60742000  1.0
  C  C299  1  0.24092000  0.55853000  0.61933000  1.0
  C  C300  1  0.20647000  0.60962000  0.58703000  1.0
  C  C301  1  0.14942000  0.55615000  0.54273000  1.0
  C  C302  1  0.12732000  0.45542000  0.53106000  1.0
  C  C303  1  0.23158000  0.71840000  0.59912000  1.0
  C  C304  1  0.06387000  0.61035000  0.24983000  1.0
  C  C305  1  0.13247000  0.69191000  0.22586000  1.0
  C  C306  1  0.09972000  0.77215000  0.22595000  1.0
  C  C307  1  0.99673000  0.77148000  0.24967000  1.0
  C  C308  1  0.92882000  0.69171000  0.27466000  1.0
  C  C309  1  0.96336000  0.61264000  0.27507000  1.0
  C  C310  1  0.96129000  0.85646000  0.24874000  1.0
  C  C311  1  0.19718000  0.52103000  0.30720000  1.0
  C  C312  1  0.13802000  0.50209000  0.35061000  1.0
  C  C313  1  0.20433000  0.53061000  0.39471000  1.0
  C  C314  1  0.33243000  0.57946000  0.39743000  1.0
  C  C315  1  0.39170000  0.59897000  0.35432000  1.0
  C  C316  1  0.32540000  0.57040000  0.31014000  1.0
  C  C317  1  0.40394000  0.60901000  0.44498000  1.0
  O  O318  1  0.57250000  0.12375000  0.80847000  1.0
  O  O319  1  0.68444000  0.03664000  0.82419000  1.0
  O  O320  1  0.98772000  0.12036000  0.19672000  1.0
  O  O321  1  0.79776000  0.00044000  0.20365000  1.0
  O  O322  1  0.39641000  0.93291000  0.73139000  1.0
  O  O323  1  0.48823000  0.84623000  0.76494000  1.0
  O  O324  1  0.38824000  0.13291000  0.73045000  1.0
  O  O325  1  0.94892000  0.87613000  0.69155000  1.0
  O  O326  1  0.14787000  0.96333000  0.67568000  1.0
  O  O327  1  0.36743000  0.87965000  0.30338000  1.0
  O  O328  1  0.29723000  0.99944000  0.29635000  1.0
  O  O329  1  0.96337000  0.06695000  0.76854000  1.0
  O  O330  1  0.14191000  0.15347000  0.73495000  1.0
  O  O331  1  0.75517000  0.86699000  0.76948000  1.0
  O  O332  1  0.42750000  0.87625000  0.19152000  1.0
  O  O333  1  0.31556000  0.96336000  0.17581000  1.0
  O  O334  1  0.01228000  0.87963000  0.80328000  1.0
  O  O335  1  0.20223000  0.99956000  0.79635000  1.0
  O  O336  1  0.60358000  0.06709000  0.26861000  1.0
  O  O337  1  0.51177000  0.15377000  0.23506000  1.0
  O  O338  1  0.61176000  0.86709000  0.26955000  1.0
  O  O339  1  0.05108000  0.12387000  0.30845000  1.0
  O  O340  1  0.85213000  0.03668000  0.32432000  1.0
  O  O341  1  0.63257000  0.12035000  0.69662000  1.0
  O  O342  1  0.70277000  0.00057000  0.70365000  1.0
  O  O343  1  0.03663000  0.93305000  0.23146000  1.0
  O  O344  1  0.85809000  0.84653000  0.26505000  1.0
  O  O345  1  0.24483000  0.13301000  0.23052000  1.0
