# generated using pymatgen
data_CuH17C11N3O4
_symmetry_space_group_name_H-M   'P 1'
_cell_length_a   7.91919000
_cell_length_b   15.88530000
_cell_length_c   22.56600000
_cell_angle_alpha   90.00030000
_cell_angle_beta   89.99930000
_cell_angle_gamma   89.99930000
_symmetry_Int_Tables_number   1
_chemical_formula_structural   CuH17C11N3O4
_chemical_formula_sum   'Cu8 H136 C88 N24 O32'
_cell_volume   2838.77366473
_cell_formula_units_Z   8
loop_
 _symmetry_equiv_pos_site_id
 _symmetry_equiv_pos_as_xyz
  1  'x, y, z'
loop_
 _atom_site_type_symbol
 _atom_site_label
 _atom_site_symmetry_multiplicity
 _atom_site_fract_x
 _atom_site_fract_y
 _atom_site_fract_z
 _atom_site_occupancy
  Cu  Cu0  1  0.72342000  0.13392000  0.41707000  1.0
  Cu  Cu1  1  0.72345000  0.63394000  0.08293000  1.0
  Cu  Cu2  1  0.22342000  0.36607000  0.41707000  1.0
  Cu  Cu3  1  0.77656000  0.13393000  0.91708000  1.0
  Cu  Cu4  1  0.27658000  0.86607000  0.58293000  1.0
  Cu  Cu5  1  0.27655000  0.36607000  0.91708000  1.0
  Cu  Cu6  1  0.77658000  0.63393000  0.58293000  1.0
  Cu  Cu7  1  0.22345000  0.86608000  0.08294000  1.0
  H  H8  1  0.00216000  0.12400000  0.61744000  1.0
  H  H9  1  0.00217000  0.62399000  0.88256000  1.0
  H  H10  1  0.50216000  0.37601000  0.61744000  1.0
  H  H11  1  0.49782000  0.12399000  0.11745000  1.0
  H  H12  1  0.99784000  0.87600000  0.38255000  1.0
  H  H13  1  0.99783000  0.37602000  0.11745000  1.0
  H  H14  1  0.49784000  0.62398000  0.38256000  1.0
  H  H15  1  0.50216000  0.87602000  0.88256000  1.0
  H  H16  1  0.98444000  0.06144000  0.51500000  1.0
  H  H17  1  0.98445000  0.56144000  0.98501000  1.0
  H  H18  1  0.48445000  0.43856000  0.51499000  1.0
  H  H19  1  0.51556000  0.06144000  0.01500000  1.0
  H  H20  1  0.01558000  0.93856000  0.48500000  1.0
  H  H21  1  0.01557000  0.43857000  0.01500000  1.0
  H  H22  1  0.51558000  0.56143000  0.48501000  1.0
  H  H23  1  0.48446000  0.93856000  0.98501000  1.0
  H  H24  1  0.66422000  0.27348000  0.51262000  1.0
  H  H25  1  0.66418000  0.77346000  0.98737000  1.0
  H  H26  1  0.16424000  0.22653000  0.51262000  1.0
  H  H27  1  0.83584000  0.27345000  0.01264000  1.0
  H  H28  1  0.33581000  0.72652000  0.48738000  1.0
  H  H29  1  0.33580000  0.22654000  0.01263000  1.0
  H  H30  1  0.83579000  0.77347000  0.48738000  1.0
  H  H31  1  0.16417000  0.72656000  0.98737000  1.0
  H  H32  1  0.81484000  0.26015000  0.62436000  1.0
  H  H33  1  0.81484000  0.76013000  0.87563000  1.0
  H  H34  1  0.31484000  0.23987000  0.62437000  1.0
  H  H35  1  0.68516000  0.26013000  0.12438000  1.0
  H  H36  1  0.18515000  0.73984000  0.37564000  1.0
  H  H37  1  0.18515000  0.23987000  0.12437000  1.0
  H  H38  1  0.68513000  0.76013000  0.37564000  1.0
  H  H39  1  0.31483000  0.73989000  0.87563000  1.0
  H  H40  1  0.62250000  0.99196000  0.28771000  1.0
  H  H41  1  0.62249000  0.49199000  0.21231000  1.0
  H  H42  1  0.12249000  0.50803000  0.28771000  1.0
  H  H43  1  0.87747000  0.99200000  0.78769000  1.0
  H  H44  1  0.37751000  0.00802000  0.71230000  1.0
  H  H45  1  0.37751000  0.50801000  0.78770000  1.0
  H  H46  1  0.87751000  0.49198000  0.71230000  1.0
  H  H47  1  0.12246000  0.00803000  0.21231000  1.0
  H  H48  1  0.76054000  0.07980000  0.28799000  1.0
  H  H49  1  0.76055000  0.57982000  0.21201000  1.0
  H  H50  1  0.26053000  0.42019000  0.28799000  1.0
  H  H51  1  0.73942000  0.07983000  0.78800000  1.0
  H  H52  1  0.23945000  0.92019000  0.71200000  1.0
  H  H53  1  0.23944000  0.42018000  0.78800000  1.0
  H  H54  1  0.73946000  0.57981000  0.71201000  1.0
  H  H55  1  0.26053000  0.92020000  0.21202000  1.0
  H  H56  1  0.61825000  0.18443000  0.28953000  1.0
  H  H57  1  0.61826000  0.68445000  0.21047000  1.0
  H  H58  1  0.11828000  0.31556000  0.28953000  1.0
  H  H59  1  0.88172000  0.18446000  0.78954000  1.0
  H  H60  1  0.38173000  0.81556000  0.71046000  1.0
  H  H61  1  0.38171000  0.31555000  0.78954000  1.0
  H  H62  1  0.88172000  0.68445000  0.71047000  1.0
  H  H63  1  0.11825000  0.81556000  0.21047000  1.0
  H  H64  1  0.40141000  0.15788000  0.29404000  1.0
  H  H65  1  0.40142000  0.65789000  0.20598000  1.0
  H  H66  1  0.90143000  0.34210000  0.29403000  1.0
  H  H67  1  0.09856000  0.15789000  0.79403000  1.0
  H  H68  1  0.59858000  0.84212000  0.70597000  1.0
  H  H69  1  0.59856000  0.34211000  0.79403000  1.0
  H  H70  1  0.09856000  0.65788000  0.70598000  1.0
  H  H71  1  0.90141000  0.84213000  0.20598000  1.0
  H  H72  1  0.39507000  0.11220000  0.45758000  1.0
  H  H73  1  0.39510000  0.61222000  0.04241000  1.0
  H  H74  1  0.89507000  0.38780000  0.45758000  1.0
  H  H75  1  0.10495000  0.11220000  0.95758000  1.0
  H  H76  1  0.60490000  0.88779000  0.54240000  1.0
  H  H77  1  0.60492000  0.38779000  0.95759000  1.0
  H  H78  1  0.10493000  0.61221000  0.54242000  1.0
  H  H79  1  0.89511000  0.88779000  0.04242000  1.0
  H  H80  1  0.26152000  0.14777000  0.39934000  1.0
  H  H81  1  0.26153000  0.64778000  0.10065000  1.0
  H  H82  1  0.76153000  0.35222000  0.39934000  1.0
  H  H83  1  0.23848000  0.14775000  0.89933000  1.0
  H  H84  1  0.73848000  0.85222000  0.60064000  1.0
  H  H85  1  0.73848000  0.35222000  0.89934000  1.0
  H  H86  1  0.23849000  0.64777000  0.60066000  1.0
  H  H87  1  0.76153000  0.85223000  0.10065000  1.0
  H  H88  1  0.21296000  0.05356000  0.43613000  1.0
  H  H89  1  0.21300000  0.55357000  0.06386000  1.0
  H  H90  1  0.71295000  0.44644000  0.43612000  1.0
  H  H91  1  0.28703000  0.05354000  0.93611000  1.0
  H  H92  1  0.78701000  0.94644000  0.56385000  1.0
  H  H93  1  0.78703000  0.44643000  0.93613000  1.0
  H  H94  1  0.28703000  0.55355000  0.56387000  1.0
  H  H95  1  0.71300000  0.94644000  0.06386000  1.0
  H  H96  1  0.55173000  0.91595000  0.38046000  1.0
  H  H97  1  0.55173000  0.41596000  0.11954000  1.0
  H  H98  1  0.05170000  0.58405000  0.38045000  1.0
  H  H99  1  0.94823000  0.91595000  0.88046000  1.0
  H  H100  1  0.44828000  0.08405000  0.61953000  1.0
  H  H101  1  0.44828000  0.58404000  0.88046000  1.0
  H  H102  1  0.94829000  0.41595000  0.61954000  1.0
  H  H103  1  0.05174000  0.08405000  0.11954000  1.0
  H  H104  1  0.56998000  0.97793000  0.44596000  1.0
  H  H105  1  0.57001000  0.47794000  0.05405000  1.0
  H  H106  1  0.06997000  0.52207000  0.44595000  1.0
  H  H107  1  0.92999000  0.97794000  0.94596000  1.0
  H  H108  1  0.43001000  0.02206000  0.55403000  1.0
  H  H109  1  0.43002000  0.52206000  0.94596000  1.0
  H  H110  1  0.93002000  0.47794000  0.55405000  1.0
  H  H111  1  0.07002000  0.02205000  0.05404000  1.0
  H  H112  1  0.37694000  0.92721000  0.42816000  1.0
  H  H113  1  0.37696000  0.42723000  0.07184000  1.0
  H  H114  1  0.87691000  0.57279000  0.42815000  1.0
  H  H115  1  0.12304000  0.92721000  0.92815000  1.0
  H  H116  1  0.62306000  0.07278000  0.57183000  1.0
  H  H117  1  0.62307000  0.57278000  0.92816000  1.0
  H  H118  1  0.12307000  0.42722000  0.57184000  1.0
  H  H119  1  0.87696000  0.07278000  0.07183000  1.0
  H  H120  1  0.24680000  0.06265000  0.30219000  1.0
  H  H121  1  0.24678000  0.56267000  0.19780000  1.0
  H  H122  1  0.74679000  0.43733000  0.30219000  1.0
  H  H123  1  0.25316000  0.06264000  0.80218000  1.0
  H  H124  1  0.75323000  0.93734000  0.69779000  1.0
  H  H125  1  0.75320000  0.43733000  0.80219000  1.0
  H  H126  1  0.25320000  0.56266000  0.69781000  1.0
  H  H127  1  0.74678000  0.93736000  0.19780000  1.0
  H  H128  1  0.37335000  0.97088000  0.29316000  1.0
  H  H129  1  0.37333000  0.47090000  0.20684000  1.0
  H  H130  1  0.87331000  0.52910000  0.29316000  1.0
  H  H131  1  0.12661000  0.97088000  0.79316000  1.0
  H  H132  1  0.62668000  0.02910000  0.70683000  1.0
  H  H133  1  0.62666000  0.52910000  0.79316000  1.0
  H  H134  1  0.12667000  0.47089000  0.70684000  1.0
  H  H135  1  0.87331000  0.02912000  0.20683000  1.0
  H  H136  1  0.20223000  0.97149000  0.34372000  1.0
  H  H137  1  0.20223000  0.47151000  0.15627000  1.0
  H  H138  1  0.70220000  0.52849000  0.34371000  1.0
  H  H139  1  0.29773000  0.97149000  0.84371000  1.0
  H  H140  1  0.79777000  0.02849000  0.65626000  1.0
  H  H141  1  0.79777000  0.52849000  0.84372000  1.0
  H  H142  1  0.29778000  0.47150000  0.65628000  1.0
  H  H143  1  0.70222000  0.02850000  0.15627000  1.0
  C  C144  1  0.91590000  0.11706000  0.52856000  1.0
  C  C145  1  0.91590000  0.61706000  0.97144000  1.0
  C  C146  1  0.41591000  0.38294000  0.52856000  1.0
  C  C147  1  0.58411000  0.11705000  0.02857000  1.0
  C  C148  1  0.08412000  0.88294000  0.47144000  1.0
  C  C149  1  0.08411000  0.38295000  0.02857000  1.0
  C  C150  1  0.58411000  0.61705000  0.47144000  1.0
  C  C151  1  0.41590000  0.88295000  0.97144000  1.0
  C  C152  1  0.75289000  0.22792000  0.53001000  1.0
  C  C153  1  0.75287000  0.72791000  0.96999000  1.0
  C  C154  1  0.25290000  0.27208000  0.53001000  1.0
  C  C155  1  0.74715000  0.22790000  0.03003000  1.0
  C  C156  1  0.24713000  0.77208000  0.46999000  1.0
  C  C157  1  0.24712000  0.27209000  0.03002000  1.0
  C  C158  1  0.74712000  0.72791000  0.46999000  1.0
  C  C159  1  0.25286000  0.77211000  0.96999000  1.0
  C  C160  1  0.82686000  0.22146000  0.58501000  1.0
  C  C161  1  0.82685000  0.72145000  0.91498000  1.0
  C  C162  1  0.32687000  0.27855000  0.58502000  1.0
  C  C163  1  0.67315000  0.22144000  0.08503000  1.0
  C  C164  1  0.17314000  0.77853000  0.41498000  1.0
  C  C165  1  0.17314000  0.27855000  0.08503000  1.0
  C  C166  1  0.67313000  0.72145000  0.41498000  1.0
  C  C167  1  0.32684000  0.77857000  0.91498000  1.0
  C  C168  1  0.68762000  0.03720000  0.31645000  1.0
  C  C169  1  0.68762000  0.53722000  0.18355000  1.0
  C  C170  1  0.18761000  0.46279000  0.31645000  1.0
  C  C171  1  0.81235000  0.03722000  0.81645000  1.0
  C  C172  1  0.31239000  0.96279000  0.68354000  1.0
  C  C173  1  0.31238000  0.46279000  0.81645000  1.0
  C  C174  1  0.81238000  0.53721000  0.68355000  1.0
  C  C175  1  0.18760000  0.96280000  0.18356000  1.0
  C  C176  1  0.81668000  0.99197000  0.35525000  1.0
  C  C177  1  0.81666000  0.49198000  0.14476000  1.0
  C  C178  1  0.31667000  0.50802000  0.35525000  1.0
  C  C179  1  0.68331000  0.99198000  0.85525000  1.0
  C  C180  1  0.18334000  0.00803000  0.64475000  1.0
  C  C181  1  0.18333000  0.50803000  0.85525000  1.0
  C  C182  1  0.68334000  0.49197000  0.64475000  1.0
  C  C183  1  0.31665000  0.00804000  0.14476000  1.0
  C  C184  1  0.51665000  0.16676000  0.32025000  1.0
  C  C185  1  0.51664000  0.66678000  0.17975000  1.0
  C  C186  1  0.01666000  0.33322000  0.32025000  1.0
  C  C187  1  0.98334000  0.16678000  0.82025000  1.0
  C  C188  1  0.48336000  0.83323000  0.67975000  1.0
  C  C189  1  0.48334000  0.33322000  0.82026000  1.0
  C  C190  1  0.98335000  0.66677000  0.67975000  1.0
  C  C191  1  0.01664000  0.83324000  0.17976000  1.0
  C  C192  1  0.49718000  0.24090000  0.36269000  1.0
  C  C193  1  0.49714000  0.74091000  0.13731000  1.0
  C  C194  1  0.99719000  0.25909000  0.36269000  1.0
  C  C195  1  0.00285000  0.24090000  0.86270000  1.0
  C  C196  1  0.50287000  0.75910000  0.63730000  1.0
  C  C197  1  0.50285000  0.25910000  0.86271000  1.0
  C  C198  1  0.00286000  0.74090000  0.63731000  1.0
  C  C199  1  0.99714000  0.75911000  0.13731000  1.0
  C  C200  1  0.42028000  0.03817000  0.37632000  1.0
  C  C201  1  0.42029000  0.53819000  0.12368000  1.0
  C  C202  1  0.92026000  0.46181000  0.37632000  1.0
  C  C203  1  0.07970000  0.03818000  0.87632000  1.0
  C  C204  1  0.57972000  0.96182000  0.62367000  1.0
  C  C205  1  0.57972000  0.46181000  0.87632000  1.0
  C  C206  1  0.07973000  0.53818000  0.62368000  1.0
  C  C207  1  0.92028000  0.96182000  0.12368000  1.0
  C  C208  1  0.31826000  0.09191000  0.41968000  1.0
  C  C209  1  0.31828000  0.59193000  0.08032000  1.0
  C  C210  1  0.81826000  0.40808000  0.41968000  1.0
  C  C211  1  0.18174000  0.09191000  0.91967000  1.0
  C  C212  1  0.68172000  0.90808000  0.58031000  1.0
  C  C213  1  0.68174000  0.40808000  0.91968000  1.0
  C  C214  1  0.18174000  0.59192000  0.58032000  1.0
  C  C215  1  0.81828000  0.90808000  0.08032000  1.0
  C  C216  1  0.48554000  0.96055000  0.40944000  1.0
  C  C217  1  0.48556000  0.46057000  0.09056000  1.0
  C  C218  1  0.98552000  0.53944000  0.40943000  1.0
  C  C219  1  0.01443000  0.96056000  0.90944000  1.0
  C  C220  1  0.51446000  0.03944000  0.59055000  1.0
  C  C221  1  0.51447000  0.53944000  0.90944000  1.0
  C  C222  1  0.01447000  0.46056000  0.59056000  1.0
  C  C223  1  0.98556000  0.03944000  0.09056000  1.0
  C  C224  1  0.30527000  0.00960000  0.32554000  1.0
  C  C225  1  0.30525000  0.50961000  0.17445000  1.0
  C  C226  1  0.80524000  0.49039000  0.32554000  1.0
  C  C227  1  0.19470000  0.00959000  0.82553000  1.0
  C  C228  1  0.69475000  0.99039000  0.67444000  1.0
  C  C229  1  0.69474000  0.49039000  0.82554000  1.0
  C  C230  1  0.19474000  0.50961000  0.67446000  1.0
  C  C231  1  0.80525000  0.99041000  0.17445000  1.0
  N  N232  1  0.92877000  0.15127000  0.58309000  1.0
  N  N233  1  0.92877000  0.65126000  0.91691000  1.0
  N  N234  1  0.42877000  0.34875000  0.58309000  1.0
  N  N235  1  0.57123000  0.15126000  0.08310000  1.0
  N  N236  1  0.07123000  0.84873000  0.41691000  1.0
  N  N237  1  0.07123000  0.34875000  0.08310000  1.0
  N  N238  1  0.57123000  0.65125000  0.41691000  1.0
  N  N239  1  0.42877000  0.84875000  0.91691000  1.0
  N  N240  1  0.80948000  0.16211000  0.49529000  1.0
  N  N241  1  0.80946000  0.66210000  0.00471000  1.0
  N  N242  1  0.30948000  0.33789000  0.49529000  1.0
  N  N243  1  0.69056000  0.16209000  0.99531000  1.0
  N  N244  1  0.19055000  0.83789000  0.50470000  1.0
  N  N245  1  0.19055000  0.33791000  0.99530000  1.0
  N  N246  1  0.69055000  0.66210000  0.50471000  1.0
  N  N247  1  0.30945000  0.83791000  0.00471000  1.0
  N  N248  1  0.57012000  0.08919000  0.35175000  1.0
  N  N249  1  0.57012000  0.58921000  0.14826000  1.0
  N  N250  1  0.07012000  0.41080000  0.35174000  1.0
  N  N251  1  0.92986000  0.08921000  0.85174000  1.0
  N  N252  1  0.42988000  0.91080000  0.64825000  1.0
  N  N253  1  0.42987000  0.41079000  0.85175000  1.0
  N  N254  1  0.92988000  0.58920000  0.64825000  1.0
  N  N255  1  0.07012000  0.91080000  0.14826000  1.0
  O  O256  1  0.85099000  0.02517000  0.40589000  1.0
  O  O257  1  0.85098000  0.52517000  0.09412000  1.0
  O  O258  1  0.35097000  0.47482000  0.40589000  1.0
  O  O259  1  0.64901000  0.02517000  0.90589000  1.0
  O  O260  1  0.14903000  0.97483000  0.59411000  1.0
  O  O261  1  0.14903000  0.47484000  0.90589000  1.0
  O  O262  1  0.64903000  0.52517000  0.59411000  1.0
  O  O263  1  0.35098000  0.97484000  0.09412000  1.0
  O  O264  1  0.88462000  0.92636000  0.33491000  1.0
  O  O265  1  0.88460000  0.42636000  0.16510000  1.0
  O  O266  1  0.38462000  0.57364000  0.33491000  1.0
  O  O267  1  0.61538000  0.92636000  0.83490000  1.0
  O  O268  1  0.11541000  0.07365000  0.66509000  1.0
  O  O269  1  0.11540000  0.57365000  0.83490000  1.0
  O  O270  1  0.61541000  0.42635000  0.66510000  1.0
  O  O271  1  0.38457000  0.07366000  0.16511000  1.0
  O  O272  1  0.58018000  0.23637000  0.41183000  1.0
  O  O273  1  0.58015000  0.73638000  0.08817000  1.0
  O  O274  1  0.08018000  0.26363000  0.41183000  1.0
  O  O275  1  0.91986000  0.23637000  0.91184000  1.0
  O  O276  1  0.41986000  0.76363000  0.58817000  1.0
  O  O277  1  0.41984000  0.26363000  0.91184000  1.0
  O  O278  1  0.91985000  0.73636000  0.58817000  1.0
  O  O279  1  0.08015000  0.76364000  0.08818000  1.0
  O  O280  1  0.40861000  0.30236000  0.34714000  1.0
  O  O281  1  0.40854000  0.80236000  0.15285000  1.0
  O  O282  1  0.90863000  0.19764000  0.34714000  1.0
  O  O283  1  0.09145000  0.30235000  0.84716000  1.0
  O  O284  1  0.59147000  0.69765000  0.65285000  1.0
  O  O285  1  0.59146000  0.19765000  0.84717000  1.0
  O  O286  1  0.09147000  0.80234000  0.65285000  1.0
  O  O287  1  0.90853000  0.69766000  0.15285000  1.0
