# generated using pymatgen
data_LiH13C17N4
_symmetry_space_group_name_H-M   'P 1'
_cell_length_a   7.87852000
_cell_length_b   11.14550000
_cell_length_c   17.30360000
_cell_angle_alpha   90.00000000
_cell_angle_beta   90.00000000
_cell_angle_gamma   90.00000000
_symmetry_Int_Tables_number   1
_chemical_formula_structural   LiH13C17N4
_chemical_formula_sum   'Li4 H52 C68 N16'
_cell_volume   1519.42988878
_cell_formula_units_Z   4
loop_
 _symmetry_equiv_pos_site_id
 _symmetry_equiv_pos_as_xyz
  1  'x, y, z'
loop_
 _atom_site_type_symbol
 _atom_site_label
 _atom_site_symmetry_multiplicity
 _atom_site_fract_x
 _atom_site_fract_y
 _atom_site_fract_z
 _atom_site_occupancy
  Li  Li0  1  0.08723000  0.58961000  0.09365000  1.0
  Li  Li1  1  0.58723000  0.41039000  0.90635000  1.0
  Li  Li2  1  0.08723000  0.08961000  0.40635000  1.0
  Li  Li3  1  0.58723000  0.91039000  0.59365000  1.0
  H  H4  1  0.74563000  0.55062000  0.01842000  1.0
  H  H5  1  0.24563000  0.44938000  0.98158000  1.0
  H  H6  1  0.74563000  0.05062000  0.48158000  1.0
  H  H7  1  0.24563000  0.94938000  0.51842000  1.0
  H  H8  1  0.70463000  0.10672000  0.98452000  1.0
  H  H9  1  0.20463000  0.89328000  0.01548000  1.0
  H  H10  1  0.70463000  0.60672000  0.51548000  1.0
  H  H11  1  0.20463000  0.39328000  0.48452000  1.0
  H  H12  1  0.93663000  0.97754000  0.03601000  1.0
  H  H13  1  0.43663000  0.02246000  0.96399000  1.0
  H  H14  1  0.93663000  0.47754000  0.46399000  1.0
  H  H15  1  0.43663000  0.52246000  0.53601000  1.0
  H  H16  1  0.18628000  0.06654000  0.10219000  1.0
  H  H17  1  0.68628000  0.93346000  0.89781000  1.0
  H  H18  1  0.18628000  0.56654000  0.39781000  1.0
  H  H19  1  0.68628000  0.43346000  0.60219000  1.0
  H  H20  1  0.21102000  0.28748000  0.12037000  1.0
  H  H21  1  0.71102000  0.71252000  0.87963000  1.0
  H  H22  1  0.21102000  0.78748000  0.37963000  1.0
  H  H23  1  0.71102000  0.21252000  0.62037000  1.0
  H  H24  1  0.82270000  0.75556000  0.03574000  1.0
  H  H25  1  0.32270000  0.24444000  0.96426000  1.0
  H  H26  1  0.82270000  0.25556000  0.46426000  1.0
  H  H27  1  0.32270000  0.74444000  0.53574000  1.0
  H  H28  1  0.58225000  0.87243000  0.08963000  1.0
  H  H29  1  0.08225000  0.12757000  0.91037000  1.0
  H  H30  1  0.58225000  0.37243000  0.41037000  1.0
  H  H31  1  0.08225000  0.62757000  0.58963000  1.0
  H  H32  1  0.78182000  0.79501000  0.31775000  1.0
  H  H33  1  0.28182000  0.20499000  0.68225000  1.0
  H  H34  1  0.78182000  0.29501000  0.18225000  1.0
  H  H35  1  0.28182000  0.70499000  0.81775000  1.0
  H  H36  1  0.01121000  0.67876000  0.25418000  1.0
  H  H37  1  0.51121000  0.32124000  0.74582000  1.0
  H  H38  1  0.01121000  0.17876000  0.24582000  1.0
  H  H39  1  0.51121000  0.82124000  0.75418000  1.0
  H  H40  1  0.09743000  0.95954000  0.24591000  1.0
  H  H41  1  0.59743000  0.04045000  0.75409000  1.0
  H  H42  1  0.09743000  0.45955000  0.25409000  1.0
  H  H43  1  0.59743000  0.54045000  0.74591000  1.0
  H  H44  1  0.31955000  0.84568000  0.17382000  1.0
  H  H45  1  0.81955000  0.15432000  0.82618000  1.0
  H  H46  1  0.31954000  0.34569000  0.32618000  1.0
  H  H47  1  0.81955000  0.65432000  0.67382000  1.0
  H  H48  1  0.69098000  0.00109000  0.32848000  1.0
  H  H49  1  0.19098000  0.99891000  0.67152000  1.0
  H  H50  1  0.69097000  0.50109000  0.17152000  1.0
  H  H51  1  0.19098000  0.49891000  0.82848000  1.0
  H  H52  1  0.45378000  0.10967000  0.39310000  1.0
  H  H53  1  0.95379000  0.89033000  0.60690000  1.0
  H  H54  1  0.45379000  0.60967000  0.10690000  1.0
  H  H55  1  0.95379000  0.39033000  0.89310000  1.0
  C  C56  1  0.79952000  0.46175000  0.02763000  1.0
  C  C57  1  0.29952000  0.53825000  0.97237000  1.0
  C  C58  1  0.79952000  0.96175000  0.47237000  1.0
  C  C59  1  0.29952000  0.03825000  0.52763000  1.0
  C  C60  1  0.97040000  0.32235000  0.06244000  1.0
  C  C61  1  0.47040000  0.67765000  0.93756000  1.0
  C  C62  1  0.97040000  0.82235000  0.43756000  1.0
  C  C63  1  0.47040000  0.17765000  0.56244000  1.0
  C  C64  1  0.82786000  0.27089000  0.02281000  1.0
  C  C65  1  0.32786000  0.72911000  0.97719000  1.0
  C  C66  1  0.82786000  0.77089000  0.47719000  1.0
  C  C67  1  0.32786000  0.22911000  0.52281000  1.0
  C  C68  1  0.81425000  0.14628000  0.01337000  1.0
  C  C69  1  0.31425000  0.85372000  0.98663000  1.0
  C  C70  1  0.81425000  0.64628000  0.48663000  1.0
  C  C71  1  0.31425000  0.35372000  0.51337000  1.0
  C  C72  1  0.94441000  0.07464000  0.04267000  1.0
  C  C73  1  0.44441000  0.92536000  0.95733000  1.0
  C  C74  1  0.94441000  0.57464000  0.45733000  1.0
  C  C75  1  0.44441000  0.42536000  0.54267000  1.0
  C  C76  1  0.08627000  0.12529000  0.08052000  1.0
  C  C77  1  0.58627000  0.87471000  0.91948000  1.0
  C  C78  1  0.08627000  0.62529000  0.41948000  1.0
  C  C79  1  0.58627000  0.37471000  0.58052000  1.0
  C  C80  1  0.10128000  0.24902000  0.09091000  1.0
  C  C81  1  0.60128000  0.75098000  0.90909000  1.0
  C  C82  1  0.10128000  0.74902000  0.40909000  1.0
  C  C83  1  0.60127000  0.25098000  0.59091000  1.0
  C  C84  1  0.80885000  0.76553000  0.09824000  1.0
  C  C85  1  0.30885000  0.23447000  0.90176000  1.0
  C  C86  1  0.80885000  0.26553000  0.40176000  1.0
  C  C87  1  0.30885000  0.73447000  0.59824000  1.0
  C  C88  1  0.67389000  0.83099000  0.12857000  1.0
  C  C89  1  0.17389000  0.16901000  0.87143000  1.0
  C  C90  1  0.67389000  0.33099000  0.37144000  1.0
  C  C91  1  0.17389000  0.66900000  0.62857000  1.0
  C  C92  1  0.66207000  0.84432000  0.20892000  1.0
  C  C93  1  0.16207000  0.15568000  0.79108000  1.0
  C  C94  1  0.66207000  0.34432000  0.29108000  1.0
  C  C95  1  0.16207000  0.65568000  0.70892000  1.0
  C  C96  1  0.78626000  0.78919000  0.25492000  1.0
  C  C97  1  0.28626000  0.21081000  0.74508000  1.0
  C  C98  1  0.78626000  0.28919000  0.24508000  1.0
  C  C99  1  0.28626000  0.71081000  0.75492000  1.0
  C  C100  1  0.91453000  0.72362000  0.21940000  1.0
  C  C101  1  0.41453000  0.27638000  0.78060000  1.0
  C  C102  1  0.91453000  0.22362000  0.28060000  1.0
  C  C103  1  0.41453000  0.77638000  0.71940000  1.0
  C  C104  1  0.23116000  0.96816000  0.26174000  1.0
  C  C105  1  0.73116000  0.03184000  0.73826000  1.0
  C  C106  1  0.23116000  0.46816000  0.23826000  1.0
  C  C107  1  0.73116000  0.53184000  0.76174000  1.0
  C  C108  1  0.35520000  0.90472000  0.22144000  1.0
  C  C109  1  0.85520000  0.09528000  0.77856000  1.0
  C  C110  1  0.35520000  0.40472000  0.27856000  1.0
  C  C111  1  0.85520000  0.59528000  0.72144000  1.0
  C  C112  1  0.52480000  0.91410000  0.24547000  1.0
  C  C113  1  0.02480000  0.08590000  0.75453000  1.0
  C  C114  1  0.52480000  0.41410000  0.25453000  1.0
  C  C115  1  0.02480000  0.58590000  0.74547000  1.0
  C  C116  1  0.56126000  0.99020000  0.30780000  1.0
  C  C117  1  0.06126000  0.00980000  0.69220000  1.0
  C  C118  1  0.56126000  0.49020000  0.19220000  1.0
  C  C119  1  0.06126000  0.50980000  0.80780000  1.0
  C  C120  1  0.42915000  0.05097000  0.34387000  1.0
  C  C121  1  0.92915000  0.94903000  0.65613000  1.0
  C  C122  1  0.42915000  0.55098000  0.15613000  1.0
  C  C123  1  0.92915000  0.44903000  0.84387000  1.0
  N  N124  1  0.94816000  0.44535000  0.06516000  1.0
  N  N125  1  0.44816000  0.55465000  0.93484000  1.0
  N  N126  1  0.94816000  0.94535000  0.43484000  1.0
  N  N127  1  0.44816000  0.05465000  0.56516000  1.0
  N  N128  1  0.72063000  0.36268000  0.00053000  1.0
  N  N129  1  0.22063000  0.63732000  0.99947000  1.0
  N  N130  1  0.72063000  0.86268000  0.49947000  1.0
  N  N131  1  0.22063000  0.13732000  0.50053000  1.0
  N  N132  1  0.92737000  0.71172000  0.14221000  1.0
  N  N133  1  0.42737000  0.28828000  0.85779000  1.0
  N  N134  1  0.92737000  0.21172000  0.35779000  1.0
  N  N135  1  0.42737000  0.78828000  0.64221000  1.0
  N  N136  1  0.26575000  0.03992000  0.32234000  1.0
  N  N137  1  0.76575000  0.96007000  0.67766000  1.0
  N  N138  1  0.26575000  0.53993000  0.17766000  1.0
  N  N139  1  0.76575000  0.46007000  0.82234000  1.0
