# generated using pymatgen
data_ZnH24C25NO12
_symmetry_space_group_name_H-M   'P 1'
_cell_length_a   11.64600000
_cell_length_b   14.33510000
_cell_length_c   15.09160000
_cell_angle_alpha   90.01230000
_cell_angle_beta   86.53890000
_cell_angle_gamma   90.00020000
_symmetry_Int_Tables_number   1
_chemical_formula_structural   ZnH24C25NO12
_chemical_formula_sum   'Zn2 H48 C50 N2 O24'
_cell_volume   2514.89535666
_cell_formula_units_Z   2
loop_
 _symmetry_equiv_pos_site_id
 _symmetry_equiv_pos_as_xyz
  1  'x, y, z'
loop_
 _atom_site_type_symbol
 _atom_site_label
 _atom_site_symmetry_multiplicity
 _atom_site_fract_x
 _atom_site_fract_y
 _atom_site_fract_z
 _atom_site_occupancy
  Zn  Zn0  1  0.49996000  0.60098000  0.50006000  1.0
  Zn  Zn1  1  0.49997000  0.39696000  0.50000000  1.0
  H  H2  1  0.67015000  0.06659000  0.43455000  1.0
  H  H3  1  0.74204000  0.63995000  0.13025000  1.0
  H  H4  1  0.74149000  0.78461000  0.03587000  1.0
  H  H5  1  0.75540000  0.71479000  0.93804000  1.0
  H  H6  1  0.86931000  0.71873000  0.01187000  1.0
  H  H7  1  0.76148000  0.41720000  0.99347000  1.0
  H  H8  1  0.77764000  0.36352000  0.88616000  1.0
  H  H9  1  0.75401000  0.20553000  0.95702000  1.0
  H  H10  1  0.86988000  0.26691000  0.00246000  1.0
  H  H11  1  0.73460000  0.25859000  0.06376000  1.0
  H  H12  1  0.24199000  0.56942000  0.96819000  1.0
  H  H13  1  0.31440000  0.93115000  0.50003000  1.0
  H  H14  1  0.25726000  0.63956000  0.86997000  1.0
  H  H15  1  0.25743000  0.78424000  0.96436000  1.0
  H  H16  1  0.24400000  0.71447000  0.06220000  1.0
  H  H17  1  0.12989000  0.71809000  0.98852000  1.0
  H  H18  1  0.23797000  0.41714000  0.00678000  1.0
  H  H19  1  0.22206000  0.36350000  0.11409000  1.0
  H  H20  1  0.24563000  0.20549000  0.04325000  1.0
  H  H21  1  0.12961000  0.26679000  0.99793000  1.0
  H  H22  1  0.26479000  0.25847000  0.93648000  1.0
  H  H23  1  0.43502000  0.71871000  0.28810000  1.0
  H  H24  1  0.32975000  0.06660000  0.56537000  1.0
  H  H25  1  0.46521000  0.73665000  0.17144000  1.0
  H  H26  1  0.52638000  0.87365000  0.26696000  1.0
  H  H27  1  0.62956000  0.79803000  0.31283000  1.0
  H  H28  1  0.64107000  0.82566000  0.19797000  1.0
  H  H29  1  0.49856000  0.27781000  0.72964000  1.0
  H  H30  1  0.55736000  0.24261000  0.83172000  1.0
  H  H31  1  0.73620000  0.18613000  0.74781000  1.0
  H  H32  1  0.61360000  0.13210000  0.70488000  1.0
  H  H33  1  0.68351000  0.22687000  0.64656000  1.0
  H  H34  1  0.56475000  0.71856000  0.71210000  1.0
  H  H35  1  0.68551000  0.93116000  0.49985000  1.0
  H  H36  1  0.53442000  0.73660000  0.82874000  1.0
  H  H37  1  0.47350000  0.87357000  0.73316000  1.0
  H  H38  1  0.37037000  0.79797000  0.68716000  1.0
  H  H39  1  0.35865000  0.82565000  0.80202000  1.0
  H  H40  1  0.50121000  0.27782000  0.27035000  1.0
  H  H41  1  0.44235000  0.24269000  0.16825000  1.0
  H  H42  1  0.26360000  0.18610000  0.25212000  1.0
  H  H43  1  0.38623000  0.13209000  0.29500000  1.0
  H  H44  1  0.31626000  0.22681000  0.35341000  1.0
  H  H45  1  0.84773000  0.27826000  0.43828000  1.0
  H  H46  1  0.18964000  0.67754000  0.43256000  1.0
  H  H47  1  0.15219000  0.27836000  0.56159000  1.0
  H  H48  1  0.81013000  0.67751000  0.56748000  1.0
  H  H49  1  0.75769000  0.56981000  0.03203000  1.0
  C  C50  1  0.46969000  0.49629000  0.33549000  1.0
  C  C51  1  0.28139000  0.50385000  0.52870000  1.0
  C  C52  1  0.59433000  0.10137000  0.46463000  1.0
  C  C53  1  0.39781000  0.89692000  0.50014000  1.0
  C  C54  1  0.40556000  0.10138000  0.53528000  1.0
  C  C55  1  0.60209000  0.89693000  0.49976000  1.0
  C  C56  1  0.84126000  0.51293000  0.47839000  1.0
  C  C57  1  0.15869000  0.51299000  0.52150000  1.0
  C  C58  1  0.94363000  0.51730000  0.49227000  1.0
  C  C59  1  0.05633000  0.51730000  0.50754000  1.0
  C  C60  1  0.59104000  0.19843000  0.46547000  1.0
  C  C61  1  0.53011000  0.49626000  0.66459000  1.0
  C  C62  1  0.40086000  0.79978000  0.49869000  1.0
  C  C63  1  0.40885000  0.19844000  0.53445000  1.0
  C  C64  1  0.59904000  0.79979000  0.50127000  1.0
  C  C65  1  0.54157000  0.56840000  0.09660000  1.0
  C  C66  1  0.56730000  0.42444000  0.90447000  1.0
  C  C67  1  0.45794000  0.56835000  0.90350000  1.0
  C  C68  1  0.43228000  0.42446000  0.09562000  1.0
  C  C69  1  0.52678000  0.57192000  0.18959000  1.0
  C  C70  1  0.57658000  0.42470000  0.81114000  1.0
  C  C71  1  0.47280000  0.57187000  0.81052000  1.0
  C  C72  1  0.47031000  0.49861000  0.23638000  1.0
  C  C73  1  0.42307000  0.42472000  0.18895000  1.0
  C  C74  1  0.69338000  0.24748000  0.41980000  1.0
  C  C75  1  0.28309000  0.75467000  0.49995000  1.0
  C  C76  1  0.30653000  0.24750000  0.58012000  1.0
  C  C77  1  0.71678000  0.75467000  0.50006000  1.0
  C  C78  1  0.72386000  0.63646000  0.05955000  1.0
  C  C79  1  0.77534000  0.71855000  0.00817000  1.0
  C  C80  1  0.73832000  0.35580000  0.95401000  1.0
  C  C81  1  0.77618000  0.26633000  0.99689000  1.0
  C  C82  1  0.27555000  0.63614000  0.94067000  1.0
  C  C83  1  0.52933000  0.49857000  0.76371000  1.0
  C  C84  1  0.22389000  0.71812000  0.99211000  1.0
  C  C85  1  0.26125000  0.35577000  0.04620000  1.0
  C  C86  1  0.22332000  0.26624000  0.00339000  1.0
  C  C87  1  0.50417000  0.72850000  0.23577000  1.0
  C  C88  1  0.57990000  0.81120000  0.25454000  1.0
  C  C89  1  0.57860000  0.26680000  0.76338000  1.0
  C  C90  1  0.65784000  0.19916000  0.71266000  1.0
  C  C91  1  0.49554000  0.72843000  0.76438000  1.0
  C  C92  1  0.41992000  0.81115000  0.74552000  1.0
  C  C93  1  0.42115000  0.26681000  0.23663000  1.0
  C  C94  1  0.49358000  0.49534000  0.04906000  1.0
  C  C95  1  0.34196000  0.19913000  0.28729000  1.0
  C  C96  1  0.50593000  0.49531000  0.95103000  1.0
  C  C97  1  0.49995000  0.05056000  0.49994000  1.0
  C  C98  1  0.49994000  0.94785000  0.49994000  1.0
  C  C99  1  0.71853000  0.50380000  0.47130000  1.0
  N  N100  1  0.49994000  0.24771000  0.49996000  1.0
  N  N101  1  0.49995000  0.75024000  0.50000000  1.0
  O  O102  1  0.44265000  0.57041000  0.37837000  1.0
  O  O103  1  0.78615000  0.24188000  0.46922000  1.0
  O  O104  1  0.21218000  0.76927000  0.56105000  1.0
  O  O105  1  0.26470000  0.70892000  0.42464000  1.0
  O  O106  1  0.30706000  0.27958000  0.65449000  1.0
  O  O107  1  0.21376000  0.24194000  0.53066000  1.0
  O  O108  1  0.78776000  0.76923000  0.43901000  1.0
  O  O109  1  0.73509000  0.70893000  0.57538000  1.0
  O  O110  1  0.60074000  0.63858000  0.05118000  1.0
  O  O111  1  0.61442000  0.35256000  0.95098000  1.0
  O  O112  1  0.39870000  0.63853000  0.94891000  1.0
  O  O113  1  0.50000000  0.41941000  0.63052000  1.0
  O  O114  1  0.38514000  0.35257000  0.04910000  1.0
  O  O115  1  0.57517000  0.64534000  0.23298000  1.0
  O  O116  1  0.63844000  0.35552000  0.76643000  1.0
  O  O117  1  0.42448000  0.64530000  0.76714000  1.0
  O  O118  1  0.36129000  0.35553000  0.23368000  1.0
  O  O119  1  0.55721000  0.57038000  0.62176000  1.0
  O  O120  1  0.49990000  0.41945000  0.36949000  1.0
  O  O121  1  0.66495000  0.57564000  0.44707000  1.0
  O  O122  1  0.32229000  0.42447000  0.50708000  1.0
  O  O123  1  0.33494000  0.57569000  0.55302000  1.0
  O  O124  1  0.67765000  0.42442000  0.49294000  1.0
  O  O125  1  0.69281000  0.27956000  0.34545000  1.0
