# generated using pymatgen
data_NiH10C12(SN2)2
_symmetry_space_group_name_H-M   'P 1'
_cell_length_a   8.42970000
_cell_length_b   8.43995000
_cell_length_c   15.27810000
_cell_angle_alpha   96.17130000
_cell_angle_beta   93.21700000
_cell_angle_gamma   114.62300000
_symmetry_Int_Tables_number   1
_chemical_formula_structural   NiH10C12(SN2)2
_chemical_formula_sum   'Ni3 H30 C36 S6 N12'
_cell_volume   976.27068654
_cell_formula_units_Z   3
loop_
 _symmetry_equiv_pos_site_id
 _symmetry_equiv_pos_as_xyz
  1  'x, y, z'
loop_
 _atom_site_type_symbol
 _atom_site_label
 _atom_site_symmetry_multiplicity
 _atom_site_fract_x
 _atom_site_fract_y
 _atom_site_fract_z
 _atom_site_occupancy
  Ni  Ni0  1  0.00000000  0.99999000  0.00000000  1.0
  Ni  Ni1  1  0.67821000  0.67333000  0.66380000  1.0
  Ni  Ni2  1  0.32180000  0.32667000  0.33619000  1.0
  H  H3  1  0.75359000  0.62668000  0.91621000  1.0
  H  H4  1  0.24640000  0.37332000  0.08379000  1.0
  H  H5  1  0.64138000  0.32121000  0.95550000  1.0
  H  H6  1  0.35861000  0.67880000  0.04451000  1.0
  H  H7  1  0.75490000  0.27591000  0.10117000  1.0
  H  H8  1  0.24509000  0.72409000  0.89883000  1.0
  H  H9  1  0.97898000  0.53940000  0.20206000  1.0
  H  H10  1  0.02102000  0.46060000  0.79795000  1.0
  H  H11  1  0.07611000  0.83650000  0.15293000  1.0
  H  H12  1  0.92389000  0.16350000  0.84707000  1.0
  H  H13  1  0.96072000  0.04609000  0.71440000  1.0
  H  H14  1  0.03929000  0.95391000  0.28560000  1.0
  H  H15  1  0.08762000  0.32782000  0.64964000  1.0
  H  H16  1  0.91238000  0.67217000  0.35036000  1.0
  H  H17  1  0.96505000  0.33333333  0.49667000  1.0
  H  H18  1  0.03495000  0.66662000  0.50333000  1.0
  H  H19  1  0.72377000  0.05697000  0.41517000  1.0
  H  H20  1  0.27623000  0.94303000  0.58483000  1.0
  H  H21  1  0.61323000  0.78633000  0.48913000  1.0
  H  H22  1  0.38677000  0.21367000  0.51087000  1.0
  H  H23  1  0.72692000  0.33933000  0.64474000  1.0
  H  H24  1  0.27308000  0.66067000  0.35526000  1.0
  H  H25  1  0.61082000  0.04661000  0.69937000  1.0
  H  H26  1  0.38918000  0.95340000  0.30064000  1.0
  H  H27  1  0.38996000  0.98659000  0.80916000  1.0
  H  H28  1  0.61005000  0.01342000  0.19085000  1.0
  H  H29  1  0.41788000  0.50551000  0.79561000  1.0
  H  H30  1  0.58212000  0.49450000  0.20439000  1.0
  H  H31  1  0.29322000  0.22185000  0.85887000  1.0
  H  H32  1  0.70679000  0.77816000  0.14113000  1.0
  C  C33  1  0.01504000  0.82987000  0.81028000  1.0
  C  C34  1  0.98496000  0.17012000  0.18970000  1.0
  C  C35  1  0.66503000  0.85959000  0.85068000  1.0
  C  C36  1  0.33495000  0.14042000  0.14932000  1.0
  C  C37  1  0.66814000  0.46829000  0.47862000  1.0
  C  C38  1  0.33188000  0.53170000  0.52136000  1.0
  C  C39  1  0.79917000  0.60181000  0.97915000  1.0
  C  C40  1  0.20082000  0.39819000  0.02085000  1.0
  C  C41  1  0.73732000  0.43216000  0.00130000  1.0
  C  C42  1  0.26267000  0.56785000  0.99871000  1.0
  C  C43  1  0.80039000  0.40747000  0.08254000  1.0
  C  C44  1  0.19960000  0.59253000  0.91747000  1.0
  C  C45  1  0.92426000  0.55375000  0.13863000  1.0
  C  C46  1  0.07573000  0.44625000  0.86138000  1.0
  C  C47  1  0.97913000  0.71885000  0.11155000  1.0
  C  C48  1  0.02086000  0.28114000  0.88845000  1.0
  C  C49  1  0.91124000  0.05479000  0.64857000  1.0
  C  C50  1  0.08877000  0.94521000  0.35143000  1.0
  C  C51  1  0.98102000  0.21091000  0.61232000  1.0
  C  C52  1  0.01899000  0.78909000  0.38768000  1.0
  C  C53  1  0.91347000  0.21380000  0.52733000  1.0
  C  C54  1  0.08654000  0.78620000  0.47267000  1.0
  C  C55  1  0.77940000  0.06002000  0.48172000  1.0
  C  C56  1  0.22060000  0.93998000  0.51828000  1.0
  C  C57  1  0.71708000  0.90933000  0.52273000  1.0
  C  C58  1  0.28292000  0.09068000  0.47727000  1.0
  C  C59  1  0.63030000  0.30762000  0.69207000  1.0
  C  C60  1  0.36970000  0.69238000  0.30793000  1.0
  C  C61  1  0.56567000  0.14531000  0.72276000  1.0
  C  C62  1  0.43433000  0.85470000  0.27725000  1.0
  C  C63  1  0.44267000  0.11204000  0.78368000  1.0
  C  C64  1  0.55733000  0.88797000  0.21633000  1.0
  C  C65  1  0.45794000  0.40077000  0.77650000  1.0
  C  C66  1  0.54207000  0.59923000  0.22350000  1.0
  C  C67  1  0.38852000  0.24269000  0.81123000  1.0
  C  C68  1  0.61149000  0.75732000  0.18877000  1.0
  S  S69  1  0.98376000  0.71911000  0.71185000  1.0
  S  S70  1  0.01625000  0.28088000  0.28815000  1.0
  S  S71  1  0.68636000  0.94098000  0.95449000  1.0
  S  S72  1  0.31364000  0.05901000  0.04551000  1.0
  S  S73  1  0.62939000  0.36457000  0.37805000  1.0
  S  S74  1  0.37061000  0.63542000  0.62194000  1.0
  N  N75  1  0.03955000  0.91342000  0.88117000  1.0
  N  N76  1  0.96044000  0.08658000  0.11883000  1.0
  N  N77  1  0.65376000  0.80185000  0.77523000  1.0
  N  N78  1  0.34624000  0.19814000  0.22476000  1.0
  N  N79  1  0.69206000  0.54200000  0.55183000  1.0
  N  N80  1  0.30794000  0.45799000  0.44816000  1.0
  N  N81  1  0.91734000  0.74346000  0.03345000  1.0
  N  N82  1  0.08266000  0.25654000  0.96655000  1.0
  N  N83  1  0.78082000  0.90636000  0.60504000  1.0
  N  N84  1  0.21919000  0.09364000  0.39496000  1.0
  N  N85  1  0.57730000  0.43362000  0.71796000  1.0
  N  N86  1  0.42270000  0.56638000  0.28204000  1.0
