# generated using pymatgen
data_K2H2C6Cl2O5
_symmetry_space_group_name_H-M   'P 1'
_cell_length_a   4.72201000
_cell_length_b   8.47295517
_cell_length_c   12.70510000
_cell_angle_alpha   94.19832827
_cell_angle_beta   100.69530000
_cell_angle_gamma   106.04599290
_symmetry_Int_Tables_number   1
_chemical_formula_structural   K2H2C6Cl2O5
_chemical_formula_sum   'K4 H4 C12 Cl4 O10'
_cell_volume   475.84192660
_cell_formula_units_Z   2
loop_
 _symmetry_equiv_pos_site_id
 _symmetry_equiv_pos_as_xyz
  1  'x, y, z'
loop_
 _atom_site_type_symbol
 _atom_site_label
 _atom_site_symmetry_multiplicity
 _atom_site_fract_x
 _atom_site_fract_y
 _atom_site_fract_z
 _atom_site_occupancy
  K  K0  1  0.27231000  0.00343000  0.12799000  1.0
  K  K1  1  0.64207000  0.49666000  0.37215000  1.0
  K  K2  1  0.72769000  0.99657000  0.87201000  1.0
  K  K3  1  0.35792000  0.50334000  0.62785000  1.0
  H  H4  1  0.92043000  0.21816000  0.30620000  1.0
  H  H5  1  0.89575000  0.28140000  0.19353000  1.0
  H  H6  1  0.07957000  0.78184000  0.69380000  1.0
  H  H7  1  0.10425000  0.71860000  0.80647000  1.0
  C  C8  1  0.56275000  0.67705000  0.03476000  1.0
  C  C9  1  0.35024000  0.82307000  0.46573000  1.0
  C  C10  1  0.43724000  0.32295000  0.96524000  1.0
  C  C11  1  0.64976000  0.17693000  0.53427000  1.0
  C  C12  1  0.71071000  0.61276000  0.94872000  1.0
  C  C13  1  0.64871000  0.88672000  0.55135000  1.0
  C  C14  1  0.28930000  0.38724000  0.05128000  1.0
  C  C15  1  0.35130000  0.11328000  0.44865000  1.0
  C  C16  1  0.63244000  0.44090000  0.91828000  1.0
  C  C17  1  0.77341000  0.05854000  0.58136000  1.0
  C  C18  1  0.36756000  0.55910000  0.08172000  1.0
  C  C19  1  0.22660000  0.94146000  0.41864000  1.0
  Cl  Cl20  1  0.79480000  0.37137000  0.81907000  1.0
  Cl  Cl21  1  0.10456000  0.12752000  0.68018000  1.0
  Cl  Cl22  1  0.20520000  0.62863000  0.18093000  1.0
  Cl  Cl23  1  0.89543000  0.87247000  0.31981000  1.0
  O  O24  1  0.62714000  0.83229000  0.05709000  1.0
  O  O25  1  0.23655000  0.66794000  0.44371000  1.0
  O  O26  1  0.37286000  0.16771000  0.94291000  1.0
  O  O27  1  0.76345000  0.33206000  0.55629000  1.0
  O  O28  1  0.89415000  0.72113000  0.91114000  1.0
  O  O29  1  0.76090000  0.77797000  0.58902000  1.0
  O  O30  1  0.10586000  0.27888000  0.08886000  1.0
  O  O31  1  0.23910000  0.22202000  0.41098000  1.0
  O  O32  1  0.77828000  0.24956000  0.24976000  1.0
  O  O33  1  0.22172000  0.75044000  0.75024000  1.0
