# generated using pymatgen
data_LiH16C8IO4
_symmetry_space_group_name_H-M   'P 1'
_cell_length_a   7.65983000
_cell_length_b   10.27730000
_cell_length_c   15.03450000
_cell_angle_alpha   89.99990000
_cell_angle_beta   100.44000000
_cell_angle_gamma   90.00000000
_symmetry_Int_Tables_number   1
_chemical_formula_structural   LiH16C8IO4
_chemical_formula_sum   'Li4 H64 C32 I4 O16'
_cell_volume   1163.95803247
_cell_formula_units_Z   4
loop_
 _symmetry_equiv_pos_site_id
 _symmetry_equiv_pos_as_xyz
  1  'x, y, z'
loop_
 _atom_site_type_symbol
 _atom_site_label
 _atom_site_symmetry_multiplicity
 _atom_site_fract_x
 _atom_site_fract_y
 _atom_site_fract_z
 _atom_site_occupancy
  Li  Li0  1  0.46871000  0.11065000  0.23248000  1.0
  Li  Li1  1  0.03130000  0.61065000  0.26752000  1.0
  Li  Li2  1  0.53130000  0.88935000  0.76752000  1.0
  Li  Li3  1  0.96870000  0.38935000  0.73248000  1.0
  H  H4  1  0.17184000  0.24953000  0.31104000  1.0
  H  H5  1  0.32816000  0.74953000  0.18896000  1.0
  H  H6  1  0.82816000  0.75047000  0.68896000  1.0
  H  H7  1  0.67184000  0.25047000  0.81104000  1.0
  H  H8  1  0.38850000  0.31024000  0.35621000  1.0
  H  H9  1  0.11150000  0.81024000  0.14379000  1.0
  H  H10  1  0.61150000  0.68976000  0.64379000  1.0
  H  H11  1  0.88850000  0.18976000  0.85621000  1.0
  H  H12  1  0.37648000  0.22128000  0.50641000  1.0
  H  H13  1  0.12352000  0.72128000  0.99358000  1.0
  H  H14  1  0.62352000  0.77872000  0.49359000  1.0
  H  H15  1  0.87648000  0.27872000  0.00641000  1.0
  H  H16  1  0.18410000  0.31943000  0.47052000  1.0
  H  H17  1  0.31590000  0.81943000  0.02948000  1.0
  H  H18  1  0.81590000  0.68057000  0.52948000  1.0
  H  H19  1  0.68410000  0.18057000  0.97052000  1.0
  H  H20  1  0.11605000  0.92488000  0.45329000  1.0
  H  H21  1  0.38395000  0.42488000  0.04671000  1.0
  H  H22  1  0.88395000  0.07512000  0.54671000  1.0
  H  H23  1  0.61605000  0.57512000  0.95330000  1.0
  H  H24  1  0.33564000  0.98246000  0.49469000  1.0
  H  H25  1  0.16437000  0.48246000  0.00531000  1.0
  H  H26  1  0.66437000  0.01754000  0.50531000  1.0
  H  H27  1  0.83563000  0.51754000  0.99469000  1.0
  H  H28  1  0.31938000  0.91365000  0.33716000  1.0
  H  H29  1  0.18062000  0.41365000  0.16284000  1.0
  H  H30  1  0.68062000  0.08635000  0.66284000  1.0
  H  H31  1  0.81938000  0.58635000  0.83716000  1.0
  H  H32  1  0.13127000  0.01593000  0.29966000  1.0
  H  H33  1  0.36873000  0.51593000  0.20034000  1.0
  H  H34  1  0.86873000  0.98406000  0.70034000  1.0
  H  H35  1  0.63127000  0.48407000  0.79966000  1.0
  H  H36  1  0.65602000  0.95178000  0.36902000  1.0
  H  H37  1  0.84398000  0.45178000  0.13098000  1.0
  H  H38  1  0.34398000  0.04822000  0.63098000  1.0
  H  H39  1  0.15602000  0.54822000  0.86902000  1.0
  H  H40  1  0.84875000  0.98466000  0.32105000  1.0
  H  H41  1  0.65125000  0.48466000  0.17895000  1.0
  H  H42  1  0.15125000  0.01534000  0.67895000  1.0
  H  H43  1  0.34875000  0.51534000  0.82105000  1.0
  H  H44  1  0.87111000  0.76040000  0.37992000  1.0
  H  H45  1  0.62889000  0.26040000  0.12008000  1.0
  H  H46  1  0.12889000  0.23960000  0.62008000  1.0
  H  H47  1  0.37111000  0.73960000  0.87992000  1.0
  H  H48  1  0.65277000  0.72296000  0.31810000  1.0
  H  H49  1  0.84723000  0.22296000  0.18190000  1.0
  H  H50  1  0.34724000  0.27704000  0.68190000  1.0
  H  H51  1  0.15277000  0.77704000  0.81810000  1.0
  H  H52  1  0.61859000  0.71698000  0.15174000  1.0
  H  H53  1  0.88141000  0.21698000  0.34826000  1.0
  H  H54  1  0.38141000  0.28302000  0.84826000  1.0
  H  H55  1  0.11859000  0.78302000  0.65174000  1.0
  H  H56  1  0.81032000  0.75175000  0.10350000  1.0
  H  H57  1  0.68968000  0.25175000  0.39650000  1.0
  H  H58  1  0.18968000  0.24825000  0.89650000  1.0
  H  H59  1  0.31032000  0.74825000  0.60350000  1.0
  H  H60  1  0.81363000  0.97948000  0.15514000  1.0
  H  H61  1  0.68637000  0.47948000  0.34486000  1.0
  H  H62  1  0.18637000  0.02052000  0.84486000  1.0
  H  H63  1  0.31363000  0.52052000  0.65514000  1.0
  H  H64  1  0.59661000  0.94317000  0.09312000  1.0
  H  H65  1  0.90339000  0.44316000  0.40688000  1.0
  H  H66  1  0.40339000  0.05684000  0.90688000  1.0
  H  H67  1  0.09661000  0.55684000  0.59312000  1.0
  C  C68  1  0.29269000  0.23291000  0.36215000  1.0
  C  C69  1  0.20731000  0.73291000  0.13784000  1.0
  C  C70  1  0.70731000  0.76709000  0.63784000  1.0
  C  C71  1  0.79269000  0.26709000  0.86216000  1.0
  C  C72  1  0.25144000  0.22929000  0.45670000  1.0
  C  C73  1  0.24856000  0.72929000  0.04330000  1.0
  C  C74  1  0.74856000  0.77071000  0.54330000  1.0
  C  C75  1  0.75144000  0.27071000  0.95670000  1.0
  C  C76  1  0.21167000  0.00172000  0.44585000  1.0
  C  C77  1  0.28833000  0.50172000  0.05415000  1.0
  C  C78  1  0.78833000  0.99828000  0.55415000  1.0
  C  C79  1  0.71167000  0.49828000  0.94585000  1.0
  C  C80  1  0.25287000  0.00403000  0.35115000  1.0
  C  C81  1  0.24713000  0.50403000  0.14885000  1.0
  C  C82  1  0.74713000  0.99597000  0.64885000  1.0
  C  C83  1  0.75286000  0.49597000  0.85115000  1.0
  C  C84  1  0.72742000  0.92506000  0.31476000  1.0
  C  C85  1  0.77258000  0.42507000  0.18524000  1.0
  C  C86  1  0.27258000  0.07494000  0.68524000  1.0
  C  C87  1  0.22742000  0.57494000  0.81476000  1.0
  C  C88  1  0.77348000  0.78212000  0.31881000  1.0
  C  C89  1  0.72652000  0.28212000  0.18119000  1.0
  C  C90  1  0.22652000  0.21788000  0.68119000  1.0
  C  C91  1  0.27348000  0.71788000  0.81881000  1.0
  C  C92  1  0.73940000  0.77704000  0.15829000  1.0
  C  C93  1  0.76060000  0.27704000  0.34171000  1.0
  C  C94  1  0.26060000  0.22296000  0.84171000  1.0
  C  C95  1  0.23940000  0.72296000  0.65829000  1.0
  C  C96  1  0.69308000  0.92016000  0.15435000  1.0
  C  C97  1  0.80691000  0.42015000  0.34565000  1.0
  C  C98  1  0.30692000  0.07985000  0.84565000  1.0
  C  C99  1  0.19309000  0.57985000  0.65435000  1.0
  I  I100  1  0.20955000  0.12510000  0.09016000  1.0
  I  I101  1  0.29044000  0.62509000  0.40985000  1.0
  I  I102  1  0.79044000  0.87491000  0.90985000  1.0
  I  I103  1  0.70956000  0.37491000  0.59015000  1.0
  O  O104  1  0.37185000  0.11063000  0.34215000  1.0
  O  O105  1  0.12815000  0.61063000  0.15785000  1.0
  O  O106  1  0.62815000  0.88936000  0.65785000  1.0
  O  O107  1  0.87185000  0.38937000  0.84215000  1.0
  O  O108  1  0.13489000  0.12267000  0.46706000  1.0
  O  O109  1  0.36511000  0.62267000  0.03294000  1.0
  O  O110  1  0.86511000  0.87733000  0.53294000  1.0
  O  O111  1  0.63489000  0.37733000  0.96707000  1.0
  O  O112  1  0.61116000  0.95496000  0.23060000  1.0
  O  O113  1  0.88884000  0.45496000  0.26940000  1.0
  O  O114  1  0.38884000  0.04504000  0.76939000  1.0
  O  O115  1  0.11116000  0.54504000  0.73060000  1.0
  O  O116  1  0.64454000  0.24754000  0.25708000  1.0
  O  O117  1  0.85546000  0.74754000  0.24292000  1.0
  O  O118  1  0.35547000  0.75246000  0.74292000  1.0
  O  O119  1  0.14454000  0.25246000  0.75708000  1.0
