# generated using pymatgen
data_Zn2P2H26C25(NO3)4
_symmetry_space_group_name_H-M   'P 1'
_cell_length_a   10.32400000
_cell_length_b   11.49430000
_cell_length_c   28.44080000
_cell_angle_alpha   89.99990000
_cell_angle_beta   90.00000000
_cell_angle_gamma   115.34300000
_symmetry_Int_Tables_number   1
_chemical_formula_structural   Zn2P2H26C25(NO3)4
_chemical_formula_sum   'Zn8 P8 H104 C100 N16 O48'
_cell_volume   3050.18513871
_cell_formula_units_Z   4
loop_
 _symmetry_equiv_pos_site_id
 _symmetry_equiv_pos_as_xyz
  1  'x, y, z'
loop_
 _atom_site_type_symbol
 _atom_site_label
 _atom_site_symmetry_multiplicity
 _atom_site_fract_x
 _atom_site_fract_y
 _atom_site_fract_z
 _atom_site_occupancy
  Zn  Zn0  1  0.91166000  0.99504000  0.06293000  1.0
  Zn  Zn1  1  0.08834000  0.50495000  0.56293000  1.0
  Zn  Zn2  1  0.08834000  0.00496000  0.93707000  1.0
  Zn  Zn3  1  0.91166000  0.49504000  0.43707000  1.0
  Zn  Zn4  1  0.66983000  0.66603000  0.47705000  1.0
  Zn  Zn5  1  0.33017000  0.83397000  0.97705000  1.0
  Zn  Zn6  1  0.33017000  0.33397000  0.52295000  1.0
  Zn  Zn7  1  0.66983000  0.16603000  0.02295000  1.0
  P  P8  1  0.59497000  0.87432000  0.04442000  1.0
  P  P9  1  0.40504000  0.62568000  0.54441000  1.0
  P  P10  1  0.40503000  0.12568000  0.95558000  1.0
  P  P11  1  0.59496000  0.37432000  0.45559000  1.0
  P  P12  1  0.93438000  0.16904000  0.97625000  1.0
  P  P13  1  0.06562000  0.33096000  0.47625000  1.0
  P  P14  1  0.06562000  0.83096000  0.02375000  1.0
  P  P15  1  0.93438000  0.66904000  0.52375000  1.0
  H  H16  1  0.62756000  0.19502000  0.79671000  1.0
  H  H17  1  0.37244000  0.30499000  0.29671000  1.0
  H  H18  1  0.37244000  0.80498000  0.20329000  1.0
  H  H19  1  0.62756000  0.69502000  0.70329000  1.0
  H  H20  1  0.49688000  0.99626000  0.74916000  1.0
  H  H21  1  0.50312000  0.50375000  0.24916000  1.0
  H  H22  1  0.50312000  0.00374000  0.25084000  1.0
  H  H23  1  0.49688000  0.49626000  0.75084000  1.0
  H  H24  1  0.53631000  0.76559000  0.86265000  1.0
  H  H25  1  0.46369000  0.73441000  0.36265000  1.0
  H  H26  1  0.46369000  0.23441000  0.13735000  1.0
  H  H27  1  0.53631000  0.26559000  0.63735000  1.0
  H  H28  1  0.66281000  0.96396000  0.91129000  1.0
  H  H29  1  0.33719000  0.53604000  0.41129000  1.0
  H  H30  1  0.33719000  0.03604000  0.08871000  1.0
  H  H31  1  0.66281000  0.46396000  0.58871000  1.0
  H  H32  1  0.74703000  0.18695000  0.91394000  1.0
  H  H33  1  0.25297000  0.31305000  0.41394000  1.0
  H  H34  1  0.25297000  0.81305000  0.08606000  1.0
  H  H35  1  0.74703000  0.68695000  0.58606000  1.0
  H  H36  1  0.76134000  0.81243000  0.93609000  1.0
  H  H37  1  0.23866000  0.68757000  0.43609000  1.0
  H  H38  1  0.23866000  0.18757000  0.06391000  1.0
  H  H39  1  0.76134000  0.31243000  0.56391000  1.0
  H  H40  1  0.79639000  0.77379000  0.85133000  1.0
  H  H41  1  0.20361000  0.72621000  0.35133000  1.0
  H  H42  1  0.20361000  0.22621000  0.14867000  1.0
  H  H43  1  0.79638000  0.27379000  0.64867000  1.0
  H  H44  1  0.66422000  0.37156000  0.87963000  1.0
  H  H45  1  0.33578000  0.12844000  0.37963000  1.0
  H  H46  1  0.33578000  0.62844000  0.12037000  1.0
  H  H47  1  0.66422000  0.87156000  0.62037000  1.0
  H  H48  1  0.62570000  0.40835000  0.96448000  1.0
  H  H49  1  0.37430000  0.09165000  0.46448000  1.0
  H  H50  1  0.37430000  0.59165000  0.03552000  1.0
  H  H51  1  0.62570000  0.90835000  0.53552000  1.0
  H  H52  1  0.70258000  0.71753000  0.01155000  1.0
  H  H53  1  0.29742000  0.78247000  0.51155000  1.0
  H  H54  1  0.29742000  0.28248000  0.98845000  1.0
  H  H55  1  0.70258000  0.21752000  0.48845000  1.0
  H  H56  1  0.07793000  0.96271000  0.13854000  1.0
  H  H57  1  0.92207000  0.53729000  0.63854000  1.0
  H  H58  1  0.92207000  0.03729000  0.86146000  1.0
  H  H59  1  0.07793000  0.46271000  0.36146000  1.0
  H  H60  1  0.10457000  0.99564000  0.22550000  1.0
  H  H61  1  0.89543000  0.50436000  0.72550000  1.0
  H  H62  1  0.89543000  0.00436000  0.77450000  1.0
  H  H63  1  0.10457000  0.49564000  0.27450000  1.0
  H  H64  1  0.76776000  0.12378000  0.21949000  1.0
  H  H65  1  0.23224000  0.37622000  0.71949000  1.0
  H  H66  1  0.23224000  0.87622000  0.78051000  1.0
  H  H67  1  0.76776000  0.62378000  0.28051000  1.0
  H  H68  1  0.75192000  0.08172000  0.13323000  1.0
  H  H69  1  0.24808000  0.41828000  0.63323000  1.0
  H  H70  1  0.24809000  0.91828000  0.86677000  1.0
  H  H71  1  0.75192000  0.58172000  0.36677000  1.0
  H  H72  1  0.06848000  0.13995000  0.28993000  1.0
  H  H73  1  0.93152000  0.36005000  0.78993000  1.0
  H  H74  1  0.93152000  0.86005000  0.71007000  1.0
  H  H75  1  0.06847000  0.63995000  0.21007000  1.0
  H  H76  1  0.92446000  0.98941000  0.29882000  1.0
  H  H77  1  0.07553000  0.51059000  0.79882000  1.0
  H  H78  1  0.07553000  0.01059000  0.70118000  1.0
  H  H79  1  0.92446000  0.48941000  0.20118000  1.0
  H  H80  1  0.75150000  0.08983000  0.29865000  1.0
  H  H81  1  0.24850000  0.41017000  0.79865000  1.0
  H  H82  1  0.24850000  0.91017000  0.70135000  1.0
  H  H83  1  0.75150000  0.58983000  0.20135000  1.0
  H  H84  1  0.89242000  0.24187000  0.28633000  1.0
  H  H85  1  0.10758000  0.25813000  0.78633000  1.0
  H  H86  1  0.10758000  0.75813000  0.71367000  1.0
  H  H87  1  0.89242000  0.74187000  0.21367000  1.0
  H  H88  1  0.84170000  0.23342000  0.36930000  1.0
  H  H89  1  0.15830000  0.26658000  0.86930000  1.0
  H  H90  1  0.15830000  0.76658000  0.63070000  1.0
  H  H91  1  0.84170000  0.73342000  0.13070000  1.0
  H  H92  1  0.01245000  0.23248000  0.36222000  1.0
  H  H93  1  0.98755000  0.26752000  0.86222000  1.0
  H  H94  1  0.98755000  0.76752000  0.63778000  1.0
  H  H95  1  0.01245000  0.73248000  0.13778000  1.0
  H  H96  1  0.04861000  0.03879000  0.38392000  1.0
  H  H97  1  0.95138000  0.46121000  0.88392000  1.0
  H  H98  1  0.95138000  0.96121000  0.61608000  1.0
  H  H99  1  0.04862000  0.53878000  0.11608000  1.0
  H  H100  1  0.95226000  0.83152000  0.42901000  1.0
  H  H101  1  0.04774000  0.66848000  0.92901000  1.0
  H  H102  1  0.04774000  0.16848000  0.57099000  1.0
  H  H103  1  0.95226000  0.33152000  0.07099000  1.0
  H  H104  1  0.55414000  0.83501000  0.44245000  1.0
  H  H105  1  0.44586000  0.66499000  0.94245000  1.0
  H  H106  1  0.44586000  0.16499000  0.55755000  1.0
  H  H107  1  0.55414000  0.33501000  0.05755000  1.0
  H  H108  1  0.63040000  0.03668000  0.39554000  1.0
  H  H109  1  0.36960000  0.46332000  0.89554000  1.0
  H  H110  1  0.36960000  0.96332000  0.60446000  1.0
  H  H111  1  0.63040000  0.53668000  0.10446000  1.0
  H  H112  1  0.51575000  0.79597000  0.08185000  1.0
  H  H113  1  0.48425000  0.70404000  0.58185000  1.0
  H  H114  1  0.48425000  0.20403000  0.91815000  1.0
  H  H115  1  0.51575000  0.29596000  0.41815000  1.0
  H  H116  1  0.04799000  0.28561000  0.96217000  1.0
  H  H117  1  0.95201000  0.21439000  0.46217000  1.0
  H  H118  1  0.95201000  0.71439000  0.03783000  1.0
  H  H119  1  0.04799000  0.78561000  0.53783000  1.0
  C  C120  1  0.65376000  0.09153000  0.85650000  1.0
  C  C121  1  0.34625000  0.40848000  0.35650000  1.0
  C  C122  1  0.34625000  0.90848000  0.14350000  1.0
  C  C123  1  0.65376000  0.59153000  0.64350000  1.0
  C  C124  1  0.60667000  0.10044000  0.81072000  1.0
  C  C125  1  0.39333000  0.39956000  0.31072000  1.0
  C  C126  1  0.39333000  0.89956000  0.18928000  1.0
  C  C127  1  0.60667000  0.60044000  0.68928000  1.0
  C  C128  1  0.53455000  0.99011000  0.78435000  1.0
  C  C129  1  0.46546000  0.50989000  0.28435000  1.0
  C  C130  1  0.46546000  0.00989000  0.21565000  1.0
  C  C131  1  0.53454000  0.49011000  0.71565000  1.0
  C  C132  1  0.51030000  0.87024000  0.80356000  1.0
  C  C133  1  0.48971000  0.62976000  0.30356000  1.0
  C  C134  1  0.48971000  0.12976000  0.19644000  1.0
  C  C135  1  0.51029000  0.37024000  0.69644000  1.0
  C  C136  1  0.55700000  0.86018000  0.84895000  1.0
  C  C137  1  0.44300000  0.63982000  0.34896000  1.0
  C  C138  1  0.44300000  0.13982000  0.15104000  1.0
  C  C139  1  0.55700000  0.36018000  0.65105000  1.0
  C  C140  1  0.62775000  0.97020000  0.87561000  1.0
  C  C141  1  0.37225000  0.52980000  0.37562000  1.0
  C  C142  1  0.37225000  0.02979000  0.12439000  1.0
  C  C143  1  0.62776000  0.47021000  0.62438000  1.0
  C  C144  1  0.69240000  0.61224000  0.95556000  1.0
  C  C145  1  0.30759000  0.88776000  0.45556000  1.0
  C  C146  1  0.30760000  0.38776000  0.04444000  1.0
  C  C147  1  0.69241000  0.11224000  0.54444000  1.0
  C  C148  1  0.73898000  0.71605000  0.92350000  1.0
  C  C149  1  0.26102000  0.78395000  0.42350000  1.0
  C  C150  1  0.26102000  0.28395000  0.07650000  1.0
  C  C151  1  0.73898000  0.21605000  0.57650000  1.0
  C  C152  1  0.75946000  0.69530000  0.87662000  1.0
  C  C153  1  0.24054000  0.80470000  0.37662000  1.0
  C  C154  1  0.24054000  0.30470000  0.12338000  1.0
  C  C155  1  0.75946000  0.19530000  0.62338000  1.0
  C  C156  1  0.73264000  0.57131000  0.86128000  1.0
  C  C157  1  0.26736000  0.92869000  0.36128000  1.0
  C  C158  1  0.26736000  0.42869000  0.13872000  1.0
  C  C159  1  0.73264000  0.07131000  0.63872000  1.0
  C  C160  1  0.68283000  0.46672000  0.89242000  1.0
  C  C161  1  0.31717000  0.03328000  0.39242000  1.0
  C  C162  1  0.31717000  0.53328000  0.10758000  1.0
  C  C163  1  0.68283000  0.96672000  0.60758000  1.0
  C  C164  1  0.66290000  0.48736000  0.93929000  1.0
  C  C165  1  0.33710000  0.01264000  0.43929000  1.0
  C  C166  1  0.33710000  0.51264000  0.06071000  1.0
  C  C167  1  0.66290000  0.98736000  0.56071000  1.0
  C  C168  1  0.01066000  0.99686000  0.15834000  1.0
  C  C169  1  0.98934000  0.50313000  0.65834000  1.0
  C  C170  1  0.98934000  0.00314000  0.84166000  1.0
  C  C171  1  0.01066000  0.49686000  0.34166000  1.0
  C  C172  1  0.02471000  0.01582000  0.20643000  1.0
  C  C173  1  0.97529000  0.48418000  0.70643000  1.0
  C  C174  1  0.97530000  0.98418000  0.79357000  1.0
  C  C175  1  0.02471000  0.51582000  0.29357000  1.0
  C  C176  1  0.93759000  0.06285000  0.23014000  1.0
  C  C177  1  0.06241000  0.43715000  0.73014000  1.0
  C  C178  1  0.06242000  0.93715000  0.76986000  1.0
  C  C179  1  0.93759000  0.56285000  0.26986000  1.0
  C  C180  1  0.83877000  0.08772000  0.20323000  1.0
  C  C181  1  0.16123000  0.41228000  0.70323000  1.0
  C  C182  1  0.16123000  0.91228000  0.79677000  1.0
  C  C183  1  0.83877000  0.58772000  0.29677000  1.0
  C  C184  1  0.82950000  0.06557000  0.15509000  1.0
  C  C185  1  0.17050000  0.43443000  0.65509000  1.0
  C  C186  1  0.17050000  0.93443000  0.84491000  1.0
  C  C187  1  0.82950000  0.56557000  0.34491000  1.0
  C  C188  1  0.95348000  0.08419000  0.28226000  1.0
  C  C189  1  0.04652000  0.41581000  0.78226000  1.0
  C  C190  1  0.04652000  0.91581000  0.71774000  1.0
  C  C191  1  0.95349000  0.58419000  0.21774000  1.0
  C  C192  1  0.86667000  0.14939000  0.30391000  1.0
  C  C193  1  0.13333000  0.35061000  0.80391000  1.0
  C  C194  1  0.13333000  0.85061000  0.69609000  1.0
  C  C195  1  0.86666000  0.64939000  0.19609000  1.0
  C  C196  1  0.89674000  0.17592000  0.35680000  1.0
  C  C197  1  0.10326000  0.32408000  0.85680000  1.0
  C  C198  1  0.10326000  0.82408000  0.64320000  1.0
  C  C199  1  0.89674000  0.67592000  0.14320000  1.0
  C  C200  1  0.84650000  0.05440000  0.38504000  1.0
  C  C201  1  0.15350000  0.44560000  0.88505000  1.0
  C  C202  1  0.15350000  0.94560000  0.61496000  1.0
  C  C203  1  0.84650000  0.55440000  0.11496000  1.0
  C  C204  1  0.93705000  0.99501000  0.39523000  1.0
  C  C205  1  0.06295000  0.50499000  0.89523000  1.0
  C  C206  1  0.06295000  0.00499000  0.60477000  1.0
  C  C207  1  0.93705000  0.49501000  0.10477000  1.0
  C  C208  1  0.88538000  0.88088000  0.42061000  1.0
  C  C209  1  0.11462000  0.61912000  0.92061000  1.0
  C  C210  1  0.11462000  0.11912000  0.57939000  1.0
  C  C211  1  0.88538000  0.38088000  0.07939000  1.0
  C  C212  1  0.66148000  0.88208000  0.42757000  1.0
  C  C213  1  0.33852000  0.61792000  0.92757000  1.0
  C  C214  1  0.33852000  0.11792000  0.57243000  1.0
  C  C215  1  0.66148000  0.38208000  0.07243000  1.0
  C  C216  1  0.70549000  0.99455000  0.40169000  1.0
  C  C217  1  0.29451000  0.50545000  0.90169000  1.0
  C  C218  1  0.29451000  0.00545000  0.59831000  1.0
  C  C219  1  0.70549000  0.49455000  0.09831000  1.0
  N  N220  1  0.43474000  0.75404000  0.77641000  1.0
  N  N221  1  0.56526000  0.74596000  0.27642000  1.0
  N  N222  1  0.56526000  0.24596000  0.22358000  1.0
  N  N223  1  0.43474000  0.25404000  0.72358000  1.0
  N  N224  1  0.76117000  0.55144000  0.81279000  1.0
  N  N225  1  0.23883000  0.94856000  0.31279000  1.0
  N  N226  1  0.23883000  0.44856000  0.18721000  1.0
  N  N227  1  0.76117000  0.05144000  0.68721000  1.0
  N  N228  1  0.91451000  0.02114000  0.13272000  1.0
  N  N229  1  0.08549000  0.47886000  0.63272000  1.0
  N  N230  1  0.08549000  0.97887000  0.86728000  1.0
  N  N231  1  0.91451000  0.52113000  0.36728000  1.0
  N  N232  1  0.74927000  0.82529000  0.43675000  1.0
  N  N233  1  0.25073000  0.67471000  0.93675000  1.0
  N  N234  1  0.25073000  0.17471000  0.56325000  1.0
  N  N235  1  0.74927000  0.32529000  0.06325000  1.0
  O  O236  1  0.72328000  0.20196000  0.88060000  1.0
  O  O237  1  0.27673000  0.29804000  0.38059000  1.0
  O  O238  1  0.27673000  0.79804000  0.11941000  1.0
  O  O239  1  0.72328000  0.70196000  0.61940000  1.0
  O  O240  1  0.37908000  0.76198000  0.73831000  1.0
  O  O241  1  0.62093000  0.73802000  0.23831000  1.0
  O  O242  1  0.62093000  0.23802000  0.26169000  1.0
  O  O243  1  0.37907000  0.26198000  0.76169000  1.0
  O  O244  1  0.42730000  0.65008000  0.79262000  1.0
  O  O245  1  0.57269000  0.84993000  0.29262000  1.0
  O  O246  1  0.57269000  0.34993000  0.20737000  1.0
  O  O247  1  0.42730000  0.15008000  0.70738000  1.0
  O  O248  1  0.67472000  0.62570000  0.00159000  1.0
  O  O249  1  0.32528000  0.87430000  0.50159000  1.0
  O  O250  1  0.32528000  0.37430000  0.99841000  1.0
  O  O251  1  0.67472000  0.12570000  0.49841000  1.0
  O  O252  1  0.73012000  0.43902000  0.79931000  1.0
  O  O253  1  0.26987000  0.06099000  0.29931000  1.0
  O  O254  1  0.26988000  0.56098000  0.20069000  1.0
  O  O255  1  0.73013000  0.93902000  0.70069000  1.0
  O  O256  1  0.81735000  0.64727000  0.78656000  1.0
  O  O257  1  0.18266000  0.85274000  0.28656000  1.0
  O  O258  1  0.18265000  0.35273000  0.21344000  1.0
  O  O259  1  0.81734000  0.14726000  0.71344000  1.0
  O  O260  1  0.63005000  0.01231000  0.06002000  1.0
  O  O261  1  0.36997000  0.48770000  0.56002000  1.0
  O  O262  1  0.36995000  0.98769000  0.93998000  1.0
  O  O263  1  0.63004000  0.51230000  0.43998000  1.0
  O  O264  1  0.73281000  0.85208000  0.03970000  1.0
  O  O265  1  0.26719000  0.64792000  0.53970000  1.0
  O  O266  1  0.26719000  0.14792000  0.96030000  1.0
  O  O267  1  0.73281000  0.35208000  0.46030000  1.0
  O  O268  1  0.95690000  0.15572000  0.02896000  1.0
  O  O269  1  0.04310000  0.34428000  0.52896000  1.0
  O  O270  1  0.04310000  0.84428000  0.97104000  1.0
  O  O271  1  0.95690000  0.65572000  0.47104000  1.0
  O  O272  1  0.79436000  0.18556000  0.96756000  1.0
  O  O273  1  0.20564000  0.31444000  0.46756000  1.0
  O  O274  1  0.20564000  0.81444000  0.03244000  1.0
  O  O275  1  0.79436000  0.68556000  0.53244000  1.0
  O  O276  1  0.93462000  0.06024000  0.94530000  1.0
  O  O277  1  0.06538000  0.43976000  0.44530000  1.0
  O  O278  1  0.06538000  0.93976000  0.05470000  1.0
  O  O279  1  0.93462000  0.56024000  0.55470000  1.0
  O  O280  1  0.50696000  0.82956000  0.99930000  1.0
  O  O281  1  0.49304000  0.67045000  0.49930000  1.0
  O  O282  1  0.49305000  0.17044000  0.00070000  1.0
  O  O283  1  0.50696000  0.32955000  0.50070000  1.0
