# generated using pymatgen
data_HgH14C18I2(N2O)2
_symmetry_space_group_name_H-M   'P 1'
_cell_length_a   4.97644000
_cell_length_b   8.38177327
_cell_length_c   24.89230000
_cell_angle_alpha   95.79543908
_cell_angle_beta   90.03920000
_cell_angle_gamma   107.23048665
_symmetry_Int_Tables_number   1
_chemical_formula_structural   HgH14C18I2(N2O)2
_chemical_formula_sum   'Hg2 H28 C36 I4 N8 O4'
_cell_volume   986.11449095
_cell_formula_units_Z   2
loop_
 _symmetry_equiv_pos_site_id
 _symmetry_equiv_pos_as_xyz
  1  'x, y, z'
loop_
 _atom_site_type_symbol
 _atom_site_label
 _atom_site_symmetry_multiplicity
 _atom_site_fract_x
 _atom_site_fract_y
 _atom_site_fract_z
 _atom_site_occupancy
  Hg  Hg0  1  0.76753000  0.99998000  0.75006000  1.0
  Hg  Hg1  1  0.23247000  0.00002000  0.24994000  1.0
  H  H2  1  0.55521000  0.33544000  0.79926000  1.0
  H  H3  1  0.21856000  0.66463000  0.70102000  1.0
  H  H4  1  0.44479000  0.66456000  0.20074000  1.0
  H  H5  1  0.78144000  0.33537000  0.29899000  1.0
  H  H6  1  0.21917000  0.41212000  0.86470000  1.0
  H  H7  1  0.80689000  0.58824000  0.63518000  1.0
  H  H8  1  0.78085000  0.58789000  0.13530000  1.0
  H  H9  1  0.19311000  0.41176000  0.36482000  1.0
  H  H10  1  0.97545000  0.20203000  0.92835000  1.0
  H  H11  1  0.77456000  0.79837000  0.57143000  1.0
  H  H12  1  0.02455000  0.79797000  0.07165000  1.0
  H  H13  1  0.22544000  0.20163000  0.42857000  1.0
  H  H14  1  0.42182000  0.87056000  0.85461000  1.0
  H  H15  1  0.54947000  0.13010000  0.64613000  1.0
  H  H16  1  0.57818000  0.12944000  0.14539000  1.0
  H  H17  1  0.45053000  0.86990000  0.35387000  1.0
  H  H18  1  0.47307000  0.70183000  0.02163000  1.0
  H  H19  1  0.77064000  0.29754000  0.47860000  1.0
  H  H20  1  0.52693000  0.29817000  0.97837000  1.0
  H  H21  1  0.22935000  0.70246000  0.52140000  1.0
  H  H22  1  0.68897000  0.55332000  0.93003000  1.0
  H  H23  1  0.13646000  0.44783000  0.57004000  1.0
  H  H24  1  0.31104000  0.44668000  0.06997000  1.0
  H  H25  1  0.86353000  0.55217000  0.42996000  1.0
  H  H26  1  0.40834000  0.83110000  0.94202000  1.0
  H  H27  1  0.57716000  0.16921000  0.55833000  1.0
  H  H28  1  0.59167000  0.16890000  0.05798000  1.0
  H  H29  1  0.42284000  0.83079000  0.44167000  1.0
  C  C30  1  0.44765000  0.24977000  0.82805000  1.0
  C  C31  1  0.19677000  0.75039000  0.67221000  1.0
  C  C32  1  0.55235000  0.75023000  0.17195000  1.0
  C  C33  1  0.80323000  0.24961000  0.32779000  1.0
  C  C34  1  0.26101000  0.29162000  0.86476000  1.0
  C  C35  1  0.96904000  0.70872000  0.63530000  1.0
  C  C36  1  0.73900000  0.70838000  0.13524000  1.0
  C  C37  1  0.03096000  0.29128000  0.36470000  1.0
  C  C38  1  0.12635000  0.17567000  0.89976000  1.0
  C  C39  1  0.95093000  0.82475000  0.60025000  1.0
  C  C40  1  0.87365000  0.82433000  0.10024000  1.0
  C  C41  1  0.04907000  0.17525000  0.39975000  1.0
  C  C42  1  0.18791000  0.02281000  0.89798000  1.0
  C  C43  1  0.16471000  0.97782000  0.60231000  1.0
  C  C44  1  0.81209000  0.97719000  0.10202000  1.0
  C  C45  1  0.83529000  0.02219000  0.39769000  1.0
  C  C46  1  0.37550000  0.99066000  0.85958000  1.0
  C  C47  1  0.38356000  0.00993000  0.64093000  1.0
  C  C48  1  0.62450000  0.00934000  0.14042000  1.0
  C  C49  1  0.61644000  0.99007000  0.35907000  1.0
  C  C50  1  0.03965000  0.89073000  0.93262000  1.0
  C  C51  1  0.14908000  0.11002000  0.56762000  1.0
  C  C52  1  0.96035000  0.10927000  0.06738000  1.0
  C  C53  1  0.85091000  0.88997000  0.43238000  1.0
  C  C54  1  0.26547000  0.61282000  0.01238000  1.0
  C  C55  1  0.65232000  0.38685000  0.48775000  1.0
  C  C56  1  0.73452000  0.38717000  0.98762000  1.0
  C  C57  1  0.34768000  0.61316000  0.51225000  1.0
  C  C58  1  0.09135000  0.64483000  0.97316000  1.0
  C  C59  1  0.44672000  0.35547000  0.52702000  1.0
  C  C60  1  0.90865000  0.35517000  0.02684000  1.0
  C  C61  1  0.55329000  0.64454000  0.47298000  1.0
  C  C62  1  0.82446000  0.53052000  0.96081000  1.0
  C  C63  1  0.29446000  0.47012000  0.53924000  1.0
  C  C64  1  0.17553000  0.46947000  0.03919000  1.0
  C  C65  1  0.70554000  0.52989000  0.46076000  1.0
  I  I66  1  0.74229000  0.70269000  0.78625000  1.0
  I  I67  1  0.03734000  0.29786000  0.71424000  1.0
  I  I68  1  0.25771000  0.29731000  0.21376000  1.0
  I  I69  1  0.96265000  0.70213000  0.28576000  1.0
  N  N70  1  0.50056000  0.10123000  0.82536000  1.0
  N  N71  1  0.39775000  0.89908000  0.67510000  1.0
  N  N72  1  0.49944000  0.89877000  0.17464000  1.0
  N  N73  1  0.60225000  0.10092000  0.32490000  1.0
  N  N74  1  0.19364000  0.78971000  0.94609000  1.0
  N  N75  1  0.40404000  0.21079000  0.55420000  1.0
  N  N76  1  0.80636000  0.21029000  0.05391000  1.0
  N  N77  1  0.59596000  0.78921000  0.44580000  1.0
  O  O78  1  0.79371000  0.87496000  0.94682000  1.0
  O  O79  1  0.91919000  0.12604000  0.55329000  1.0
  O  O80  1  0.20629000  0.12504000  0.05318000  1.0
  O  O81  1  0.08081000  0.87396000  0.44671000  1.0
