# generated using pymatgen
data_MgHC6O5
_symmetry_space_group_name_H-M   'P 1'
_cell_length_a   6.97496000
_cell_length_b   15.10920000
_cell_length_c   15.11090000
_cell_angle_alpha   117.68100000
_cell_angle_beta   98.84630000
_cell_angle_gamma   98.84770000
_symmetry_Int_Tables_number   1
_chemical_formula_structural   MgHC6O5
_chemical_formula_sum   'Mg6 H6 C36 O30'
_cell_volume   1346.47956901
_cell_formula_units_Z   6
loop_
 _symmetry_equiv_pos_site_id
 _symmetry_equiv_pos_as_xyz
  1  'x, y, z'
loop_
 _atom_site_type_symbol
 _atom_site_label
 _atom_site_symmetry_multiplicity
 _atom_site_fract_x
 _atom_site_fract_y
 _atom_site_fract_z
 _atom_site_occupancy
  Mg  Mg0  1  0.61987000  0.59005000  0.32689000  1.0
  Mg  Mg1  1  0.02974000  0.73676000  0.40985000  1.0
  Mg  Mg2  1  0.29293000  0.67305000  0.26315000  1.0
  Mg  Mg3  1  0.38014000  0.40994000  0.67311000  1.0
  Mg  Mg4  1  0.97026000  0.26324000  0.59015000  1.0
  Mg  Mg5  1  0.70707000  0.32695000  0.73685000  1.0
  H  H6  1  0.86499000  0.02216000  0.55084000  1.0
  H  H7  1  0.84278000  0.52861000  0.97775000  1.0
  H  H8  1  0.31471000  0.44951000  0.47185000  1.0
  H  H9  1  0.13500000  0.97784000  0.44916000  1.0
  H  H10  1  0.15722000  0.47139000  0.02225000  1.0
  H  H11  1  0.68529000  0.55049000  0.52815000  1.0
  C  C12  1  0.67891000  0.82639000  0.43018000  1.0
  C  C13  1  0.85246000  0.60372000  0.17354000  1.0
  C  C14  1  0.24891000  0.56990000  0.39635000  1.0
  C  C15  1  0.32109000  0.17361000  0.56982000  1.0
  C  C16  1  0.14755000  0.39628000  0.82646000  1.0
  C  C17  1  0.75109000  0.43010000  0.60365000  1.0
  C  C18  1  0.58053000  0.91299000  0.46098000  1.0
  C  C19  1  0.66753000  0.54795000  0.08696000  1.0
  C  C20  1  0.11984000  0.53915000  0.45221000  1.0
  C  C21  1  0.41947000  0.08701000  0.53902000  1.0
  C  C22  1  0.33247000  0.45205000  0.91305000  1.0
  C  C23  1  0.88017000  0.46085000  0.54779000  1.0
  C  C24  1  0.70404000  0.01288000  0.52883000  1.0
  C  C25  1  0.69114000  0.51590000  0.98708000  1.0
  C  C26  1  0.17557000  0.47139000  0.48437000  1.0
  C  C27  1  0.29596000  0.98712000  0.47117000  1.0
  C  C28  1  0.30886000  0.48410000  0.01292000  1.0
  C  C29  1  0.82444000  0.52860000  0.51564000  1.0
  C  C30  1  0.63196000  0.10167000  0.57045000  1.0
  C  C31  1  0.53027000  0.46878000  0.89834000  1.0
  C  C32  1  0.06147000  0.42956000  0.53125000  1.0
  C  C33  1  0.36803000  0.89833000  0.42955000  1.0
  C  C34  1  0.46972000  0.53122000  0.10166000  1.0
  C  C35  1  0.93853000  0.57044000  0.46875000  1.0
  C  C36  1  0.65396000  0.41183000  0.25621000  1.0
  C  C37  1  0.24190000  0.84435000  0.58805000  1.0
  C  C38  1  0.39763000  0.74369000  0.15556000  1.0
  C  C39  1  0.34604000  0.58817000  0.74379000  1.0
  C  C40  1  0.75809000  0.15565000  0.41195000  1.0
  C  C41  1  0.60237000  0.25631000  0.84445000  1.0
  C  C42  1  0.16409000  0.34577000  0.12928000  1.0
  C  C43  1  0.81610000  0.78302000  0.65456000  1.0
  C  C44  1  0.03445000  0.87088000  0.21709000  1.0
  C  C45  1  0.83592000  0.65424000  0.87072000  1.0
  C  C46  1  0.18390000  0.21698000  0.34544000  1.0
  C  C47  1  0.96552000  0.12911000  0.78290000  1.0
  O  O48  1  0.56637000  0.73338000  0.37363000  1.0
  O  O49  1  0.83287000  0.64017000  0.26653000  1.0
  O  O50  1  0.19272000  0.62630000  0.35975000  1.0
  O  O51  1  0.43363000  0.26662000  0.62637000  1.0
  O  O52  1  0.16712000  0.35982000  0.73347000  1.0
  O  O53  1  0.80728000  0.37370000  0.64025000  1.0
  O  O54  1  0.86811000  0.84444000  0.46099000  1.0
  O  O55  1  0.02367000  0.61647000  0.15552000  1.0
  O  O56  1  0.40734000  0.53909000  0.38360000  1.0
  O  O57  1  0.13189000  0.15556000  0.53901000  1.0
  O  O58  1  0.97634000  0.38353000  0.84448000  1.0
  O  O59  1  0.59266000  0.46091000  0.61640000  1.0
  O  O60  1  0.76423000  0.19350000  0.63606000  1.0
  O  O61  1  0.57073000  0.44264000  0.80653000  1.0
  O  O62  1  0.12808000  0.36390000  0.55740000  1.0
  O  O63  1  0.23577000  0.80650000  0.36394000  1.0
  O  O64  1  0.42927000  0.55736000  0.19347000  1.0
  O  O65  1  0.87192000  0.63610000  0.44260000  1.0
  O  O66  1  0.65516000  0.32743000  0.22605000  1.0
  O  O67  1  0.32686000  0.89869000  0.67249000  1.0
  O  O68  1  0.42906000  0.77378000  0.10127000  1.0
  O  O69  1  0.34484000  0.67256000  0.77395000  1.0
  O  O70  1  0.67312000  0.10132000  0.32750000  1.0
  O  O71  1  0.57094000  0.22622000  0.89873000  1.0
  O  O72  1  0.00784000  0.36046000  0.12188000  1.0
  O  O73  1  0.64498000  0.76087000  0.63895000  1.0
  O  O74  1  0.88487000  0.87776000  0.23845000  1.0
  O  O75  1  0.99219000  0.63954000  0.87812000  1.0
  O  O76  1  0.35502000  0.23913000  0.36105000  1.0
  O  O77  1  0.11513000  0.12225000  0.76155000  1.0
