# generated using pymatgen
data_ZnH18C22(NO2)2
_symmetry_space_group_name_H-M   'P 1'
_cell_length_a   5.38403000
_cell_length_b   19.22720000
_cell_length_c   21.89560000
_cell_angle_alpha   89.99980000
_cell_angle_beta   85.28440000
_cell_angle_gamma   89.99970000
_symmetry_Int_Tables_number   1
_chemical_formula_structural   ZnH18C22(NO2)2
_chemical_formula_sum   'Zn4 H72 C88 N8 O16'
_cell_volume   2258.95615980
_cell_formula_units_Z   4
loop_
 _symmetry_equiv_pos_site_id
 _symmetry_equiv_pos_as_xyz
  1  'x, y, z'
loop_
 _atom_site_type_symbol
 _atom_site_label
 _atom_site_symmetry_multiplicity
 _atom_site_fract_x
 _atom_site_fract_y
 _atom_site_fract_z
 _atom_site_occupancy
  Zn  Zn0  1  0.22858000  0.48472000  0.73539000  1.0
  Zn  Zn1  1  0.27140000  0.98472000  0.76462000  1.0
  Zn  Zn2  1  0.77144000  0.51528000  0.26460000  1.0
  Zn  Zn3  1  0.72857000  0.01528000  0.23539000  1.0
  H  H4  1  0.70342000  0.29672000  0.75230000  1.0
  H  H5  1  0.79657000  0.79672000  0.74770000  1.0
  H  H6  1  0.29656000  0.70327000  0.24771000  1.0
  H  H7  1  0.20346000  0.20327000  0.25230000  1.0
  H  H8  1  0.47916000  0.23869000  0.72447000  1.0
  H  H9  1  0.02083000  0.73869000  0.77552000  1.0
  H  H10  1  0.52083000  0.76131000  0.27554000  1.0
  H  H11  1  0.97921000  0.26131000  0.22447000  1.0
  H  H12  1  0.70688000  0.32424000  0.85637000  1.0
  H  H13  1  0.79308000  0.82424000  0.64363000  1.0
  H  H14  1  0.29303000  0.67576000  0.14364000  1.0
  H  H15  1  0.20694000  0.17576000  0.35637000  1.0
  H  H16  1  0.56443000  0.30218000  0.96544000  1.0
  H  H17  1  0.93551000  0.80217000  0.53456000  1.0
  H  H18  1  0.43542000  0.69783000  0.03457000  1.0
  H  H19  1  0.06451000  0.19783000  0.46544000  1.0
  H  H20  1  0.18007000  0.23084000  0.99104000  1.0
  H  H21  1  0.31987000  0.73082000  0.50895000  1.0
  H  H22  1  0.81978000  0.76918000  0.00896000  1.0
  H  H23  1  0.68014000  0.26918000  0.49104000  1.0
  H  H24  1  0.94940000  0.18240000  0.90660000  1.0
  H  H25  1  0.55056000  0.68239000  0.59340000  1.0
  H  H26  1  0.05048000  0.81761000  0.09340000  1.0
  H  H27  1  0.44947000  0.31761000  0.40659000  1.0
  H  H28  1  0.86089000  0.18212000  0.80229000  1.0
  H  H29  1  0.63909000  0.68212000  0.69770000  1.0
  H  H30  1  0.13907000  0.81787000  0.19770000  1.0
  H  H31  1  0.36093000  0.31787000  0.30228000  1.0
  H  H32  1  0.05594000  0.22614000  0.74486000  1.0
  H  H33  1  0.44407000  0.72614000  0.75513000  1.0
  H  H34  1  0.94405000  0.77386000  0.25514000  1.0
  H  H35  1  0.55598000  0.27386000  0.24486000  1.0
  H  H36  1  0.74438000  0.54616000  0.78596000  1.0
  H  H37  1  0.75562000  0.04617000  0.71405000  1.0
  H  H38  1  0.25566000  0.45384000  0.21404000  1.0
  H  H39  1  0.24434000  0.95384000  0.28596000  1.0
  H  H40  1  0.49028000  0.55027000  0.88495000  1.0
  H  H41  1  0.00973000  0.05028000  0.61506000  1.0
  H  H42  1  0.50977000  0.44973000  0.11504000  1.0
  H  H43  1  0.99024000  0.94973000  0.38496000  1.0
  H  H44  1  0.01555000  0.40633000  0.95625000  1.0
  H  H45  1  0.48446000  0.90634000  0.54375000  1.0
  H  H46  1  0.98447000  0.59367000  0.04374000  1.0
  H  H47  1  0.51553000  0.09367000  0.45625000  1.0
  H  H48  1  0.24607000  0.40732000  0.85273000  1.0
  H  H49  1  0.25395000  0.90732000  0.64727000  1.0
  H  H50  1  0.75394000  0.59268000  0.14726000  1.0
  H  H51  1  0.74605000  0.09268000  0.35274000  1.0
  H  H52  1  0.67931000  0.44647000  0.02508000  1.0
  H  H53  1  0.82069000  0.94648000  0.47492000  1.0
  H  H54  1  0.32074000  0.55353000  0.97492000  1.0
  H  H55  1  0.17928000  0.05354000  0.52508000  1.0
  H  H56  1  0.82886000  0.40313000  0.68163000  1.0
  H  H57  1  0.67113000  0.90313000  0.81837000  1.0
  H  H58  1  0.17114000  0.59687000  0.31837000  1.0
  H  H59  1  0.32889000  0.09688000  0.18162000  1.0
  H  H60  1  0.55438000  0.41481000  0.59667000  1.0
  H  H61  1  0.94563000  0.91480000  0.90333000  1.0
  H  H62  1  0.44567000  0.58520000  0.40333000  1.0
  H  H63  1  0.05437000  0.08520000  0.09667000  1.0
  H  H64  1  0.96059000  0.60302000  0.54354000  1.0
  H  H65  1  0.53942000  0.10301000  0.95646000  1.0
  H  H66  1  0.03948000  0.39697000  0.45645000  1.0
  H  H67  1  0.46056000  0.89697000  0.04355000  1.0
  H  H68  1  0.20848000  0.58423000  0.63257000  1.0
  H  H69  1  0.29151000  0.08423000  0.86743000  1.0
  H  H70  1  0.79156000  0.41576000  0.36742000  1.0
  H  H71  1  0.70848000  0.91576000  0.13258000  1.0
  H  H72  1  0.64769000  0.56621000  0.48035000  1.0
  H  H73  1  0.85230000  0.06620000  0.01964000  1.0
  H  H74  1  0.35236000  0.43379000  0.51964000  1.0
  H  H75  1  0.14767000  0.93378000  0.98036000  1.0
  C  C76  1  0.35915000  0.34608000  0.73425000  1.0
  C  C77  1  0.14086000  0.84608000  0.76575000  1.0
  C  C78  1  0.64085000  0.65391000  0.26576000  1.0
  C  C79  1  0.85916000  0.15391000  0.23424000  1.0
  C  C80  1  0.50495000  0.28318000  0.75452000  1.0
  C  C81  1  0.99506000  0.78319000  0.74548000  1.0
  C  C82  1  0.49504000  0.71681000  0.24549000  1.0
  C  C83  1  0.00497000  0.21681000  0.25452000  1.0
  C  C84  1  0.41317000  0.26565000  0.81993000  1.0
  C  C85  1  0.08682000  0.76565000  0.68007000  1.0
  C  C86  1  0.58677000  0.73435000  0.18008000  1.0
  C  C87  1  0.91321000  0.23436000  0.31993000  1.0
  C  C88  1  0.54022000  0.29307000  0.86789000  1.0
  C  C89  1  0.95976000  0.79307000  0.63211000  1.0
  C  C90  1  0.45969000  0.70693000  0.13212000  1.0
  C  C91  1  0.04026000  0.20693000  0.36789000  1.0
  C  C92  1  0.45962000  0.28082000  0.92918000  1.0
  C  C93  1  0.04032000  0.78080000  0.57082000  1.0
  C  C94  1  0.54025000  0.71920000  0.07083000  1.0
  C  C95  1  0.95968000  0.21920000  0.42918000  1.0
  C  C96  1  0.24633000  0.24067000  0.94336000  1.0
  C  C97  1  0.25362000  0.74065000  0.55663000  1.0
  C  C98  1  0.75354000  0.75935000  0.05665000  1.0
  C  C99  1  0.74639000  0.25935000  0.44336000  1.0
  C  C100  1  0.11754000  0.21332000  0.89594000  1.0
  C  C101  1  0.38242000  0.71331000  0.60406000  1.0
  C  C102  1  0.88236000  0.78670000  0.10406000  1.0
  C  C103  1  0.61760000  0.28670000  0.39593000  1.0
  C  C104  1  0.19718000  0.22503000  0.83415000  1.0
  C  C105  1  0.30280000  0.72503000  0.66584000  1.0
  C  C106  1  0.80276000  0.77497000  0.16585000  1.0
  C  C107  1  0.69723000  0.27497000  0.33414000  1.0
  C  C108  1  0.05459000  0.19176000  0.78498000  1.0
  C  C109  1  0.44541000  0.69176000  0.71502000  1.0
  C  C110  1  0.94538000  0.80824000  0.21503000  1.0
  C  C111  1  0.55464000  0.30823000  0.28497000  1.0
  C  C112  1  0.17630000  0.12277000  0.76473000  1.0
  C  C113  1  0.32370000  0.62277000  0.73527000  1.0
  C  C114  1  0.82368000  0.87723000  0.23527000  1.0
  C  C115  1  0.67636000  0.37723000  0.26472000  1.0
  C  C116  1  0.79698000  0.51591000  0.82488000  1.0
  C  C117  1  0.70304000  0.01591000  0.67513000  1.0
  C  C118  1  0.20305000  0.48409000  0.17512000  1.0
  C  C119  1  0.29694000  0.98409000  0.32489000  1.0
  C  C120  1  0.65726000  0.51806000  0.88084000  1.0
  C  C121  1  0.84275000  0.01807000  0.61917000  1.0
  C  C122  1  0.34278000  0.48195000  0.11916000  1.0
  C  C123  1  0.15722000  0.98194000  0.38084000  1.0
  C  C124  1  0.73319000  0.47954000  0.93072000  1.0
  C  C125  1  0.76681000  0.97955000  0.56929000  1.0
  C  C126  1  0.26685000  0.52046000  0.06928000  1.0
  C  C127  1  0.23316000  0.02046000  0.43072000  1.0
  C  C128  1  0.94843000  0.43832000  0.91992000  1.0
  C  C129  1  0.55157000  0.93833000  0.58008000  1.0
  C  C130  1  0.05159000  0.56168000  0.08007000  1.0
  C  C131  1  0.44840000  0.06168000  0.41992000  1.0
  C  C132  1  0.07811000  0.43838000  0.86242000  1.0
  C  C133  1  0.42190000  0.93839000  0.63758000  1.0
  C  C134  1  0.92191000  0.56162000  0.13757000  1.0
  C  C135  1  0.57808000  0.06162000  0.36242000  1.0
  C  C136  1  0.60168000  0.48055000  0.99147000  1.0
  C  C137  1  0.89833000  0.98056000  0.50853000  1.0
  C  C138  1  0.39837000  0.51946000  0.00853000  1.0
  C  C139  1  0.10165000  0.01946000  0.49147000  1.0
  C  C140  1  0.84759000  0.44669000  0.65007000  1.0
  C  C141  1  0.65242000  0.94669000  0.84993000  1.0
  C  C142  1  0.15246000  0.55331000  0.34993000  1.0
  C  C143  1  0.34758000  0.05332000  0.15006000  1.0
  C  C144  1  0.69802000  0.45375000  0.60189000  1.0
  C  C145  1  0.80198000  0.95374000  0.89811000  1.0
  C  C146  1  0.30201000  0.54625000  0.39811000  1.0
  C  C147  1  0.19803000  0.04625000  0.10189000  1.0
  C  C148  1  0.73425000  0.51026000  0.56129000  1.0
  C  C149  1  0.76575000  0.01025000  0.93871000  1.0
  C  C150  1  0.26579000  0.48974000  0.43871000  1.0
  C  C151  1  0.23424000  0.98973000  0.06129000  1.0
  C  C152  1  0.92160000  0.55816000  0.57324000  1.0
  C  C153  1  0.57840000  0.05815000  0.92676000  1.0
  C  C154  1  0.07844000  0.44184000  0.42675000  1.0
  C  C155  1  0.42160000  0.94184000  0.07325000  1.0
  C  C156  1  0.06145000  0.54812000  0.62286000  1.0
  C  C157  1  0.43856000  0.04812000  0.87714000  1.0
  C  C158  1  0.93860000  0.45187000  0.37713000  1.0
  C  C159  1  0.56143000  0.95187000  0.12287000  1.0
  C  C160  1  0.59300000  0.52068000  0.50826000  1.0
  C  C161  1  0.90702000  0.02067000  0.99174000  1.0
  C  C162  1  0.40704000  0.47931000  0.49173000  1.0
  C  C163  1  0.09299000  0.97930000  0.00826000  1.0
  N  N164  1  0.00575000  0.47718000  0.81583000  1.0
  N  N165  1  0.49426000  0.97719000  0.68417000  1.0
  N  N166  1  0.99428000  0.52282000  0.18416000  1.0
  N  N167  1  0.50572000  0.02282000  0.31583000  1.0
  N  N168  1  0.02719000  0.49309000  0.66059000  1.0
  N  N169  1  0.47280000  0.99309000  0.83941000  1.0
  N  N170  1  0.97285000  0.50691000  0.33941000  1.0
  N  N171  1  0.52720000  0.00691000  0.16059000  1.0
  O  O172  1  0.16355000  0.33901000  0.70789000  1.0
  O  O173  1  0.33647000  0.83901000  0.79210000  1.0
  O  O174  1  0.83644000  0.66098000  0.29212000  1.0
  O  O175  1  0.66357000  0.16098000  0.20788000  1.0
  O  O176  1  0.45166000  0.40588000  0.74906000  1.0
  O  O177  1  0.04835000  0.90587000  0.75094000  1.0
  O  O178  1  0.54836000  0.59412000  0.25093000  1.0
  O  O179  1  0.95166000  0.09412000  0.24907000  1.0
  O  O180  1  0.39045000  0.12168000  0.73814000  1.0
  O  O181  1  0.10955000  0.62168000  0.76186000  1.0
  O  O182  1  0.60952000  0.87832000  0.26186000  1.0
  O  O183  1  0.89050000  0.37832000  0.23813000  1.0
  O  O184  1  0.04724000  0.06686000  0.77926000  1.0
  O  O185  1  0.45275000  0.56686000  0.72074000  1.0
  O  O186  1  0.95274000  0.93314000  0.22075000  1.0
  O  O187  1  0.54729000  0.43314000  0.27925000  1.0
