# generated using pymatgen
data_CuH24C30(N2O3)2
_symmetry_space_group_name_H-M   'P 1'
_cell_length_a   8.40399000
_cell_length_b   15.27110000
_cell_length_c   24.35060000
_cell_angle_alpha   100.64200000
_cell_angle_beta   89.99350000
_cell_angle_gamma   89.99960000
_symmetry_Int_Tables_number   1
_chemical_formula_structural   CuH24C30(N2O3)2
_chemical_formula_sum   'Cu4 H96 C120 N16 O24'
_cell_volume   3071.36030032
_cell_formula_units_Z   4
loop_
 _symmetry_equiv_pos_site_id
 _symmetry_equiv_pos_as_xyz
  1  'x, y, z'
loop_
 _atom_site_type_symbol
 _atom_site_label
 _atom_site_symmetry_multiplicity
 _atom_site_fract_x
 _atom_site_fract_y
 _atom_site_fract_z
 _atom_site_occupancy
  Cu  Cu0  1  0.80158000  0.29004000  0.25300000  1.0
  Cu  Cu1  1  0.30159000  0.70996000  0.24699000  1.0
  Cu  Cu2  1  0.19842000  0.70998000  0.74700000  1.0
  Cu  Cu3  1  0.69840000  0.29003000  0.75301000  1.0
  H  H4  1  0.66550000  0.18020000  0.03743000  1.0
  H  H5  1  0.16555000  0.81982000  0.46260000  1.0
  H  H6  1  0.33445000  0.81979000  0.96256000  1.0
  H  H7  1  0.83445000  0.18020000  0.53743000  1.0
  H  H8  1  0.78951000  0.10887000  0.94558000  1.0
  H  H9  1  0.28948000  0.89112000  0.55441000  1.0
  H  H10  1  0.21044000  0.89111000  0.05439000  1.0
  H  H11  1  0.71056000  0.10890000  0.44562000  1.0
  H  H12  1  0.24536000  0.11291000  0.02670000  1.0
  H  H13  1  0.74538000  0.88706000  0.47326000  1.0
  H  H14  1  0.75460000  0.88708000  0.97329000  1.0
  H  H15  1  0.25465000  0.11294000  0.52675000  1.0
  H  H16  1  0.12012000  0.18339000  0.11769000  1.0
  H  H17  1  0.62026000  0.81662000  0.38228000  1.0
  H  H18  1  0.87981000  0.81662000  0.88229000  1.0
  H  H19  1  0.37969000  0.18339000  0.61773000  1.0
  H  H20  1  0.22921000  0.05109000  0.93078000  1.0
  H  H21  1  0.72921000  0.94886000  0.56919000  1.0
  H  H22  1  0.77075000  0.94890000  0.06922000  1.0
  H  H23  1  0.27084000  0.05112000  0.43082000  1.0
  H  H24  1  0.43458000  0.29691000  0.36647000  1.0
  H  H25  1  0.93446000  0.70312000  0.13356000  1.0
  H  H26  1  0.56544000  0.70311000  0.63354000  1.0
  H  H27  1  0.06557000  0.29685000  0.86644000  1.0
  H  H28  1  0.24438000  0.31096000  0.44637000  1.0
  H  H29  1  0.74437000  0.68905000  0.05367000  1.0
  H  H30  1  0.75561000  0.68902000  0.55363000  1.0
  H  H31  1  0.25561000  0.31093000  0.94633000  1.0
  H  H32  1  0.61400000  0.42967000  0.55882000  1.0
  H  H33  1  0.11409000  0.57033000  0.94120000  1.0
  H  H34  1  0.38596000  0.57035000  0.44120000  1.0
  H  H35  1  0.88588000  0.42965000  0.05878000  1.0
  H  H36  1  0.80577000  0.41303000  0.47778000  1.0
  H  H37  1  0.30576000  0.58695000  0.02220000  1.0
  H  H38  1  0.19421000  0.58699000  0.52223000  1.0
  H  H39  1  0.69423000  0.41303000  0.97779000  1.0
  H  H40  1  0.18192000  0.35496000  0.54156000  1.0
  H  H41  1  0.68195000  0.64507000  0.95848000  1.0
  H  H42  1  0.81809000  0.64501000  0.45844000  1.0
  H  H43  1  0.31805000  0.35494000  0.04152000  1.0
  H  H44  1  0.94181000  0.09882000  0.20178000  1.0
  H  H45  1  0.44178000  0.90115000  0.29820000  1.0
  H  H46  1  0.05820000  0.90119000  0.79823000  1.0
  H  H47  1  0.55820000  0.09884000  0.70179000  1.0
  H  H48  1  0.80769000  0.01328000  0.35082000  1.0
  H  H49  1  0.30768000  0.98669000  0.14919000  1.0
  H  H50  1  0.19229000  0.98670000  0.64919000  1.0
  H  H51  1  0.69228000  0.01333000  0.85080000  1.0
  H  H52  1  0.70190000  0.18622000  0.35450000  1.0
  H  H53  1  0.20191000  0.81378000  0.14553000  1.0
  H  H54  1  0.29812000  0.81379000  0.64551000  1.0
  H  H55  1  0.79809000  0.18621000  0.85446000  1.0
  H  H56  1  0.06600000  0.93745000  0.28180000  1.0
  H  H57  1  0.56603000  0.06250000  0.21817000  1.0
  H  H58  1  0.93400000  0.06254000  0.71819000  1.0
  H  H59  1  0.43397000  0.93750000  0.78184000  1.0
  H  H60  1  0.03949000  0.95553000  0.21245000  1.0
  H  H61  1  0.53942000  0.04444000  0.28753000  1.0
  H  H62  1  0.96050000  0.04448000  0.78754000  1.0
  H  H63  1  0.46054000  0.95555000  0.71248000  1.0
  H  H64  1  0.98016000  0.80387000  0.30079000  1.0
  H  H65  1  0.48021000  0.19613000  0.19918000  1.0
  H  H66  1  0.01984000  0.19615000  0.69921000  1.0
  H  H67  1  0.51978000  0.80386000  0.80082000  1.0
  H  H68  1  0.61329000  0.65184000  0.20218000  1.0
  H  H69  1  0.11322000  0.34817000  0.29785000  1.0
  H  H70  1  0.38673000  0.34816000  0.79783000  1.0
  H  H71  1  0.88678000  0.65183000  0.70215000  1.0
  H  H72  1  0.57656000  0.77202000  0.14965000  1.0
  H  H73  1  0.07648000  0.22798000  0.35038000  1.0
  H  H74  1  0.42343000  0.22796000  0.85035000  1.0
  H  H75  1  0.92350000  0.77202000  0.64962000  1.0
  H  H76  1  0.74052000  0.91150000  0.17161000  1.0
  H  H77  1  0.24048000  0.08850000  0.32840000  1.0
  H  H78  1  0.25947000  0.08849000  0.82838000  1.0
  H  H79  1  0.75949000  0.91150000  0.67161000  1.0
  H  H80  1  0.93450000  0.66503000  0.31536000  1.0
  H  H81  1  0.43453000  0.33499000  0.18463000  1.0
  H  H82  1  0.06553000  0.33501000  0.68465000  1.0
  H  H83  1  0.56550000  0.66498000  0.81537000  1.0
  H  H84  1  0.72614000  0.65000000  0.32077000  1.0
  H  H85  1  0.22618000  0.35002000  0.17924000  1.0
  H  H86  1  0.27389000  0.35001000  0.67923000  1.0
  H  H87  1  0.77385000  0.64997000  0.82075000  1.0
  H  H88  1  0.73983000  0.48828000  0.31903000  1.0
  H  H89  1  0.23982000  0.51175000  0.18099000  1.0
  H  H90  1  0.26020000  0.51175000  0.68096000  1.0
  H  H91  1  0.76019000  0.48824000  0.81903000  1.0
  H  H92  1  0.93341000  0.39568000  0.15848000  1.0
  H  H93  1  0.43339000  0.60433000  0.34150000  1.0
  H  H94  1  0.06664000  0.60436000  0.84152000  1.0
  H  H95  1  0.56667000  0.39564000  0.65850000  1.0
  H  H96  1  0.94756000  0.58043000  0.18236000  1.0
  H  H97  1  0.44753000  0.41960000  0.31762000  1.0
  H  H98  1  0.05255000  0.41962000  0.81765000  1.0
  H  H99  1  0.55259000  0.58035000  0.68237000  1.0
  C  C100  1  0.80544000  0.22281000  0.13748000  1.0
  C  C101  1  0.30549000  0.77719000  0.36250000  1.0
  C  C102  1  0.19458000  0.77718000  0.86250000  1.0
  C  C103  1  0.69454000  0.22283000  0.63752000  1.0
  C  C104  1  0.88540000  0.18466000  0.08258000  1.0
  C  C105  1  0.38546000  0.81534000  0.41740000  1.0
  C  C106  1  0.11456000  0.81533000  0.91739000  1.0
  C  C107  1  0.61454000  0.18468000  0.58263000  1.0
  C  C108  1  0.79207000  0.16450000  0.03400000  1.0
  C  C109  1  0.29212000  0.83550000  0.46599000  1.0
  C  C110  1  0.20788000  0.83549000  0.96597000  1.0
  C  C111  1  0.70788000  0.16452000  0.53404000  1.0
  C  C112  1  0.86045000  0.12531000  0.98356000  1.0
  C  C113  1  0.36046000  0.87468000  0.51643000  1.0
  C  C114  1  0.13950000  0.87467000  0.01641000  1.0
  C  C115  1  0.63957000  0.12533000  0.48360000  1.0
  C  C116  1  0.02409000  0.10577000  0.98089000  1.0
  C  C117  1  0.52410000  0.89422000  0.51909000  1.0
  C  C118  1  0.97587000  0.89422000  0.01910000  1.0
  C  C119  1  0.47594000  0.10579000  0.48093000  1.0
  C  C120  1  0.11815000  0.12794000  0.02911000  1.0
  C  C121  1  0.61817000  0.87204000  0.47086000  1.0
  C  C122  1  0.88182000  0.87205000  0.97087000  1.0
  C  C123  1  0.38186000  0.12796000  0.52915000  1.0
  C  C124  1  0.04926000  0.16705000  0.07971000  1.0
  C  C125  1  0.54933000  0.83294000  0.42025000  1.0
  C  C126  1  0.95070000  0.83295000  0.92026000  1.0
  C  C127  1  0.45067000  0.16707000  0.57978000  1.0
  C  C128  1  0.09741000  0.05995000  0.92872000  1.0
  C  C129  1  0.59738000  0.94003000  0.57126000  1.0
  C  C130  1  0.90255000  0.94004000  0.07127000  1.0
  C  C131  1  0.40267000  0.05997000  0.42875000  1.0
  C  C132  1  0.74534000  0.34762000  0.36944000  1.0
  C  C133  1  0.24534000  0.65239000  0.13056000  1.0
  C  C134  1  0.25460000  0.65241000  0.63057000  1.0
  C  C135  1  0.75460000  0.34758000  0.86943000  1.0
  C  C136  1  0.63033000  0.35531000  0.41774000  1.0
  C  C137  1  0.13030000  0.64468000  0.08228000  1.0
  C  C138  1  0.36965000  0.64470000  0.58228000  1.0
  C  C139  1  0.86969000  0.35531000  0.91770000  1.0
  C  C140  1  0.47298000  0.32563000  0.40863000  1.0
  C  C141  1  0.97293000  0.67437000  0.09140000  1.0
  C  C142  1  0.52702000  0.67437000  0.59138000  1.0
  C  C143  1  0.02706000  0.32562000  0.90859000  1.0
  C  C144  1  0.36761000  0.33314000  0.45329000  1.0
  C  C145  1  0.86759000  0.66687000  0.04674000  1.0
  C  C146  1  0.63238000  0.66686000  0.54671000  1.0
  C  C147  1  0.13239000  0.33312000  0.95326000  1.0
  C  C148  1  0.41860000  0.37103000  0.50732000  1.0
  C  C149  1  0.91863000  0.62898000  0.99270000  1.0
  C  C150  1  0.58138000  0.62897000  0.49268000  1.0
  C  C151  1  0.08136000  0.37101000  0.00729000  1.0
  C  C152  1  0.57702000  0.39992000  0.51656000  1.0
  C  C153  1  0.07705000  0.60007000  0.98345000  1.0
  C  C154  1  0.42296000  0.60008000  0.48345000  1.0
  C  C155  1  0.92294000  0.39992000  0.01654000  1.0
  C  C156  1  0.68226000  0.39144000  0.47202000  1.0
  C  C157  1  0.18226000  0.60854000  0.02799000  1.0
  C  C158  1  0.31773000  0.60857000  0.52799000  1.0
  C  C159  1  0.81773000  0.39144000  0.97199000  1.0
  C  C160  1  0.30350000  0.38164000  0.55328000  1.0
  C  C161  1  0.80356000  0.61837000  0.94674000  1.0
  C  C162  1  0.69649000  0.61834000  0.44672000  1.0
  C  C163  1  0.19643000  0.38163000  0.05325000  1.0
  C  C164  1  0.88942000  0.10065000  0.24260000  1.0
  C  C165  1  0.38940000  0.89933000  0.25739000  1.0
  C  C166  1  0.11058000  0.89935000  0.75740000  1.0
  C  C167  1  0.61058000  0.10067000  0.74260000  1.0
  C  C168  1  0.82242000  0.05821000  0.32157000  1.0
  C  C169  1  0.32243000  0.94176000  0.17843000  1.0
  C  C170  1  0.17756000  0.94177000  0.67843000  1.0
  C  C171  1  0.67754000  0.05825000  0.82156000  1.0
  C  C172  1  0.77039000  0.14374000  0.32262000  1.0
  C  C173  1  0.27042000  0.85624000  0.17739000  1.0
  C  C174  1  0.22961000  0.85625000  0.67738000  1.0
  C  C175  1  0.72957000  0.14377000  0.82260000  1.0
  C  C176  1  0.97680000  0.94739000  0.25060000  1.0
  C  C177  1  0.47678000  0.05258000  0.24938000  1.0
  C  C178  1  0.02320000  0.05261000  0.74939000  1.0
  C  C179  1  0.52320000  0.94742000  0.75062000  1.0
  C  C180  1  0.86824000  0.86764000  0.23860000  1.0
  C  C181  1  0.36822000  0.13235000  0.26139000  1.0
  C  C182  1  0.13176000  0.13236000  0.76139000  1.0
  C  C183  1  0.63176000  0.86765000  0.73862000  1.0
  C  C184  1  0.88883000  0.79863000  0.26838000  1.0
  C  C185  1  0.38885000  0.20137000  0.23161000  1.0
  C  C186  1  0.11118000  0.20139000  0.73162000  1.0
  C  C187  1  0.61114000  0.79861000  0.76839000  1.0
  C  C188  1  0.79796000  0.72069000  0.25612000  1.0
  C  C189  1  0.29796000  0.27932000  0.24388000  1.0
  C  C190  1  0.20205000  0.27933000  0.74388000  1.0
  C  C191  1  0.70203000  0.72067000  0.75611000  1.0
  C  C192  1  0.68516000  0.71204000  0.21319000  1.0
  C  C193  1  0.18512000  0.28797000  0.28682000  1.0
  C  C194  1  0.31485000  0.28796000  0.78682000  1.0
  C  C195  1  0.81487000  0.71203000  0.71317000  1.0
  C  C196  1  0.66475000  0.78068000  0.18302000  1.0
  C  C197  1  0.16469000  0.21933000  0.31700000  1.0
  C  C198  1  0.33524000  0.21932000  0.81699000  1.0
  C  C199  1  0.83529000  0.78067000  0.68299000  1.0
  C  C200  1  0.75516000  0.85838000  0.19562000  1.0
  C  C201  1  0.25512000  0.14162000  0.30438000  1.0
  C  C202  1  0.24484000  0.14161000  0.80437000  1.0
  C  C203  1  0.74485000  0.85838000  0.69562000  1.0
  C  C204  1  0.82433000  0.65026000  0.29101000  1.0
  C  C205  1  0.32434000  0.34975000  0.20899000  1.0
  C  C206  1  0.17570000  0.34976000  0.70900000  1.0
  C  C207  1  0.67568000  0.65023000  0.79101000  1.0
  C  C208  1  0.79141000  0.48571000  0.27813000  1.0
  C  C209  1  0.29139000  0.51431000  0.22187000  1.0
  C  C210  1  0.20863000  0.51432000  0.72186000  1.0
  C  C211  1  0.70865000  0.48567000  0.77814000  1.0
  C  C212  1  0.89201000  0.44158000  0.19486000  1.0
  C  C213  1  0.39197000  0.55845000  0.30512000  1.0
  C  C214  1  0.10806000  0.55847000  0.80514000  1.0
  C  C215  1  0.60809000  0.44151000  0.69488000  1.0
  C  C216  1  0.89886000  0.53291000  0.20579000  1.0
  C  C217  1  0.39883000  0.46712000  0.29420000  1.0
  C  C218  1  0.10121000  0.46714000  0.79422000  1.0
  C  C219  1  0.60125000  0.53284000  0.70580000  1.0
  N  N220  1  0.81284000  0.16955000  0.27309000  1.0
  N  N221  1  0.31284000  0.83043000  0.22691000  1.0
  N  N222  1  0.18717000  0.83046000  0.72691000  1.0
  N  N223  1  0.68715000  0.16956000  0.77308000  1.0
  N  N224  1  0.89656000  0.03210000  0.27060000  1.0
  N  N225  1  0.39655000  0.96787000  0.22939000  1.0
  N  N226  1  0.10343000  0.96789000  0.72940000  1.0
  N  N227  1  0.60343000  0.03213000  0.77060000  1.0
  N  N228  1  0.83407000  0.55948000  0.25844000  1.0
  N  N229  1  0.33405000  0.44054000  0.24156000  1.0
  N  N230  1  0.16599000  0.44055000  0.74156000  1.0
  N  N231  1  0.66601000  0.55943000  0.75844000  1.0
  N  N232  1  0.82507000  0.41284000  0.24038000  1.0
  N  N233  1  0.32504000  0.58718000  0.25962000  1.0
  N  N234  1  0.17498000  0.58719000  0.75961000  1.0
  N  N235  1  0.67500000  0.41279000  0.74039000  1.0
  O  O236  1  0.90240000  0.24247000  0.17943000  1.0
  O  O237  1  0.40242000  0.75749000  0.32053000  1.0
  O  O238  1  0.09766000  0.75751000  0.82054000  1.0
  O  O239  1  0.59764000  0.24253000  0.67950000  1.0
  O  O240  1  0.65762000  0.23166000  0.13942000  1.0
  O  O241  1  0.15765000  0.76837000  0.36060000  1.0
  O  O242  1  0.34241000  0.76835000  0.86058000  1.0
  O  O243  1  0.84238000  0.23165000  0.63941000  1.0
  O  O244  1  0.02473000  0.03114000  0.88527000  1.0
  O  O245  1  0.52473000  0.96884000  0.61472000  1.0
  O  O246  1  0.97523000  0.96885000  0.11472000  1.0
  O  O247  1  0.47531000  0.03117000  0.38529000  1.0
  O  O248  1  0.67513000  0.33051000  0.32086000  1.0
  O  O249  1  0.17515000  0.66956000  0.17916000  1.0
  O  O250  1  0.32478000  0.66956000  0.67914000  1.0
  O  O251  1  0.82476000  0.33038000  0.82083000  1.0
  O  O252  1  0.89113000  0.35590000  0.37783000  1.0
  O  O253  1  0.39113000  0.64409000  0.12213000  1.0
  O  O254  1  0.10881000  0.64410000  0.62216000  1.0
  O  O255  1  0.60882000  0.35591000  0.87788000  1.0
  O  O256  1  0.33270000  0.41743000  0.60176000  1.0
  O  O257  1  0.83278000  0.58259000  0.89826000  1.0
  O  O258  1  0.66729000  0.58255000  0.39824000  1.0
  O  O259  1  0.16722000  0.41743000  0.10173000  1.0
