# generated using pymatgen
data_MgH18(C7O)2
_symmetry_space_group_name_H-M   'P 1'
_cell_length_a   10.15340000
_cell_length_b   10.30210000
_cell_length_c   11.58890000
_cell_angle_alpha   90.00040000
_cell_angle_beta   90.00000000
_cell_angle_gamma   92.56800000
_symmetry_Int_Tables_number   1
_chemical_formula_structural   MgH18(C7O)2
_chemical_formula_sum   'Mg4 H72 C56 O8'
_cell_volume   1210.99712683
_cell_formula_units_Z   4
loop_
 _symmetry_equiv_pos_site_id
 _symmetry_equiv_pos_as_xyz
  1  'x, y, z'
loop_
 _atom_site_type_symbol
 _atom_site_label
 _atom_site_symmetry_multiplicity
 _atom_site_fract_x
 _atom_site_fract_y
 _atom_site_fract_z
 _atom_site_occupancy
  Mg  Mg0  1  0.24771000  0.76792000  0.97579000  1.0
  Mg  Mg1  1  0.75229000  0.73208000  0.47579000  1.0
  Mg  Mg2  1  0.75229000  0.23208000  0.02421000  1.0
  Mg  Mg3  1  0.24772000  0.26792000  0.52421000  1.0
  H  H4  1  0.01479000  0.66956000  0.11663000  1.0
  H  H5  1  0.98521000  0.83045000  0.61663000  1.0
  H  H6  1  0.98521000  0.33044000  0.88337000  1.0
  H  H7  1  0.01479000  0.16955000  0.38337000  1.0
  H  H8  1  0.06988000  0.42188000  0.07689000  1.0
  H  H9  1  0.93011000  0.07813000  0.57690000  1.0
  H  H10  1  0.93012000  0.57812000  0.92311000  1.0
  H  H11  1  0.06989000  0.92187000  0.42310000  1.0
  H  H12  1  0.32612000  0.39269000  0.12593000  1.0
  H  H13  1  0.67387000  0.10732000  0.62593000  1.0
  H  H14  1  0.67388000  0.60732000  0.87407000  1.0
  H  H15  1  0.32613000  0.89268000  0.37407000  1.0
  H  H16  1  0.43283000  0.62306000  0.19227000  1.0
  H  H17  1  0.56716000  0.87694000  0.69227000  1.0
  H  H18  1  0.56717000  0.37694000  0.80773000  1.0
  H  H19  1  0.43284000  0.12306000  0.30773000  1.0
  H  H20  1  0.23604000  0.79282000  0.20302000  1.0
  H  H21  1  0.76396000  0.70718000  0.70302000  1.0
  H  H22  1  0.76396000  0.20718000  0.79698000  1.0
  H  H23  1  0.23604000  0.29282000  0.29698000  1.0
  H  H24  1  0.51250000  0.74243000  0.84679000  1.0
  H  H25  1  0.48750000  0.75757000  0.34679000  1.0
  H  H26  1  0.48750000  0.25757000  0.15321000  1.0
  H  H27  1  0.51250000  0.24243000  0.65321000  1.0
  H  H28  1  0.33202000  0.88166000  0.73461000  1.0
  H  H29  1  0.66798000  0.61833000  0.23461000  1.0
  H  H30  1  0.66798000  0.11834000  0.26539000  1.0
  H  H31  1  0.33202000  0.38166000  0.76539000  1.0
  H  H32  1  0.13610000  0.52135000  0.85641000  1.0
  H  H33  1  0.86391000  0.97865000  0.35641000  1.0
  H  H34  1  0.86390000  0.47866000  0.14359000  1.0
  H  H35  1  0.13609000  0.02135000  0.64359000  1.0
  H  H36  1  0.10121000  0.74405000  0.73895000  1.0
  H  H37  1  0.89879000  0.75595000  0.23895000  1.0
  H  H38  1  0.89879000  0.25595000  0.26105000  1.0
  H  H39  1  0.10121000  0.24405000  0.76105000  1.0
  H  H40  1  0.39071000  0.52171000  0.92374000  1.0
  H  H41  1  0.60929000  0.97829000  0.42374000  1.0
  H  H42  1  0.60929000  0.47828000  0.07626000  1.0
  H  H43  1  0.39071000  0.02171000  0.57626000  1.0
  H  H44  1  0.81576000  0.00260000  0.86787000  1.0
  H  H45  1  0.18424000  0.49740000  0.36787000  1.0
  H  H46  1  0.18424000  0.99740000  0.13213000  1.0
  H  H47  1  0.81576000  0.50260000  0.63213000  1.0
  H  H48  1  0.97996000  0.06537000  0.84332000  1.0
  H  H49  1  0.02004000  0.43463000  0.34332000  1.0
  H  H50  1  0.02004000  0.93463000  0.15668000  1.0
  H  H51  1  0.97996000  0.56537000  0.65668000  1.0
  H  H52  1  0.09964000  0.16675000  0.99994000  1.0
  H  H53  1  0.90036000  0.33325000  0.49994000  1.0
  H  H54  1  0.90036000  0.83325000  0.00006000  1.0
  H  H55  1  0.09964000  0.66675000  0.50006000  1.0
  H  H56  1  0.02172000  0.17362000  0.13878000  1.0
  H  H57  1  0.97828000  0.32639000  0.63878000  1.0
  H  H58  1  0.97828000  0.82639000  0.86122000  1.0
  H  H59  1  0.02172000  0.67361000  0.36122000  1.0
  H  H60  1  0.47354000  0.82491000  0.13631000  1.0
  H  H61  1  0.52646000  0.67509000  0.63631000  1.0
  H  H62  1  0.52646000  0.17509000  0.86369000  1.0
  H  H63  1  0.47354000  0.32491000  0.36369000  1.0
  H  H64  1  0.46439000  0.99368000  0.16764000  1.0
  H  H65  1  0.53561000  0.50632000  0.66764000  1.0
  H  H66  1  0.53561000  0.00632000  0.83236000  1.0
  H  H67  1  0.46439000  0.49368000  0.33236000  1.0
  H  H68  1  0.36485000  0.13073000  0.01905000  1.0
  H  H69  1  0.63515000  0.36927000  0.51905000  1.0
  H  H70  1  0.63515000  0.86927000  0.98095000  1.0
  H  H71  1  0.36485000  0.63073000  0.48095000  1.0
  H  H72  1  0.30794000  0.05193000  0.88884000  1.0
  H  H73  1  0.69206000  0.44807000  0.38884000  1.0
  H  H74  1  0.69206000  0.94807000  0.11116000  1.0
  H  H75  1  0.30794000  0.55193000  0.61116000  1.0
  C  C76  1  0.11089000  0.62807000  0.12645000  1.0
  C  C77  1  0.88911000  0.87193000  0.62645000  1.0
  C  C78  1  0.88911000  0.37193000  0.87355000  1.0
  C  C79  1  0.11089000  0.12807000  0.37355000  1.0
  C  C80  1  0.13901000  0.49690000  0.10933000  1.0
  C  C81  1  0.86098000  0.00311000  0.60933000  1.0
  C  C82  1  0.86098000  0.50310000  0.89067000  1.0
  C  C83  1  0.13902000  0.99689000  0.39067000  1.0
  C  C84  1  0.27348000  0.48171000  0.13568000  1.0
  C  C85  1  0.72652000  0.01830000  0.63569000  1.0
  C  C86  1  0.72652000  0.51829000  0.86432000  1.0
  C  C87  1  0.27348000  0.98170000  0.36431000  1.0
  C  C88  1  0.33006000  0.60293000  0.16938000  1.0
  C  C89  1  0.66994000  0.89707000  0.66938000  1.0
  C  C90  1  0.66994000  0.39707000  0.83062000  1.0
  C  C91  1  0.33006000  0.10293000  0.33062000  1.0
  C  C92  1  0.23017000  0.69638000  0.16371000  1.0
  C  C93  1  0.76982000  0.80362000  0.66371000  1.0
  C  C94  1  0.76982000  0.30362000  0.83629000  1.0
  C  C95  1  0.23018000  0.19638000  0.33629000  1.0
  C  C96  1  0.40950000  0.71340000  0.83306000  1.0
  C  C97  1  0.59050000  0.78660000  0.33306000  1.0
  C  C98  1  0.59050000  0.28660000  0.16694000  1.0
  C  C99  1  0.40950000  0.21340000  0.66694000  1.0
  C  C100  1  0.31530000  0.78674000  0.77415000  1.0
  C  C101  1  0.68470000  0.71326000  0.27415000  1.0
  C  C102  1  0.68470000  0.21326000  0.22585000  1.0
  C  C103  1  0.31530000  0.28674000  0.72585000  1.0
  C  C104  1  0.21122000  0.59685000  0.83864000  1.0
  C  C105  1  0.78879000  0.90315000  0.33864000  1.0
  C  C106  1  0.78878000  0.40315000  0.16136000  1.0
  C  C107  1  0.21122000  0.09685000  0.66136000  1.0
  C  C108  1  0.19274000  0.71438000  0.77736000  1.0
  C  C109  1  0.80726000  0.78562000  0.27736000  1.0
  C  C110  1  0.80726000  0.28563000  0.22264000  1.0
  C  C111  1  0.19274000  0.21438000  0.72264000  1.0
  C  C112  1  0.34577000  0.59648000  0.87305000  1.0
  C  C113  1  0.65423000  0.90352000  0.37305000  1.0
  C  C114  1  0.65423000  0.40352000  0.12695000  1.0
  C  C115  1  0.34577000  0.09648000  0.62695000  1.0
  C  C116  1  0.91427000  0.01524000  0.90613000  1.0
  C  C117  1  0.08573000  0.48476000  0.40613000  1.0
  C  C118  1  0.08573000  0.98476000  0.09387000  1.0
  C  C119  1  0.91428000  0.51524000  0.59387000  1.0
  C  C120  1  0.96675000  0.88550000  0.93873000  1.0
  C  C121  1  0.03325000  0.61450000  0.43874000  1.0
  C  C122  1  0.03325000  0.11450000  0.06127000  1.0
  C  C123  1  0.96675000  0.38550000  0.56127000  1.0
  C  C124  1  0.48145000  0.92252000  0.09924000  1.0
  C  C125  1  0.51855000  0.57748000  0.59924000  1.0
  C  C126  1  0.51855000  0.07748000  0.90076000  1.0
  C  C127  1  0.48145000  0.42252000  0.40076000  1.0
  C  C128  1  0.38464000  0.05413000  0.95568000  1.0
  C  C129  1  0.61536000  0.44587000  0.45568000  1.0
  C  C130  1  0.61536000  0.94587000  0.04432000  1.0
  C  C131  1  0.38464000  0.55413000  0.54432000  1.0
  O  O132  1  0.37658000  0.92998000  0.01476000  1.0
  O  O133  1  0.62342000  0.57002000  0.51476000  1.0
  O  O134  1  0.62342000  0.07002000  0.98524000  1.0
  O  O135  1  0.37658000  0.42998000  0.48524000  1.0
  O  O136  1  0.90407000  0.09687000  0.00825000  1.0
  O  O137  1  0.09593000  0.40313000  0.50825000  1.0
  O  O138  1  0.09593000  0.90313000  0.99175000  1.0
  O  O139  1  0.90407000  0.59687000  0.49175000  1.0
