# generated using pymatgen
data_Zr3H20(C9O7)4
_symmetry_space_group_name_H-M   'P 1'
_cell_length_a   16.95878493
_cell_length_b   17.02238035
_cell_length_c   16.95950000
_cell_angle_alpha   119.41165155
_cell_angle_beta   90.81842116
_cell_angle_gamma   119.40645032
_symmetry_Int_Tables_number   1
_chemical_formula_structural   Zr3H20(C9O7)4
_chemical_formula_sum   'Zr6 H40 C72 O56'
_cell_volume   3498.61302886
_cell_formula_units_Z   2
loop_
 _symmetry_equiv_pos_site_id
 _symmetry_equiv_pos_as_xyz
  1  'x, y, z'
loop_
 _atom_site_type_symbol
 _atom_site_label
 _atom_site_symmetry_multiplicity
 _atom_site_fract_x
 _atom_site_fract_y
 _atom_site_fract_z
 _atom_site_occupancy
  Zr  Zr0  1  0.89752000  0.29496000  0.89749000  1.0
  Zr  Zr1  1  0.10255000  0.70501000  0.10253000  1.0
  Zr  Zr2  1  0.10445000  0.49998000  0.10445000  1.0
  Zr  Zr3  1  0.89560000  0.49999000  0.89558000  1.0
  Zr  Zr4  1  0.89622000  0.49999000  0.10376000  1.0
  Zr  Zr5  1  0.10380000  0.49998000  0.89622000  1.0
  H  H6  1  0.91989000  0.33759000  0.08270000  1.0
  H  H7  1  0.91731000  0.66244000  0.08012000  1.0
  H  H8  1  0.24516000  0.66242000  0.08229000  1.0
  H  H9  1  0.91772000  0.33757000  0.75489000  1.0
  H  H10  1  0.65181000  0.29652000  0.14047000  1.0
  H  H11  1  0.34375000  0.70347000  0.85510000  1.0
  H  H12  1  0.14476000  0.29650000  0.65621000  1.0
  H  H13  1  0.85960000  0.70349000  0.34816000  1.0
  H  H14  1  0.65348000  0.49668000  0.85482000  1.0
  H  H15  1  0.34330000  0.49679000  0.14181000  1.0
  H  H16  1  0.85825000  0.50334000  0.65683000  1.0
  H  H17  1  0.14519000  0.50352000  0.34661000  1.0
  H  H18  1  0.14285000  0.29615000  0.13851000  1.0
  H  H19  1  0.86124000  0.70371000  0.85725000  1.0
  H  H20  1  0.65338000  0.29623000  0.65776000  1.0
  H  H21  1  0.34235000  0.70369000  0.34664000  1.0
  H  H22  1  0.54639000  0.86710000  0.81945000  1.0
  H  H23  1  0.68528000  0.07168000  0.88157000  1.0
  H  H24  1  0.45249000  0.13290000  0.17946000  1.0
  H  H25  1  0.30998000  0.92832000  0.11369000  1.0
  H  H26  1  0.82053000  0.86701000  0.54747000  1.0
  H  H27  1  0.88628000  0.07154000  0.69003000  1.0
  H  H28  1  0.18042000  0.13301000  0.45350000  1.0
  H  H29  1  0.11836000  0.92847000  0.31456000  1.0
  H  H30  1  0.54786000  0.49891000  0.18184000  1.0
  H  H31  1  0.68783000  0.49672000  0.11690000  1.0
  H  H32  1  0.45103000  0.49875000  0.81686000  1.0
  H  H33  1  0.30893000  0.49667000  0.87970000  1.0
  H  H34  1  0.18302000  0.50115000  0.54893000  1.0
  H  H35  1  0.12030000  0.50335000  0.69108000  1.0
  H  H36  1  0.81812000  0.50118000  0.45226000  1.0
  H  H37  1  0.88305000  0.50335000  0.31228000  1.0
  H  H38  1  0.81828000  0.86471000  0.81734000  1.0
  H  H39  1  0.88146000  0.06800000  0.87783000  1.0
  H  H40  1  0.18266000  0.13516000  0.18160000  1.0
  H  H41  1  0.12217000  0.93189000  0.11846000  1.0
  H  H42  1  0.54650000  0.86471000  0.54735000  1.0
  H  H43  1  0.68655000  0.06796000  0.69024000  1.0
  H  H44  1  0.45252000  0.13523000  0.45371000  1.0
  H  H45  1  0.30978000  0.93196000  0.31353000  1.0
  C  C46  1  0.73092000  0.24159000  0.00474000  1.0
  C  C47  1  0.99529000  0.75847000  0.26904000  1.0
  C  C48  1  0.26314000  0.75841000  0.98932000  1.0
  C  C49  1  0.01066000  0.24152000  0.73688000  1.0
  C  C50  1  0.00697000  0.23888000  0.00180000  1.0
  C  C51  1  0.73200000  0.23891000  0.73717000  1.0
  C  C52  1  0.99818000  0.76103000  0.99303000  1.0
  C  C53  1  0.26286000  0.76105000  0.26805000  1.0
  C  C54  1  0.00896000  0.50357000  0.26744000  1.0
  C  C55  1  0.26390000  0.49644000  0.00538000  1.0
  C  C56  1  0.99458000  0.50349000  0.73611000  1.0
  C  C57  1  0.73260000  0.49648000  0.99103000  1.0
  C  C58  1  0.59713000  0.05025000  0.94962000  1.0
  C  C59  1  0.61370000  0.20792000  0.09045000  1.0
  C  C60  1  0.53477000  0.14045000  0.10334000  1.0
  C  C61  1  0.48244000  0.02279000  0.03767000  1.0
  C  C62  1  0.39939000  0.94974000  0.04690000  1.0
  C  C63  1  0.38240000  0.79207000  0.90568000  1.0
  C  C64  1  0.46277000  0.85955000  0.89423000  1.0
  C  C65  1  0.51485000  0.97721000  0.95963000  1.0
  C  C66  1  0.64604000  0.16469000  0.01404000  1.0
  C  C67  1  0.34930000  0.83531000  0.98131000  1.0
  C  C68  1  0.95303000  0.05022000  0.60054000  1.0
  C  C69  1  0.09419000  0.20790000  0.61751000  1.0
  C  C70  1  0.10560000  0.14044000  0.53709000  1.0
  C  C71  1  0.04021000  0.02278000  0.48499000  1.0
  C  C72  1  0.05025000  0.94978000  0.40273000  1.0
  C  C73  1  0.90955000  0.79210000  0.38623000  1.0
  C  C74  1  0.89660000  0.85953000  0.46513000  1.0
  C  C75  1  0.96219000  0.97717000  0.51741000  1.0
  C  C76  1  0.01864000  0.16465000  0.65067000  1.0
  C  C77  1  0.98592000  0.83534000  0.35388000  1.0
  C  C78  1  0.59824000  0.49743000  0.04843000  1.0
  C  C79  1  0.61465000  0.49710000  0.90532000  1.0
  C  C80  1  0.53479000  0.49802000  0.89306000  1.0
  C  C81  1  0.48272000  0.49795000  0.95931000  1.0
  C  C82  1  0.39924000  0.49743000  0.94892000  1.0
  C  C83  1  0.38252000  0.49716000  0.09172000  1.0
  C  C84  1  0.46332000  0.49811000  0.10490000  1.0
  C  C85  1  0.51528000  0.49796000  0.03854000  1.0
  C  C86  1  0.64697000  0.49665000  0.98226000  1.0
  C  C87  1  0.34973000  0.49665000  0.01431000  1.0
  C  C88  1  0.05114000  0.50272000  0.60087000  1.0
  C  C89  1  0.90834000  0.50298000  0.61760000  1.0
  C  C90  1  0.89516000  0.50208000  0.53683000  1.0
  C  C91  1  0.96150000  0.50225000  0.48485000  1.0
  C  C92  1  0.95157000  0.50272000  0.40186000  1.0
  C  C93  1  0.09469000  0.50308000  0.38544000  1.0
  C  C94  1  0.10693000  0.50211000  0.46528000  1.0
  C  C95  1  0.04075000  0.50226000  0.51741000  1.0
  C  C96  1  0.98570000  0.50339000  0.65034000  1.0
  C  C97  1  0.01772000  0.50346000  0.35310000  1.0
  C  C98  1  0.95066000  0.04823000  0.94765000  1.0
  C  C99  1  0.09287000  0.20742000  0.08920000  1.0
  C  C100  1  0.10589000  0.14110000  0.10362000  1.0
  C  C101  1  0.04079000  0.02348000  0.03844000  1.0
  C  C102  1  0.05228000  0.95165000  0.04930000  1.0
  C  C103  1  0.91068000  0.79244000  0.90715000  1.0
  C  C104  1  0.89631000  0.85878000  0.89411000  1.0
  C  C105  1  0.96152000  0.97639000  0.95915000  1.0
  C  C106  1  0.01589000  0.16246000  0.01167000  1.0
  C  C107  1  0.98823000  0.83741000  0.98410000  1.0
  C  C108  1  0.59760000  0.04828000  0.60068000  1.0
  C  C109  1  0.61462000  0.20749000  0.61835000  1.0
  C  C110  1  0.53524000  0.14114000  0.53764000  1.0
  C  C111  1  0.48267000  0.02349000  0.48519000  1.0
  C  C112  1  0.39936000  0.95166000  0.40250000  1.0
  C  C113  1  0.38172000  0.79243000  0.38539000  1.0
  C  C114  1  0.46247000  0.85877000  0.46474000  1.0
  C  C115  1  0.51487000  0.97640000  0.51735000  1.0
  C  C116  1  0.64664000  0.16252000  0.65088000  1.0
  C  C117  1  0.34915000  0.83742000  0.35343000  1.0
  O  O118  1  0.76265000  0.20340000  0.93531000  1.0
  O  O119  1  0.06474000  0.79670000  0.23736000  1.0
  O  O120  1  0.23193000  0.79660000  0.05927000  1.0
  O  O121  1  0.94074000  0.20330000  0.76809000  1.0
  O  O122  1  0.06977000  0.34070000  0.06386000  1.0
  O  O123  1  0.77106000  0.34073000  0.77691000  1.0
  O  O124  1  0.93612000  0.65922000  0.93023000  1.0
  O  O125  1  0.22314000  0.65924000  0.22901000  1.0
  O  O126  1  0.93827000  0.50273000  0.23467000  1.0
  O  O127  1  0.23198000  0.49729000  0.93556000  1.0
  O  O128  1  0.06443000  0.50266000  0.76804000  1.0
  O  O129  1  0.76537000  0.49734000  0.06172000  1.0
  O  O130  1  0.22439000  0.49705000  0.06886000  1.0
  O  O131  1  0.93111000  0.50285000  0.77562000  1.0
  O  O132  1  0.77272000  0.49707000  0.92817000  1.0
  O  O133  1  0.07181000  0.50293000  0.22731000  1.0
  O  O134  1  0.93556000  0.20081000  0.93182000  1.0
  O  O135  1  0.23096000  0.79913000  0.23474000  1.0
  O  O136  1  0.06819000  0.79911000  0.06441000  1.0
  O  O137  1  0.76529000  0.20081000  0.76907000  1.0
  O  O138  1  0.07341000  0.34423000  0.77717000  1.0
  O  O139  1  0.77086000  0.34431000  0.06716000  1.0
  O  O140  1  0.93291000  0.65575000  0.22910000  1.0
  O  O141  1  0.22287000  0.65570000  0.92656000  1.0
  O  O142  1  0.94161000  0.38238000  0.82460000  1.0
  O  O143  1  0.17546000  0.61759000  0.05842000  1.0
  O  O144  1  0.94221000  0.61762000  0.05919000  1.0
  O  O145  1  0.94083000  0.38242000  0.05783000  1.0
  O  O146  1  0.04297000  0.58657000  0.12904000  1.0
  O  O147  1  0.87100000  0.41343000  0.95705000  1.0
  O  O148  1  0.04366000  0.58656000  0.95757000  1.0
  O  O149  1  0.04248000  0.41343000  0.95639000  1.0
  O  O150  1  0.48900000  0.80989000  0.81977000  1.0
  O  O151  1  0.62758000  0.00680000  0.87575000  1.0
  O  O152  1  0.51002000  0.19011000  0.17928000  1.0
  O  O153  1  0.36906000  0.99319000  0.12089000  1.0
  O  O154  1  0.82071000  0.80981000  0.48991000  1.0
  O  O155  1  0.87909000  0.00673000  0.63090000  1.0
  O  O156  1  0.18009000  0.19017000  0.51093000  1.0
  O  O157  1  0.12405000  0.99327000  0.37223000  1.0
  O  O158  1  0.48980000  0.49900000  0.18133000  1.0
  O  O159  1  0.62930000  0.49758000  0.12319000  1.0
  O  O160  1  0.50916000  0.49882000  0.81746000  1.0
  O  O161  1  0.36831000  0.49754000  0.87428000  1.0
  O  O162  1  0.18244000  0.50114000  0.49082000  1.0
  O  O163  1  0.12575000  0.50255000  0.63174000  1.0
  O  O164  1  0.81870000  0.50115000  0.51035000  1.0
  O  O165  1  0.87678000  0.50252000  0.37081000  1.0
  O  O166  1  0.81955000  0.80815000  0.81866000  1.0
  O  O167  1  0.87559000  0.00394000  0.87288000  1.0
  O  O168  1  0.18139000  0.19173000  0.18032000  1.0
  O  O169  1  0.12712000  0.99594000  0.12431000  1.0
  O  O170  1  0.48862000  0.80811000  0.48950000  1.0
  O  O171  1  0.62835000  0.00393000  0.63114000  1.0
  O  O172  1  0.51037000  0.19179000  0.51158000  1.0
  O  O173  1  0.36887000  0.99598000  0.37174000  1.0
