# generated using pymatgen
data_CoH5C9N5O6
_symmetry_space_group_name_H-M   'P 1'
_cell_length_a   9.40722000
_cell_length_b   10.60840000
_cell_length_c   11.32330000
_cell_angle_alpha   91.46100000
_cell_angle_beta   90.00000000
_cell_angle_gamma   89.99980000
_symmetry_Int_Tables_number   1
_chemical_formula_structural   CoH5C9N5O6
_chemical_formula_sum   'Co4 H20 C36 N20 O24'
_cell_volume   1129.64762639
_cell_formula_units_Z   4
loop_
 _symmetry_equiv_pos_site_id
 _symmetry_equiv_pos_as_xyz
  1  'x, y, z'
loop_
 _atom_site_type_symbol
 _atom_site_label
 _atom_site_symmetry_multiplicity
 _atom_site_fract_x
 _atom_site_fract_y
 _atom_site_fract_z
 _atom_site_occupancy
  Co  Co0  1  0.09761000  0.39484000  0.10183000  1.0
  Co  Co1  1  0.59761000  0.10516000  0.89817000  1.0
  Co  Co2  1  0.90239000  0.60516000  0.89817000  1.0
  Co  Co3  1  0.40239000  0.89484000  0.10183000  1.0
  H  H4  1  0.38343000  0.33485000  0.92993000  1.0
  H  H5  1  0.88343000  0.16515000  0.07007000  1.0
  H  H6  1  0.61657000  0.66515000  0.07007000  1.0
  H  H7  1  0.11657000  0.83485000  0.92992000  1.0
  H  H8  1  0.16275000  0.10914000  0.16931000  1.0
  H  H9  1  0.66275000  0.39086000  0.83069000  1.0
  H  H10  1  0.83725000  0.89085000  0.83069000  1.0
  H  H11  1  0.33725000  0.60914000  0.16931000  1.0
  H  H12  1  0.90921000  0.12136000  0.45780000  1.0
  H  H13  1  0.40921000  0.37865000  0.54220000  1.0
  H  H14  1  0.09079000  0.87864000  0.54220000  1.0
  H  H15  1  0.59079000  0.62135000  0.45780000  1.0
  H  H16  1  0.15886000  0.46177000  0.47613000  1.0
  H  H17  1  0.65886000  0.03824000  0.52387000  1.0
  H  H18  1  0.84114000  0.53823000  0.52387000  1.0
  H  H19  1  0.34114000  0.96176000  0.47613000  1.0
  H  H20  1  0.06069000  0.26482000  0.79487000  1.0
  H  H21  1  0.56069000  0.23518000  0.20513000  1.0
  H  H22  1  0.93932000  0.73518000  0.20513000  1.0
  H  H23  1  0.43932000  0.76482000  0.79487000  1.0
  C  C24  1  0.35236000  0.25806000  0.98568000  1.0
  C  C25  1  0.85237000  0.24194000  0.01433000  1.0
  C  C26  1  0.64763000  0.74194000  0.01432000  1.0
  C  C27  1  0.14763000  0.75806000  0.98568000  1.0
  C  C28  1  0.24010000  0.14245000  0.10646000  1.0
  C  C29  1  0.74010000  0.35755000  0.89354000  1.0
  C  C30  1  0.75990000  0.85755000  0.89354000  1.0
  C  C31  1  0.25990000  0.64245000  0.10646000  1.0
  C  C32  1  0.02215000  0.29852000  0.31968000  1.0
  C  C33  1  0.52214000  0.20149000  0.68032000  1.0
  C  C34  1  0.97786000  0.70148000  0.68032000  1.0
  C  C35  1  0.47785000  0.79852000  0.31968000  1.0
  C  C36  1  0.02931000  0.29452000  0.45248000  1.0
  C  C37  1  0.52931000  0.20549000  0.54752000  1.0
  C  C38  1  0.97069000  0.70549000  0.54752000  1.0
  C  C39  1  0.47069000  0.79452000  0.45248000  1.0
  C  C40  1  0.96443000  0.19403000  0.50917000  1.0
  C  C41  1  0.46443000  0.30597000  0.49083000  1.0
  C  C42  1  0.03557000  0.80597000  0.49083000  1.0
  C  C43  1  0.53557000  0.69403000  0.50917000  1.0
  C  C44  1  0.10486000  0.38478000  0.51908000  1.0
  C  C45  1  0.60486000  0.11522000  0.48092000  1.0
  C  C46  1  0.89514000  0.61522000  0.48092000  1.0
  C  C47  1  0.39514000  0.88478000  0.51908000  1.0
  C  C48  1  0.11329000  0.37275000  0.64137000  1.0
  C  C49  1  0.61329000  0.12725000  0.35863000  1.0
  C  C50  1  0.88672000  0.62725000  0.35863000  1.0
  C  C51  1  0.38672000  0.87275000  0.64137000  1.0
  C  C52  1  0.04974000  0.27465000  0.70011000  1.0
  C  C53  1  0.54974000  0.22535000  0.29989000  1.0
  C  C54  1  0.95027000  0.72535000  0.29989000  1.0
  C  C55  1  0.45026000  0.77465000  0.70011000  1.0
  C  C56  1  0.97611000  0.18640000  0.63113000  1.0
  C  C57  1  0.47610000  0.31360000  0.36887000  1.0
  C  C58  1  0.02390000  0.81360000  0.36887000  1.0
  C  C59  1  0.52390000  0.68640000  0.63113000  1.0
  N  N60  1  0.23815000  0.25849000  0.05859000  1.0
  N  N61  1  0.73815000  0.24150000  0.94141000  1.0
  N  N62  1  0.76185000  0.74150000  0.94141000  1.0
  N  N63  1  0.26185000  0.75849000  0.05859000  1.0
  N  N64  1  0.34880000  0.07321000  0.06547000  1.0
  N  N65  1  0.84881000  0.42679000  0.93453000  1.0
  N  N66  1  0.65119000  0.92679000  0.93453000  1.0
  N  N67  1  0.15120000  0.57321000  0.06547000  1.0
  N  N68  1  0.42142000  0.14824000  0.98795000  1.0
  N  N69  1  0.92142000  0.35176000  0.01205000  1.0
  N  N70  1  0.57858000  0.85176000  0.01205000  1.0
  N  N71  1  0.07858000  0.64824000  0.98795000  1.0
  N  N72  1  0.91698000  0.07723000  0.69022000  1.0
  N  N73  1  0.41698000  0.42277000  0.30977000  1.0
  N  N74  1  0.08302000  0.92277000  0.30978000  1.0
  N  N75  1  0.58302000  0.57723000  0.69022000  1.0
  N  N76  1  0.19619000  0.46469000  0.71132000  1.0
  N  N77  1  0.69618000  0.03530000  0.28868000  1.0
  N  N78  1  0.80382000  0.53530000  0.28868000  1.0
  N  N79  1  0.30382000  0.96470000  0.71132000  1.0
  O  O80  1  0.08334000  0.39595000  0.27315000  1.0
  O  O81  1  0.58334000  0.10405000  0.72685000  1.0
  O  O82  1  0.91666000  0.60405000  0.72685000  1.0
  O  O83  1  0.41667000  0.89595000  0.27315000  1.0
  O  O84  1  0.96290000  0.21159000  0.26257000  1.0
  O  O85  1  0.46290000  0.28842000  0.73743000  1.0
  O  O86  1  0.03710000  0.78842000  0.73743000  1.0
  O  O87  1  0.53710000  0.71158000  0.26257000  1.0
  O  O88  1  0.93147000  0.07354000  0.79902000  1.0
  O  O89  1  0.43146000  0.42646000  0.20097000  1.0
  O  O90  1  0.06853000  0.92646000  0.20098000  1.0
  O  O91  1  0.56853000  0.57354000  0.79902000  1.0
  O  O92  1  0.85714000  0.99454000  0.62898000  1.0
  O  O93  1  0.35714000  0.50546000  0.37102000  1.0
  O  O94  1  0.14286000  0.00546000  0.37102000  1.0
  O  O95  1  0.64286000  0.49454000  0.62898000  1.0
  O  O96  1  0.26029000  0.54737000  0.65686000  1.0
  O  O97  1  0.76028000  0.95262000  0.34314000  1.0
  O  O98  1  0.73972000  0.45263000  0.34314000  1.0
  O  O99  1  0.23972000  0.04737000  0.65686000  1.0
  O  O100  1  0.19770000  0.45521000  0.82004000  1.0
  O  O101  1  0.69769000  0.04478000  0.17996000  1.0
  O  O102  1  0.80230000  0.54478000  0.17996000  1.0
  O  O103  1  0.30230000  0.95521000  0.82003000  1.0
