# generated using pymatgen
data_Zn2H14C21N4O7
_symmetry_space_group_name_H-M   'P 1'
_cell_length_a   9.84759000
_cell_length_b   10.24780000
_cell_length_c   10.53470000
_cell_angle_alpha   91.23920000
_cell_angle_beta   108.18400000
_cell_angle_gamma   105.79800000
_symmetry_Int_Tables_number   1
_chemical_formula_structural   Zn2H14C21N4O7
_chemical_formula_sum   'Zn4 H28 C42 N8 O14'
_cell_volume   965.24837465
_cell_formula_units_Z   2
loop_
 _symmetry_equiv_pos_site_id
 _symmetry_equiv_pos_as_xyz
  1  'x, y, z'
loop_
 _atom_site_type_symbol
 _atom_site_label
 _atom_site_symmetry_multiplicity
 _atom_site_fract_x
 _atom_site_fract_y
 _atom_site_fract_z
 _atom_site_occupancy
  Zn  Zn0  1  0.59816000  0.71113000  0.52092000  1.0
  Zn  Zn1  1  0.40184000  0.28887000  0.47908000  1.0
  Zn  Zn2  1  0.47023000  0.57168000  0.19456000  1.0
  Zn  Zn3  1  0.52977000  0.42832000  0.80544000  1.0
  H  H4  1  0.97932000  0.12823000  0.10459000  1.0
  H  H5  1  0.02068000  0.87177000  0.89541000  1.0
  H  H6  1  0.80270000  0.29310000  0.73492000  1.0
  H  H7  1  0.19730000  0.70690000  0.26508000  1.0
  H  H8  1  0.56233000  0.11294000  0.68371000  1.0
  H  H9  1  0.43767000  0.88706000  0.31629000  1.0
  H  H10  1  0.52875000  0.93885000  0.83687000  1.0
  H  H11  1  0.47125000  0.06115000  0.16313000  1.0
  H  H12  1  0.21807000  0.29274000  0.13631000  1.0
  H  H13  1  0.78193000  0.70726000  0.86369000  1.0
  H  H14  1  0.24054000  0.63504000  0.92060000  1.0
  H  H15  1  0.75946000  0.36496000  0.07940000  1.0
  H  H16  1  0.48402000  0.79369000  0.97399000  1.0
  H  H17  1  0.51598000  0.20631000  0.02601000  1.0
  H  H18  1  0.80693000  0.74068000  0.32321000  1.0
  H  H19  1  0.19307000  0.25933000  0.67679000  1.0
  H  H20  1  0.57034000  0.12314000  0.42906000  1.0
  H  H21  1  0.42966000  0.87686000  0.57094000  1.0
  H  H22  1  0.03193000  0.14463000  0.51309000  1.0
  H  H23  1  0.96807000  0.85537000  0.48691000  1.0
  H  H24  1  0.86547000  0.46125000  0.32000000  1.0
  H  H25  1  0.13453000  0.53875000  0.68000000  1.0
  H  H26  1  0.93644000  0.94684000  0.23421000  1.0
  H  H27  1  0.06356000  0.05316000  0.76579000  1.0
  H  H28  1  0.98393000  0.47275000  0.80881000  1.0
  H  H29  1  0.01607000  0.52725000  0.19119000  1.0
  H  H30  1  0.33892000  0.56106000  0.36412000  1.0
  H  H31  1  0.66108000  0.43894000  0.63588000  1.0
  C  C32  1  0.75221000  0.01990000  0.98143000  1.0
  C  C33  1  0.24779000  0.98010000  0.01857000  1.0
  C  C34  1  0.88838000  0.12327000  0.01147000  1.0
  C  C35  1  0.11162000  0.87673000  0.98853000  1.0
  C  C36  1  0.90794000  0.22292000  0.92332000  1.0
  C  C37  1  0.09206000  0.77708000  0.07668000  1.0
  C  C38  1  0.79004000  0.21755000  0.80469000  1.0
  C  C39  1  0.20996000  0.78245000  0.19531000  1.0
  C  C40  1  0.65434000  0.11570000  0.77498000  1.0
  C  C41  1  0.34566000  0.88430000  0.22502000  1.0
  C  C42  1  0.63544000  0.01790000  0.86199000  1.0
  C  C43  1  0.36456000  0.98210000  0.13801000  1.0
  C  C44  1  0.04650000  0.33409000  0.95752000  1.0
  C  C45  1  0.95350000  0.66591000  0.04248000  1.0
  C  C46  1  0.18134000  0.35650000  0.06000000  1.0
  C  C47  1  0.81866000  0.64350000  0.94000000  1.0
  C  C48  1  0.19981000  0.53628000  0.95180000  1.0
  C  C49  1  0.80019000  0.46372000  0.04820000  1.0
  C  C50  1  0.72349000  0.91419000  0.06819000  1.0
  C  C51  1  0.27651000  0.08581000  0.93181000  1.0
  C  C52  1  0.59139000  0.81261000  0.05194000  1.0
  C  C53  1  0.40861000  0.18739000  0.94806000  1.0
  C  C54  1  0.75574000  0.78194000  0.23274000  1.0
  C  C55  1  0.24426000  0.21805000  0.76726000  1.0
  C  C56  1  0.70514000  0.29789000  0.36656000  1.0
  C  C57  1  0.29486000  0.70211000  0.63344000  1.0
  C  C58  1  0.68138000  0.17689000  0.42678000  1.0
  C  C59  1  0.31862000  0.82311000  0.57322000  1.0
  C  C60  1  0.80084000  0.12382000  0.48398000  1.0
  C  C61  1  0.19916000  0.87618000  0.51602000  1.0
  C  C62  1  0.94169000  0.19033000  0.47657000  1.0
  C  C63  1  0.05831000  0.80967000  0.52343000  1.0
  C  C64  1  0.96680000  0.31118000  0.41613000  1.0
  C  C65  1  0.03320000  0.68882000  0.58387000  1.0
  C  C66  1  0.84823000  0.36525000  0.36325000  1.0
  C  C67  1  0.15177000  0.63475000  0.63676000  1.0
  C  C68  1  0.58036000  0.35630000  0.30087000  1.0
  C  C69  1  0.41964000  0.64370000  0.69912000  1.0
  C  C70  1  0.77856000  0.99287000  0.54830000  1.0
  C  C71  1  0.22144000  0.00713000  0.45170000  1.0
  C  C72  1  0.11970000  0.37979000  0.40874000  1.0
  C  C73  1  0.88029000  0.62021000  0.59126000  1.0
  N  N74  1  0.82532000  0.89213000  0.18468000  1.0
  N  N75  1  0.17468000  0.10787000  0.81532000  1.0
  N  N76  1  0.61292000  0.73176000  0.15432000  1.0
  N  N77  1  0.38708000  0.26824000  0.84568000  1.0
  N  N78  1  0.06244000  0.44976000  0.89016000  1.0
  N  N79  1  0.93756000  0.55023000  0.10984000  1.0
  N  N80  1  0.27514000  0.48254000  0.05499000  1.0
  N  N81  1  0.72486000  0.51746000  0.94501000  1.0
  O  O82  1  0.60804000  0.45240000  0.22958000  1.0
  O  O83  1  0.39196000  0.54760000  0.77042000  1.0
  O  O84  1  0.45099000  0.30802000  0.31227000  1.0
  O  O85  1  0.54901000  0.69198000  0.68773000  1.0
  O  O86  1  0.64732000  0.90667000  0.49436000  1.0
  O  O87  1  0.35268000  0.09333000  0.50564000  1.0
  O  O88  1  0.88307000  0.97335000  0.64299000  1.0
  O  O89  1  0.11693000  0.02665000  0.35701000  1.0
  O  O90  1  0.13748000  0.47063000  0.33108000  1.0
  O  O91  1  0.86252000  0.52937000  0.66892000  1.0
  O  O92  1  0.22539000  0.33983000  0.48741000  1.0
  O  O93  1  0.77461000  0.66017000  0.51260000  1.0
  O  O94  1  0.43917000  0.61126000  0.36264000  1.0
  O  O95  1  0.56083000  0.38875000  0.63736000  1.0
