# generated using pymatgen
data_AlH12C27(O2F)3
_symmetry_space_group_name_H-M   'P 1'
_cell_length_a   3.99571000
_cell_length_b   16.02910000
_cell_length_c   16.06800000
_cell_angle_alpha   119.80100000
_cell_angle_beta   90.01720000
_cell_angle_gamma   91.34190000
_symmetry_Int_Tables_number   1
_chemical_formula_structural   AlH12C27(O2F)3
_chemical_formula_sum   'Al1 H12 C27 O6 F3'
_cell_volume   892.69414288
_cell_formula_units_Z   1
loop_
 _symmetry_equiv_pos_site_id
 _symmetry_equiv_pos_as_xyz
  1  'x, y, z'
loop_
 _atom_site_type_symbol
 _atom_site_label
 _atom_site_symmetry_multiplicity
 _atom_site_fract_x
 _atom_site_fract_y
 _atom_site_fract_z
 _atom_site_occupancy
  Al  Al0  1  0.99651000  0.50081000  0.50110000  1.0
  H  H1  1  0.49755000  0.92325000  0.07782000  1.0
  H  H2  1  0.47382000  0.65519000  0.07771000  1.0
  H  H3  1  0.52390000  0.92235000  0.34461000  1.0
  H  H4  1  0.74853000  0.23732000  0.25240000  1.0
  H  H5  1  0.76411000  0.05979000  0.16310000  1.0
  H  H6  1  0.22538000  0.05170000  0.39267000  1.0
  H  H7  1  0.24083000  0.83895000  0.94237000  1.0
  H  H8  1  0.76874000  0.52002000  0.76992000  1.0
  H  H9  1  0.76889000  0.60877000  0.94730000  1.0
  H  H10  1  0.76213000  0.60625000  0.15943000  1.0
  H  H11  1  0.23901000  0.74217000  0.47896000  1.0
  H  H12  1  0.23809000  0.83586000  0.39413000  1.0
  C  C13  1  0.50527000  0.57588000  0.64870000  1.0
  C  C14  1  0.50152000  0.57114000  0.42399000  1.0
  C  C15  1  0.48462000  0.35257000  0.42888000  1.0
  C  C16  1  0.49770000  0.78301000  0.06535000  1.0
  C  C17  1  0.49788000  0.88376000  0.11681000  1.0
  C  C18  1  0.49882000  0.93505000  0.21730000  1.0
  C  C19  1  0.50460000  0.88338000  0.26657000  1.0
  C  C20  1  0.49888000  0.78262000  0.21733000  1.0
  C  C21  1  0.49239000  0.73349000  0.11676000  1.0
  C  C22  1  0.63336000  0.19587000  0.28233000  1.0
  C  C23  1  0.63833000  0.09581000  0.23190000  1.0
  C  C24  1  0.49636000  0.04130000  0.27021000  1.0
  C  C25  1  0.34934000  0.09025000  0.36095000  1.0
  C  C26  1  0.35076000  0.18985000  0.41037000  1.0
  C  C27  1  0.48868000  0.24479000  0.37308000  1.0
  C  C28  1  0.36576000  0.77038000  0.90709000  1.0
  C  C29  1  0.37726000  0.72034000  0.80783000  1.0
  C  C30  1  0.51335000  0.62948000  0.75630000  1.0
  C  C31  1  0.65200000  0.58980000  0.80847000  1.0
  C  C32  1  0.64818000  0.63961000  0.90835000  1.0
  C  C33  1  0.50236000  0.73022000  0.95934000  1.0
  C  C34  1  0.64242000  0.63802000  0.22909000  1.0
  C  C35  1  0.64356000  0.58755000  0.27842000  1.0
  C  C36  1  0.50183000  0.62343000  0.36932000  1.0
  C  C37  1  0.35592000  0.71411000  0.40915000  1.0
  C  C38  1  0.35834000  0.76652000  0.36161000  1.0
  C  C39  1  0.50051000  0.72902000  0.27011000  1.0
  O  O40  1  0.24711000  0.39267000  0.41054000  1.0
  O  O41  1  0.26168000  0.51648000  0.60823000  1.0
  O  O42  1  0.26988000  0.59079000  0.48538000  1.0
  O  O43  1  0.72043000  0.39576000  0.48944000  1.0
  O  O44  1  0.73230000  0.51166000  0.40815000  1.0
  O  O45  1  0.74198000  0.59308000  0.60619000  1.0
  F  F46  1  0.20748000  0.23573000  0.49843000  1.0
  F  F47  1  0.24479000  0.76112000  0.75878000  1.0
  F  F48  1  0.78357000  0.49972000  0.23410000  1.0
