# generated using pymatgen
data_Zn4H42C61N16
_symmetry_space_group_name_H-M   'P 1'
_cell_length_a   13.52630000
_cell_length_b   15.04880000
_cell_length_c   16.87806005
_cell_angle_alpha   110.58204678
_cell_angle_beta   102.18937758
_cell_angle_gamma   108.66100000
_symmetry_Int_Tables_number   1
_chemical_formula_structural   Zn4H42C61N16
_chemical_formula_sum   'Zn4 H42 C61 N16'
_cell_volume   2837.13678839
_cell_formula_units_Z   1
loop_
 _symmetry_equiv_pos_site_id
 _symmetry_equiv_pos_as_xyz
  1  'x, y, z'
loop_
 _atom_site_type_symbol
 _atom_site_label
 _atom_site_symmetry_multiplicity
 _atom_site_fract_x
 _atom_site_fract_y
 _atom_site_fract_z
 _atom_site_occupancy
  Zn  Zn0  1  0.51659000  0.88303000  0.89721000  1.0
  Zn  Zn1  1  0.47577000  0.12643000  0.12132000  1.0
  Zn  Zn2  1  0.65510000  0.13182000  0.01557000  1.0
  Zn  Zn3  1  0.33509000  0.86911000  0.99733000  1.0
  H  H4  1  0.68432000  0.80048000  0.95606000  1.0
  H  H5  1  0.19970000  0.29671000  0.99623000  1.0
  H  H6  1  0.65464000  0.13914000  0.28450000  1.0
  H  H7  1  0.33512000  0.38350000  0.08381000  1.0
  H  H8  1  0.17965000  0.44978000  0.98155000  1.0
  H  H9  1  0.31527000  0.53623000  0.06825000  1.0
  H  H10  1  0.60634000  0.86162000  0.58067000  1.0
  H  H11  1  0.75699000  0.20067000  0.72717000  1.0
  H  H12  1  0.56200000  0.77520000  0.41414000  1.0
  H  H13  1  0.75617000  0.21295000  0.58569000  1.0
  H  H14  1  0.53806000  0.78776000  0.27057000  1.0
  H  H15  1  0.32236000  0.20281000  0.01551000  1.0
  H  H16  1  0.68873000  0.12655000  0.41841000  1.0
  H  H17  1  0.77555000  0.55793000  0.40948000  1.0
  H  H18  1  0.86490000  0.35605000  0.16405000  1.0
  H  H19  1  0.00903000  0.47397000  0.29622000  1.0
  H  H20  1  0.84988000  0.71842000  0.55853000  1.0
  H  H21  1  0.16771000  0.62617000  0.42788000  1.0
  H  H22  1  0.00970000  0.84992000  0.70225000  1.0
  H  H23  1  0.23730000  0.75907000  0.58615000  1.0
  H  H24  1  0.03426000  0.10520000  0.07482000  1.0
  H  H25  1  0.15447000  0.12214000  0.97175000  1.0
  H  H26  1  0.75704000  0.19038000  0.86036000  1.0
  H  H27  1  0.76834000  0.86675000  0.72013000  1.0
  H  H28  1  0.81968000  0.76808000  0.69290000  1.0
  H  H29  1  0.69673000  0.80788000  0.82482000  1.0
  H  H30  1  0.24916000  0.61484000  0.95603000  1.0
  H  H31  1  0.74873000  0.70960000  0.79965000  1.0
  H  H32  1  0.63936000  0.36609000  0.31104000  1.0
  H  H33  1  0.49635000  0.64132000  0.82891000  1.0
  H  H34  1  0.45598000  0.80104000  0.13854000  1.0
  H  H35  1  0.88911000  0.13710000  0.09067000  1.0
  H  H36  1  0.38720000  0.89117000  0.72312000  1.0
  H  H37  1  0.26422000  0.17984000  0.14380000  1.0
  H  H38  1  0.99520000  0.78920000  0.99778000  1.0
  H  H39  1  0.02460000  0.78800000  0.90060000  1.0
  H  H40  1  0.10709000  0.75918000  0.97651000  1.0
  H  H41  1  0.56348000  0.85300000  0.70542000  1.0
  H  H42  1  0.13487000  0.86762000  0.84537000  1.0
  H  H43  1  0.55258000  0.20376000  0.87182000  1.0
  H  H44  1  0.44953000  0.45189000  0.78736000  1.0
  H  H45  1  0.47058000  0.30384000  0.80323000  1.0
  C  C46  1  0.71885000  0.88573000  0.98905000  1.0
  C  C47  1  0.60927000  0.93481000  0.75623000  1.0
  C  C48  1  0.20978000  0.87688000  0.82910000  1.0
  C  C49  1  0.59833000  0.05770000  0.23680000  1.0
  C  C50  1  0.50209000  0.19450000  0.91309000  1.0
  C  C51  1  0.22341000  0.86361000  0.74591000  1.0
  C  C52  1  0.42027000  0.23081000  0.92698000  1.0
  C  C53  1  0.66807000  0.02399000  0.74683000  1.0
  C  C54  1  0.12868000  0.01530000  0.05436000  1.0
  C  C55  1  0.32115000  0.44075000  0.93599000  1.0
  C  C56  1  0.36543000  0.48319000  0.88296000  1.0
  C  C57  1  0.57575000  0.96588000  0.24811000  1.0
  C  C58  1  0.41610000  0.42679000  0.83329000  1.0
  C  C59  1  0.42811000  0.34155000  0.84229000  1.0
  C  C60  1  0.39059000  0.30466000  0.90189000  1.0
  C  C61  1  0.79622000  0.34266000  0.18871000  1.0
  C  C62  1  0.33290000  0.35581000  0.94483000  1.0
  C  C63  1  0.27951000  0.36396000  0.01628000  1.0
  C  C64  1  0.26670000  0.46056000  0.00652000  1.0
  C  C65  1  0.67852000  0.02940000  0.66400000  1.0
  C  C66  1  0.60896333  0.95889333  0.33333333  1.0
  C  C67  1  0.58996000  0.85227000  0.41500000  1.0
  C  C68  1  0.79002000  0.40588000  0.26992000  1.0
  C  C69  1  0.57646000  0.85956000  0.33467000  1.0
  C  C70  1  0.66224000  0.04901000  0.41644000  1.0
  C  C71  1  0.67658000  0.04424000  0.49996000  1.0
  C  C72  1  0.63647000  0.94368000  0.49990000  1.0
  C  C73  1  0.31159000  0.63804000  0.92709000  1.0
  C  C74  1  0.63945000  0.93909000  0.58260000  1.0
  C  C75  1  0.72362000  0.12883000  0.66367000  1.0
  C  C76  1  0.72314000  0.13597000  0.58461000  1.0
  C  C77  1  0.88019000  0.50337000  0.34464000  1.0
  C  C78  1  0.13468000  0.80966000  0.65605000  1.0
  C  C79  1  0.36828000  0.58222000  0.88687000  1.0
  C  C80  1  0.93498000  0.72696000  0.56510000  1.0
  C  C81  1  0.02360000  0.79966000  0.64523000  1.0
  C  C82  1  0.15320000  0.75286000  0.58038000  1.0
  C  C83  1  0.06409000  0.67743000  0.49770000  1.0
  C  C84  1  0.95105000  0.65923000  0.49063000  1.0
  C  C85  1  0.68074000  0.34841000  0.26289000  1.0
  C  C86  1  0.86130000  0.57228000  0.41326000  1.0
  C  C87  1  0.99302000  0.52663000  0.35014000  1.0
  C  C88  1  0.08182000  0.61126000  0.42367000  1.0
  C  C89  1  0.88058000  0.87313000  0.89050000  1.0
  C  C90  1  0.33799000  0.88824000  0.76606000  1.0
  C  C91  1  0.91512000  0.94756000  0.97995000  1.0
  C  C92  1  0.02959000  0.03602000  0.01944000  1.0
  C  C93  1  0.06806000  0.06289000  0.94325000  1.0
  C  C94  1  0.01121000  0.99827000  0.85520000  1.0
  C  C95  1  0.92153000  0.90508000  0.82793000  1.0
  C  C96  1  0.81263000  0.82851000  0.74836000  1.0
  C  C97  1  0.43687000  0.65097000  0.86168000  1.0
  C  C98  1  0.76825000  0.79196000  0.81521000  1.0
  C  C99  1  0.49732000  0.88542000  0.16216000  1.0
  C  C100  1  0.82374000  0.05733000  0.05970000  1.0
  C  C101  1  0.38490000  0.19387000  0.98663000  1.0
  C  C102  1  0.82941000  0.96089000  0.01592000  1.0
  C  C103  1  0.06363000  0.80893000  0.97253000  1.0
  C  C104  1  0.70675000  0.10669000  0.83488000  1.0
  C  C105  1  0.14451000  0.92224000  0.02747000  1.0
  C  C106  1  0.23752000  0.09540000  0.10843000  1.0
  N  N107  1  0.65212000  0.93382000  0.00940000  1.0
  N  N108  1  0.69921000  0.25580000  0.13793000  1.0
  N  N109  1  0.34408000  0.73182000  0.92585000  1.0
  N  N110  1  0.62699000  0.25892000  0.18399000  1.0
  N  N111  1  0.42239000  0.73989000  0.88529000  1.0
  N  N112  1  0.47361000  0.92732000  0.10612000  1.0
  N  N113  1  0.71761000  0.04032000  0.05291000  1.0
  N  N114  1  0.38676000  0.91112000  0.85344000  1.0
  N  N115  1  0.44222000  0.14176000  0.00726000  1.0
  N  N116  1  0.67352000  0.06941000  0.89121000  1.0
  N  N117  1  0.25507000  0.94767000  0.06280000  1.0
  N  N118  1  0.31329000  0.05537000  0.11290000  1.0
  N  N119  1  0.61307000  0.96225000  0.84221000  1.0
  N  N120  1  0.30792000  0.90351000  0.89221000  1.0
  N  N121  1  0.51448000  0.14223000  0.96230000  1.0
  N  N122  1  0.53582000  0.03334000  0.15203000  1.0
