# generated using pymatgen
data_CoH12C16(NO)4
_symmetry_space_group_name_H-M   'P 1'
_cell_length_a   8.70488000
_cell_length_b   9.84265000
_cell_length_c   9.84237000
_cell_angle_alpha   111.66000000
_cell_angle_beta   92.94330000
_cell_angle_gamma   92.94910000
_symmetry_Int_Tables_number   1
_chemical_formula_structural   CoH12C16(NO)4
_chemical_formula_sum   'Co2 H24 C32 N8 O8'
_cell_volume   780.45264141
_cell_formula_units_Z   2
loop_
 _symmetry_equiv_pos_site_id
 _symmetry_equiv_pos_as_xyz
  1  'x, y, z'
loop_
 _atom_site_type_symbol
 _atom_site_label
 _atom_site_symmetry_multiplicity
 _atom_site_fract_x
 _atom_site_fract_y
 _atom_site_fract_z
 _atom_site_occupancy
  Co  Co0  1  0.24999000  0.89969000  0.10030000  1.0
  Co  Co1  1  0.75001000  0.10031000  0.89973000  1.0
  H  H2  1  0.11493000  0.56352000  0.89966000  1.0
  H  H3  1  0.38510000  0.10035000  0.43648000  1.0
  H  H4  1  0.88510000  0.43650000  0.10034000  1.0
  H  H5  1  0.61489000  0.89963000  0.56352000  1.0
  H  H6  1  0.48275000  0.71622000  0.22674000  1.0
  H  H7  1  0.01724000  0.77329000  0.28380000  1.0
  H  H8  1  0.51727000  0.28380000  0.77329000  1.0
  H  H9  1  0.98272000  0.22671000  0.71620000  1.0
  H  H10  1  0.19857000  0.33123000  0.97967000  1.0
  H  H11  1  0.30145000  0.02034000  0.66880000  1.0
  H  H12  1  0.80139000  0.66880000  0.02035000  1.0
  H  H13  1  0.69857000  0.97964000  0.33121000  1.0
  H  H14  1  0.45650000  0.30632000  0.12505000  1.0
  H  H15  1  0.04352000  0.87491000  0.69368000  1.0
  H  H16  1  0.54352000  0.69372000  0.87495000  1.0
  H  H17  1  0.95645000  0.12505000  0.30627000  1.0
  H  H18  1  0.57462000  0.26073000  0.32433000  1.0
  H  H19  1  0.92546000  0.67566000  0.73930000  1.0
  H  H20  1  0.42537000  0.73931000  0.67568000  1.0
  H  H21  1  0.07454000  0.32431000  0.26064000  1.0
  H  H22  1  0.62219000  0.31895000  0.58562000  1.0
  H  H23  1  0.87783000  0.41436000  0.68106000  1.0
  H  H24  1  0.37778000  0.68104000  0.41440000  1.0
  H  H25  1  0.12220000  0.58560000  0.31893000  1.0
  C  C26  1  0.54239000  0.02409000  0.07726000  1.0
  C  C27  1  0.95761000  0.92276000  0.97591000  1.0
  C  C28  1  0.45761000  0.97591000  0.92278000  1.0
  C  C29  1  0.04239000  0.07720000  0.02407000  1.0
  C  C30  1  0.46962000  0.46375000  0.34514000  1.0
  C  C31  1  0.03041000  0.65485000  0.53625000  1.0
  C  C32  1  0.53034000  0.53630000  0.65491000  1.0
  C  C33  1  0.96963000  0.34509000  0.46369000  1.0
  C  C34  1  0.20511000  0.55969000  0.97798000  1.0
  C  C35  1  0.29490000  0.02204000  0.44033000  1.0
  C  C36  1  0.79488000  0.44034000  0.02201000  1.0
  C  C37  1  0.70511000  0.97798000  0.55968000  1.0
  C  C38  1  0.39249000  0.64536000  0.14959000  1.0
  C  C39  1  0.10752000  0.85044000  0.35467000  1.0
  C  C40  1  0.60749000  0.35464000  0.85039000  1.0
  C  C41  1  0.89249000  0.14957000  0.64535000  1.0
  C  C42  1  0.24683000  0.44369000  0.01355000  1.0
  C  C43  1  0.25319000  0.98645000  0.55633000  1.0
  C  C44  1  0.75313000  0.55633000  0.98642000  1.0
  C  C45  1  0.74683000  0.01356000  0.44367000  1.0
  C  C46  1  0.43607000  0.41692000  0.19685000  1.0
  C  C47  1  0.06395000  0.80314000  0.58308000  1.0
  C  C48  1  0.56396000  0.58305000  0.80321000  1.0
  C  C49  1  0.93603000  0.19678000  0.41692000  1.0
  C  C50  1  0.54032000  0.36389000  0.40232000  1.0
  C  C51  1  0.95972000  0.59766000  0.63613000  1.0
  C  C52  1  0.45962000  0.63614000  0.59763000  1.0
  C  C53  1  0.04034000  0.40236000  0.36384000  1.0
  C  C54  1  0.56708000  0.39713000  0.54838000  1.0
  C  C55  1  0.93294000  0.45159000  0.60286000  1.0
  C  C56  1  0.43288000  0.60287000  0.45155000  1.0
  C  C57  1  0.06714000  0.54843000  0.39712000  1.0
  N  N58  1  0.29664000  0.68454000  0.06342000  1.0
  N  N59  1  0.20335000  0.93661000  0.31548000  1.0
  N  N60  1  0.70335000  0.31546000  0.93653000  1.0
  N  N61  1  0.79666000  0.06344000  0.68453000  1.0
  N  N62  1  0.36534000  0.49932000  0.12447000  1.0
  N  N63  1  0.13469000  0.87554000  0.50068000  1.0
  N  N64  1  0.63465000  0.50063000  0.87550000  1.0
  N  N65  1  0.86533000  0.12448000  0.49935000  1.0
  O  O66  1  0.47727000  0.98402000  0.17071000  1.0
  O  O67  1  0.02272000  0.82932000  0.01599000  1.0
  O  O68  1  0.52270000  0.01601000  0.82936000  1.0
  O  O69  1  0.97730000  0.17066000  0.98400000  1.0
  O  O70  1  0.66947000  0.10006000  0.10040000  1.0
  O  O71  1  0.83053000  0.89960000  0.89996000  1.0
  O  O72  1  0.33051000  0.89991000  0.89962000  1.0
  O  O73  1  0.16952000  0.10040000  0.10009000  1.0
