# generated using pymatgen
data_CdH28C28N8(ClO4)2
_symmetry_space_group_name_H-M   'P 1'
_cell_length_a   8.84235000
_cell_length_b   10.47890000
_cell_length_c   17.93400000
_cell_angle_alpha   90.00000000
_cell_angle_beta   90.00000000
_cell_angle_gamma   98.68590000
_symmetry_Int_Tables_number   1
_chemical_formula_structural   CdH28C28N8(ClO4)2
_chemical_formula_sum   'Cd2 H56 C56 N16 Cl4 O16'
_cell_volume   1642.67213930
_cell_formula_units_Z   2
loop_
 _symmetry_equiv_pos_site_id
 _symmetry_equiv_pos_as_xyz
  1  'x, y, z'
loop_
 _atom_site_type_symbol
 _atom_site_label
 _atom_site_symmetry_multiplicity
 _atom_site_fract_x
 _atom_site_fract_y
 _atom_site_fract_z
 _atom_site_occupancy
  Cd  Cd0  1  0.00000000  0.00000000  0.00000000  1.0
  Cd  Cd1  1  0.50000000  0.50000000  0.50000000  1.0
  H  H2  1  0.88764000  0.76774000  0.73446000  1.0
  H  H3  1  0.61236000  0.73226000  0.23446000  1.0
  H  H4  1  0.11236000  0.23226000  0.26554000  1.0
  H  H5  1  0.38764000  0.26774000  0.76554000  1.0
  H  H6  1  0.68396000  0.80080000  0.98739000  1.0
  H  H7  1  0.81604000  0.69919000  0.48739000  1.0
  H  H8  1  0.31604000  0.19919000  0.01261000  1.0
  H  H9  1  0.18396000  0.30081000  0.51261000  1.0
  H  H10  1  0.64330000  0.62731000  0.76900000  1.0
  H  H11  1  0.85670000  0.87269000  0.26900000  1.0
  H  H12  1  0.35670000  0.37269000  0.23100000  1.0
  H  H13  1  0.14330000  0.12731000  0.73100000  1.0
  H  H14  1  0.37888000  0.73790000  0.97394000  1.0
  H  H15  1  0.12112000  0.76210000  0.47394000  1.0
  H  H16  1  0.62112000  0.26210000  0.02606000  1.0
  H  H17  1  0.87888000  0.23790000  0.52606000  1.0
  H  H18  1  0.50866000  0.65595000  0.02279000  1.0
  H  H19  1  0.99134000  0.84405000  0.52279000  1.0
  H  H20  1  0.49134000  0.34405000  0.97721000  1.0
  H  H21  1  0.00866000  0.15595000  0.47721000  1.0
  H  H22  1  0.33262000  0.56832000  0.98915000  1.0
  H  H23  1  0.16738000  0.93168000  0.48915000  1.0
  H  H24  1  0.66738000  0.43168000  0.01086000  1.0
  H  H25  1  0.83262000  0.06832000  0.51085000  1.0
  H  H26  1  0.02265000  0.91638000  0.83120000  1.0
  H  H27  1  0.47735000  0.58362000  0.33120000  1.0
  H  H28  1  0.97735000  0.08362000  0.16880000  1.0
  H  H29  1  0.52265000  0.41638000  0.66880000  1.0
  H  H30  1  0.11639000  0.64430000  0.80440000  1.0
  H  H31  1  0.38361000  0.85570000  0.30440000  1.0
  H  H32  1  0.88361000  0.35570000  0.19560000  1.0
  H  H33  1  0.61639000  0.14430000  0.69560000  1.0
  H  H34  1  0.10142000  0.52353000  0.73412000  1.0
  H  H35  1  0.39858000  0.97647000  0.23412000  1.0
  H  H36  1  0.89858000  0.47647000  0.26588000  1.0
  H  H37  1  0.60142000  0.02353000  0.76588000  1.0
  H  H38  1  0.28498000  0.60681000  0.76185000  1.0
  H  H39  1  0.21502000  0.89319000  0.26185000  1.0
  H  H40  1  0.71502000  0.39319000  0.23815000  1.0
  H  H41  1  0.78498000  0.10681000  0.73815000  1.0
  H  H42  1  0.18643000  0.24400000  0.91591000  1.0
  H  H43  1  0.31357000  0.25600000  0.41591000  1.0
  H  H44  1  0.81357000  0.75600000  0.08409000  1.0
  H  H45  1  0.68643000  0.74400000  0.58409000  1.0
  H  H46  1  0.87904000  0.46543000  0.80615000  1.0
  H  H47  1  0.62096000  0.03457000  0.30615000  1.0
  H  H48  1  0.12096000  0.53457000  0.19385000  1.0
  H  H49  1  0.37904000  0.96543000  0.69385000  1.0
  H  H50  1  0.71903000  0.11097000  0.92277000  1.0
  H  H51  1  0.78097000  0.38903000  0.42277000  1.0
  H  H52  1  0.28097000  0.88903000  0.07723000  1.0
  H  H53  1  0.21903000  0.61097000  0.57723000  1.0
  H  H54  1  0.66267000  0.29932000  0.84824000  1.0
  H  H55  1  0.83733000  0.20069000  0.34825000  1.0
  H  H56  1  0.33733000  0.70068000  0.15176000  1.0
  H  H57  1  0.16267000  0.79931000  0.65175000  1.0
  C  C58  1  0.49964000  0.62156000  0.90413000  1.0
  C  C59  1  0.00036000  0.87844000  0.40413000  1.0
  C  C60  1  0.50036000  0.37844000  0.09587000  1.0
  C  C61  1  0.99964000  0.12156000  0.59587000  1.0
  C  C62  1  0.64542000  0.69962000  0.88185000  1.0
  C  C63  1  0.85458000  0.80038000  0.38185000  1.0
  C  C64  1  0.35458000  0.30038000  0.11815000  1.0
  C  C65  1  0.14542000  0.19962000  0.61815000  1.0
  C  C66  1  0.84056000  0.77081000  0.79046000  1.0
  C  C67  1  0.65944000  0.72919000  0.29046000  1.0
  C  C68  1  0.15945000  0.22919000  0.20954000  1.0
  C  C69  1  0.34056000  0.27081000  0.70954000  1.0
  C  C70  1  0.72724000  0.78740000  0.93158000  1.0
  C  C71  1  0.77276000  0.71260000  0.43158000  1.0
  C  C72  1  0.27276000  0.21260000  0.06842000  1.0
  C  C73  1  0.22724000  0.28740000  0.56842000  1.0
  C  C74  1  0.18485000  0.46443000  0.83923000  1.0
  C  C75  1  0.31515000  0.03557000  0.33923000  1.0
  C  C76  1  0.81515000  0.53557000  0.16077000  1.0
  C  C77  1  0.68485000  0.96443000  0.66077000  1.0
  C  C78  1  0.70471000  0.69299000  0.80956000  1.0
  C  C79  1  0.79529000  0.80701000  0.30956000  1.0
  C  C80  1  0.29529000  0.30701000  0.19044000  1.0
  C  C81  1  0.20471000  0.19299000  0.69044000  1.0
  C  C82  1  0.42601000  0.64667000  0.97676000  1.0
  C  C83  1  0.07399000  0.85333000  0.47676000  1.0
  C  C84  1  0.57399000  0.35333000  0.02324000  1.0
  C  C85  1  0.92601000  0.14667000  0.52324000  1.0
  C  C86  1  0.91562000  0.85399000  0.84386000  1.0
  C  C87  1  0.58438000  0.64600000  0.34386000  1.0
  C  C88  1  0.08438000  0.14601000  0.15614000  1.0
  C  C89  1  0.41562000  0.35399000  0.65614000  1.0
  C  C90  1  0.17078000  0.56499000  0.78142000  1.0
  C  C91  1  0.32922000  0.93501000  0.28142000  1.0
  C  C92  1  0.82922000  0.43501000  0.21858000  1.0
  C  C93  1  0.67078000  0.06499000  0.71858000  1.0
  C  C94  1  0.07127000  0.25950000  0.90112000  1.0
  C  C95  1  0.42873000  0.24050000  0.40112000  1.0
  C  C96  1  0.92873000  0.74050000  0.09889000  1.0
  C  C97  1  0.57127000  0.75950000  0.59888000  1.0
  C  C98  1  0.05130000  0.36897000  0.85943000  1.0
  C  C99  1  0.44870000  0.13103000  0.35943000  1.0
  C  C100  1  0.94870000  0.63103000  0.14057000  1.0
  C  C101  1  0.55130000  0.86897000  0.64057000  1.0
  C  C102  1  0.90149000  0.38349000  0.83951000  1.0
  C  C103  1  0.59851000  0.11651000  0.33951000  1.0
  C  C104  1  0.09851000  0.61651000  0.16049000  1.0
  C  C105  1  0.40149000  0.88349000  0.66049000  1.0
  C  C106  1  0.81061000  0.18547000  0.90400000  1.0
  C  C107  1  0.68939000  0.31453000  0.40400000  1.0
  C  C108  1  0.18939000  0.81453000  0.09600000  1.0
  C  C109  1  0.31061000  0.68547000  0.59600000  1.0
  C  C110  1  0.78049000  0.29071000  0.86230000  1.0
  C  C111  1  0.71951000  0.20929000  0.36230000  1.0
  C  C112  1  0.21951000  0.70929000  0.13770000  1.0
  C  C113  1  0.28049000  0.79071000  0.63770000  1.0
  N  N114  1  0.85980000  0.86139000  0.91339000  1.0
  N  N115  1  0.64020000  0.63861000  0.41339000  1.0
  N  N116  1  0.14020000  0.13861000  0.08661000  1.0
  N  N117  1  0.35980000  0.36139000  0.58661000  1.0
  N  N118  1  0.43914000  0.53509000  0.85673000  1.0
  N  N119  1  0.06087000  0.96491000  0.35673000  1.0
  N  N120  1  0.56087000  0.46491000  0.14327000  1.0
  N  N121  1  0.93913000  0.03509000  0.64327000  1.0
  N  N122  1  0.31048000  0.45659000  0.87513000  1.0
  N  N123  1  0.18953000  0.04341000  0.37513000  1.0
  N  N124  1  0.68952000  0.54341000  0.12487000  1.0
  N  N125  1  0.81047000  0.95659000  0.62487000  1.0
  N  N126  1  0.95481000  0.17059000  0.92302000  1.0
  N  N127  1  0.54519000  0.32941000  0.42302000  1.0
  N  N128  1  0.04519000  0.82941000  0.07698000  1.0
  N  N129  1  0.45481000  0.67059000  0.57698000  1.0
  Cl  Cl130  1  0.35192000  0.01129000  0.88163000  1.0
  Cl  Cl131  1  0.14808000  0.48871000  0.38163000  1.0
  Cl  Cl132  1  0.64808000  0.98871000  0.11837000  1.0
  Cl  Cl133  1  0.85192000  0.51129000  0.61837000  1.0
  O  O134  1  0.25025000  0.96608000  0.94515000  1.0
  O  O135  1  0.24975000  0.53392000  0.44515000  1.0
  O  O136  1  0.74975000  0.03392000  0.05485000  1.0
  O  O137  1  0.75025000  0.46608000  0.55485000  1.0
  O  O138  1  0.40929000  0.14842000  0.89138000  1.0
  O  O139  1  0.09071000  0.35158000  0.39138000  1.0
  O  O140  1  0.59071000  0.85158000  0.10862000  1.0
  O  O141  1  0.90929000  0.64842000  0.60862000  1.0
  O  O142  1  0.26418000  0.99166000  0.81262000  1.0
  O  O143  1  0.23581000  0.50834000  0.31262000  1.0
  O  O144  1  0.73582000  0.00834000  0.18738000  1.0
  O  O145  1  0.76419000  0.49166000  0.68738000  1.0
  O  O146  1  0.47791000  0.93730000  0.88063000  1.0
  O  O147  1  0.02209000  0.56270000  0.38063000  1.0
  O  O148  1  0.52209000  0.06270000  0.11937000  1.0
  O  O149  1  0.97791000  0.43730000  0.61937000  1.0
