# generated using pymatgen
data_SmH8C6O7
_symmetry_space_group_name_H-M   'P 1'
_cell_length_a   7.70691000
_cell_length_b   8.07827000
_cell_length_c   14.20130000
_cell_angle_alpha   96.88170000
_cell_angle_beta   96.03260000
_cell_angle_gamma   103.82200000
_symmetry_Int_Tables_number   1
_chemical_formula_structural   SmH8C6O7
_chemical_formula_sum   'Sm4 H32 C24 O28'
_cell_volume   844.12424265
_cell_formula_units_Z   4
loop_
 _symmetry_equiv_pos_site_id
 _symmetry_equiv_pos_as_xyz
  1  'x, y, z'
loop_
 _atom_site_type_symbol
 _atom_site_label
 _atom_site_symmetry_multiplicity
 _atom_site_fract_x
 _atom_site_fract_y
 _atom_site_fract_z
 _atom_site_occupancy
  Sm  Sm0  1  0.41145000  0.51103000  0.29897000  1.0
  Sm  Sm1  1  0.58855000  0.48897000  0.70103000  1.0
  Sm  Sm2  1  0.87120000  0.42410000  0.20793000  1.0
  Sm  Sm3  1  0.12880000  0.57591000  0.79207000  1.0
  H  H4  1  0.07727000  0.87772000  0.14298000  1.0
  H  H5  1  0.92273000  0.12228000  0.85702000  1.0
  H  H6  1  0.28718000  0.02778000  0.19280000  1.0
  H  H7  1  0.71282000  0.97222000  0.80720000  1.0
  H  H8  1  0.97580000  0.89752000  0.30609000  1.0
  H  H9  1  0.02420000  0.10248000  0.69390000  1.0
  H  H10  1  0.18946000  0.04594000  0.35370000  1.0
  H  H11  1  0.81053000  0.95406000  0.64630000  1.0
  H  H12  1  0.67474000  0.03781000  0.37360000  1.0
  H  H13  1  0.32526000  0.96219000  0.62640000  1.0
  H  H14  1  0.59722000  0.09279000  0.48328000  1.0
  H  H15  1  0.40278000  0.90721000  0.51672000  1.0
  H  H16  1  0.93858000  0.12459000  0.49495000  1.0
  H  H17  1  0.06142000  0.87541000  0.50505000  1.0
  H  H18  1  0.95506000  0.29571000  0.42808000  1.0
  H  H19  1  0.04494000  0.70429000  0.57192000  1.0
  H  H20  1  0.61902000  0.90410000  0.15309000  1.0
  H  H21  1  0.38098000  0.09590000  0.84691000  1.0
  H  H22  1  0.45542000  0.73205000  0.08133000  1.0
  H  H23  1  0.54458000  0.26794000  0.91867000  1.0
  H  H24  1  0.63810000  0.99126000  0.00261000  1.0
  H  H25  1  0.36190000  0.00874000  0.99739000  1.0
  H  H26  1  0.80974000  0.88060000  0.00643000  1.0
  H  H27  1  0.19026000  0.11940000  0.99357000  1.0
  H  H28  1  0.77519000  0.66215000  0.41260000  1.0
  H  H29  1  0.22481000  0.33785000  0.58740000  1.0
  H  H30  1  0.63172000  0.69781000  0.48529000  1.0
  H  H31  1  0.36828000  0.30219000  0.51472000  1.0
  H  H32  1  0.01888000  0.34563000  0.00975000  1.0
  H  H33  1  0.98112000  0.65437000  0.99026000  1.0
  H  H34  1  0.13747000  0.31645000  0.09805000  1.0
  H  H35  1  0.86253000  0.68355000  0.90195000  1.0
  C  C36  1  0.25497000  0.78185000  0.23677000  1.0
  C  C37  1  0.74503000  0.21815000  0.76323000  1.0
  C  C38  1  0.17630000  0.92523000  0.20762000  1.0
  C  C39  1  0.82370000  0.07477000  0.79238000  1.0
  C  C40  1  0.08755000  0.99813000  0.29014000  1.0
  C  C41  1  0.91244000  0.00187000  0.70986000  1.0
  C  C42  1  0.01383000  0.14475000  0.26207000  1.0
  C  C43  1  0.98617000  0.85525000  0.73793000  1.0
  C  C44  1  0.58694000  0.26550000  0.38290000  1.0
  C  C45  1  0.41306000  0.73450000  0.61711000  1.0
  C  C46  1  0.67854000  0.14525000  0.42985000  1.0
  C  C47  1  0.32147000  0.85475000  0.57015000  1.0
  C  C48  1  0.87336000  0.22609000  0.47694000  1.0
  C  C49  1  0.12664000  0.77391000  0.52306000  1.0
  C  C50  1  0.88690000  0.35210000  0.56760000  1.0
  C  C51  1  0.11310000  0.64790000  0.43240000  1.0
  C  C52  1  0.69926000  0.67419000  0.13320000  1.0
  C  C53  1  0.30074000  0.32581000  0.86680000  1.0
  C  C54  1  0.60065000  0.79693000  0.09460000  1.0
  C  C55  1  0.39936000  0.20307000  0.90540000  1.0
  C  C56  1  0.66404000  0.86359000  0.00435000  1.0
  C  C57  1  0.33596000  0.13641000  0.99565000  1.0
  C  C58  1  0.56132000  0.74576000  0.91441000  1.0
  C  C59  1  0.43868000  0.25425000  0.08559000  1.0
  O  O60  1  0.40497000  0.81748000  0.28959000  1.0
  O  O61  1  0.59503000  0.18252000  0.71041000  1.0
  O  O62  1  0.16795000  0.62218000  0.20817000  1.0
  O  O63  1  0.83205000  0.37781000  0.79183000  1.0
  O  O64  1  0.11727000  0.29971000  0.27575000  1.0
  O  O65  1  0.88273000  0.70029000  0.72425000  1.0
  O  O66  1  0.85163000  0.11775000  0.22464000  1.0
  O  O67  1  0.14837000  0.88225000  0.77536000  1.0
  O  O68  1  0.43868000  0.29072000  0.40606000  1.0
  O  O69  1  0.56132000  0.70928000  0.59394000  1.0
  O  O70  1  0.65311000  0.34103000  0.31524000  1.0
  O  O71  1  0.34689000  0.65897000  0.68477000  1.0
  O  O72  1  0.75203000  0.41252000  0.57869000  1.0
  O  O73  1  0.24797000  0.58748000  0.42131000  1.0
  O  O74  1  0.03284000  0.39102000  0.62701000  1.0
  O  O75  1  0.96716000  0.60898000  0.37299000  1.0
  O  O76  1  0.66163000  0.62059000  0.21262000  1.0
  O  O77  1  0.33837000  0.37941000  0.78738000  1.0
  O  O78  1  0.82029000  0.62425000  0.09198000  1.0
  O  O79  1  0.17971000  0.37575000  0.90802000  1.0
  O  O80  1  0.39302000  0.72975000  0.89903000  1.0
  O  O81  1  0.60698000  0.27025000  0.10097000  1.0
  O  O82  1  0.64852000  0.66849000  0.85902000  1.0
  O  O83  1  0.35149000  0.33151000  0.14098000  1.0
  O  O84  1  0.65459000  0.68404000  0.41741000  1.0
  O  O85  1  0.34541000  0.31596000  0.58259000  1.0
  O  O86  1  0.00914000  0.31356000  0.07367000  1.0
  O  O87  1  0.99086000  0.68644000  0.92633000  1.0
