# generated using pymatgen
data_CuH26C18S2(NO2)4
_symmetry_space_group_name_H-M   'P 1'
_cell_length_a   7.03674000
_cell_length_b   8.37856000
_cell_length_c   9.41960000
_cell_angle_alpha   85.87760000
_cell_angle_beta   78.03490000
_cell_angle_gamma   82.58000000
_symmetry_Int_Tables_number   1
_chemical_formula_structural   CuH26C18S2(NO2)4
_chemical_formula_sum   'Cu1 H26 C18 S2 N4 O8'
_cell_volume   538.16036393
_cell_formula_units_Z   1
loop_
 _symmetry_equiv_pos_site_id
 _symmetry_equiv_pos_as_xyz
  1  'x, y, z'
loop_
 _atom_site_type_symbol
 _atom_site_label
 _atom_site_symmetry_multiplicity
 _atom_site_fract_x
 _atom_site_fract_y
 _atom_site_fract_z
 _atom_site_occupancy
  Cu  Cu0  1  0.50000000  0.50000000  0.50000000  1.0
  H  H1  1  0.81345000  0.38404000  0.58387000  1.0
  H  H2  1  0.18655000  0.61596000  0.41612000  1.0
  H  H3  1  0.86352000  0.46536000  0.41493000  1.0
  H  H4  1  0.13648000  0.53464000  0.58507000  1.0
  H  H5  1  0.98483000  0.03797000  0.11134000  1.0
  H  H6  1  0.01517000  0.96203000  0.88867000  1.0
  H  H7  1  0.96307000  0.30498000  0.21296000  1.0
  H  H8  1  0.03694000  0.69502000  0.78704000  1.0
  H  H9  1  0.66489000  0.12126000  0.62702000  1.0
  H  H10  1  0.33511000  0.87875000  0.37298000  1.0
  H  H11  1  0.69131000  0.85004000  0.52579000  1.0
  H  H12  1  0.30868000  0.14996000  0.47422000  1.0
  H  H13  1  0.36971000  0.52664000  0.82478000  1.0
  H  H14  1  0.63030000  0.47335000  0.17522000  1.0
  H  H15  1  0.69917000  0.83498000  0.75081000  1.0
  H  H16  1  0.30084000  0.16503000  0.24919000  1.0
  H  H17  1  0.67193000  0.86372000  0.94008000  1.0
  H  H18  1  0.32806000  0.13628000  0.05993000  1.0
  H  H19  1  0.49651000  0.96786000  0.84031000  1.0
  H  H20  1  0.50349000  0.03214000  0.15969000  1.0
  H  H21  1  0.27335000  0.60918000  0.04519000  1.0
  H  H22  1  0.72665000  0.39081000  0.95481000  1.0
  H  H23  1  0.24449000  0.82218000  0.04285000  1.0
  H  H24  1  0.75550000  0.17781000  0.95714000  1.0
  H  H25  1  0.44203000  0.71170000  0.11423000  1.0
  H  H26  1  0.55797000  0.28829000  0.88576000  1.0
  C  C27  1  0.84002000  0.92747000  0.31268000  1.0
  C  C28  1  0.15998000  0.07253000  0.68732000  1.0
  C  C29  1  0.91757000  0.05434000  0.22498000  1.0
  C  C30  1  0.08243000  0.94566000  0.77503000  1.0
  C  C31  1  0.90447000  0.20529000  0.28211000  1.0
  C  C32  1  0.09553000  0.79471000  0.71789000  1.0
  C  C33  1  0.81257000  0.22921000  0.42697000  1.0
  C  C34  1  0.18743000  0.77080000  0.57303000  1.0
  C  C35  1  0.74041000  0.09984000  0.51572000  1.0
  C  C36  1  0.25960000  0.90017000  0.48427000  1.0
  C  C37  1  0.75387000  0.94950000  0.45905000  1.0
  C  C38  1  0.24613000  0.05050000  0.54095000  1.0
  C  C39  1  0.46698000  0.62027000  0.78741000  1.0
  C  C40  1  0.53303000  0.37973000  0.21259000  1.0
  C  C41  1  0.59343000  0.85568000  0.85218000  1.0
  C  C42  1  0.40657000  0.14432000  0.14782000  1.0
  C  C43  1  0.35309000  0.71494000  0.03082000  1.0
  C  C44  1  0.64691000  0.28505000  0.96918000  1.0
  S  S45  1  0.83851000  0.73816000  0.23882000  1.0
  S  S46  1  0.16148000  0.26184000  0.76118000  1.0
  N  N47  1  0.78020000  0.38581000  0.48225000  1.0
  N  N48  1  0.21981000  0.61419000  0.51775000  1.0
  N  N49  1  0.47780000  0.72121000  0.88681000  1.0
  N  N50  1  0.52221000  0.27878000  0.11319000  1.0
  O  O51  1  0.63983000  0.69272000  0.29665000  1.0
  O  O52  1  0.36016000  0.30729000  0.70334000  1.0
  O  O53  1  0.98851000  0.62296000  0.29381000  1.0
  O  O54  1  0.01148000  0.37703000  0.70619000  1.0
  O  O55  1  0.88196000  0.76378000  0.08084000  1.0
  O  O56  1  0.11803000  0.23622000  0.91916000  1.0
  O  O57  1  0.56245000  0.62614000  0.65752000  1.0
  O  O58  1  0.43755000  0.37386000  0.34248000  1.0
