# generated using pymatgen
data_ZnH6C12(SO5)2
_symmetry_space_group_name_H-M   'P 1'
_cell_length_a   10.47660000
_cell_length_b   18.62190000
_cell_length_c   18.73990000
_cell_angle_alpha   90.32530000
_cell_angle_beta   93.24580000
_cell_angle_gamma   93.15440000
_symmetry_Int_Tables_number   1
_chemical_formula_structural   ZnH6C12(SO5)2
_chemical_formula_sum   'Zn4 H24 C48 S8 O40'
_cell_volume   3644.50854326
_cell_formula_units_Z   4
loop_
 _symmetry_equiv_pos_site_id
 _symmetry_equiv_pos_as_xyz
  1  'x, y, z'
loop_
 _atom_site_type_symbol
 _atom_site_label
 _atom_site_symmetry_multiplicity
 _atom_site_fract_x
 _atom_site_fract_y
 _atom_site_fract_z
 _atom_site_occupancy
  Zn  Zn0  1  0.61744000  0.00911000  0.50660000  1.0
  Zn  Zn1  1  0.37101000  0.99211000  0.49040000  1.0
  Zn  Zn2  1  0.38252000  0.49292000  0.99047000  1.0
  Zn  Zn3  1  0.62891000  0.50923000  0.00749000  1.0
  H  H4  1  0.31957000  0.67254000  0.82747000  1.0
  H  H5  1  0.72516000  0.65610000  0.85931000  1.0
  H  H6  1  0.67833000  0.83449000  0.67479000  1.0
  H  H7  1  0.27372000  0.85942000  0.65163000  1.0
  H  H8  1  0.32109000  0.32399000  0.16439000  1.0
  H  H9  1  0.72553000  0.34665000  0.13932000  1.0
  H  H10  1  0.68060000  0.17169000  0.32692000  1.0
  H  H11  1  0.27514000  0.14044000  0.34369000  1.0
  H  H12  1  0.33550000  0.33207000  0.82492000  1.0
  H  H13  1  0.74441000  0.36153000  0.84783000  1.0
  H  H14  1  0.66523000  0.17489000  0.66749000  1.0
  H  H15  1  0.25628000  0.15203000  0.63813000  1.0
  H  H16  1  0.67133000  0.67388000  0.17332000  1.0
  H  H17  1  0.26391000  0.64703000  0.13688000  1.0
  H  H18  1  0.32869000  0.82628000  0.32565000  1.0
  H  H19  1  0.73613000  0.86239000  0.35289000  1.0
  H  H20  1  0.05990000  0.73269000  0.82232000  1.0
  H  H21  1  0.94858000  0.82491000  0.72974000  1.0
  H  H22  1  0.05100000  0.26867000  0.17421000  1.0
  H  H23  1  0.94024000  0.17607000  0.26658000  1.0
  H  H24  1  0.06449000  0.32253000  0.76973000  1.0
  H  H25  1  0.93609000  0.23044000  0.67738000  1.0
  H  H26  1  0.93193000  0.73094000  0.17852000  1.0
  H  H27  1  0.06790000  0.82130000  0.26893000  1.0
  C  C28  1  0.51117000  0.90256000  0.40161000  1.0
  C  C29  1  0.49426000  0.90646000  0.60019000  1.0
  C  C30  1  0.47316000  0.10168000  0.59215000  1.0
  C  C31  1  0.49661000  0.09600000  0.39767000  1.0
  C  C32  1  0.52750000  0.40748000  0.89809000  1.0
  C  C33  1  0.50368000  0.60252000  0.90405000  1.0
  C  C34  1  0.48895000  0.59801000  0.09692000  1.0
  C  C35  1  0.50465000  0.39834000  0.09222000  1.0
  C  C36  1  0.41596000  0.69068000  0.81461000  1.0
  C  C37  1  0.64522000  0.68162000  0.83239000  1.0
  C  C38  1  0.66628000  0.73198000  0.78042000  1.0
  C  C39  1  0.56337000  0.76679000  0.74409000  1.0
  C  C40  1  0.58235000  0.81951000  0.69076000  1.0
  C  C41  1  0.35374000  0.83357000  0.67810000  1.0
  C  C42  1  0.33266000  0.78137000  0.72826000  1.0
  C  C43  1  0.43542000  0.74548000  0.76342000  1.0
  C  C44  1  0.51911000  0.66010000  0.84923000  1.0
  C  C45  1  0.47945000  0.85240000  0.65849000  1.0
  C  C46  1  0.41715000  0.30795000  0.17938000  1.0
  C  C47  1  0.64563000  0.32035000  0.16525000  1.0
  C  C48  1  0.66698000  0.27039000  0.21763000  1.0
  C  C49  1  0.56444000  0.23544000  0.25369000  1.0
  C  C50  1  0.58414000  0.18456000  0.30875000  1.0
  C  C51  1  0.35493000  0.16712000  0.31800000  1.0
  C  C52  1  0.33366000  0.21874000  0.26727000  1.0
  C  C53  1  0.43642000  0.25479000  0.23228000  1.0
  C  C54  1  0.51984000  0.34003000  0.14635000  1.0
  C  C55  1  0.48110000  0.15032000  0.33964000  1.0
  C  C56  1  0.42866000  0.31791000  0.80825000  1.0
  C  C57  1  0.66003000  0.33470000  0.82099000  1.0
  C  C58  1  0.67187000  0.28208000  0.77035000  1.0
  C  C59  1  0.56258000  0.24562000  0.73434000  1.0
  C  C60  1  0.57207000  0.19156000  0.68170000  1.0
  C  C61  1  0.34068000  0.17883000  0.66498000  1.0
  C  C62  1  0.32886000  0.22940000  0.71766000  1.0
  C  C63  1  0.43815000  0.26536000  0.75413000  1.0
  C  C64  1  0.53726000  0.35243000  0.84045000  1.0
  C  C65  1  0.46345000  0.15938000  0.64720000  1.0
  C  C66  1  0.57699000  0.68991000  0.18590000  1.0
  C  C67  1  0.34616000  0.67460000  0.16518000  1.0
  C  C68  1  0.32988000  0.72569000  0.21681000  1.0
  C  C69  1  0.43669000  0.76230000  0.25515000  1.0
  C  C70  1  0.42304000  0.81364000  0.30969000  1.0
  C  C71  1  0.65388000  0.83420000  0.32520000  1.0
  C  C72  1  0.67013000  0.78266000  0.27401000  1.0
  C  C73  1  0.56330000  0.74443000  0.23729000  1.0
  C  C74  1  0.47106000  0.65595000  0.15045000  1.0
  C  C75  1  0.52900000  0.84899000  0.34375000  1.0
  S  S76  1  0.16974000  0.75152000  0.73330000  1.0
  S  S77  1  0.82455000  0.73628000  0.75110000  1.0
  S  S78  1  0.17526000  0.24820000  0.26254000  1.0
  S  S79  1  0.83001000  0.26549000  0.24743000  1.0
  S  S80  1  0.17196000  0.23357000  0.74802000  1.0
  S  S81  1  0.82881000  0.25156000  0.76598000  1.0
  S  S82  1  0.82977000  0.75547000  0.26900000  1.0
  S  S83  1  0.17025000  0.73048000  0.24383000  1.0
  O  O84  1  0.61364000  0.93184000  0.43239000  1.0
  O  O85  1  0.39694000  0.91483000  0.41577000  1.0
  O  O86  1  0.38831000  0.92219000  0.56798000  1.0
  O  O87  1  0.60516000  0.93212000  0.58648000  1.0
  O  O88  1  0.36829000  0.07270000  0.56517000  1.0
  O  O89  1  0.58598000  0.08573000  0.57701000  1.0
  O  O90  1  0.60773000  0.08406000  0.42426000  1.0
  O  O91  1  0.39088000  0.06554000  0.41611000  1.0
  O  O92  1  0.41467000  0.42197000  0.91458000  1.0
  O  O93  1  0.63235000  0.43515000  0.92646000  1.0
  O  O94  1  0.60928000  0.58498000  0.93542000  1.0
  O  O95  1  0.39271000  0.57543000  0.91550000  1.0
  O  O96  1  0.60318000  0.58320000  0.08531000  1.0
  O  O97  1  0.38652000  0.56778000  0.06703000  1.0
  O  O98  1  0.39356000  0.41261000  0.06722000  1.0
  O  O99  1  0.61058000  0.43007000  0.07575000  1.0
  O  O100  1  0.15112000  0.75237000  0.81684000  1.0
  O  O101  1  0.09197000  0.80669000  0.70067000  1.0
  O  O102  1  0.15352000  0.67942000  0.70541000  1.0
  O  O103  1  0.86078000  0.82016000  0.75013000  1.0
  O  O104  1  0.90639000  0.70439000  0.80678000  1.0
  O  O105  1  0.82095000  0.70643000  0.68015000  1.0
  O  O106  1  0.13888000  0.24823000  0.17913000  1.0
  O  O107  1  0.09374000  0.19249000  0.29478000  1.0
  O  O108  1  0.17855000  0.31991000  0.29139000  1.0
  O  O109  1  0.84894000  0.18142000  0.24696000  1.0
  O  O110  1  0.90757000  0.29811000  0.19252000  1.0
  O  O111  1  0.84622000  0.29385000  0.31899000  1.0
  O  O112  1  0.15106000  0.31731000  0.74900000  1.0
  O  O113  1  0.08295000  0.20013000  0.69309000  1.0
  O  O114  1  0.17188000  0.20524000  0.81917000  1.0
  O  O115  1  0.84952000  0.25127000  0.68275000  1.0
  O  O116  1  0.91778000  0.30654000  0.79967000  1.0
  O  O117  1  0.82905000  0.17972000  0.79355000  1.0
  O  O118  1  0.84802000  0.75404000  0.18525000  1.0
  O  O119  1  0.91674000  0.81267000  0.30037000  1.0
  O  O120  1  0.83562000  0.68426000  0.29753000  1.0
  O  O121  1  0.15179000  0.81475000  0.24594000  1.0
  O  O122  1  0.08328000  0.69938000  0.18673000  1.0
  O  O123  1  0.16453000  0.70119000  0.31436000  1.0
