# generated using pymatgen
data_LiH2(CO)2
_symmetry_space_group_name_H-M   'P 1'
_cell_length_a   7.79751000
_cell_length_b   7.79756000
_cell_length_c   7.79749000
_cell_angle_alpha   100.94900000
_cell_angle_beta   100.95000000
_cell_angle_gamma   100.95000000
_symmetry_Int_Tables_number   1
_chemical_formula_structural   LiH2(CO)2
_chemical_formula_sum   'Li6 H12 C12 O12'
_cell_volume   444.25284549
_cell_formula_units_Z   6
loop_
 _symmetry_equiv_pos_site_id
 _symmetry_equiv_pos_as_xyz
  1  'x, y, z'
loop_
 _atom_site_type_symbol
 _atom_site_label
 _atom_site_symmetry_multiplicity
 _atom_site_fract_x
 _atom_site_fract_y
 _atom_site_fract_z
 _atom_site_occupancy
  Li  Li0  1  0.89646000  0.98539000  0.32803000  1.0
  Li  Li1  1  0.98540000  0.32803000  0.89646000  1.0
  Li  Li2  1  0.32802000  0.89646000  0.98539000  1.0
  Li  Li3  1  0.10354000  0.01461000  0.67197000  1.0
  Li  Li4  1  0.01461000  0.67197000  0.10354000  1.0
  Li  Li5  1  0.67198000  0.10354000  0.01461000  1.0
  H  H6  1  0.08083000  0.34265000  0.54244000  1.0
  H  H7  1  0.34264000  0.54243000  0.08083000  1.0
  H  H8  1  0.54244000  0.08083000  0.34265000  1.0
  H  H9  1  0.91917000  0.65735000  0.45756000  1.0
  H  H10  1  0.65735000  0.45757000  0.91917000  1.0
  H  H11  1  0.45756000  0.91917000  0.65736000  1.0
  H  H12  1  0.19165000  0.52908000  0.46981000  1.0
  H  H13  1  0.52909000  0.46980000  0.19164000  1.0
  H  H14  1  0.46980000  0.19164000  0.52908000  1.0
  H  H15  1  0.80835000  0.47092000  0.53019000  1.0
  H  H16  1  0.47091000  0.53020000  0.80835000  1.0
  H  H17  1  0.53020000  0.80836000  0.47092000  1.0
  C  C18  1  0.97081000  0.34858000  0.26862000  1.0
  C  C19  1  0.34858000  0.26862000  0.97081000  1.0
  C  C20  1  0.26862000  0.97081000  0.34858000  1.0
  C  C21  1  0.02919000  0.65143000  0.73138000  1.0
  C  C22  1  0.65142000  0.73138000  0.02919000  1.0
  C  C23  1  0.73138000  0.02919000  0.65142000  1.0
  C  C24  1  0.06063000  0.44199000  0.46265000  1.0
  C  C25  1  0.44199000  0.46265000  0.06063000  1.0
  C  C26  1  0.46265000  0.06062000  0.44199000  1.0
  C  C27  1  0.93937000  0.55802000  0.53735000  1.0
  C  C28  1  0.55801000  0.53735000  0.93937000  1.0
  C  C29  1  0.53735000  0.93938000  0.55802000  1.0
  O  O30  1  0.86434000  0.19400000  0.23419000  1.0
  O  O31  1  0.19401000  0.23418000  0.86434000  1.0
  O  O32  1  0.23419000  0.86434000  0.19401000  1.0
  O  O33  1  0.13566000  0.80600000  0.76581000  1.0
  O  O34  1  0.80598000  0.76581000  0.13566000  1.0
  O  O35  1  0.76581000  0.13566000  0.80600000  1.0
  O  O36  1  0.99976000  0.43315000  0.14880000  1.0
  O  O37  1  0.43317000  0.14880000  0.99976000  1.0
  O  O38  1  0.14880000  0.99975000  0.43315000  1.0
  O  O39  1  0.00024000  0.56685000  0.85120000  1.0
  O  O40  1  0.56683000  0.85120000  0.00024000  1.0
  O  O41  1  0.85121000  0.00024000  0.56685000  1.0
