# generated using pymatgen
data_CdH18C24N9O5
_symmetry_space_group_name_H-M   'P 1'
_cell_length_a   8.27685000
_cell_length_b   9.14601000
_cell_length_c   19.64000000
_cell_angle_alpha   95.38940000
_cell_angle_beta   99.98380000
_cell_angle_gamma   106.41700000
_symmetry_Int_Tables_number   1
_chemical_formula_structural   CdH18C24N9O5
_chemical_formula_sum   'Cd2 H36 C48 N18 O10'
_cell_volume   1388.37339552
_cell_formula_units_Z   2
loop_
 _symmetry_equiv_pos_site_id
 _symmetry_equiv_pos_as_xyz
  1  'x, y, z'
loop_
 _atom_site_type_symbol
 _atom_site_label
 _atom_site_symmetry_multiplicity
 _atom_site_fract_x
 _atom_site_fract_y
 _atom_site_fract_z
 _atom_site_occupancy
  Cd  Cd0  1  0.34985000  0.38199000  0.30336000  1.0
  Cd  Cd1  1  0.65014000  0.61801000  0.69664000  1.0
  H  H2  1  0.53271000  0.93837000  0.37817000  1.0
  H  H3  1  0.46729000  0.06163000  0.62183000  1.0
  H  H4  1  0.39402000  0.22116000  0.53120000  1.0
  H  H5  1  0.60598000  0.77884000  0.46880000  1.0
  H  H6  1  0.77164000  0.81362000  0.85820000  1.0
  H  H7  1  0.22835000  0.18638000  0.14180000  1.0
  H  H8  1  0.27445000  0.62863000  0.90259000  1.0
  H  H9  1  0.72555000  0.37138000  0.09742000  1.0
  H  H10  1  0.44024000  0.66625000  0.01899000  1.0
  H  H11  1  0.55976000  0.33375000  0.98101000  1.0
  H  H12  1  0.56588000  0.80791000  0.13859000  1.0
  H  H13  1  0.43412000  0.19210000  0.86141000  1.0
  H  H14  1  0.91408000  0.15937000  0.05637000  1.0
  H  H15  1  0.08592000  0.84063000  0.94362000  1.0
  H  H16  1  0.75967000  0.36963000  0.33152000  1.0
  H  H17  1  0.24033000  0.63036000  0.66848000  1.0
  H  H18  1  0.73613000  0.44505000  0.45002000  1.0
  H  H19  1  0.26387000  0.55495000  0.54997000  1.0
  H  H20  1  0.04841000  0.16197000  0.52607000  1.0
  H  H21  1  0.95159000  0.83802000  0.47393000  1.0
  H  H22  1  0.06982000  0.08572000  0.40497000  1.0
  H  H23  1  0.93018000  0.91428000  0.59503000  1.0
  H  H24  1  0.01774000  0.22729000  0.62755000  1.0
  H  H25  1  0.98226000  0.77271000  0.37245000  1.0
  H  H26  1  0.89350000  0.35076000  0.73351000  1.0
  H  H27  1  0.10650000  0.64925000  0.26649000  1.0
  H  H28  1  0.69593000  0.48842000  0.54672000  1.0
  H  H29  1  0.30407000  0.51158000  0.45328000  1.0
  H  H30  1  0.28107000  0.50192000  0.76928000  1.0
  H  H31  1  0.71893000  0.49808000  0.23072000  1.0
  H  H32  1  0.78116000  0.02111000  0.93573000  1.0
  H  H33  1  0.21885000  0.97889000  0.06427000  1.0
  H  H34  1  0.58547000  0.92080000  0.25158000  1.0
  H  H35  1  0.41453000  0.07920000  0.74842000  1.0
  H  H36  1  0.57686000  0.09748000  0.27589000  1.0
  H  H37  1  0.42314000  0.90252000  0.72410000  1.0
  C  C38  1  0.42283000  0.18758000  0.39582000  1.0
  C  C39  1  0.57717000  0.81242000  0.60418000  1.0
  C  C40  1  0.45866000  0.08845000  0.44921000  1.0
  C  C41  1  0.54135000  0.91155000  0.55079000  1.0
  C  C42  1  0.51786000  0.96368000  0.43153000  1.0
  C  C43  1  0.48215000  0.03632000  0.56847000  1.0
  C  C44  1  0.44018000  0.12397000  0.51800000  1.0
  C  C45  1  0.55982000  0.87603000  0.48200000  1.0
  C  C46  1  0.63669000  0.74746000  0.85208000  1.0
  C  C47  1  0.36330000  0.25254000  0.14792000  1.0
  C  C48  1  0.37733000  0.64582000  0.87404000  1.0
  C  C49  1  0.62267000  0.35418000  0.12596000  1.0
  C  C50  1  0.60391000  0.83395000  0.97008000  1.0
  C  C51  1  0.39609000  0.16605000  0.02992000  1.0
  C  C52  1  0.54128000  0.77640000  0.02704000  1.0
  C  C53  1  0.45872000  0.22360000  0.97296000  1.0
  C  C54  1  0.61275000  0.85617000  0.09455000  1.0
  C  C55  1  0.38725000  0.14383000  0.90546000  1.0
  C  C56  1  0.74969000  0.99380000  0.10576000  1.0
  C  C57  1  0.25031000  0.00620000  0.89424000  1.0
  C  C58  1  0.80896000  0.05176000  0.04771000  1.0
  C  C59  1  0.19104000  0.94824000  0.95229000  1.0
  C  C60  1  0.92017000  0.17268000  0.28676000  1.0
  C  C61  1  0.07983000  0.82731000  0.71324000  1.0
  C  C62  1  0.84328000  0.07534000  0.17506000  1.0
  C  C63  1  0.15672000  0.92466000  0.82494000  1.0
  C  C64  1  0.91200000  0.21822000  0.35931000  1.0
  C  C65  1  0.08800000  0.78177000  0.64069000  1.0
  C  C66  1  0.82054000  0.32091000  0.37348000  1.0
  C  C67  1  0.17946000  0.67909000  0.62652000  1.0
  C  C68  1  0.80821000  0.36497000  0.44142000  1.0
  C  C69  1  0.19179000  0.63503000  0.55858000  1.0
  C  C70  1  0.88528000  0.30435000  0.49646000  1.0
  C  C71  1  0.11471000  0.69565000  0.50354000  1.0
  C  C72  1  0.98246000  0.20580000  0.48345000  1.0
  C  C73  1  0.01754000  0.79419000  0.51655000  1.0
  C  C74  1  0.99553000  0.16337000  0.41509000  1.0
  C  C75  1  0.00446000  0.83663000  0.58491000  1.0
  C  C76  1  0.93040000  0.29633000  0.62597000  1.0
  C  C77  1  0.06960000  0.70367000  0.37403000  1.0
  C  C78  1  0.87133000  0.36127000  0.67843000  1.0
  C  C79  1  0.12867000  0.63873000  0.32157000  1.0
  C  C80  1  0.76553000  0.43372000  0.58268000  1.0
  C  C81  1  0.23447000  0.56628000  0.41732000  1.0
  C  C82  1  0.38242000  0.58531000  0.80811000  1.0
  C  C83  1  0.61758000  0.41470000  0.19189000  1.0
  C  C84  1  0.73634000  0.97385000  0.98037000  1.0
  C  C85  1  0.26367000  0.02615000  0.01963000  1.0
  N  N86  1  0.54497000  0.64918000  0.79543000  1.0
  N  N87  1  0.45503000  0.35082000  0.20457000  1.0
  N  N88  1  0.54001000  0.74892000  0.90175000  1.0
  N  N89  1  0.45999000  0.25109000  0.09825000  1.0
  N  N90  1  0.05843000  0.21086000  0.25823000  1.0
  N  N91  1  0.94157000  0.78913000  0.74177000  1.0
  N  N92  1  0.01134000  0.14869000  0.18896000  1.0
  N  N93  1  0.98866000  0.85132000  0.81104000  1.0
  N  N94  1  0.78073000  0.08808000  0.23504000  1.0
  N  N95  1  0.21928000  0.91192000  0.76496000  1.0
  N  N96  1  0.60712000  0.03016000  0.23792000  1.0
  N  N97  1  0.39288000  0.96984000  0.76208000  1.0
  N  N98  1  0.86265000  0.34334000  0.56510000  1.0
  N  N99  1  0.13735000  0.65666000  0.43491000  1.0
  N  N100  1  0.76938000  0.44671000  0.65077000  1.0
  N  N101  1  0.23062000  0.55329000  0.34924000  1.0
  N  N102  1  0.63804000  0.70924000  0.31635000  1.0
  N  N103  1  0.36196000  0.29076000  0.68365000  1.0
  O  O104  1  0.42162000  0.14629000  0.33179000  1.0
  O  O105  1  0.57837000  0.85370000  0.66821000  1.0
  O  O106  1  0.39632000  0.31408000  0.41659000  1.0
  O  O107  1  0.60368000  0.68592000  0.58341000  1.0
  O  O108  1  0.63187000  0.59010000  0.34651000  1.0
  O  O109  1  0.36812000  0.40990000  0.65348000  1.0
  O  O110  1  0.52057000  0.70302000  0.26404000  1.0
  O  O111  1  0.47943000  0.29698000  0.73596000  1.0
  O  O112  1  0.76062000  0.83171000  0.33878000  1.0
  O  O113  1  0.23938000  0.16829000  0.66122000  1.0
