# generated using pymatgen
data_Zn4H10C24S4N2O17
_symmetry_space_group_name_H-M   'P 1'
_cell_length_a   19.65930000
_cell_length_b   19.76470000
_cell_length_c   33.37120000
_cell_angle_alpha   78.80370000
_cell_angle_beta   79.11880000
_cell_angle_gamma   63.90430000
_symmetry_Int_Tables_number   1
_chemical_formula_structural   Zn4H10C24S4N2O17
_chemical_formula_sum   'Zn16 H40 C96 S16 N8 O68'
_cell_volume   11344.37110452
_cell_formula_units_Z   4
loop_
 _symmetry_equiv_pos_site_id
 _symmetry_equiv_pos_as_xyz
  1  'x, y, z'
loop_
 _atom_site_type_symbol
 _atom_site_label
 _atom_site_symmetry_multiplicity
 _atom_site_fract_x
 _atom_site_fract_y
 _atom_site_fract_z
 _atom_site_occupancy
  Zn  Zn0  1  0.05484000  0.40097000  0.47768000  1.0
  Zn  Zn1  1  0.98598000  0.48359000  0.56066000  1.0
  Zn  Zn2  1  0.05879000  0.56056000  0.48267000  1.0
  Zn  Zn3  1  0.90103000  0.55371000  0.47984000  1.0
  Zn  Zn4  1  0.69473000  0.34892000  0.27235000  1.0
  Zn  Zn5  1  0.69011000  0.18844000  0.26581000  1.0
  Zn  Zn6  1  0.76768000  0.26660000  0.19025000  1.0
  Zn  Zn7  1  0.84699000  0.19550000  0.27206000  1.0
  Zn  Zn8  1  0.26494000  0.76539000  0.68941000  1.0
  Zn  Zn9  1  0.34967000  0.69777000  0.77160000  1.0
  Zn  Zn10  1  0.19364000  0.84843000  0.77095000  1.0
  Zn  Zn11  1  0.19204000  0.68866000  0.76741000  1.0
  Zn  Zn12  1  0.55909000  0.06209000  0.98418000  1.0
  Zn  Zn13  1  0.40183000  0.05288000  0.97660000  1.0
  Zn  Zn14  1  0.55683000  0.90187000  0.97885000  1.0
  Zn  Zn15  1  0.48094000  0.98458000  0.05963000  1.0
  H  H16  1  0.75047000  0.45025000  0.34774000  1.0
  H  H17  1  0.00070000  0.30332000  0.40001000  1.0
  H  H18  1  0.19867000  0.70219000  0.60206000  1.0
  H  H19  1  0.04687000  0.55198000  0.64811000  1.0
  H  H20  1  0.64977000  0.14674000  0.04933000  1.0
  H  H21  1  0.60513000  0.09816000  0.20062000  1.0
  H  H22  1  0.30280000  0.99704000  0.90231000  1.0
  H  H23  1  0.44648000  0.74907000  0.84970000  1.0
  H  H24  1  0.79214000  0.53989000  0.41888000  1.0
  H  H25  1  0.72450000  0.54350000  0.39072000  1.0
  H  H26  1  0.95424000  0.20849000  0.33393000  1.0
  H  H27  1  0.01726000  0.20082000  0.36649000  1.0
  H  H28  1  0.14791000  0.64313000  0.52025000  1.0
  H  H29  1  0.20071000  0.68500000  0.53318000  1.0
  H  H30  1  0.10707000  0.60168000  0.72996000  1.0
  H  H31  1  0.06372000  0.55014000  0.71710000  1.0
  H  H32  1  0.72653000  0.23239000  0.10479000  1.0
  H  H33  1  0.70863000  0.22494000  0.05724000  1.0
  H  H34  1  0.51732000  0.02339000  0.14517000  1.0
  H  H35  1  0.52607000  0.03996000  0.19281000  1.0
  H  H36  1  0.20945000  0.95887000  0.83141000  1.0
  H  H37  1  0.20787000  0.02522000  0.85934000  1.0
  H  H38  1  0.54455000  0.79256000  0.91568000  1.0
  H  H39  1  0.55111000  0.73075000  0.88314000  1.0
  H  H40  1  0.32745000  0.54010000  0.39676000  1.0
  H  H41  1  0.42284000  0.20905000  0.35289000  1.0
  H  H42  1  0.75455000  0.54084000  0.68526000  1.0
  H  H43  1  0.49633000  0.70923000  0.56565000  1.0
  H  H44  1  0.04082000  0.25336000  0.68344000  1.0
  H  H45  1  0.20949000  0.99550000  0.56570000  1.0
  H  H46  1  0.74282000  0.81658000  0.38718000  1.0
  H  H47  1  0.00469000  0.93199000  0.36278000  1.0
  H  H48  1  0.70903000  0.49713000  0.06622000  1.0
  H  H49  1  0.54083000  0.75427000  0.18442000  1.0
  H  H50  1  0.14952000  0.07636000  0.21918000  1.0
  H  H51  1  0.09927000  0.17438000  0.03017000  1.0
  H  H52  1  0.50863000  0.43149000  0.86295000  1.0
  H  H53  1  0.24414000  0.31950000  0.88732000  1.0
  H  H54  1  0.92151000  0.71024000  0.85302000  1.0
  H  H55  1  0.82853000  0.04101000  0.89707000  1.0
  C  C56  1  0.06235000  0.31645000  0.56140000  1.0
  C  C57  1  0.07067000  0.57210000  0.56818000  1.0
  C  C58  1  0.18357000  0.44018000  0.43846000  1.0
  C  C59  1  0.93547000  0.68354000  0.43893000  1.0
  C  C60  1  0.92856000  0.43216000  0.43027000  1.0
  C  C61  1  0.81780000  0.55974000  0.56312000  1.0
  C  C62  1  0.56629000  0.30938000  0.31106000  1.0
  C  C63  1  0.68327000  0.17974000  0.17898000  1.0
  C  C64  1  0.68910000  0.43332000  0.18831000  1.0
  C  C65  1  0.93473000  0.18807000  0.18977000  1.0
  C  C66  1  0.82082000  0.31936000  0.31943000  1.0
  C  C67  1  0.81157000  0.06619000  0.31176000  1.0
  C  C68  1  0.43268000  0.69037000  0.68776000  1.0
  C  C69  1  0.31659000  0.82295000  0.81957000  1.0
  C  C70  1  0.18761000  0.93294000  0.68780000  1.0
  C  C71  1  0.06618000  0.80922000  0.81127000  1.0
  C  C72  1  0.17863000  0.67836000  0.68197000  1.0
  C  C73  1  0.31579000  0.56656000  0.81135000  1.0
  C  C74  1  0.43718000  0.18362000  0.93835000  1.0
  C  C75  1  0.43469000  0.92549000  0.93029000  1.0
  C  C76  1  0.68415000  0.94163000  0.93920000  1.0
  C  C77  1  0.56036000  0.81744000  0.06228000  1.0
  C  C78  1  0.56781000  0.06895000  0.07099000  1.0
  C  C79  1  0.31425000  0.06193000  0.05949000  1.0
  C  C80  1  0.89940000  0.40641000  0.40106000  1.0
  C  C81  1  0.85148000  0.34689000  0.34698000  1.0
  C  C82  1  0.82703000  0.45083000  0.38605000  1.0
  C  C83  1  0.92472000  0.30329000  0.36114000  1.0
  C  C84  1  0.80555000  0.41856000  0.35957000  1.0
  C  C85  1  0.94562000  0.33504000  0.38818000  1.0
  C  C86  1  0.09786000  0.60223000  0.59615000  1.0
  C  C87  1  0.14820000  0.65142000  0.65402000  1.0
  C  C88  1  0.14077000  0.64654000  0.58175000  1.0
  C  C89  1  0.10346000  0.60894000  0.66842000  1.0
  C  C90  1  0.16508000  0.66899000  0.61166000  1.0
  C  C91  1  0.08043000  0.58521000  0.63850000  1.0
  C  C92  1  0.30501000  0.45416000  0.40063000  1.0
  C  C93  1  0.44516000  0.29503000  0.34924000  1.0
  C  C94  1  0.25831000  0.41567000  0.41390000  1.0
  C  C95  1  0.49180000  0.33358000  0.33591000  1.0
  C  C96  1  0.37703000  0.33920000  0.37288000  1.0
  C  C97  1  0.37318000  0.40995000  0.37704000  1.0
  C  C98  1  0.72614000  0.57569000  0.63078000  1.0
  C  C99  1  0.52445000  0.67379000  0.62017000  1.0
  C  C100  1  0.74358000  0.58427000  0.58812000  1.0
  C  C101  1  0.50703000  0.66526000  0.66284000  1.0
  C  C102  1  0.60452000  0.64097000  0.60858000  1.0
  C  C103  1  0.64606000  0.60843000  0.64239000  1.0
  C  C104  1  0.07709000  0.22507000  0.62922000  1.0
  C  C105  1  0.17385000  0.02404000  0.61989000  1.0
  C  C106  1  0.08662000  0.24226000  0.58651000  1.0
  C  C107  1  0.16414000  0.00694000  0.66258000  1.0
  C  C108  1  0.14203000  0.10376000  0.60780000  1.0
  C  C109  1  0.10909000  0.14535000  0.64126000  1.0
  C  C110  1  0.84148000  0.80096000  0.39727000  1.0
  C  C111  1  0.90535000  0.94859000  0.35335000  1.0
  C  C112  1  0.91006000  0.75789000  0.41408000  1.0
  C  C113  1  0.83675000  0.99170000  0.33655000  1.0
  C  C114  1  0.90702000  0.87881000  0.37535000  1.0
  C  C115  1  0.84010000  0.87040000  0.37496000  1.0
  C  C116  1  0.65646000  0.15093000  0.15011000  1.0
  C  C117  1  0.59781000  0.09456000  0.09985000  1.0
  C  C118  1  0.67113000  0.16528000  0.10639000  1.0
  C  C119  1  0.58460000  0.07876000  0.14355000  1.0
  C  C120  1  0.64043000  0.13654000  0.08279000  1.0
  C  C121  1  0.61442000  0.10839000  0.16716000  1.0
  C  C122  1  0.67366000  0.52502000  0.12055000  1.0
  C  C123  1  0.57527000  0.72591000  0.13014000  1.0
  C  C124  1  0.66427000  0.50760000  0.16323000  1.0
  C  C125  1  0.58478000  0.74331000  0.08745000  1.0
  C  C126  1  0.60790000  0.64616000  0.14212000  1.0
  C  C127  1  0.64123000  0.60478000  0.10858000  1.0
  C  C128  1  0.08198000  0.12410000  0.17772000  1.0
  C  C129  1  0.16691000  0.12672000  0.07158000  1.0
  C  C130  1  0.00926000  0.16315000  0.16508000  1.0
  C  C131  1  0.23965000  0.08767000  0.08416000  1.0
  C  C132  1  0.10950000  0.14016000  0.10583000  1.0
  C  C133  1  0.13944000  0.11110000  0.14350000  1.0
  C  C134  1  0.34353000  0.85063000  0.84891000  1.0
  C  C135  1  0.40596000  0.89572000  0.90286000  1.0
  C  C136  1  0.29999000  0.92232000  0.86405000  1.0
  C  C137  1  0.44857000  0.82311000  0.88867000  1.0
  C  C138  1  0.33370000  0.94244000  0.89044000  1.0
  C  C139  1  0.41550000  0.80360000  0.86166000  1.0
  C  C140  1  0.40950000  0.44835000  0.85294000  1.0
  C  C141  1  0.34388000  0.30185000  0.89668000  1.0
  C  C142  1  0.34118000  0.49193000  0.83598000  1.0
  C  C143  1  0.41224000  0.25820000  0.91361000  1.0
  C  C144  1  0.34311000  0.37121000  0.87455000  1.0
  C  C145  1  0.41031000  0.37897000  0.87511000  1.0
  C  C146  1  0.94470000  0.79566000  0.84950000  1.0
  C  C147  1  0.80522000  0.95570000  0.90050000  1.0
  C  C148  1  0.99160000  0.83389000  0.83596000  1.0
  C  C149  1  0.75833000  0.91749000  0.91408000  1.0
  C  C150  1  0.87314000  0.91110000  0.87685000  1.0
  C  C151  1  0.87664000  0.84036000  0.87299000  1.0
  S  S152  1  0.29777000  0.32587000  0.39760000  1.0
  S  S153  1  0.45242000  0.42332000  0.35230000  1.0
  S  S154  1  0.66239000  0.63196000  0.56238000  1.0
  S  S155  1  0.58817000  0.61746000  0.68858000  1.0
  S  S156  1  0.13441000  0.16125000  0.56135000  1.0
  S  S157  1  0.11658000  0.08798000  0.68773000  1.0
  S  S158  1  0.97239000  0.80222000  0.40265000  1.0
  S  S159  1  0.77476000  0.94702000  0.34762000  1.0
  S  S160  1  0.61587000  0.58844000  0.18851000  1.0
  S  S161  1  0.63340000  0.66245000  0.06220000  1.0
  S  S162  1  0.01128000  0.18378000  0.11166000  1.0
  S  S163  1  0.23769000  0.06756000  0.13762000  1.0
  S  S164  1  0.27837000  0.44814000  0.84707000  1.0
  S  S165  1  0.47504000  0.30199000  0.90257000  1.0
  S  S166  1  0.95245000  0.92401000  0.85184000  1.0
  S  S167  1  0.79725000  0.82753000  0.89798000  1.0
  N  N168  1  0.77986000  0.52331000  0.39523000  1.0
  N  N169  1  0.97537000  0.23418000  0.34864000  1.0
  N  N170  1  0.15681000  0.66947000  0.54070000  1.0
  N  N171  1  0.08054000  0.59300000  0.70943000  1.0
  N  N172  1  0.71527000  0.20314000  0.08701000  1.0
  N  N173  1  0.54684000  0.03460000  0.16291000  1.0
  N  N174  1  0.22707000  0.97028000  0.85498000  1.0
  N  N175  1  0.51809000  0.77184000  0.90122000  1.0
  O  O176  1  0.00082000  0.49866000  0.50012000  1.0
  O  O177  1  0.07774000  0.31542000  0.52229000  1.0
  O  O178  1  0.03402000  0.53191000  0.58454000  1.0
  O  O179  1  0.15582000  0.50582000  0.45016000  1.0
  O  O180  1  0.02849000  0.37473000  0.58046000  1.0
  O  O181  1  0.15301000  0.39279000  0.44584000  1.0
  O  O182  1  0.08575000  0.58776000  0.52913000  1.0
  O  O183  1  0.00299000  0.65684000  0.44940000  1.0
  O  O184  1  0.88517000  0.49669000  0.44322000  1.0
  O  O185  1  0.88917000  0.65210000  0.44800000  1.0
  O  O186  1  0.99485000  0.38875000  0.44107000  1.0
  O  O187  1  0.87712000  0.52687000  0.58184000  1.0
  O  O188  1  0.81566000  0.57421000  0.52400000  1.0
  O  O189  1  0.74849000  0.25079000  0.25033000  1.0
  O  O190  1  0.59652000  0.35708000  0.30379000  1.0
  O  O191  1  0.66723000  0.16312000  0.21753000  1.0
  O  O192  1  0.72429000  0.37505000  0.16924000  1.0
  O  O193  1  0.59401000  0.24405000  0.29901000  1.0
  O  O194  1  0.67289000  0.43412000  0.22738000  1.0
  O  O195  1  0.72089000  0.22002000  0.16359000  1.0
  O  O196  1  0.87683000  0.22425000  0.16952000  1.0
  O  O197  1  0.86271000  0.25313000  0.30823000  1.0
  O  O198  1  0.93361000  0.17196000  0.22872000  1.0
  O  O199  1  0.75458000  0.36267000  0.30849000  1.0
  O  O200  1  0.74588000  0.09169000  0.29917000  1.0
  O  O201  1  0.85671000  0.09886000  0.30494000  1.0
  O  O202  1  0.25034000  0.75023000  0.74995000  1.0
  O  O203  1  0.37376000  0.72390000  0.66870000  1.0
  O  O204  1  0.36097000  0.75834000  0.80766000  1.0
  O  O205  1  0.17207000  0.93454000  0.72689000  1.0
  O  O206  1  0.43432000  0.67586000  0.72688000  1.0
  O  O207  1  0.22077000  0.87425000  0.66908000  1.0
  O  O208  1  0.25042000  0.86554000  0.80766000  1.0
  O  O209  1  0.09544000  0.85778000  0.80269000  1.0
  O  O210  1  0.16473000  0.66156000  0.72102000  1.0
  O  O211  1  0.09531000  0.74268000  0.80062000  1.0
  O  O212  1  0.21730000  0.71657000  0.66559000  1.0
  O  O213  1  0.36074000  0.59946000  0.80367000  1.0
  O  O214  1  0.24922000  0.59192000  0.79977000  1.0
  O  O215  1  0.50004000  0.00038000  0.99955000  1.0
  O  O216  1  0.50315000  0.15812000  0.95064000  1.0
  O  O217  1  0.39153000  0.99156000  0.94067000  1.0
  O  O218  1  0.65434000  0.89352000  0.94673000  1.0
  O  O219  1  0.39197000  0.15106000  0.94534000  1.0
  O  O220  1  0.65609000  0.00694000  0.95127000  1.0
  O  O221  1  0.50123000  0.88354000  0.94189000  1.0
  O  O222  1  0.57904000  0.81621000  0.02331000  1.0
  O  O223  1  0.52763000  0.03119000  0.08636000  1.0
  O  O224  1  0.52306000  0.87603000  0.08092000  1.0
  O  O225  1  0.58328000  0.08617000  0.03244000  1.0
  O  O226  1  0.31569000  0.07444000  0.02048000  1.0
  O  O227  1  0.37192000  0.02848000  0.08007000  1.0
  O  O228  1  0.28664000  0.52480000  0.40944000  1.0
  O  O229  1  0.46369000  0.22442000  0.34041000  1.0
  O  O230  1  0.77978000  0.54024000  0.65715000  1.0
  O  O231  1  0.47093000  0.70920000  0.59371000  1.0
  O  O232  1  0.04149000  0.27853000  0.65529000  1.0
  O  O233  1  0.20939000  0.97048000  0.59390000  1.0
  O  O234  1  0.78431000  0.77824000  0.40208000  1.0
  O  O235  1  0.96242000  0.97141000  0.34884000  1.0
  O  O236  1  0.70938000  0.47174000  0.09435000  1.0
  O  O237  1  0.53930000  0.77933000  0.15620000  1.0
  O  O238  1  0.09473000  0.10194000  0.21772000  1.0
  O  O239  1  0.15407000  0.14863000  0.03160000  1.0
  O  O240  1  0.46704000  0.47051000  0.84838000  1.0
  O  O241  1  0.28628000  0.27978000  0.90122000  1.0
  O  O242  1  0.96295000  0.72495000  0.84093000  1.0
  O  O243  1  0.78705000  0.02634000  0.90913000  1.0
