# generated using pymatgen
data_H24Rh2C35(NO7)2
_symmetry_space_group_name_H-M   'P 1'
_cell_length_a   9.51512000
_cell_length_b   10.30030000
_cell_length_c   11.05410000
_cell_angle_alpha   70.21180000
_cell_angle_beta   66.20440000
_cell_angle_gamma   63.13340000
_symmetry_Int_Tables_number   1
_chemical_formula_structural   H24Rh2C35(NO7)2
_chemical_formula_sum   'H24 Rh2 C35 N2 O14'
_cell_volume   867.95335718
_cell_formula_units_Z   1
loop_
 _symmetry_equiv_pos_site_id
 _symmetry_equiv_pos_as_xyz
  1  'x, y, z'
loop_
 _atom_site_type_symbol
 _atom_site_label
 _atom_site_symmetry_multiplicity
 _atom_site_fract_x
 _atom_site_fract_y
 _atom_site_fract_z
 _atom_site_occupancy
  H  H0  1  0.00081000  0.09707000  0.37250000  1.0
  H  H1  1  0.99919000  0.90293000  0.62750000  1.0
  H  H2  1  0.16760000  0.84786000  0.30496000  1.0
  H  H3  1  0.83240000  0.15214000  0.69504000  1.0
  H  H4  1  0.02920000  0.71388000  0.27303000  1.0
  H  H5  1  0.97080000  0.28612000  0.72698000  1.0
  H  H6  1  0.72378000  0.81711000  0.32040000  1.0
  H  H7  1  0.27621000  0.18289000  0.67960000  1.0
  H  H8  1  0.55892000  0.06372000  0.39070000  1.0
  H  H9  1  0.44108000  0.93628000  0.60930000  1.0
  H  H10  1  0.74961000  0.78288000  0.09558000  1.0
  H  H11  1  0.25039000  0.21712000  0.90442000  1.0
  H  H12  1  0.78755000  0.91023000  0.85573000  1.0
  H  H13  1  0.21245000  0.08976000  0.14427000  1.0
  H  H14  1  0.61667000  0.91742000  0.73010000  1.0
  H  H15  1  0.38333000  0.08258000  0.26990000  1.0
  H  H16  1  0.40889000  0.79636000  0.84519000  1.0
  H  H17  1  0.59112000  0.20363000  0.15481000  1.0
  H  H18  1  0.37063000  0.67040000  0.08659000  1.0
  H  H19  1  0.62937000  0.32960000  0.91341000  1.0
  H  H20  1  0.26284000  0.37708000  0.34579000  1.0
  H  H21  1  0.73718000  0.62291000  0.65421000  1.0
  H  H22  1  0.99402000  0.39444000  0.33645000  1.0
  H  H23  1  0.00599000  0.60555000  0.66355000  1.0
  Rh  Rh24  1  0.37538000  0.49219000  0.50326000  1.0
  Rh  Rh25  1  0.62463000  0.50781000  0.49674000  1.0
  C  C26  1  0.67241000  0.24317000  0.42245000  1.0
  C  C27  1  0.32760000  0.75684000  0.57755000  1.0
  C  C28  1  0.77088000  0.09547000  0.38323000  1.0
  C  C29  1  0.22912000  0.90453000  0.61677000  1.0
  C  C30  1  0.94244000  0.03485000  0.35972000  1.0
  C  C31  1  0.05756000  0.96515000  0.64028000  1.0
  C  C32  1  0.03464000  0.89730000  0.32119000  1.0
  C  C33  1  0.96535000  0.10270000  0.67881000  1.0
  C  C34  1  0.95629000  0.82055000  0.30472000  1.0
  C  C35  1  0.04371000  0.17945000  0.69528000  1.0
  C  C36  1  0.78497000  0.87927000  0.32979000  1.0
  C  C37  1  0.21502000  0.12073000  0.67021000  1.0
  C  C38  1  0.69254000  0.01620000  0.36947000  1.0
  C  C39  1  0.30746000  0.98380000  0.63053000  1.0
  C  C40  1  0.53678000  0.64160000  0.24845000  1.0
  C  C41  1  0.46322000  0.35840000  0.75155000  1.0
  C  C42  1  0.55759000  0.71954000  0.10546000  1.0
  C  C43  1  0.44240000  0.28046000  0.89454000  1.0
  C  C44  1  0.67542000  0.78681000  0.03993000  1.0
  C  C45  1  0.32458000  0.21318000  0.96007000  1.0
  C  C46  1  0.69597000  0.85808000  0.90556000  1.0
  C  C47  1  0.30403000  0.14192000  0.09444000  1.0
  C  C48  1  0.59995000  0.86178000  0.83554000  1.0
  C  C49  1  0.40006000  0.13822000  0.16446000  1.0
  C  C50  1  0.48280000  0.79435000  0.90028000  1.0
  C  C51  1  0.51720000  0.20564000  0.09972000  1.0
  C  C52  1  0.46074000  0.72407000  0.03501000  1.0
  C  C53  1  0.53926000  0.27593000  0.96499000  1.0
  C  C54  1  0.14490000  0.43176000  0.41490000  1.0
  C  C55  1  0.85512000  0.56824000  0.58510000  1.0
  C  C56  1  0.99724000  0.44190000  0.40927000  1.0
  C  C57  1  0.00276000  0.55809000  0.59073000  1.0
  C  C58  1  0.13174000  0.57609000  0.99301000  1.0
  C  C59  1  0.86825000  0.42391000  0.00699000  1.0
  C  C60  1  0.00000000  0.00001000  0.00000000  1.0
  N  N61  1  0.14852000  0.48970000  0.50566000  1.0
  N  N62  1  0.85149000  0.51029000  0.49434000  1.0
  O  O63  1  0.75075000  0.30851000  0.43599000  1.0
  O  O64  1  0.24925000  0.69148000  0.56401000  1.0
  O  O65  1  0.51630000  0.29420000  0.43997000  1.0
  O  O66  1  0.48369000  0.70580000  0.56003000  1.0
  O  O67  1  0.64448000  0.62020000  0.30194000  1.0
  O  O68  1  0.35552000  0.37980000  0.69806000  1.0
  O  O69  1  0.41211000  0.60092000  0.30754000  1.0
  O  O70  1  0.58789000  0.39909000  0.69246000  1.0
  O  O71  1  0.09754000  0.60200000  0.89421000  1.0
  O  O72  1  0.90246000  0.39800000  0.10579000  1.0
  O  O73  1  0.16585000  0.55093000  0.09179000  1.0
  O  O74  1  0.83415000  0.44907000  0.90821000  1.0
  O  O75  1  0.02062000  0.88856000  0.97659000  1.0
  O  O76  1  0.97938000  0.11144000  0.02341000  1.0
