# generated using pymatgen
data_HoH21(C9O2)3
_symmetry_space_group_name_H-M   'P 1'
_cell_length_a   7.86363000
_cell_length_b   11.27800000
_cell_length_c   13.07100000
_cell_angle_alpha   94.23370000
_cell_angle_beta   90.00000000
_cell_angle_gamma   90.00000000
_symmetry_Int_Tables_number   1
_chemical_formula_structural   HoH21(C9O2)3
_chemical_formula_sum   'Ho2 H42 C54 O12'
_cell_volume   1156.05172260
_cell_formula_units_Z   2
loop_
 _symmetry_equiv_pos_site_id
 _symmetry_equiv_pos_as_xyz
  1  'x, y, z'
loop_
 _atom_site_type_symbol
 _atom_site_label
 _atom_site_symmetry_multiplicity
 _atom_site_fract_x
 _atom_site_fract_y
 _atom_site_fract_z
 _atom_site_occupancy
  Ho  Ho0  1  0.51472000  0.54117000  0.47453000  1.0
  Ho  Ho1  1  0.01473000  0.45882000  0.52547000  1.0
  H  H2  1  0.68942000  0.12421000  0.60777000  1.0
  H  H3  1  0.18939000  0.87579000  0.39223000  1.0
  H  H4  1  0.35254000  0.26433000  0.60275000  1.0
  H  H5  1  0.85252000  0.73567000  0.39727000  1.0
  H  H6  1  0.55451000  0.95546000  0.59731000  1.0
  H  H7  1  0.05451000  0.04453000  0.40269000  1.0
  H  H8  1  0.39158000  0.77575000  0.62826000  1.0
  H  H9  1  0.89159000  0.22424000  0.37174000  1.0
  H  H10  1  0.08239000  0.78819000  0.66649000  1.0
  H  H11  1  0.58241000  0.21181000  0.33351000  1.0
  H  H12  1  0.93398000  0.98416000  0.67033000  1.0
  H  H13  1  0.43398000  0.01585000  0.32967000  1.0
  H  H14  1  0.09802000  0.16683000  0.63799000  1.0
  H  H15  1  0.59800000  0.83317000  0.36202000  1.0
  H  H16  1  0.42211000  0.62702000  0.75893000  1.0
  H  H17  1  0.92209000  0.37298000  0.24107000  1.0
  H  H18  1  0.18930000  0.45229000  0.86403000  1.0
  H  H19  1  0.68929000  0.54771000  0.13597000  1.0
  H  H20  1  0.18988000  0.45376000  0.04293000  1.0
  H  H21  1  0.68987000  0.54625000  0.95707000  1.0
  H  H22  1  0.25344000  0.55010000  0.21654000  1.0
  H  H23  1  0.75345000  0.44991000  0.78346000  1.0
  H  H24  1  0.42214000  0.73631000  0.23345000  1.0
  H  H25  1  0.92214000  0.26370000  0.76655000  1.0
  H  H26  1  0.52667000  0.82750000  0.07683000  1.0
  H  H27  1  0.02668000  0.17251000  0.92318000  1.0
  H  H28  1  0.46393000  0.73285000  0.90506000  1.0
  H  H29  1  0.96393000  0.26716000  0.09495000  1.0
  H  H30  1  0.65490000  0.81825000  0.73851000  1.0
  H  H31  1  0.15491000  0.18175000  0.26149000  1.0
  H  H32  1  0.95169000  0.66955000  0.81510000  1.0
  H  H33  1  0.45169000  0.33045000  0.18490000  1.0
  H  H34  1  0.70654000  0.95991000  0.86261000  1.0
  H  H35  1  0.20654000  0.04009000  0.13739000  1.0
  H  H36  1  0.69712000  0.07455000  0.03025000  1.0
  H  H37  1  0.19711000  0.92546000  0.96976000  1.0
  H  H38  1  0.83677000  0.99674000  0.18262000  1.0
  H  H39  1  0.33677000  0.00326000  0.81738000  1.0
  H  H40  1  0.98893000  0.80191000  0.16526000  1.0
  H  H41  1  0.48893000  0.19809000  0.83473000  1.0
  H  H42  1  0.99982000  0.68663000  0.99629000  1.0
  H  H43  1  0.49983000  0.31337000  0.00370000  1.0
  C  C44  1  0.67938000  0.31409000  0.59000000  1.0
  C  C45  1  0.17938000  0.68591000  0.41001000  1.0
  C  C46  1  0.60111000  0.19812000  0.60324000  1.0
  C  C47  1  0.10109000  0.80188000  0.39676000  1.0
  C  C48  1  0.43058000  0.18469000  0.60704000  1.0
  C  C49  1  0.93057000  0.81530000  0.39297000  1.0
  C  C50  1  0.33861000  0.07496000  0.61898000  1.0
  C  C51  1  0.83861000  0.92503000  0.38101000  1.0
  C  C52  1  0.41944000  0.96312000  0.61550000  1.0
  C  C53  1  0.91944000  0.03687000  0.38449000  1.0
  C  C54  1  0.32744000  0.86145000  0.63290000  1.0
  C  C55  1  0.82744000  0.13855000  0.36710000  1.0
  C  C56  1  0.15296000  0.86875000  0.65355000  1.0
  C  C57  1  0.65297000  0.13125000  0.34644000  1.0
  C  C58  1  0.07032000  0.97854000  0.65518000  1.0
  C  C59  1  0.57032000  0.02146000  0.34482000  1.0
  C  C60  1  0.16189000  0.08086000  0.63730000  1.0
  C  C61  1  0.66189000  0.91914000  0.36270000  1.0
  C  C62  1  0.25736000  0.49807000  0.67592000  1.0
  C  C63  1  0.75734000  0.50193000  0.32409000  1.0
  C  C64  1  0.33210000  0.55539000  0.76922000  1.0
  C  C65  1  0.83209000  0.44462000  0.23078000  1.0
  C  C66  1  0.27918000  0.52633000  0.86265000  1.0
  C  C67  1  0.77917000  0.47368000  0.13734000  1.0
  C  C68  1  0.32371000  0.58507000  0.96176000  1.0
  C  C69  1  0.82370000  0.41493000  0.03824000  1.0
  C  C70  1  0.26422000  0.53559000  0.05111000  1.0
  C  C71  1  0.76421000  0.46441000  0.94889000  1.0
  C  C72  1  0.29894000  0.58981000  0.14809000  1.0
  C  C73  1  0.79895000  0.41019000  0.85191000  1.0
  C  C74  1  0.39348000  0.69502000  0.15753000  1.0
  C  C75  1  0.89349000  0.30499000  0.84247000  1.0
  C  C76  1  0.45307000  0.74547000  0.06963000  1.0
  C  C77  1  0.95307000  0.25454000  0.93037000  1.0
  C  C78  1  0.41853000  0.69144000  0.97275000  1.0
  C  C79  1  0.91851000  0.30856000  0.02726000  1.0
  C  C80  1  0.77233000  0.67346000  0.64393000  1.0
  C  C81  1  0.27234000  0.32654000  0.35607000  1.0
  C  C82  1  0.75679000  0.75259000  0.73819000  1.0
  C  C83  1  0.25680000  0.24739000  0.26181000  1.0
  C  C84  1  0.85780000  0.74146000  0.82066000  1.0
  C  C85  1  0.35781000  0.25855000  0.17933000  1.0
  C  C86  1  0.85179000  0.81359000  0.91761000  1.0
  C  C87  1  0.35179000  0.18641000  0.08238000  1.0
  C  C88  1  0.76743000  0.92412000  0.92868000  1.0
  C  C89  1  0.26742000  0.07589000  0.07132000  1.0
  C  C90  1  0.76289000  0.98929000  0.02319000  1.0
  C  C91  1  0.26288000  0.01071000  0.97680000  1.0
  C  C92  1  0.84206000  0.94563000  0.10867000  1.0
  C  C93  1  0.34206000  0.05437000  0.89133000  1.0
  C  C94  1  0.92720000  0.83656000  0.09894000  1.0
  C  C95  1  0.42720000  0.16344000  0.90105000  1.0
  C  C96  1  0.93305000  0.77159000  0.00406000  1.0
  C  C97  1  0.43305000  0.22841000  0.99593000  1.0
  O  O98  1  0.58462000  0.40595000  0.58458000  1.0
  O  O99  1  0.08462000  0.59404000  0.41543000  1.0
  O  O100  1  0.84181000  0.31845000  0.58480000  1.0
  O  O101  1  0.34180000  0.68155000  0.41520000  1.0
  O  O102  1  0.28616000  0.54380000  0.58820000  1.0
  O  O103  1  0.78614000  0.45620000  0.41180000  1.0
  O  O104  1  0.15354000  0.41183000  0.67711000  1.0
  O  O105  1  0.65353000  0.58817000  0.32289000  1.0
  O  O106  1  0.65268000  0.67725000  0.57740000  1.0
  O  O107  1  0.15269000  0.32275000  0.42259000  1.0
  O  O108  1  0.90058000  0.60465000  0.63164000  1.0
  O  O109  1  0.40058000  0.39536000  0.36835000  1.0
