# generated using pymatgen
data_CuH2(C3N4)2
_symmetry_space_group_name_H-M   'P 1'
_cell_length_a   18.46290000
_cell_length_b   18.46290000
_cell_length_c   18.46290000
_cell_angle_alpha   90.00000000
_cell_angle_beta   90.00000000
_cell_angle_gamma   90.00000000
_symmetry_Int_Tables_number   1
_chemical_formula_structural   CuH2(C3N4)2
_chemical_formula_sum   'Cu12 H24 C72 N96'
_cell_volume   6293.60891469
_cell_formula_units_Z   12
loop_
 _symmetry_equiv_pos_site_id
 _symmetry_equiv_pos_as_xyz
  1  'x, y, z'
loop_
 _atom_site_type_symbol
 _atom_site_label
 _atom_site_symmetry_multiplicity
 _atom_site_fract_x
 _atom_site_fract_y
 _atom_site_fract_z
 _atom_site_occupancy
  Cu  Cu0  1  0.50000000  0.13354000  0.00000000  1.0
  Cu  Cu1  1  0.50000000  0.86646000  0.00000000  1.0
  Cu  Cu2  1  0.00000000  0.50000000  0.13354000  1.0
  Cu  Cu3  1  0.00000000  0.50000000  0.86646000  1.0
  Cu  Cu4  1  0.13354000  0.00000000  0.50000000  1.0
  Cu  Cu5  1  0.86646000  0.00000000  0.50000000  1.0
  Cu  Cu6  1  0.13354000  0.50000000  0.00000000  1.0
  Cu  Cu7  1  0.86646000  0.50000000  0.00000000  1.0
  Cu  Cu8  1  0.50000000  0.00000000  0.86646000  1.0
  Cu  Cu9  1  0.50000000  0.00000000  0.13354000  1.0
  Cu  Cu10  1  0.00000000  0.13354000  0.50000000  1.0
  Cu  Cu11  1  0.00000000  0.86646000  0.50000000  1.0
  H  H12  1  0.26476000  0.26476000  0.09946000  1.0
  H  H13  1  0.73524000  0.73524000  0.09946000  1.0
  H  H14  1  0.73524000  0.26476000  0.90054000  1.0
  H  H15  1  0.26476000  0.73524000  0.90054000  1.0
  H  H16  1  0.09946000  0.26476000  0.26476000  1.0
  H  H17  1  0.09946000  0.73524000  0.73524000  1.0
  H  H18  1  0.90054000  0.73524000  0.26476000  1.0
  H  H19  1  0.90054000  0.26476000  0.73524000  1.0
  H  H20  1  0.26476000  0.09946000  0.26476000  1.0
  H  H21  1  0.73524000  0.09946000  0.73524000  1.0
  H  H22  1  0.26476000  0.90054000  0.73524000  1.0
  H  H23  1  0.73524000  0.90054000  0.26476000  1.0
  H  H24  1  0.26476000  0.26476000  0.90054000  1.0
  H  H25  1  0.73524000  0.73524000  0.90054000  1.0
  H  H26  1  0.26476000  0.73524000  0.09946000  1.0
  H  H27  1  0.73524000  0.26476000  0.09946000  1.0
  H  H28  1  0.26476000  0.09946000  0.73524000  1.0
  H  H29  1  0.73524000  0.09946000  0.26476000  1.0
  H  H30  1  0.73524000  0.90054000  0.73524000  1.0
  H  H31  1  0.26476000  0.90054000  0.26476000  1.0
  H  H32  1  0.09946000  0.26476000  0.73524000  1.0
  H  H33  1  0.09946000  0.73524000  0.26476000  1.0
  H  H34  1  0.90054000  0.26476000  0.26476000  1.0
  H  H35  1  0.90054000  0.73524000  0.73524000  1.0
  C  C36  1  0.24071000  0.24071000  0.14770000  1.0
  C  C37  1  0.75929000  0.75929000  0.14770000  1.0
  C  C38  1  0.75928000  0.24071000  0.85231000  1.0
  C  C39  1  0.24071000  0.75929000  0.85230000  1.0
  C  C40  1  0.14770000  0.24071000  0.24071000  1.0
  C  C41  1  0.14770000  0.75929000  0.75929000  1.0
  C  C42  1  0.85230000  0.75929000  0.24071000  1.0
  C  C43  1  0.85230000  0.24071000  0.75929000  1.0
  C  C44  1  0.24071000  0.14769000  0.24071000  1.0
  C  C45  1  0.75928000  0.14769000  0.75929000  1.0
  C  C46  1  0.24071000  0.85230000  0.75929000  1.0
  C  C47  1  0.75928000  0.85231000  0.24071000  1.0
  C  C48  1  0.24072000  0.24071000  0.85231000  1.0
  C  C49  1  0.75929000  0.75929000  0.85230000  1.0
  C  C50  1  0.24072000  0.75929000  0.14769000  1.0
  C  C51  1  0.75929000  0.24071000  0.14769000  1.0
  C  C52  1  0.24072000  0.14769000  0.75929000  1.0
  C  C53  1  0.75929000  0.14770000  0.24071000  1.0
  C  C54  1  0.75928000  0.85231000  0.75929000  1.0
  C  C55  1  0.24072000  0.85231000  0.24071000  1.0
  C  C56  1  0.14770000  0.24071000  0.75929000  1.0
  C  C57  1  0.14770000  0.75929000  0.24071000  1.0
  C  C58  1  0.85230000  0.24071000  0.24071000  1.0
  C  C59  1  0.85230000  0.75929000  0.75929000  1.0
  C  C60  1  0.27164000  0.17882000  0.17882000  1.0
  C  C61  1  0.33648000  0.14673000  0.14673000  1.0
  C  C62  1  0.72836000  0.82118000  0.17882000  1.0
  C  C63  1  0.66352000  0.85327000  0.14673000  1.0
  C  C64  1  0.72836000  0.17882000  0.82118000  1.0
  C  C65  1  0.66352000  0.14673000  0.85327000  1.0
  C  C66  1  0.27164000  0.82119000  0.82118000  1.0
  C  C67  1  0.33648000  0.85327000  0.85327000  1.0
  C  C68  1  0.17882000  0.27165000  0.17882000  1.0
  C  C69  1  0.14673000  0.33648000  0.14673000  1.0
  C  C70  1  0.17881000  0.72835000  0.82118000  1.0
  C  C71  1  0.14673000  0.66352000  0.85327000  1.0
  C  C72  1  0.82119000  0.72835000  0.17882000  1.0
  C  C73  1  0.85327000  0.66352000  0.14673000  1.0
  C  C74  1  0.82119000  0.27165000  0.82118000  1.0
  C  C75  1  0.85327000  0.33648000  0.85327000  1.0
  C  C76  1  0.17881000  0.17882000  0.27165000  1.0
  C  C77  1  0.14673000  0.14673000  0.33648000  1.0
  C  C78  1  0.82119000  0.17882000  0.72835000  1.0
  C  C79  1  0.85327000  0.14673000  0.66352000  1.0
  C  C80  1  0.17882000  0.82118000  0.72835000  1.0
  C  C81  1  0.14673000  0.85327000  0.66352000  1.0
  C  C82  1  0.82119000  0.82118000  0.27165000  1.0
  C  C83  1  0.85327000  0.85327000  0.33648000  1.0
  C  C84  1  0.17881000  0.27165000  0.82118000  1.0
  C  C85  1  0.14673000  0.33648000  0.85327000  1.0
  C  C86  1  0.82119000  0.72835000  0.82118000  1.0
  C  C87  1  0.85327000  0.66352000  0.85327000  1.0
  C  C88  1  0.17881000  0.72835000  0.17882000  1.0
  C  C89  1  0.14673000  0.66352000  0.14673000  1.0
  C  C90  1  0.82119000  0.27164000  0.17882000  1.0
  C  C91  1  0.85327000  0.33648000  0.14673000  1.0
  C  C92  1  0.27164000  0.17882000  0.82118000  1.0
  C  C93  1  0.33648000  0.14673000  0.85327000  1.0
  C  C94  1  0.72835000  0.17881000  0.17882000  1.0
  C  C95  1  0.66352000  0.14673000  0.14673000  1.0
  C  C96  1  0.72836000  0.82118000  0.82118000  1.0
  C  C97  1  0.66352000  0.85327000  0.85327000  1.0
  C  C98  1  0.27164000  0.82118000  0.17882000  1.0
  C  C99  1  0.33648000  0.85327000  0.14673000  1.0
  C  C100  1  0.17881000  0.17882000  0.72835000  1.0
  C  C101  1  0.14673000  0.14673000  0.66352000  1.0
  C  C102  1  0.17881000  0.82118000  0.27165000  1.0
  C  C103  1  0.14673000  0.85327000  0.33648000  1.0
  C  C104  1  0.82118000  0.17882000  0.27165000  1.0
  C  C105  1  0.85327000  0.14673000  0.33648000  1.0
  C  C106  1  0.82119000  0.82118000  0.72835000  1.0
  C  C107  1  0.85327000  0.85327000  0.66352000  1.0
  N  N108  1  0.37024000  0.17286000  0.08709000  1.0
  N  N109  1  0.42531000  0.12872000  0.07724000  1.0
  N  N110  1  0.62976000  0.82714000  0.08709000  1.0
  N  N111  1  0.57469000  0.87128000  0.07724000  1.0
  N  N112  1  0.62976000  0.17286000  0.91291000  1.0
  N  N113  1  0.57469000  0.12872000  0.92276000  1.0
  N  N114  1  0.37024000  0.82714000  0.91291000  1.0
  N  N115  1  0.42531000  0.87128000  0.92276000  1.0
  N  N116  1  0.08709000  0.37024000  0.17286000  1.0
  N  N117  1  0.07724000  0.42531000  0.12872000  1.0
  N  N118  1  0.08709000  0.62976000  0.82714000  1.0
  N  N119  1  0.07724000  0.57469000  0.87128000  1.0
  N  N120  1  0.91291000  0.62976000  0.17286000  1.0
  N  N121  1  0.92276000  0.57469000  0.12872000  1.0
  N  N122  1  0.91291000  0.37024000  0.82714000  1.0
  N  N123  1  0.92276000  0.42531000  0.87128000  1.0
  N  N124  1  0.17286000  0.08709000  0.37024000  1.0
  N  N125  1  0.12872000  0.07724000  0.42531000  1.0
  N  N126  1  0.82714000  0.08709000  0.62976000  1.0
  N  N127  1  0.87128000  0.07724000  0.57469000  1.0
  N  N128  1  0.17286000  0.91291000  0.62976000  1.0
  N  N129  1  0.12872000  0.92276000  0.57469000  1.0
  N  N130  1  0.82714000  0.91291000  0.37024000  1.0
  N  N131  1  0.87128000  0.92276000  0.42531000  1.0
  N  N132  1  0.17286000  0.37024000  0.91291000  1.0
  N  N133  1  0.12872000  0.42531000  0.92276000  1.0
  N  N134  1  0.82714000  0.62976000  0.91291000  1.0
  N  N135  1  0.87128000  0.57469000  0.92276000  1.0
  N  N136  1  0.17286000  0.62976000  0.08709000  1.0
  N  N137  1  0.12872000  0.57469000  0.07724000  1.0
  N  N138  1  0.82714000  0.37024000  0.08709000  1.0
  N  N139  1  0.87128000  0.42531000  0.07724000  1.0
  N  N140  1  0.37024000  0.08709000  0.82714000  1.0
  N  N141  1  0.42531000  0.07724000  0.87128000  1.0
  N  N142  1  0.62976000  0.08709000  0.17286000  1.0
  N  N143  1  0.57469000  0.07724000  0.12872000  1.0
  N  N144  1  0.62976000  0.91291000  0.82714000  1.0
  N  N145  1  0.57469000  0.92276000  0.87128000  1.0
  N  N146  1  0.37024000  0.91291000  0.17286000  1.0
  N  N147  1  0.42531000  0.92276000  0.12872000  1.0
  N  N148  1  0.08709000  0.17286000  0.62976000  1.0
  N  N149  1  0.07724000  0.12872000  0.57469000  1.0
  N  N150  1  0.08709000  0.82714000  0.37024000  1.0
  N  N151  1  0.07724000  0.87128000  0.42531000  1.0
  N  N152  1  0.91291000  0.17286000  0.37024000  1.0
  N  N153  1  0.92276000  0.12872000  0.42531000  1.0
  N  N154  1  0.91291000  0.82714000  0.62976000  1.0
  N  N155  1  0.92276000  0.87128000  0.57469000  1.0
  N  N156  1  0.62976000  0.82714000  0.91291000  1.0
  N  N157  1  0.57469000  0.87128000  0.92276000  1.0
  N  N158  1  0.37024000  0.17286000  0.91291000  1.0
  N  N159  1  0.42531000  0.12872000  0.92276000  1.0
  N  N160  1  0.37024000  0.82714000  0.08709000  1.0
  N  N161  1  0.42531000  0.87128000  0.07724000  1.0
  N  N162  1  0.62976000  0.17286000  0.08709000  1.0
  N  N163  1  0.57469000  0.12872000  0.07724000  1.0
  N  N164  1  0.91291000  0.62976000  0.82714000  1.0
  N  N165  1  0.92276000  0.57469000  0.87128000  1.0
  N  N166  1  0.91291000  0.37024000  0.17286000  1.0
  N  N167  1  0.92276000  0.42531000  0.12872000  1.0
  N  N168  1  0.08709000  0.37024000  0.82714000  1.0
  N  N169  1  0.07724000  0.42531000  0.87128000  1.0
  N  N170  1  0.08709000  0.62976000  0.17286000  1.0
  N  N171  1  0.07724000  0.57469000  0.12872000  1.0
  N  N172  1  0.82714000  0.91291000  0.62976000  1.0
  N  N173  1  0.87128000  0.92276000  0.57469000  1.0
  N  N174  1  0.17286000  0.91291000  0.37024000  1.0
  N  N175  1  0.12872000  0.92276000  0.42531000  1.0
  N  N176  1  0.82714000  0.08709000  0.37024000  1.0
  N  N177  1  0.87128000  0.07724000  0.42531000  1.0
  N  N178  1  0.17286000  0.08709000  0.62976000  1.0
  N  N179  1  0.12872000  0.07724000  0.57469000  1.0
  N  N180  1  0.82714000  0.62976000  0.08709000  1.0
  N  N181  1  0.87128000  0.57469000  0.07724000  1.0
  N  N182  1  0.17286000  0.37024000  0.08709000  1.0
  N  N183  1  0.12872000  0.42531000  0.07724000  1.0
  N  N184  1  0.82714000  0.37024000  0.91291000  1.0
  N  N185  1  0.87128000  0.42531000  0.92276000  1.0
  N  N186  1  0.17286000  0.62976000  0.91291000  1.0
  N  N187  1  0.12872000  0.57469000  0.92276000  1.0
  N  N188  1  0.62976000  0.91291000  0.17286000  1.0
  N  N189  1  0.57469000  0.92276000  0.12872000  1.0
  N  N190  1  0.37024000  0.91291000  0.82714000  1.0
  N  N191  1  0.42531000  0.92276000  0.87128000  1.0
  N  N192  1  0.37024000  0.08709000  0.17286000  1.0
  N  N193  1  0.42531000  0.07724000  0.12872000  1.0
  N  N194  1  0.62976000  0.08709000  0.82714000  1.0
  N  N195  1  0.57469000  0.07724000  0.87128000  1.0
  N  N196  1  0.91291000  0.82714000  0.37024000  1.0
  N  N197  1  0.92276000  0.87128000  0.42531000  1.0
  N  N198  1  0.91291000  0.17286000  0.62976000  1.0
  N  N199  1  0.92276000  0.12872000  0.57469000  1.0
  N  N200  1  0.08709000  0.82714000  0.62976000  1.0
  N  N201  1  0.07724000  0.87128000  0.57469000  1.0
  N  N202  1  0.08709000  0.17286000  0.37024000  1.0
  N  N203  1  0.07724000  0.12872000  0.42531000  1.0
