# generated using pymatgen
data_AgH6C10NO2
_symmetry_space_group_name_H-M   'P 1'
_cell_length_a   8.11442000
_cell_length_b   8.45851000
_cell_length_c   12.21150000
_cell_angle_alpha   88.36060000
_cell_angle_beta   80.46470000
_cell_angle_gamma   83.86630000
_symmetry_Int_Tables_number   1
_chemical_formula_structural   AgH6C10NO2
_chemical_formula_sum   'Ag4 H24 C40 N4 O8'
_cell_volume   821.78451727
_cell_formula_units_Z   4
loop_
 _symmetry_equiv_pos_site_id
 _symmetry_equiv_pos_as_xyz
  1  'x, y, z'
loop_
 _atom_site_type_symbol
 _atom_site_label
 _atom_site_symmetry_multiplicity
 _atom_site_fract_x
 _atom_site_fract_y
 _atom_site_fract_z
 _atom_site_occupancy
  Ag  Ag0  1  0.78389000  0.62449000  0.52603000  1.0
  Ag  Ag1  1  0.21612000  0.37552000  0.47397000  1.0
  Ag  Ag2  1  0.61034000  0.45044000  0.39605000  1.0
  Ag  Ag3  1  0.38968000  0.54956000  0.60395000  1.0
  H  H4  1  0.78029000  0.98439000  0.52014000  1.0
  H  H5  1  0.21972000  0.01562000  0.47985000  1.0
  H  H6  1  0.98757000  0.22678000  0.76221000  1.0
  H  H7  1  0.01244000  0.77321000  0.23780000  1.0
  H  H8  1  0.01417000  0.57084000  0.71243000  1.0
  H  H9  1  0.98583000  0.42916000  0.28757000  1.0
  H  H10  1  0.16721000  0.54584000  0.87397000  1.0
  H  H11  1  0.83277000  0.45415000  0.12603000  1.0
  H  H12  1  0.21248000  0.78790000  0.97289000  1.0
  H  H13  1  0.78750000  0.21208000  0.02712000  1.0
  H  H14  1  0.11756000  0.05619000  0.90458000  1.0
  H  H15  1  0.88244000  0.94380000  0.09543000  1.0
  H  H16  1  0.62119000  0.09781000  0.41757000  1.0
  H  H17  1  0.37882000  0.90219000  0.58242000  1.0
  H  H18  1  0.44869000  0.86100000  0.15748000  1.0
  H  H19  1  0.55130000  0.13901000  0.84252000  1.0
  H  H20  1  0.41977000  0.51548000  0.21374000  1.0
  H  H21  1  0.58022000  0.48452000  0.78627000  1.0
  H  H22  1  0.28861000  0.54401000  0.04282000  1.0
  H  H23  1  0.71137000  0.45599000  0.95718000  1.0
  H  H24  1  0.24127000  0.30408000  0.94288000  1.0
  H  H25  1  0.75871000  0.69591000  0.05713000  1.0
  H  H26  1  0.31893000  0.03449000  0.01623000  1.0
  H  H27  1  0.68106000  0.96551000  0.98378000  1.0
  C  C28  1  0.84815000  0.98055000  0.59014000  1.0
  C  C29  1  0.15187000  0.01946000  0.40986000  1.0
  C  C30  1  0.87805000  0.12542000  0.63566000  1.0
  C  C31  1  0.12196000  0.87459000  0.36434000  1.0
  C  C32  1  0.96166000  0.11770000  0.72550000  1.0
  C  C33  1  0.03835000  0.88230000  0.27451000  1.0
  C  C34  1  0.01408000  0.96713000  0.76905000  1.0
  C  C35  1  0.98593000  0.03287000  0.23094000  1.0
  C  C36  1  0.98279000  0.82731000  0.71512000  1.0
  C  C37  1  0.01721000  0.17269000  0.28487000  1.0
  C  C38  1  0.03969000  0.67557000  0.75440000  1.0
  C  C39  1  0.96031000  0.32443000  0.24559000  1.0
  C  C40  1  0.12164000  0.66308000  0.84537000  1.0
  C  C41  1  0.87835000  0.33691000  0.15463000  1.0
  C  C42  1  0.14853000  0.80021000  0.90073000  1.0
  C  C43  1  0.85146000  0.19978000  0.09927000  1.0
  C  C44  1  0.09660000  0.94950000  0.86297000  1.0
  C  C45  1  0.90340000  0.05049000  0.13704000  1.0
  C  C46  1  0.81806000  0.27870000  0.58315000  1.0
  C  C47  1  0.18194000  0.72130000  0.41686000  1.0
  C  C48  1  0.56502000  0.10202000  0.34256000  1.0
  C  C49  1  0.43499000  0.89798000  0.65743000  1.0
  C  C50  1  0.54575000  0.95893000  0.29085000  1.0
  C  C51  1  0.45426000  0.04108000  0.70915000  1.0
  C  C52  1  0.46814000  0.96905000  0.19808000  1.0
  C  C53  1  0.53186000  0.03096000  0.80192000  1.0
  C  C54  1  0.41636000  0.12023000  0.15531000  1.0
  C  C55  1  0.58363000  0.87977000  0.84469000  1.0
  C  C56  1  0.44488000  0.25877000  0.21140000  1.0
  C  C57  1  0.55512000  0.74124000  0.78860000  1.0
  C  C58  1  0.39690000  0.41155000  0.16981000  1.0
  C  C59  1  0.60309000  0.58844000  0.83019000  1.0
  C  C60  1  0.32433000  0.42607000  0.07503000  1.0
  C  C61  1  0.67566000  0.57393000  0.92498000  1.0
  C  C62  1  0.29612000  0.29011000  0.01875000  1.0
  C  C63  1  0.70387000  0.70989000  0.98126000  1.0
  C  C64  1  0.33999000  0.14019000  0.05876000  1.0
  C  C65  1  0.65999000  0.85981000  0.94124000  1.0
  C  C66  1  0.60784000  0.80332000  0.33980000  1.0
  C  C67  1  0.39217000  0.19668000  0.66020000  1.0
  N  N68  1  0.89825000  0.83772000  0.62636000  1.0
  N  N69  1  0.10176000  0.16229000  0.37363000  1.0
  N  N70  1  0.51763000  0.24533000  0.30532000  1.0
  N  N71  1  0.48238000  0.75467000  0.69467000  1.0
  O  O72  1  0.71672000  0.26811000  0.51575000  1.0
  O  O73  1  0.28328000  0.73190000  0.48425000  1.0
  O  O74  1  0.87406000  0.40536000  0.60981000  1.0
  O  O75  1  0.12594000  0.59465000  0.39019000  1.0
  O  O76  1  0.59453000  0.67657000  0.29001000  1.0
  O  O77  1  0.40548000  0.32343000  0.70998000  1.0
  O  O78  1  0.67019000  0.81421000  0.42810000  1.0
  O  O79  1  0.32982000  0.18579000  0.57190000  1.0
