# generated using pymatgen
data_Zn2H11C17N3O7
_symmetry_space_group_name_H-M   'P 1'
_cell_length_a   8.95159000
_cell_length_b   9.18744000
_cell_length_c   11.35030000
_cell_angle_alpha   101.23500000
_cell_angle_beta   113.20700000
_cell_angle_gamma   99.33670000
_symmetry_Int_Tables_number   1
_chemical_formula_structural   Zn2H11C17N3O7
_chemical_formula_sum   'Zn4 H22 C34 N6 O14'
_cell_volume   811.38638353
_cell_formula_units_Z   2
loop_
 _symmetry_equiv_pos_site_id
 _symmetry_equiv_pos_as_xyz
  1  'x, y, z'
loop_
 _atom_site_type_symbol
 _atom_site_label
 _atom_site_symmetry_multiplicity
 _atom_site_fract_x
 _atom_site_fract_y
 _atom_site_fract_z
 _atom_site_occupancy
  Zn  Zn0  1  0.48722000  0.67034000  0.99445000  1.0
  Zn  Zn1  1  0.51278000  0.32966000  0.00555000  1.0
  Zn  Zn2  1  0.34754000  0.57110000  0.18504000  1.0
  Zn  Zn3  1  0.65246000  0.42890000  0.81496000  1.0
  H  H4  1  0.66760000  0.67438000  0.62125000  1.0
  H  H5  1  0.33240000  0.32562000  0.37875000  1.0
  H  H6  1  0.41878000  0.92059000  0.80686000  1.0
  H  H7  1  0.58122000  0.07941000  0.19314000  1.0
  H  H8  1  0.78342000  0.03836000  0.68565000  1.0
  H  H9  1  0.21658000  0.96164000  0.31435000  1.0
  H  H10  1  0.25035000  0.81736000  0.48454000  1.0
  H  H11  1  0.74965000  0.18265000  0.51546000  1.0
  H  H12  1  0.22100000  0.04193000  0.92102000  1.0
  H  H13  1  0.77900000  0.95807000  0.07898000  1.0
  H  H14  1  0.97892000  0.79222000  0.10956000  1.0
  H  H15  1  0.02108000  0.20778000  0.89044000  1.0
  H  H16  1  0.29797000  0.55068000  0.53736000  1.0
  H  H17  1  0.70203000  0.44932000  0.46265000  1.0
  H  H18  1  0.77667000  0.48272000  0.27776000  1.0
  H  H19  1  0.22333000  0.51728000  0.72224000  1.0
  H  H20  1  0.86251000  0.76366000  0.53236000  1.0
  H  H21  1  0.13749000  0.23634000  0.46764000  1.0
  H  H22  1  0.87284000  0.05933000  0.28344000  1.0
  H  H23  1  0.12716000  0.94067000  0.71656000  1.0
  H  H24  1  0.23115000  0.45954000  0.93219000  1.0
  H  H25  1  0.76885000  0.54046000  0.06781000  1.0
  C  C26  1  0.61278000  0.71187000  0.68761000  1.0
  C  C27  1  0.38722000  0.28813000  0.31239000  1.0
  C  C28  1  0.48145000  0.83676000  0.78084000  1.0
  C  C29  1  0.51855000  0.16324000  0.21916000  1.0
  C  C30  1  0.51857000  0.92080000  0.59272000  1.0
  C  C31  1  0.48143000  0.07920000  0.40728000  1.0
  C  C32  1  0.66072000  0.02101000  0.60331000  1.0
  C  C33  1  0.33928000  0.97899000  0.39669000  1.0
  C  C34  1  0.35825000  0.89838000  0.49107000  1.0
  C  C35  1  0.64175000  0.10162000  0.50893000  1.0
  C  C36  1  0.23457000  0.81039000  0.03816000  1.0
  C  C37  1  0.76543000  0.18961000  0.96184000  1.0
  C  C38  1  0.11218000  0.90734000  0.01706000  1.0
  C  C39  1  0.88782000  0.09266000  0.98294000  1.0
  C  C40  1  0.12314000  0.02326000  0.95461000  1.0
  C  C41  1  0.87686000  0.97674000  0.04539000  1.0
  C  C42  1  0.98794000  0.88415000  0.06261000  1.0
  C  C43  1  0.01206000  0.11585000  0.93739000  1.0
  C  C44  1  0.08577000  0.54266000  0.28334000  1.0
  C  C45  1  0.91423000  0.45734000  0.71666000  1.0
  C  C46  1  0.04207000  0.51999000  0.39559000  1.0
  C  C47  1  0.95793000  0.48001000  0.60441000  1.0
  C  C48  1  0.16749000  0.53009000  0.52194000  1.0
  C  C49  1  0.83251000  0.46991000  0.47806000  1.0
  C  C50  1  0.87401000  0.48929000  0.37505000  1.0
  C  C51  1  0.12599000  0.51072000  0.62495000  1.0
  C  C52  1  0.68661000  0.79585000  0.28521000  1.0
  C  C53  1  0.31339000  0.20415000  0.71479000  1.0
  C  C54  1  0.84906000  0.89997000  0.39619000  1.0
  C  C55  1  0.15094000  0.10003000  0.60381000  1.0
  C  C56  1  0.92261000  0.86774000  0.51883000  1.0
  C  C57  1  0.07739000  0.13226000  0.48118000  1.0
  C  C58  1  0.92841000  0.03324000  0.37840000  1.0
  C  C59  1  0.07159000  0.96676000  0.62160000  1.0
  N  N60  1  0.60056000  0.64745000  0.77847000  1.0
  N  N61  1  0.39944000  0.35255000  0.22153000  1.0
  N  N62  1  0.51894000  0.72626000  0.83732000  1.0
  N  N63  1  0.48106000  0.27374000  0.16268000  1.0
  N  N64  1  0.53931000  0.83125000  0.68586000  1.0
  N  N65  1  0.46069000  0.16875000  0.31414000  1.0
  O  O66  1  0.34788000  0.48300000  0.00398000  1.0
  O  O67  1  0.65212000  0.51700000  0.99602000  1.0
  O  O68  1  0.30784000  0.79797000  0.96168000  1.0
  O  O69  1  0.69216000  0.20203000  0.03832000  1.0
  O  O70  1  0.25805000  0.75116000  0.13430000  1.0
  O  O71  1  0.74195000  0.24884000  0.86570000  1.0
  O  O72  1  0.24211000  0.55197000  0.30944000  1.0
  O  O73  1  0.75790000  0.44803000  0.69056000  1.0
  O  O74  1  0.97551000  0.55166000  0.17695000  1.0
  O  O75  1  0.02449000  0.44834000  0.82305000  1.0
  O  O76  1  0.59946000  0.69347000  0.31046000  1.0
  O  O77  1  0.40054000  0.30653000  0.68954000  1.0
  O  O78  1  0.64798000  0.82049000  0.17090000  1.0
  O  O79  1  0.35202000  0.17951000  0.82910000  1.0
