# generated using pymatgen
data_VH18(C6O)5
_symmetry_space_group_name_H-M   'P 1'
_cell_length_a   6.99570000
_cell_length_b   9.71668000
_cell_length_c   16.47895626
_cell_angle_alpha   106.65539658
_cell_angle_beta   91.80894201
_cell_angle_gamma   90.04880000
_symmetry_Int_Tables_number   1
_chemical_formula_structural   VH18(C6O)5
_chemical_formula_sum   'V2 H36 C60 O10'
_cell_volume   1072.56940432
_cell_formula_units_Z   2
loop_
 _symmetry_equiv_pos_site_id
 _symmetry_equiv_pos_as_xyz
  1  'x, y, z'
loop_
 _atom_site_type_symbol
 _atom_site_label
 _atom_site_symmetry_multiplicity
 _atom_site_fract_x
 _atom_site_fract_y
 _atom_site_fract_z
 _atom_site_occupancy
  V  V0  1  0.45975000  0.01817000  0.99913000  1.0
  V  V1  1  0.95953000  0.98091000  0.99911000  1.0
  H  H2  1  0.84787000  0.42228000  0.05882000  1.0
  H  H3  1  0.64748000  0.36605000  0.93873000  1.0
  H  H4  1  0.14857000  0.57461000  0.94103000  1.0
  H  H5  1  0.34828000  0.63686000  0.06123000  1.0
  H  H6  1  0.77181000  0.82879000  0.32111000  1.0
  H  H7  1  0.73540000  0.51544000  0.67646000  1.0
  H  H8  1  0.23482000  0.16715000  0.68025000  1.0
  H  H9  1  0.27261000  0.49005000  0.32514000  1.0
  H  H10  1  0.86393000  0.67300000  0.05342000  1.0
  H  H11  1  0.62940000  0.62160000  0.94291000  1.0
  H  H12  1  0.13125000  0.32393000  0.94680000  1.0
  H  H13  1  0.36611000  0.38168000  0.05747000  1.0
  H  H14  1  0.82217000  0.87524000  0.18278000  1.0
  H  H15  1  0.67557000  0.69702000  0.81380000  1.0
  H  H16  1  0.17656000  0.12155000  0.81840000  1.0
  H  H17  1  0.32510000  0.30752000  0.18765000  1.0
  H  H18  1  0.72461000  0.65700000  0.40323000  1.0
  H  H19  1  0.78684000  0.26472000  0.59570000  1.0
  H  H20  1  0.28548000  0.33781000  0.59810000  1.0
  H  H21  1  0.22219000  0.74181000  0.40569000  1.0
  H  H22  1  0.59623000  0.03582000  0.35631000  1.0
  H  H23  1  0.90828000  0.68932000  0.64290000  1.0
  H  H24  1  0.40874000  0.95847000  0.64245000  1.0
  H  H25  1  0.09740000  0.31552000  0.35600000  1.0
  H  H26  1  0.59628000  0.23812000  0.48913000  1.0
  H  H27  1  0.90988000  0.76219000  0.50985000  1.0
  H  H28  1  0.41370000  0.75462000  0.51044000  1.0
  H  H29  1  0.09943000  0.24476000  0.48974000  1.0
  H  H30  1  0.67159000  0.07792000  0.22093000  1.0
  H  H31  1  0.83039000  0.86252000  0.77778000  1.0
  H  H32  1  0.32848000  0.91848000  0.77768000  1.0
  H  H33  1  0.17016000  0.13999000  0.22099000  1.0
  H  H34  1  0.67177000  0.48652000  0.48623000  1.0
  H  H35  1  0.83709000  0.01369000  0.51284000  1.0
  H  H36  1  0.33932000  0.50661000  0.51436000  1.0
  H  H37  1  0.17227000  0.99372000  0.48776000  1.0
  C  C38  1  0.79070000  0.47887000  0.19335000  1.0
  C  C39  1  0.71065000  0.29082000  0.80479000  1.0
  C  C40  1  0.21034000  0.51764000  0.80691000  1.0
  C  C41  1  0.28974000  0.71290000  0.19558000  1.0
  C  C42  1  0.77262000  0.59681000  0.26942000  1.0
  C  C43  1  0.73277000  0.33465000  0.72889000  1.0
  C  C44  1  0.23191000  0.39918000  0.73138000  1.0
  C  C45  1  0.27153000  0.67017000  0.27207000  1.0
  C  C46  1  0.82746000  0.51056000  0.11600000  1.0
  C  C47  1  0.67029000  0.39811000  0.88155000  1.0
  C  C48  1  0.17089000  0.48626000  0.88415000  1.0
  C  C49  1  0.32757000  0.60517000  0.11872000  1.0
  C  C50  1  0.78516000  0.74004000  0.26351000  1.0
  C  C51  1  0.71929000  0.48334000  0.73415000  1.0
  C  C52  1  0.21885000  0.25610000  0.73755000  1.0
  C  C53  1  0.28554000  0.52169000  0.26715000  1.0
  C  C54  1  0.83686000  0.64995000  0.11295000  1.0
  C  C55  1  0.65987000  0.54023000  0.88398000  1.0
  C  C56  1  0.16087000  0.34697000  0.88748000  1.0
  C  C57  1  0.33803000  0.46326000  0.11658000  1.0
  C  C58  1  0.81345000  0.76595000  0.18721000  1.0
  C  C59  1  0.68618000  0.58367000  0.80980000  1.0
  C  C60  1  0.18666000  0.23062000  0.81366000  1.0
  C  C61  1  0.31488000  0.42075000  0.19130000  1.0
  C  C62  1  0.71708000  0.30873000  0.27400000  1.0
  C  C63  1  0.78770000  0.04226000  0.72495000  1.0
  C  C64  1  0.28679000  0.68700000  0.72586000  1.0
  C  C65  1  0.21561000  0.96192000  0.27500000  1.0
  C  C66  1  0.71251000  0.42693000  0.35064000  1.0
  C  C67  1  0.79482000  0.08583000  0.64831000  1.0
  C  C68  1  0.29419000  0.56803000  0.64967000  1.0
  C  C69  1  0.21102000  0.91950000  0.35208000  1.0
  C  C70  1  0.76015000  0.33803000  0.19758000  1.0
  C  C71  1  0.74151000  0.14588000  0.80098000  1.0
  C  C72  1  0.24085000  0.65847000  0.80227000  1.0
  C  C73  1  0.25877000  0.85743000  0.19894000  1.0
  C  C74  1  0.73819000  0.56745000  0.34597000  1.0
  C  C75  1  0.77036000  0.23086000  0.65280000  1.0
  C  C76  1  0.26917000  0.42781000  0.65490000  1.0
  C  C77  1  0.23622000  0.77475000  0.34814000  1.0
  C  C78  1  0.63283000  0.14379000  0.35433000  1.0
  C  C79  1  0.87217000  0.79916000  0.64468000  1.0
  C  C80  1  0.37255000  0.85061000  0.64477000  1.0
  C  C81  1  0.13338000  0.20582000  0.35454000  1.0
  C  C82  1  0.63262000  0.25939000  0.43001000  1.0
  C  C83  1  0.87378000  0.84102000  0.56898000  1.0
  C  C84  1  0.37573000  0.73417000  0.56960000  1.0
  C  C85  1  0.13399000  0.16514000  0.43066000  1.0
  C  C86  1  0.67476000  0.16758000  0.27864000  1.0
  C  C87  1  0.82904000  0.89644000  0.72024000  1.0
  C  C88  1  0.32807000  0.82796000  0.72049000  1.0
  C  C89  1  0.17386000  0.10737000  0.27903000  1.0
  C  C90  1  0.67304000  0.39697000  0.42835000  1.0
  C  C91  1  0.83461000  0.98035000  0.57067000  1.0
  C  C92  1  0.33581000  0.59684000  0.57183000  1.0
  C  C93  1  0.17311000  0.02606000  0.42956000  1.0
  C  C94  1  0.75655000  0.21576000  0.11815000  1.0
  C  C95  1  0.73508000  0.10009000  0.87987000  1.0
  C  C96  1  0.23489000  0.78181000  0.88077000  1.0
  C  C97  1  0.25590000  0.90123000  0.11909000  1.0
  O  O98  1  0.59172000  0.17302000  0.08503000  1.0
  O  O99  1  0.89599000  0.07373000  0.91160000  1.0
  O  O100  1  0.39597000  0.83918000  0.91227000  1.0
  O  O101  1  0.09137000  0.91127000  0.08562000  1.0
  O  O102  1  0.91519000  0.15947000  0.08948000  1.0
  O  O103  1  0.57213000  0.08689000  0.90972000  1.0
  O  O104  1  0.07196000  0.82444000  0.91043000  1.0
  O  O105  1  0.41476000  0.92915000  0.09032000  1.0
  O  O106  1  0.24308000  0.08243000  0.99910000  1.0
  O  O107  1  0.74274000  0.91686000  0.99961000  1.0
