# generated using pymatgen
data_K2H52PtC44S4(NO3)4
_symmetry_space_group_name_H-M   'P 1'
_cell_length_a   8.98300000
_cell_length_b   12.51970000
_cell_length_c   12.94760000
_cell_angle_alpha   115.39500000
_cell_angle_beta   104.09400000
_cell_angle_gamma   96.10020000
_symmetry_Int_Tables_number   1
_chemical_formula_structural   K2H52PtC44S4(NO3)4
_chemical_formula_sum   'K2 H52 Pt1 C44 S4 N4 O12'
_cell_volume   1238.40408536
_cell_formula_units_Z   1
loop_
 _symmetry_equiv_pos_site_id
 _symmetry_equiv_pos_as_xyz
  1  'x, y, z'
loop_
 _atom_site_type_symbol
 _atom_site_label
 _atom_site_symmetry_multiplicity
 _atom_site_fract_x
 _atom_site_fract_y
 _atom_site_fract_z
 _atom_site_occupancy
  K  K0  1  0.50810000  0.32136000  0.88275000  1.0
  K  K1  1  0.49189000  0.67864000  0.11725000  1.0
  H  H2  1  0.91129000  0.05540000  0.66124000  1.0
  H  H3  1  0.08872000  0.94459000  0.33876000  1.0
  H  H4  1  0.64031000  0.02757000  0.53595000  1.0
  H  H5  1  0.35970000  0.97243000  0.46405000  1.0
  H  H6  1  0.45640000  0.07420000  0.39173000  1.0
  H  H7  1  0.54360000  0.92580000  0.60828000  1.0
  H  H8  1  0.55966000  0.20975000  0.31853000  1.0
  H  H9  1  0.44035000  0.79025000  0.68147000  1.0
  H  H10  1  0.85190000  0.28571000  0.37457000  1.0
  H  H11  1  0.14810000  0.71428000  0.62543000  1.0
  H  H12  1  0.12357000  0.29006000  0.47707000  1.0
  H  H13  1  0.87644000  0.70994000  0.52292000  1.0
  H  H14  1  0.35395000  0.40334000  0.60292000  1.0
  H  H15  1  0.64605000  0.59666000  0.39708000  1.0
  H  H16  1  0.38671000  0.27006000  0.49390000  1.0
  H  H17  1  0.61329000  0.72993000  0.50610000  1.0
  H  H18  1  0.63876000  0.29634000  0.65371000  1.0
  H  H19  1  0.36124000  0.70366000  0.34629000  1.0
  H  H20  1  0.63884000  0.41717000  0.61426000  1.0
  H  H21  1  0.36116000  0.58283000  0.38574000  1.0
  H  H22  1  0.83944000  0.53763000  0.80677000  1.0
  H  H23  1  0.16056000  0.46237000  0.19323000  1.0
  H  H24  1  0.81943000  0.42421000  0.85524000  1.0
  H  H25  1  0.18056000  0.57579000  0.14476000  1.0
  H  H26  1  0.91855000  0.64976000  0.02262000  1.0
  H  H27  1  0.08144000  0.35024000  0.97738000  1.0
  H  H28  1  0.72773000  0.66880000  0.96648000  1.0
  H  H29  1  0.27227000  0.33120000  0.03352000  1.0
  H  H30  1  0.94468000  0.61181000  0.18443000  1.0
  H  H31  1  0.05531000  0.38820000  0.81557000  1.0
  H  H32  1  0.90115000  0.46027000  0.06148000  1.0
  H  H33  1  0.09884000  0.53974000  0.93853000  1.0
  H  H34  1  0.87502000  0.47034000  0.25413000  1.0
  H  H35  1  0.12498000  0.52967000  0.74587000  1.0
  H  H36  1  0.71352000  0.54051000  0.23834000  1.0
  H  H37  1  0.28647000  0.45949000  0.76166000  1.0
  H  H38  1  0.52584000  0.35270000  0.20315000  1.0
  H  H39  1  0.47416000  0.64730000  0.79685000  1.0
  H  H40  1  0.70153000  0.29899000  0.23078000  1.0
  H  H41  1  0.29846000  0.70101000  0.76922000  1.0
  H  H42  1  0.60454000  0.12740000  0.02269000  1.0
  H  H43  1  0.39545000  0.87260000  0.97731000  1.0
  H  H44  1  0.47384000  0.12392000  0.10702000  1.0
  H  H45  1  0.52616000  0.87609000  0.89298000  1.0
  H  H46  1  0.26956000  0.00017000  0.91134000  1.0
  H  H47  1  0.73043000  0.99983000  0.08867000  1.0
  H  H48  1  0.39597000  0.01921000  0.82914000  1.0
  H  H49  1  0.60403000  0.98079000  0.17086000  1.0
  H  H50  1  0.10323000  0.97917000  0.72615000  1.0
  H  H51  1  0.89677000  0.02083000  0.27385000  1.0
  H  H52  1  0.10085000  0.12049000  0.84562000  1.0
  H  H53  1  0.89915000  0.87951000  0.15438000  1.0
  Pt  Pt54  1  0.00000000  0.00000000  0.00000000  1.0
  C  C55  1  0.11941000  0.15088000  0.65506000  1.0
  C  C56  1  0.88060000  0.84911000  0.34494000  1.0
  C  C57  1  0.95859000  0.10777000  0.62268000  1.0
  C  C58  1  0.04141000  0.89222000  0.37732000  1.0
  C  C59  1  0.85126000  0.13040000  0.53816000  1.0
  C  C60  1  0.14875000  0.86959000  0.46184000  1.0
  C  C61  1  0.68567000  0.08423000  0.50055000  1.0
  C  C62  1  0.31433000  0.91577000  0.49944000  1.0
  C  C63  1  0.58370000  0.11047000  0.42086000  1.0
  C  C64  1  0.41630000  0.88953000  0.57915000  1.0
  C  C65  1  0.64286000  0.18607000  0.37726000  1.0
  C  C66  1  0.35715000  0.81393000  0.62274000  1.0
  C  C67  1  0.80409000  0.22937000  0.40957000  1.0
  C  C68  1  0.19592000  0.77063000  0.59043000  1.0
  C  C69  1  0.91197000  0.20119000  0.48853000  1.0
  C  C70  1  0.08804000  0.79880000  0.51147000  1.0
  C  C71  1  0.07833000  0.24115000  0.51960000  1.0
  C  C72  1  0.92167000  0.75884000  0.48040000  1.0
  C  C73  1  0.18045000  0.21748000  0.60120000  1.0
  C  C74  1  0.81956000  0.78252000  0.39880000  1.0
  C  C75  1  0.40939000  0.32638000  0.59113000  1.0
  C  C76  1  0.59062000  0.67362000  0.40887000  1.0
  C  C77  1  0.58422000  0.37238000  0.65774000  1.0
  C  C78  1  0.41578000  0.62762000  0.34226000  1.0
  C  C79  1  0.77313000  0.50101000  0.85074000  1.0
  C  C80  1  0.22687000  0.49899000  0.14926000  1.0
  C  C81  1  0.79275000  0.60201000  0.97499000  1.0
  C  C82  1  0.20725000  0.39799000  0.02501000  1.0
  C  C83  1  0.84999000  0.52910000  0.11972000  1.0
  C  C84  1  0.15001000  0.47090000  0.88029000  1.0
  C  C85  1  0.77845000  0.47851000  0.18814000  1.0
  C  C86  1  0.22154000  0.52149000  0.81186000  1.0
  C  C87  1  0.60701000  0.30282000  0.16066000  1.0
  C  C88  1  0.39299000  0.69718000  0.83934000  1.0
  C  C89  1  0.52148000  0.17431000  0.06533000  1.0
  C  C90  1  0.47852000  0.82569000  0.93468000  1.0
  C  C91  1  0.31478000  0.06025000  0.87785000  1.0
  C  C92  1  0.68522000  0.93974000  0.12215000  1.0
  C  C93  1  0.17473000  0.07091000  0.79458000  1.0
  C  C94  1  0.82527000  0.92909000  0.20542000  1.0
  C  C95  1  0.77856000  0.11406000  0.84973000  1.0
  C  C96  1  0.22145000  0.88595000  0.15028000  1.0
  C  C97  1  0.14248000  0.27055000  0.23672000  1.0
  C  C98  1  0.85752000  0.72946000  0.76328000  1.0
  S  S99  1  0.79172000  0.97796000  0.83759000  1.0
  S  S100  1  0.20828000  0.02205000  0.16243000  1.0
  S  S101  1  0.98621000  0.20111000  0.11182000  1.0
  S  S102  1  0.01380000  0.79890000  0.88819000  1.0
  N  N103  1  0.76109000  0.20590000  0.84901000  1.0
  N  N104  1  0.23891000  0.79411000  0.15100000  1.0
  N  N105  1  0.25090000  0.32665000  0.32644000  1.0
  N  N106  1  0.74911000  0.67336000  0.67357000  1.0
  O  O107  1  0.23122000  0.13548000  0.73699000  1.0
  O  O108  1  0.76879000  0.86451000  0.26301000  1.0
  O  O109  1  0.34186000  0.25560000  0.63950000  1.0
  O  O110  1  0.65814000  0.74440000  0.36050000  1.0
  O  O111  1  0.60851000  0.45842000  0.78106000  1.0
  O  O112  1  0.39149000  0.54158000  0.21893000  1.0
  O  O113  1  0.73094000  0.55902000  0.04719000  1.0
  O  O114  1  0.26906000  0.44098000  0.95281000  1.0
  O  O115  1  0.67495000  0.36233000  0.10457000  1.0
  O  O116  1  0.32505000  0.63767000  0.89543000  1.0
  O  O117  1  0.39524000  0.17855000  0.97638000  1.0
  O  O118  1  0.60475000  0.82145000  0.02362000  1.0
