# generated using pymatgen
data_Zn2H12C18N6O17
_symmetry_space_group_name_H-M   'P 1'
_cell_length_a   7.47280000
_cell_length_b   9.00186000
_cell_length_c   15.97670000
_cell_angle_alpha   94.81430000
_cell_angle_beta   92.79430000
_cell_angle_gamma   97.58630000
_symmetry_Int_Tables_number   1
_chemical_formula_structural   Zn2H12C18N6O17
_chemical_formula_sum   'Zn2 H12 C18 N6 O17'
_cell_volume   1059.62338480
_cell_formula_units_Z   1
loop_
 _symmetry_equiv_pos_site_id
 _symmetry_equiv_pos_as_xyz
  1  'x, y, z'
loop_
 _atom_site_type_symbol
 _atom_site_label
 _atom_site_symmetry_multiplicity
 _atom_site_fract_x
 _atom_site_fract_y
 _atom_site_fract_z
 _atom_site_occupancy
  Zn  Zn0  1  0.31537000  0.45776000  0.49416000  1.0
  Zn  Zn1  1  0.68922000  0.55210000  0.51079000  1.0
  H  H2  1  0.27811000  0.31442000  0.91111000  1.0
  H  H3  1  0.35539000  0.29444000  0.04810000  1.0
  H  H4  1  0.76862000  0.54415000  0.07058000  1.0
  H  H5  1  0.67356000  0.35795000  0.08056000  1.0
  H  H6  1  0.59194000  0.30807000  0.93477000  1.0
  H  H7  1  0.75232000  0.46711000  0.92488000  1.0
  H  H8  1  0.59965000  0.75321000  0.09435000  1.0
  H  H9  1  0.67029000  0.70774000  0.95789000  1.0
  H  H10  1  0.70109000  0.02696000  0.49339000  1.0
  H  H11  1  0.06805000  0.65776000  0.51581000  1.0
  H  H12  1  0.93685000  0.35370000  0.49253000  1.0
  H  H13  1  0.22348000  0.69656000  0.05048000  1.0
  C  C14  1  0.54459000  0.21953000  0.48995000  1.0
  C  C15  1  0.50523000  0.51607000  0.34289000  1.0
  C  C16  1  0.45768000  0.79003000  0.51212000  1.0
  C  C17  1  0.49814000  0.50147000  0.66273000  1.0
  C  C18  1  0.32016000  0.40815000  0.04256000  1.0
  C  C19  1  0.65051000  0.46004000  0.05112000  1.0
  C  C20  1  0.62737000  0.42874000  0.95449000  1.0
  C  C21  1  0.49008000  0.50501000  0.75294000  1.0
  C  C22  1  0.47968000  0.52035000  0.08615000  1.0
  C  C23  1  0.29747000  0.42489000  0.94711000  1.0
  C  C24  1  0.47498000  0.51452000  0.91916000  1.0
  C  C25  1  0.52477000  0.67590000  0.96330000  1.0
  C  C26  1  0.48354000  0.68419000  0.05920000  1.0
  C  C27  1  0.47803000  0.51052000  0.82853000  1.0
  C  C28  1  0.48772000  0.52120000  0.17693000  1.0
  C  C29  1  0.50222000  0.51957000  0.25277000  1.0
  C  C30  1  0.56545000  0.05910000  0.49454000  1.0
  C  C31  1  0.42960000  0.95037000  0.50454000  1.0
  N  N32  1  0.96750000  0.56402000  0.51011000  1.0
  N  N33  1  0.03728000  0.44746000  0.49696000  1.0
  N  N34  1  0.13655000  0.39554000  0.08236000  1.0
  N  N35  1  0.12784000  0.49029000  0.92027000  1.0
  N  N36  1  0.23943000  0.97732000  0.50915000  1.0
  N  N37  1  0.44274000  0.79940000  0.92273000  1.0
  O  O38  1  0.38798000  0.25039000  0.47006000  1.0
  O  O39  1  0.68674000  0.31441000  0.50820000  1.0
  O  O40  1  0.35166000  0.50777000  0.37518000  1.0
  O  O41  1  0.65855000  0.52126000  0.38225000  1.0
  O  O42  1  0.32029000  0.69702000  0.52457000  1.0
  O  O43  1  0.61820000  0.76244000  0.50520000  1.0
  O  O44  1  0.35488000  0.44286000  0.61943000  1.0
  O  O45  1  0.64690000  0.55744000  0.63504000  1.0
  O  O46  1  0.11240000  0.48225000  0.14273000  1.0
  O  O47  1  0.02528000  0.29035000  0.04875000  1.0
  O  O48  1  0.06781000  0.58325000  0.97015000  1.0
  O  O49  1  0.05878000  0.44490000  0.85016000  1.0
  O  O50  1  0.14026000  0.93881000  0.44462000  1.0
  O  O51  1  0.19229000  0.02750000  0.57764000  1.0
  O  O52  1  0.33333333  0.75520000  0.07878000  1.0
  O  O53  1  0.30290000  0.76520000  0.87709000  1.0
  O  O54  1  0.52330000  0.92797000  0.94040000  1.0
