# generated using pymatgen
data_CuH19C12N2ClO3
_symmetry_space_group_name_H-M   'P 1'
_cell_length_a   7.15003000
_cell_length_b   9.26764000
_cell_length_c   9.78118000
_cell_angle_alpha   89.99970000
_cell_angle_beta   89.99880000
_cell_angle_gamma   86.10590000
_symmetry_Int_Tables_number   1
_chemical_formula_structural   CuH19C12N2ClO3
_chemical_formula_sum   'Cu2 H38 C24 N4 Cl2 O6'
_cell_volume   646.64279910
_cell_formula_units_Z   2
loop_
 _symmetry_equiv_pos_site_id
 _symmetry_equiv_pos_as_xyz
  1  'x, y, z'
loop_
 _atom_site_type_symbol
 _atom_site_label
 _atom_site_symmetry_multiplicity
 _atom_site_fract_x
 _atom_site_fract_y
 _atom_site_fract_z
 _atom_site_occupancy
  Cu  Cu0  1  0.82658000  0.49502000  0.87056000  1.0
  Cu  Cu1  1  0.17339000  0.50496000  0.37056000  1.0
  H  H2  1  0.84384000  0.58405000  0.15252000  1.0
  H  H3  1  0.15618000  0.41597000  0.65251000  1.0
  H  H4  1  0.50381000  0.52438000  0.77926000  1.0
  H  H5  1  0.49617000  0.47561000  0.27924000  1.0
  H  H6  1  0.54109000  0.97802000  0.95909000  1.0
  H  H7  1  0.45890000  0.02198000  0.45909000  1.0
  H  H8  1  0.55840000  0.87985000  0.11531000  1.0
  H  H9  1  0.44158000  0.12015000  0.61531000  1.0
  H  H10  1  0.24934000  0.80204000  0.09574000  1.0
  H  H11  1  0.75063000  0.19797000  0.59575000  1.0
  H  H12  1  0.13122000  0.71706000  0.86863000  1.0
  H  H13  1  0.86879000  0.28294000  0.36862000  1.0
  H  H14  1  0.37466000  0.90324000  0.70308000  1.0
  H  H15  1  0.62536000  0.09675000  0.20308000  1.0
  H  H16  1  0.31735000  0.72897000  0.66429000  1.0
  H  H17  1  0.68267000  0.27099000  0.16428000  1.0
  H  H18  1  0.96199000  0.04114000  0.07211000  1.0
  H  H19  1  0.03802000  0.95888000  0.57212000  1.0
  H  H20  1  0.93426000  0.85627000  0.03513000  1.0
  H  H21  1  0.06572000  0.14374000  0.53514000  1.0
  H  H22  1  0.86005000  0.99552000  0.91591000  1.0
  H  H23  1  0.13996000  0.00449000  0.41592000  1.0
  H  H24  1  0.15379000  0.18133000  0.91373000  1.0
  H  H25  1  0.84621000  0.81867000  0.41372000  1.0
  H  H26  1  0.14299000  0.09604000  0.75497000  1.0
  H  H27  1  0.85702000  0.90398000  0.25497000  1.0
  H  H28  1  0.36041000  0.09759000  0.84205000  1.0
  H  H29  1  0.63960000  0.90242000  0.34206000  1.0
  H  H30  1  0.85747000  0.79133000  0.72419000  1.0
  H  H31  1  0.14254000  0.20867000  0.22419000  1.0
  H  H32  1  0.69464000  0.94347000  0.74114000  1.0
  H  H33  1  0.30534000  0.05651000  0.24114000  1.0
  H  H34  1  0.68144000  0.83070000  0.59680000  1.0
  H  H35  1  0.31856000  0.16928000  0.09680000  1.0
  H  H36  1  0.57789000  0.62009000  0.53146000  1.0
  H  H37  1  0.42207000  0.37990000  0.03144000  1.0
  H  H38  1  0.61216000  0.43788000  0.58615000  1.0
  H  H39  1  0.38787000  0.56212000  0.08615000  1.0
  C  C40  1  0.86621000  0.53896000  0.57571000  1.0
  C  C41  1  0.13379000  0.46105000  0.07571000  1.0
  C  C42  1  0.57447000  0.73981000  0.78360000  1.0
  C  C43  1  0.42553000  0.26018000  0.28358000  1.0
  C  C44  1  0.60891000  0.75325000  0.93570000  1.0
  C  C45  1  0.39110000  0.24675000  0.43569000  1.0
  C  C46  1  0.50940000  0.87615000  0.00955000  1.0
  C  C47  1  0.49060000  0.12385000  0.50955000  1.0
  C  C48  1  0.30187000  0.85214000  0.00363000  1.0
  C  C49  1  0.69813000  0.14786000  0.50363000  1.0
  C  C50  1  0.22936000  0.80210000  0.86631000  1.0
  C  C51  1  0.77064000  0.19790000  0.36632000  1.0
  C  C52  1  0.36776000  0.79527000  0.74804000  1.0
  C  C53  1  0.63225000  0.20471000  0.24804000  1.0
  C  C54  1  0.16025000  0.94872000  0.92568000  1.0
  C  C55  1  0.83976000  0.05128000  0.42568000  1.0
  C  C56  1  0.96804000  0.95967000  0.99020000  1.0
  C  C57  1  0.03197000  0.04033000  0.49020000  1.0
  C  C58  1  0.20957000  0.08655000  0.85589000  1.0
  C  C59  1  0.79045000  0.91346000  0.35589000  1.0
  C  C60  1  0.71141000  0.83081000  0.70657000  1.0
  C  C61  1  0.28859000  0.16918000  0.20657000  1.0
  C  C62  1  0.65574000  0.54775000  0.60407000  1.0
  C  C63  1  0.34427000  0.45226000  0.10406000  1.0
  N  N64  1  0.61302000  0.58260000  0.74803000  1.0
  N  N65  1  0.38696000  0.41740000  0.24802000  1.0
  N  N66  1  0.71613000  0.65204000  0.99135000  1.0
  N  N67  1  0.28389000  0.34796000  0.49134000  1.0
  Cl  Cl68  1  0.70041000  0.27138000  0.86723000  1.0
  Cl  Cl69  1  0.29955000  0.72863000  0.36725000  1.0
  O  O70  1  0.91779000  0.54505000  0.45204000  1.0
  O  O71  1  0.08220000  0.45500000  0.95204000  1.0
  O  O72  1  0.97576000  0.51817000  0.67795000  1.0
  O  O73  1  0.02422000  0.48183000  0.17795000  1.0
  O  O74  1  0.73729000  0.65922000  0.13146000  1.0
  O  O75  1  0.26273000  0.34081000  0.63146000  1.0
