# generated using pymatgen
data_ZnP2H20C7Cl2O9
_symmetry_space_group_name_H-M   'P 1'
_cell_length_a   7.05491000
_cell_length_b   8.92823000
_cell_length_c   14.02670000
_cell_angle_alpha   77.17400000
_cell_angle_beta   87.79720000
_cell_angle_gamma   71.33360000
_symmetry_Int_Tables_number   1
_chemical_formula_structural   ZnP2H20C7Cl2O9
_chemical_formula_sum   'Zn2 P4 H40 C14 Cl4 O18'
_cell_volume   815.64347625
_cell_formula_units_Z   2
loop_
 _symmetry_equiv_pos_site_id
 _symmetry_equiv_pos_as_xyz
  1  'x, y, z'
loop_
 _atom_site_type_symbol
 _atom_site_label
 _atom_site_symmetry_multiplicity
 _atom_site_fract_x
 _atom_site_fract_y
 _atom_site_fract_z
 _atom_site_occupancy
  Zn  Zn0  1  0.78043000  0.20766000  0.07519000  1.0
  Zn  Zn1  1  0.21956000  0.79234000  0.92481000  1.0
  P  P2  1  0.36773000  0.29520000  0.19735000  1.0
  P  P3  1  0.63227000  0.70480000  0.80265000  1.0
  P  P4  1  0.23539000  0.99273000  0.18545000  1.0
  P  P5  1  0.76463000  0.00727000  0.81455000  1.0
  H  H6  1  0.63267000  0.95945000  0.09226000  1.0
  H  H7  1  0.36733000  0.04055000  0.90774000  1.0
  H  H8  1  0.79409000  0.94561000  0.00588000  1.0
  H  H9  1  0.20591000  0.05440000  0.99412000  1.0
  H  H10  1  0.96704000  0.41464000  0.09429000  1.0
  H  H11  1  0.03296000  0.58536000  0.90571000  1.0
  H  H12  1  0.79013000  0.50770000  0.01402000  1.0
  H  H13  1  0.20987000  0.49230000  0.98598000  1.0
  H  H14  1  0.60977000  0.24233000  0.90092000  1.0
  H  H15  1  0.39022000  0.75767000  0.09908000  1.0
  H  H16  1  0.69255000  0.39459000  0.89720000  1.0
  H  H17  1  0.30744000  0.60541000  0.10280000  1.0
  H  H18  1  0.62032000  0.25890000  0.34647000  1.0
  H  H19  1  0.37967000  0.74110000  0.65353000  1.0
  H  H20  1  0.66055000  0.51497000  0.24897000  1.0
  H  H21  1  0.33945000  0.48503000  0.75103000  1.0
  H  H22  1  0.71425000  0.49499000  0.37480000  1.0
  H  H23  1  0.28575000  0.50501000  0.62520000  1.0
  H  H24  1  0.48000000  0.62935000  0.31996000  1.0
  H  H25  1  0.52000000  0.37064000  0.68004000  1.0
  H  H26  1  0.29434000  0.48129000  0.44990000  1.0
  H  H27  1  0.70566000  0.51871000  0.55010000  1.0
  H  H28  1  0.52214000  0.33779000  0.50574000  1.0
  H  H29  1  0.47786000  0.66221000  0.49426000  1.0
  H  H30  1  0.33888000  0.27018000  0.46090000  1.0
  H  H31  1  0.66112000  0.72982000  0.53910000  1.0
  H  H32  1  0.86433000  0.98191000  0.26139000  1.0
  H  H33  1  0.13567000  0.01809000  0.73861000  1.0
  H  H34  1  0.09018000  0.72877000  0.44067000  1.0
  H  H35  1  0.90982000  0.27123000  0.55933000  1.0
  H  H36  1  0.83335000  0.84718000  0.43572000  1.0
  H  H37  1  0.16666000  0.15282000  0.56428000  1.0
  H  H38  1  0.02045000  0.94344000  0.42599000  1.0
  H  H39  1  0.97955000  0.05657000  0.57401000  1.0
  H  H40  1  0.93234000  0.73732000  0.18761000  1.0
  H  H41  1  0.06767000  0.26268000  0.81239000  1.0
  H  H42  1  0.76006000  0.74237000  0.28236000  1.0
  H  H43  1  0.23994000  0.25763000  0.71764000  1.0
  H  H44  1  0.01300000  0.60926000  0.30556000  1.0
  H  H45  1  0.98700000  0.39074000  0.69444000  1.0
  C  C46  1  0.26673000  0.13106000  0.26167000  1.0
  C  C47  1  0.73328000  0.86894000  0.73833000  1.0
  C  C48  1  0.50649000  0.37557000  0.34888000  1.0
  C  C49  1  0.49351000  0.62443000  0.65112000  1.0
  C  C50  1  0.59531000  0.51206000  0.32137000  1.0
  C  C51  1  0.40469000  0.48793000  0.67863000  1.0
  C  C52  1  0.40933000  0.36557000  0.44719000  1.0
  C  C53  1  0.59067000  0.63443000  0.55281000  1.0
  C  C54  1  0.97037000  0.86362000  0.29614000  1.0
  C  C55  1  0.02963000  0.13638000  0.70386000  1.0
  C  C56  1  0.98013000  0.84526000  0.40619000  1.0
  C  C57  1  0.01988000  0.15475000  0.59381000  1.0
  C  C58  1  0.91720000  0.72879000  0.26645000  1.0
  C  C59  1  0.08281000  0.27121000  0.73355000  1.0
  Cl  Cl60  1  0.02572000  0.22901000  0.30390000  1.0
  Cl  Cl61  1  0.97428000  0.77099000  0.69609000  1.0
  Cl  Cl62  1  0.43004000  0.00841000  0.36410000  1.0
  Cl  Cl63  1  0.56996000  0.99159000  0.63591000  1.0
  O  O64  1  0.75596000  0.98361000  0.06683000  1.0
  O  O65  1  0.24404000  0.01639000  0.93317000  1.0
  O  O66  1  0.82605000  0.42842000  0.07757000  1.0
  O  O67  1  0.17395000  0.57159000  0.92243000  1.0
  O  O68  1  0.64615000  0.31115000  0.93972000  1.0
  O  O69  1  0.35383000  0.68885000  0.06028000  1.0
  O  O70  1  0.58459000  0.21182000  0.17999000  1.0
  O  O71  1  0.41543000  0.78818000  0.82001000  1.0
  O  O72  1  0.22581000  0.39897000  0.11266000  1.0
  O  O73  1  0.77420000  0.60102000  0.88734000  1.0
  O  O74  1  0.34955000  0.40562000  0.27420000  1.0
  O  O75  1  0.65046000  0.59438000  0.72580000  1.0
  O  O76  1  0.07700000  0.09590000  0.10604000  1.0
  O  O77  1  0.92299000  0.90410000  0.89396000  1.0
  O  O78  1  0.43513000  0.90708000  0.14827000  1.0
  O  O79  1  0.56486000  0.09293000  0.85173000  1.0
  O  O80  1  0.17157000  0.85747000  0.25986000  1.0
  O  O81  1  0.82843000  0.14253000  0.74014000  1.0
