# generated using pymatgen
data_CdH22C26(SO4)2
_symmetry_space_group_name_H-M   'P 1'
_cell_length_a   7.72110000
_cell_length_b   18.17740000
_cell_length_c   21.39400000
_cell_angle_alpha   89.99800000
_cell_angle_beta   89.99960000
_cell_angle_gamma   89.99970000
_symmetry_Int_Tables_number   1
_chemical_formula_structural   CdH22C26(SO4)2
_chemical_formula_sum   'Cd4 H88 C104 S8 O32'
_cell_volume   3002.63769611
_cell_formula_units_Z   4
loop_
 _symmetry_equiv_pos_site_id
 _symmetry_equiv_pos_as_xyz
  1  'x, y, z'
loop_
 _atom_site_type_symbol
 _atom_site_label
 _atom_site_symmetry_multiplicity
 _atom_site_fract_x
 _atom_site_fract_y
 _atom_site_fract_z
 _atom_site_occupancy
  Cd  Cd0  1  0.47966000  0.78494000  0.95759000  1.0
  Cd  Cd1  1  0.02030000  0.21508000  0.45759000  1.0
  Cd  Cd2  1  0.52032000  0.28493000  0.54240000  1.0
  Cd  Cd3  1  0.97969000  0.71507000  0.04242000  1.0
  H  H4  1  0.33841000  0.60083000  0.58145000  1.0
  H  H5  1  0.74037000  0.77839000  0.54555000  1.0
  H  H6  1  0.56487000  0.48810000  0.42381000  1.0
  H  H7  1  0.48530000  0.51186000  0.83324000  1.0
  H  H8  1  0.61583000  0.28787000  0.78578000  1.0
  H  H9  1  0.04764000  0.58351000  0.53641000  1.0
  H  H10  1  0.51307000  0.38030000  0.86369000  1.0
  H  H11  1  0.27245000  0.46950000  0.37895000  1.0
  H  H12  1  0.72651000  0.61336000  0.81889000  1.0
  H  H13  1  0.71383000  0.69200000  0.76897000  1.0
  H  H14  1  0.68817000  0.32581000  0.67852000  1.0
  H  H15  1  0.23092000  0.67485000  0.66834000  1.0
  H  H16  1  0.04244000  0.81336000  0.51932000  1.0
  H  H17  1  0.93085000  0.63776000  0.69316000  1.0
  H  H18  1  0.93730000  0.45591000  0.55124000  1.0
  H  H19  1  0.96873000  0.39987000  0.61903000  1.0
  H  H20  1  0.28916000  0.76167000  0.58009000  1.0
  H  H21  1  0.01067000  0.51548000  0.43620000  1.0
  H  H22  1  0.76052000  0.87317000  0.96053000  1.0
  H  H23  1  0.60198000  0.92839000  0.96391000  1.0
  H  H24  1  0.57164000  0.81676000  0.08425000  1.0
  H  H25  1  0.36669000  0.80952000  0.08532000  1.0
  H  H26  1  0.16160000  0.39915000  0.08143000  1.0
  H  H27  1  0.75963000  0.22161000  0.04554000  1.0
  H  H28  1  0.93520000  0.51191000  0.92379000  1.0
  H  H29  1  0.01472000  0.48812000  0.33323000  1.0
  H  H30  1  0.88408000  0.71211000  0.28577000  1.0
  H  H31  1  0.45241000  0.41647000  0.03641000  1.0
  H  H32  1  0.98689000  0.61968000  0.36368000  1.0
  H  H33  1  0.22766000  0.53052000  0.87896000  1.0
  H  H34  1  0.77351000  0.38666000  0.31887000  1.0
  H  H35  1  0.78615000  0.30801000  0.26896000  1.0
  H  H36  1  0.81177000  0.67418000  0.17851000  1.0
  H  H37  1  0.26910000  0.32514000  0.16834000  1.0
  H  H38  1  0.45756000  0.18664000  0.01933000  1.0
  H  H39  1  0.56917000  0.36224000  0.19315000  1.0
  H  H40  1  0.56266000  0.54410000  0.05122000  1.0
  H  H41  1  0.53129000  0.60013000  0.11902000  1.0
  H  H42  1  0.21085000  0.23832000  0.08010000  1.0
  H  H43  1  0.48941000  0.48452000  0.93621000  1.0
  H  H44  1  0.73946000  0.12684000  0.46053000  1.0
  H  H45  1  0.89802000  0.07163000  0.46392000  1.0
  H  H46  1  0.92836000  0.18325000  0.58426000  1.0
  H  H47  1  0.13331000  0.19049000  0.58532000  1.0
  H  H48  1  0.66161000  0.10082000  0.91856000  1.0
  H  H49  1  0.25963000  0.27838000  0.95445000  1.0
  H  H50  1  0.43517000  0.98810000  0.07621000  1.0
  H  H51  1  0.51470000  0.01188000  0.66676000  1.0
  H  H52  1  0.38408000  0.78788000  0.71423000  1.0
  H  H53  1  0.95241000  0.08351000  0.96358000  1.0
  H  H54  1  0.48685000  0.88031000  0.63632000  1.0
  H  H55  1  0.72762000  0.96950000  0.12105000  1.0
  H  H56  1  0.27353000  0.11334000  0.68112000  1.0
  H  H57  1  0.28617000  0.19199000  0.73103000  1.0
  H  H58  1  0.31180000  0.82582000  0.82150000  1.0
  H  H59  1  0.76909000  0.17485000  0.83166000  1.0
  H  H60  1  0.95756000  0.31336000  0.98066000  1.0
  H  H61  1  0.06916000  0.13776000  0.80685000  1.0
  H  H62  1  0.06267000  0.95591000  0.94876000  1.0
  H  H63  1  0.03128000  0.89988000  0.88097000  1.0
  H  H64  1  0.71084000  0.26167000  0.91990000  1.0
  H  H65  1  0.98939000  0.01548000  0.06380000  1.0
  H  H66  1  0.23947000  0.37317000  0.53947000  1.0
  H  H67  1  0.39802000  0.42838000  0.53609000  1.0
  H  H68  1  0.42835000  0.31676000  0.41574000  1.0
  H  H69  1  0.63330000  0.30951000  0.41467000  1.0
  H  H70  1  0.83836000  0.89916000  0.41856000  1.0
  H  H71  1  0.24038000  0.72162000  0.45445000  1.0
  H  H72  1  0.06480000  0.01191000  0.57620000  1.0
  H  H73  1  0.98529000  0.98813000  0.16676000  1.0
  H  H74  1  0.11584000  0.21213000  0.21423000  1.0
  H  H75  1  0.54757000  0.91648000  0.46359000  1.0
  H  H76  1  0.01308000  0.11970000  0.13632000  1.0
  H  H77  1  0.77235000  0.03051000  0.62104000  1.0
  H  H78  1  0.22649000  0.88665000  0.18112000  1.0
  H  H79  1  0.21385000  0.80801000  0.23103000  1.0
  H  H80  1  0.18818000  0.17419000  0.32149000  1.0
  H  H81  1  0.73092000  0.82514000  0.33165000  1.0
  H  H82  1  0.54244000  0.68664000  0.48067000  1.0
  H  H83  1  0.43085000  0.86224000  0.30684000  1.0
  H  H84  1  0.43729000  0.04409000  0.44877000  1.0
  H  H85  1  0.46871000  0.10012000  0.38098000  1.0
  H  H86  1  0.78917000  0.73832000  0.41990000  1.0
  H  H87  1  0.51058000  0.98452000  0.56379000  1.0
  H  H88  1  0.26053000  0.62684000  0.03947000  1.0
  H  H89  1  0.10200000  0.57162000  0.03608000  1.0
  H  H90  1  0.07163000  0.68324000  0.91575000  1.0
  H  H91  1  0.86669000  0.69050000  0.91468000  1.0
  C  C92  1  0.32421000  0.57226000  0.53710000  1.0
  C  C93  1  0.66948000  0.46487000  0.63242000  1.0
  C  C94  1  0.65398000  0.53797000  0.61459000  1.0
  C  C95  1  0.63274000  0.44145000  0.69447000  1.0
  C  C96  1  0.60781000  0.59221000  0.66042000  1.0
  C  C97  1  0.84805000  0.75584000  0.57244000  1.0
  C  C98  1  0.45162000  0.50998000  0.44785000  1.0
  C  C99  1  0.53218000  0.47109000  0.80011000  1.0
  C  C100  1  0.47089000  0.54603000  0.50542000  1.0
  C  C101  1  0.81631000  0.70604000  0.62117000  1.0
  C  C102  1  0.60593000  0.34557000  0.77262000  1.0
  C  C103  1  0.56396000  0.57016000  0.72065000  1.0
  C  C104  1  0.57472000  0.49476000  0.73893000  1.0
  C  C105  1  0.16013000  0.56192000  0.51165000  1.0
  C  C106  1  0.54779000  0.39793000  0.81660000  1.0
  C  C107  1  0.28619000  0.49940000  0.42286000  1.0
  C  C108  1  0.56453000  0.70044000  0.85276000  1.0
  C  C109  1  0.63774000  0.65504000  0.79935000  1.0
  C  C110  1  0.64742000  0.36676000  0.71257000  1.0
  C  C111  1  0.12433000  0.69717000  0.64069000  1.0
  C  C112  1  0.01804000  0.77563000  0.55794000  1.0
  C  C113  1  0.95513000  0.67650000  0.65523000  1.0
  C  C114  1  0.89247000  0.40618000  0.57567000  1.0
  C  C115  1  0.15649000  0.74651000  0.59191000  1.0
  C  C116  1  0.14033000  0.52493000  0.45479000  1.0
  C  C117  1  0.92495000  0.33970000  0.53496000  1.0
  C  C118  1  0.17585000  0.42773000  0.03709000  1.0
  C  C119  1  0.83054000  0.53512000  0.13240000  1.0
  C  C120  1  0.84606000  0.46202000  0.11457000  1.0
  C  C121  1  0.86724000  0.55854000  0.19445000  1.0
  C  C122  1  0.89222000  0.40778000  0.16041000  1.0
  C  C123  1  0.65195000  0.24416000  0.07244000  1.0
  C  C124  1  0.04845000  0.49004000  0.94784000  1.0
  C  C125  1  0.96781000  0.52889000  0.30010000  1.0
  C  C126  1  0.02916000  0.45397000  0.00540000  1.0
  C  C127  1  0.68370000  0.29395000  0.12117000  1.0
  C  C128  1  0.89400000  0.65441000  0.27261000  1.0
  C  C129  1  0.93605000  0.42983000  0.22063000  1.0
  C  C130  1  0.92528000  0.50522000  0.23891000  1.0
  C  C131  1  0.33993000  0.43807000  0.01164000  1.0
  C  C132  1  0.95217000  0.60204000  0.31659000  1.0
  C  C133  1  0.21389000  0.50061000  0.92286000  1.0
  C  C134  1  0.93546000  0.29956000  0.35275000  1.0
  C  C135  1  0.86226000  0.34496000  0.29935000  1.0
  C  C136  1  0.85252000  0.63322000  0.21255000  1.0
  C  C137  1  0.37568000  0.30282000  0.14068000  1.0
  C  C138  1  0.48196000  0.22437000  0.05794000  1.0
  C  C139  1  0.54487000  0.32350000  0.15522000  1.0
  C  C140  1  0.60754000  0.59382000  0.07566000  1.0
  C  C141  1  0.34353000  0.25348000  0.09191000  1.0
  C  C142  1  0.35975000  0.47507000  0.95479000  1.0
  C  C143  1  0.57504000  0.66031000  0.03497000  1.0
  C  C144  1  0.67583000  0.07226000  0.96291000  1.0
  C  C145  1  0.33054000  0.96488000  0.86760000  1.0
  C  C146  1  0.34604000  0.03798000  0.88543000  1.0
  C  C147  1  0.36724000  0.94146000  0.80554000  1.0
  C  C148  1  0.39221000  0.09222000  0.83959000  1.0
  C  C149  1  0.15195000  0.25583000  0.92756000  1.0
  C  C150  1  0.54842000  0.00997000  0.05216000  1.0
  C  C151  1  0.46780000  0.97111000  0.69990000  1.0
  C  C152  1  0.52914000  0.04603000  0.99459000  1.0
  C  C153  1  0.18370000  0.20604000  0.87883000  1.0
  C  C154  1  0.39399000  0.84558000  0.72739000  1.0
  C  C155  1  0.43606000  0.07016000  0.77937000  1.0
  C  C156  1  0.42529000  0.99477000  0.76108000  1.0
  C  C157  1  0.83991000  0.06192000  0.98836000  1.0
  C  C158  1  0.45215000  0.89795000  0.68341000  1.0
  C  C159  1  0.71387000  0.99940000  0.07714000  1.0
  C  C160  1  0.43552000  0.20043000  0.64725000  1.0
  C  C161  1  0.36228000  0.15503000  0.70065000  1.0
  C  C162  1  0.35253000  0.86678000  0.78745000  1.0
  C  C163  1  0.87567000  0.19717000  0.85931000  1.0
  C  C164  1  0.98196000  0.27562000  0.94205000  1.0
  C  C165  1  0.04488000  0.17649000  0.84477000  1.0
  C  C166  1  0.10753000  0.90618000  0.92434000  1.0
  C  C167  1  0.84351000  0.24651000  0.90808000  1.0
  C  C168  1  0.85972000  0.02493000  0.04521000  1.0
  C  C169  1  0.07505000  0.83970000  0.96504000  1.0
  C  C170  1  0.82414000  0.92774000  0.46291000  1.0
  C  C171  1  0.16946000  0.03513000  0.36759000  1.0
  C  C172  1  0.15396000  0.96203000  0.38542000  1.0
  C  C173  1  0.13276000  0.05855000  0.30554000  1.0
  C  C174  1  0.10780000  0.90779000  0.33959000  1.0
  C  C175  1  0.34806000  0.74417000  0.42756000  1.0
  C  C176  1  0.95155000  0.99004000  0.55215000  1.0
  C  C177  1  0.03218000  0.02891000  0.19989000  1.0
  C  C178  1  0.97083000  0.95397000  0.49459000  1.0
  C  C179  1  0.31631000  0.79395000  0.37883000  1.0
  C  C180  1  0.10594000  0.15443000  0.22739000  1.0
  C  C181  1  0.06397000  0.92985000  0.27936000  1.0
  C  C182  1  0.07473000  0.00523000  0.26107000  1.0
  C  C183  1  0.66006000  0.93808000  0.48836000  1.0
  C  C184  1  0.04779000  0.10206000  0.18340000  1.0
  C  C185  1  0.78610000  0.00060000  0.57714000  1.0
  C  C186  1  0.06450000  0.79957000  0.14726000  1.0
  C  C187  1  0.13774000  0.84497000  0.20065000  1.0
  C  C188  1  0.14743000  0.13323000  0.28744000  1.0
  C  C189  1  0.62433000  0.80282000  0.35930000  1.0
  C  C190  1  0.51804000  0.72437000  0.44205000  1.0
  C  C191  1  0.45514000  0.82351000  0.34476000  1.0
  C  C192  1  0.39246000  0.09382000  0.42434000  1.0
  C  C193  1  0.65649000  0.75349000  0.40808000  1.0
  C  C194  1  0.64025000  0.97507000  0.54521000  1.0
  C  C195  1  0.42493000  0.16030000  0.46503000  1.0
  S  S196  1  0.68337000  0.56151000  0.53469000  1.0
  S  S197  1  0.59788000  0.68657000  0.64065000  1.0
  S  S198  1  0.81667000  0.43848000  0.03467000  1.0
  S  S199  1  0.90215000  0.31341000  0.14064000  1.0
  S  S200  1  0.31666000  0.06152000  0.96533000  1.0
  S  S201  1  0.40214000  0.18658000  0.85935000  1.0
  S  S202  1  0.18332000  0.93849000  0.46532000  1.0
  S  S203  1  0.09787000  0.81342000  0.35935000  1.0
  O  O204  1  0.50289000  0.62015000  0.76395000  1.0
  O  O205  1  0.71148000  0.41084000  0.58958000  1.0
  O  O206  1  0.40481000  0.70998000  0.86035000  1.0
  O  O207  1  0.68069000  0.72889000  0.88860000  1.0
  O  O208  1  0.07216000  0.33494000  0.50891000  1.0
  O  O209  1  0.81100000  0.28997000  0.52855000  1.0
  O  O210  1  0.64748000  0.88681000  0.94000000  1.0
  O  O211  1  0.46638000  0.83423000  0.06382000  1.0
  O  O212  1  0.99711000  0.37983000  0.26393000  1.0
  O  O213  1  0.78853000  0.58915000  0.08957000  1.0
  O  O214  1  0.09516000  0.29002000  0.36034000  1.0
  O  O215  1  0.81928000  0.27111000  0.38859000  1.0
  O  O216  1  0.42786000  0.66508000  0.00891000  1.0
  O  O217  1  0.68901000  0.71005000  0.02857000  1.0
  O  O218  1  0.85252000  0.11320000  0.44001000  1.0
  O  O219  1  0.03361000  0.16578000  0.56383000  1.0
  O  O220  1  0.49712000  0.12016000  0.73606000  1.0
  O  O221  1  0.28852000  0.91084000  0.91043000  1.0
  O  O222  1  0.59519000  0.20998000  0.63965000  1.0
  O  O223  1  0.31932000  0.22888000  0.61140000  1.0
  O  O224  1  0.92780000  0.83494000  0.99110000  1.0
  O  O225  1  0.18896000  0.78997000  0.97145000  1.0
  O  O226  1  0.35253000  0.38681000  0.55999000  1.0
  O  O227  1  0.53361000  0.33422000  0.43617000  1.0
  O  O228  1  0.00290000  0.87985000  0.23606000  1.0
  O  O229  1  0.21148000  0.08916000  0.41043000  1.0
  O  O230  1  0.90483000  0.79002000  0.13966000  1.0
  O  O231  1  0.18070000  0.77111000  0.11141000  1.0
  O  O232  1  0.57216000  0.16507000  0.49110000  1.0
  O  O233  1  0.31100000  0.21003000  0.47143000  1.0
  O  O234  1  0.14748000  0.61319000  0.05999000  1.0
  O  O235  1  0.96637000  0.66578000  0.93618000  1.0
