# generated using pymatgen
data_Sm2H18C21N3O11
_symmetry_space_group_name_H-M   'P 1'
_cell_length_a   7.60254000
_cell_length_b   11.53080000
_cell_length_c   14.14730000
_cell_angle_alpha   103.35800000
_cell_angle_beta   91.50400000
_cell_angle_gamma   104.59600000
_symmetry_Int_Tables_number   1
_chemical_formula_structural   Sm2H18C21N3O11
_chemical_formula_sum   'Sm4 H36 C42 N6 O22'
_cell_volume   1162.99609817
_cell_formula_units_Z   2
loop_
 _symmetry_equiv_pos_site_id
 _symmetry_equiv_pos_as_xyz
  1  'x, y, z'
loop_
 _atom_site_type_symbol
 _atom_site_label
 _atom_site_symmetry_multiplicity
 _atom_site_fract_x
 _atom_site_fract_y
 _atom_site_fract_z
 _atom_site_occupancy
  Sm  Sm0  1  0.31971000  0.00521000  0.87610000  1.0
  Sm  Sm1  1  0.68030000  0.99478000  0.12390000  1.0
  Sm  Sm2  1  0.87093000  0.11939000  0.92537000  1.0
  Sm  Sm3  1  0.12908000  0.88061000  0.07463000  1.0
  H  H4  1  0.16120000  0.62669000  0.62782000  1.0
  H  H5  1  0.83878000  0.37331000  0.37217000  1.0
  H  H6  1  0.02889000  0.39864000  0.54770000  1.0
  H  H7  1  0.97109000  0.60136000  0.45229000  1.0
  H  H8  1  0.86173000  0.26316000  0.65139000  1.0
  H  H9  1  0.13827000  0.73684000  0.34861000  1.0
  H  H10  1  0.92854000  0.56087000  0.89045000  1.0
  H  H11  1  0.07144000  0.43913000  0.10955000  1.0
  H  H12  1  0.40213000  0.91341000  0.54459000  1.0
  H  H13  1  0.59789000  0.08661000  0.45541000  1.0
  H  H14  1  0.45198000  0.75668000  0.39791000  1.0
  H  H15  1  0.54802000  0.24335000  0.60209000  1.0
  H  H16  1  0.65969000  0.62592000  0.42068000  1.0
  H  H17  1  0.34027000  0.37408000  0.57931000  1.0
  H  H18  1  0.77474000  0.80014000  0.71480000  1.0
  H  H19  1  0.22525000  0.19986000  0.28519000  1.0
  H  H20  1  0.48429000  0.34292000  0.74612000  1.0
  H  H21  1  0.51570000  0.65708000  0.25388000  1.0
  H  H22  1  0.62411000  0.55012000  0.71016000  1.0
  H  H23  1  0.37586000  0.44988000  0.28984000  1.0
  H  H24  1  0.25636000  0.53569000  0.98955000  1.0
  H  H25  1  0.74366000  0.46431000  0.01046000  1.0
  H  H26  1  0.21658000  0.05060000  0.64139000  1.0
  H  H27  1  0.78343000  0.94938000  0.35862000  1.0
  H  H28  1  0.05391000  0.90924000  0.62371000  1.0
  H  H29  1  0.94610000  0.09075000  0.37631000  1.0
  H  H30  1  0.82761000  0.01173000  0.55123000  1.0
  H  H31  1  0.17242000  0.98826000  0.44877000  1.0
  H  H32  1  0.01916000  0.13548000  0.55201000  1.0
  H  H33  1  0.98087000  0.86450000  0.44799000  1.0
  H  H34  1  0.58604000  0.74126000  0.82703000  1.0
  H  H35  1  0.41393000  0.25874000  0.17297000  1.0
  H  H36  1  0.59581000  0.26171000  0.88745000  1.0
  H  H37  1  0.40420000  0.73828000  0.11255000  1.0
  H  H38  1  0.78521000  0.31609000  0.84225000  1.0
  H  H39  1  0.21480000  0.68392000  0.15775000  1.0
  C  C40  1  0.13787000  0.74223000  0.81211000  1.0
  C  C41  1  0.86212000  0.25778000  0.18788000  1.0
  C  C42  1  0.05504000  0.60910000  0.76456000  1.0
  C  C43  1  0.94494000  0.39090000  0.23543000  1.0
  C  C44  1  0.08210000  0.56313000  0.66693000  1.0
  C  C45  1  0.91788000  0.43688000  0.33306000  1.0
  C  C46  1  0.00944000  0.43805000  0.62336000  1.0
  C  C47  1  0.99055000  0.56195000  0.37663000  1.0
  C  C48  1  0.91439000  0.36283000  0.67982000  1.0
  C  C49  1  0.08561000  0.63717000  0.32017000  1.0
  C  C50  1  0.95453000  0.52741000  0.81473000  1.0
  C  C51  1  0.04546000  0.47260000  0.18527000  1.0
  C  C52  1  0.55616000  0.95884000  0.72816000  1.0
  C  C53  1  0.44386000  0.04117000  0.27184000  1.0
  C  C54  1  0.49291000  0.85515000  0.54995000  1.0
  C  C55  1  0.50708000  0.14486000  0.45005000  1.0
  C  C56  1  0.51967000  0.76801000  0.46953000  1.0
  C  C57  1  0.48032000  0.23201000  0.53047000  1.0
  C  C58  1  0.63626000  0.69550000  0.48245000  1.0
  C  C59  1  0.36373000  0.30450000  0.51755000  1.0
  C  C60  1  0.69979000  0.79106000  0.64540000  1.0
  C  C61  1  0.30019000  0.20894000  0.35460000  1.0
  C  C62  1  0.27551000  0.30389000  0.89544000  1.0
  C  C63  1  0.72451000  0.69611000  0.10457000  1.0
  C  C64  1  0.36065000  0.42368000  0.87088000  1.0
  C  C65  1  0.63936000  0.57632000  0.12912000  1.0
  C  C66  1  0.46545000  0.42842000  0.79139000  1.0
  C  C67  1  0.53454000  0.57158000  0.20861000  1.0
  C  C68  1  0.54417000  0.54273000  0.77244000  1.0
  C  C69  1  0.45581000  0.45727000  0.22756000  1.0
  C  C70  1  0.58537000  0.86803000  0.64020000  1.0
  C  C71  1  0.41463000  0.13198000  0.35980000  1.0
  C  C72  1  0.33994000  0.53534000  0.92797000  1.0
  C  C73  1  0.66006000  0.46465000  0.07203000  1.0
  C  C74  1  0.00076000  0.05408000  0.73092000  1.0
  C  C75  1  0.99926000  0.94592000  0.26909000  1.0
  C  C76  1  0.06804000  0.00887000  0.63422000  1.0
  C  C77  1  0.93197000  0.99112000  0.36579000  1.0
  C  C78  1  0.97640000  0.03577000  0.54809000  1.0
  C  C79  1  0.02363000  0.96421000  0.45191000  1.0
  C  C80  1  0.52242000  0.64909000  0.83675000  1.0
  C  C81  1  0.47756000  0.35091000  0.16325000  1.0
  N  N82  1  0.88672000  0.40654000  0.77328000  1.0
  N  N83  1  0.11327000  0.59347000  0.22671000  1.0
  N  N84  1  0.72580000  0.70592000  0.56846000  1.0
  N  N85  1  0.27417000  0.29408000  0.43154000  1.0
  N  N86  1  0.42239000  0.64590000  0.91333000  1.0
  N  N87  1  0.57760000  0.35409000  0.08667000  1.0
  O  O88  1  0.23862000  0.80603000  0.76198000  1.0
  O  O89  1  0.76138000  0.19398000  0.23801000  1.0
  O  O90  1  0.62569000  0.96007000  0.81275000  1.0
  O  O91  1  0.37432000  0.03992000  0.18725000  1.0
  O  O92  1  0.45177000  0.02657000  0.71976000  1.0
  O  O93  1  0.54827000  0.97346000  0.28025000  1.0
  O  O94  1  0.35972000  0.21910000  0.87464000  1.0
  O  O95  1  0.64030000  0.78090000  0.12537000  1.0
  O  O96  1  0.03752000  0.00838000  0.80292000  1.0
  O  O97  1  0.96249000  0.99162000  0.19709000  1.0
  O  O98  1  0.09495000  0.04231000  0.00437000  1.0
  O  O99  1  0.90506000  0.95769000  0.99563000  1.0
  O  O100  1  0.44701000  0.93293000  0.99426000  1.0
  O  O101  1  0.55299000  0.06707000  0.00575000  1.0
  O  O102  1  0.10676000  0.78983000  0.89899000  1.0
  O  O103  1  0.89324000  0.21017000  0.10101000  1.0
  O  O104  1  0.72850000  0.26845000  0.89149000  1.0
  O  O105  1  0.27152000  0.73156000  0.10851000  1.0
  O  O106  1  0.12604000  0.29215000  0.93436000  1.0
  O  O107  1  0.87397000  0.70784000  0.06565000  1.0
  O  O108  1  0.90975000  0.13253000  0.74479000  1.0
  O  O109  1  0.09027000  0.86748000  0.25521000  1.0
