# generated using pymatgen
data_Cu3H10C13I3N4
_symmetry_space_group_name_H-M   'P 1'
_cell_length_a   9.31345000
_cell_length_b   9.52237000
_cell_length_c   10.70070000
_cell_angle_alpha   99.84920000
_cell_angle_beta   108.57000000
_cell_angle_gamma   97.07060000
_symmetry_Int_Tables_number   1
_chemical_formula_structural   Cu3H10C13I3N4
_chemical_formula_sum   'Cu6 H20 C26 I6 N8'
_cell_volume   870.16881460
_cell_formula_units_Z   2
loop_
 _symmetry_equiv_pos_site_id
 _symmetry_equiv_pos_as_xyz
  1  'x, y, z'
loop_
 _atom_site_type_symbol
 _atom_site_label
 _atom_site_symmetry_multiplicity
 _atom_site_fract_x
 _atom_site_fract_y
 _atom_site_fract_z
 _atom_site_occupancy
  Cu  Cu0  1  0.28456000  0.28843000  0.73995000  1.0
  Cu  Cu1  1  0.71544000  0.71157000  0.26005000  1.0
  Cu  Cu2  1  0.50200000  0.33736000  0.96789000  1.0
  Cu  Cu3  1  0.49801000  0.66264000  0.03211000  1.0
  Cu  Cu4  1  0.59333000  0.08071000  0.95915000  1.0
  Cu  Cu5  1  0.40667000  0.91929000  0.04086000  1.0
  H  H6  1  0.70175000  0.99675000  0.54047000  1.0
  H  H7  1  0.29826000  0.00325000  0.45954000  1.0
  H  H8  1  0.75748000  0.18509000  0.38985000  1.0
  H  H9  1  0.24252000  0.81491000  0.61016000  1.0
  H  H10  1  0.88460000  0.32968000  0.30636000  1.0
  H  H11  1  0.11540000  0.67031000  0.69364000  1.0
  H  H12  1  0.04800000  0.51026000  0.24290000  1.0
  H  H13  1  0.95200000  0.48974000  0.75710000  1.0
  H  H14  1  0.32626000  0.60131000  0.39078000  1.0
  H  H15  1  0.67374000  0.39869000  0.60923000  1.0
  H  H16  1  0.42779000  0.50595000  0.60189000  1.0
  H  H17  1  0.57221000  0.49406000  0.39811000  1.0
  H  H18  1  0.75349000  0.90371000  0.73064000  1.0
  H  H19  1  0.24651000  0.09629000  0.26936000  1.0
  H  H20  1  0.82189000  0.75824000  0.90564000  1.0
  H  H21  1  0.17811000  0.24176000  0.09436000  1.0
  H  H22  1  0.10075000  0.76790000  0.03567000  1.0
  H  H23  1  0.89924000  0.23210000  0.96433000  1.0
  H  H24  1  0.24276000  0.05208000  0.82608000  1.0
  H  H25  1  0.75724000  0.94792000  0.17392000  1.0
  C  C26  1  0.95686000  0.07315000  0.65722000  1.0
  C  C27  1  0.04314000  0.92684000  0.34278000  1.0
  C  C28  1  0.81087000  0.06514000  0.55677000  1.0
  C  C29  1  0.18913000  0.93486000  0.44323000  1.0
  C  C30  1  0.83612000  0.15894000  0.47837000  1.0
  C  C31  1  0.16388000  0.84106000  0.52163000  1.0
  C  C32  1  0.07317000  0.32326000  0.48767000  1.0
  C  C33  1  0.92683000  0.67674000  0.51233000  1.0
  C  C34  1  0.00517000  0.37056000  0.36975000  1.0
  C  C35  1  0.99483000  0.62944000  0.63025000  1.0
  C  C36  1  0.09762000  0.47145000  0.33454000  1.0
  C  C37  1  0.90238000  0.52855000  0.66546000  1.0
  C  C38  1  0.25217000  0.52190000  0.41659000  1.0
  C  C39  1  0.74783000  0.47810000  0.58341000  1.0
  C  C40  1  0.30889000  0.46950000  0.53266000  1.0
  C  C41  1  0.69111000  0.53050000  0.46734000  1.0
  C  C42  1  0.99293000  0.98980000  0.76197000  1.0
  C  C43  1  0.00707000  0.01020000  0.23803000  1.0
  C  C44  1  0.87438000  0.90531000  0.78647000  1.0
  C  C45  1  0.12562000  0.09469000  0.21353000  1.0
  C  C46  1  0.91181000  0.82428000  0.88455000  1.0
  C  C47  1  0.08819000  0.17572000  0.11545000  1.0
  C  C48  1  0.06615000  0.82936000  0.95732000  1.0
  C  C49  1  0.93385000  0.17064000  0.04268000  1.0
  C  C50  1  0.14545000  0.98830000  0.84009000  1.0
  C  C51  1  0.85455000  0.01170000  0.15990000  1.0
  I  I52  1  0.53421000  0.19285000  0.74347000  1.0
  I  I53  1  0.46580000  0.80715000  0.25653000  1.0
  I  I54  1  0.24907000  0.45471000  0.94262000  1.0
  I  I55  1  0.75093000  0.54529000  0.05738000  1.0
  I  I56  1  0.51128000  0.20148000  0.16309000  1.0
  I  I57  1  0.48872000  0.79852000  0.83692000  1.0
  N  N58  1  0.06537000  0.16817000  0.64049000  1.0
  N  N59  1  0.93463000  0.83182000  0.35951000  1.0
  N  N60  1  0.98999000  0.21980000  0.53105000  1.0
  N  N61  1  0.01001000  0.78020000  0.46895000  1.0
  N  N62  1  0.22096000  0.37187000  0.56840000  1.0
  N  N63  1  0.77904000  0.62814000  0.43160000  1.0
  N  N64  1  0.18145000  0.91052000  0.93564000  1.0
  N  N65  1  0.81854000  0.08948000  0.06436000  1.0
