# generated using pymatgen
data_CuH7C7NO6
_symmetry_space_group_name_H-M   'P 1'
_cell_length_a   6.50282000
_cell_length_b   7.17364000
_cell_length_c   18.71690000
_cell_angle_alpha   90.00730000
_cell_angle_beta   90.00550000
_cell_angle_gamma   74.78900000
_symmetry_Int_Tables_number   1
_chemical_formula_structural   CuH7C7NO6
_chemical_formula_sum   'Cu4 H28 C28 N4 O24'
_cell_volume   842.53373930
_cell_formula_units_Z   4
loop_
 _symmetry_equiv_pos_site_id
 _symmetry_equiv_pos_as_xyz
  1  'x, y, z'
loop_
 _atom_site_type_symbol
 _atom_site_label
 _atom_site_symmetry_multiplicity
 _atom_site_fract_x
 _atom_site_fract_y
 _atom_site_fract_z
 _atom_site_occupancy
  Cu  Cu0  1  0.36489000  0.26491000  0.68886000  1.0
  Cu  Cu1  1  0.13527000  0.73510000  0.18874000  1.0
  Cu  Cu2  1  0.63531000  0.73510000  0.31128000  1.0
  Cu  Cu3  1  0.86489000  0.26496000  0.81116000  1.0
  H  H4  1  0.87126000  0.86485000  0.51626000  1.0
  H  H5  1  0.62849000  0.13497000  0.01621000  1.0
  H  H6  1  0.12857000  0.13505000  0.48379000  1.0
  H  H7  1  0.37134000  0.86506000  0.98374000  1.0
  H  H8  1  0.68412000  0.60084000  0.51273000  1.0
  H  H9  1  0.81552000  0.39916000  0.01264000  1.0
  H  H10  1  0.31555000  0.39922000  0.48736000  1.0
  H  H11  1  0.18423000  0.60102000  0.98729000  1.0
  H  H12  1  0.35729000  0.62821000  0.58890000  1.0
  H  H13  1  0.14246000  0.37184000  0.08883000  1.0
  H  H14  1  0.64246000  0.37191000  0.41120000  1.0
  H  H15  1  0.85735000  0.62830000  0.91111000  1.0
  H  H16  1  0.21811000  0.60632000  0.73609000  1.0
  H  H17  1  0.28196000  0.39379000  0.23600000  1.0
  H  H18  1  0.78195000  0.39381000  0.26401000  1.0
  H  H19  1  0.71815000  0.60628000  0.76388000  1.0
  H  H20  1  0.23197000  0.44566000  0.79857000  1.0
  H  H21  1  0.26816000  0.55441000  0.29847000  1.0
  H  H22  1  0.76812000  0.55440000  0.20155000  1.0
  H  H23  1  0.73200000  0.44564000  0.70143000  1.0
  H  H24  1  0.02384000  0.38540000  0.59350000  1.0
  H  H25  1  0.47646000  0.61414000  0.09344000  1.0
  H  H26  1  0.97652000  0.61415000  0.40657000  1.0
  H  H27  1  0.52382000  0.38556000  0.90647000  1.0
  H  H28  1  0.04759000  0.57438000  0.63361000  1.0
  H  H29  1  0.45244000  0.42519000  0.13351000  1.0
  H  H30  1  0.95247000  0.42517000  0.36651000  1.0
  H  H31  1  0.54762000  0.57451000  0.86636000  1.0
  C  C32  1  0.73261000  0.20594000  0.59969000  1.0
  C  C33  1  0.76747000  0.79395000  0.09966000  1.0
  C  C34  1  0.26752000  0.79397000  0.40034000  1.0
  C  C35  1  0.23260000  0.20609000  0.90032000  1.0
  C  C36  1  0.64532000  0.03286000  0.59112000  1.0
  C  C37  1  0.85461000  0.96708000  0.09105000  1.0
  C  C38  1  0.35466000  0.96712000  0.40894000  1.0
  C  C39  1  0.14530000  0.03302000  0.90888000  1.0
  C  C40  1  0.72906000  0.87244000  0.54815000  1.0
  C  C41  1  0.77075000  0.12747000  0.04809000  1.0
  C  C42  1  0.27082000  0.12751000  0.45191000  1.0
  C  C43  1  0.22908000  0.87264000  0.95185000  1.0
  C  C44  1  0.62315000  0.72626000  0.54691000  1.0
  C  C45  1  0.87653000  0.27376000  0.04683000  1.0
  C  C46  1  0.37659000  0.27380000  0.45318000  1.0
  C  C47  1  0.12327000  0.72639000  0.95309000  1.0
  C  C48  1  0.44204000  0.74033000  0.58918000  1.0
  C  C49  1  0.05765000  0.25976000  0.08911000  1.0
  C  C50  1  0.55770000  0.25977000  0.41090000  1.0
  C  C51  1  0.94213000  0.74043000  0.91081000  1.0
  C  C52  1  0.37180000  0.90227000  0.63269000  1.0
  C  C53  1  0.12806000  0.09781000  0.13259000  1.0
  C  C54  1  0.62810000  0.09781000  0.36742000  1.0
  C  C55  1  0.87184000  0.90233000  0.86730000  1.0
  C  C56  1  0.19014000  0.94235000  0.68584000  1.0
  C  C57  1  0.30978000  0.05773000  0.18573000  1.0
  C  C58  1  0.80979000  0.05773000  0.31428000  1.0
  C  C59  1  0.69018000  0.94236000  0.81417000  1.0
  N  N60  1  0.47217000  0.04285000  0.63102000  1.0
  N  N61  1  0.02780000  0.95716000  0.13093000  1.0
  N  N62  1  0.52785000  0.95715000  0.36907000  1.0
  N  N63  1  0.97213000  0.04298000  0.86897000  1.0
  O  O64  1  0.62300000  0.33742000  0.64236000  1.0
  O  O65  1  0.87712000  0.66265000  0.14238000  1.0
  O  O66  1  0.37716000  0.66263000  0.35762000  1.0
  O  O67  1  0.12302000  0.33755000  0.85763000  1.0
  O  O68  1  0.89704000  0.21626000  0.56730000  1.0
  O  O69  1  0.60315000  0.78338000  0.06727000  1.0
  O  O70  1  0.10321000  0.78342000  0.43273000  1.0
  O  O71  1  0.39703000  0.21648000  0.93269000  1.0
  O  O72  1  0.15250000  0.10890000  0.71662000  1.0
  O  O73  1  0.34738000  0.89124000  0.21650000  1.0
  O  O74  1  0.84744000  0.89122000  0.28350000  1.0
  O  O75  1  0.65247000  0.10889000  0.78339000  1.0
  O  O76  1  0.08908000  0.81827000  0.69777000  1.0
  O  O77  1  0.41090000  0.18177000  0.19765000  1.0
  O  O78  1  0.91089000  0.18176000  0.30236000  1.0
  O  O79  1  0.58908000  0.81834000  0.80223000  1.0
  O  O80  1  0.30745000  0.48229000  0.75613000  1.0
  O  O81  1  0.19272000  0.51776000  0.25606000  1.0
  O  O82  1  0.69274000  0.51771000  0.24394000  1.0
  O  O83  1  0.80743000  0.48235000  0.74383000  1.0
  O  O84  1  0.12634000  0.46222000  0.60624000  1.0
  O  O85  1  0.37389000  0.53736000  0.10611000  1.0
  O  O86  1  0.87393000  0.53736000  0.39391000  1.0
  O  O87  1  0.62634000  0.46234000  0.89373000  1.0
