# generated using pymatgen
data_CdH19C18(N2O3)2
_symmetry_space_group_name_H-M   'P 1'
_cell_length_a   8.62660000
_cell_length_b   11.49930000
_cell_length_c   11.61640000
_cell_angle_alpha   65.21550000
_cell_angle_beta   79.06480000
_cell_angle_gamma   69.61440000
_symmetry_Int_Tables_number   1
_chemical_formula_structural   CdH19C18(N2O3)2
_chemical_formula_sum   'Cd2 H38 C36 N8 O12'
_cell_volume   979.38738832
_cell_formula_units_Z   2
loop_
 _symmetry_equiv_pos_site_id
 _symmetry_equiv_pos_as_xyz
  1  'x, y, z'
loop_
 _atom_site_type_symbol
 _atom_site_label
 _atom_site_symmetry_multiplicity
 _atom_site_fract_x
 _atom_site_fract_y
 _atom_site_fract_z
 _atom_site_occupancy
  Cd  Cd0  1  0.80423000  0.65096000  0.11525000  1.0
  Cd  Cd1  1  0.19577000  0.34904000  0.88475000  1.0
  H  H2  1  0.49968000  0.06086000  0.27945000  1.0
  H  H3  1  0.50032000  0.93914000  0.72055000  1.0
  H  H4  1  0.11451000  0.31106000  0.52991000  1.0
  H  H5  1  0.88549000  0.68894000  0.47009000  1.0
  H  H6  1  0.32959000  0.10416000  0.63825000  1.0
  H  H7  1  0.67041000  0.89584000  0.36175000  1.0
  H  H8  1  0.05029000  0.77702000  0.19700000  1.0
  H  H9  1  0.94972000  0.22298000  0.80300000  1.0
  H  H10  1  0.21626000  0.55515000  0.34593000  1.0
  H  H11  1  0.78374000  0.44485000  0.65407000  1.0
  H  H12  1  0.59104000  0.70224000  0.37229000  1.0
  H  H13  1  0.40896000  0.29776000  0.62771000  1.0
  H  H14  1  0.98151000  0.14959000  0.11811000  1.0
  H  H15  1  0.01849000  0.85042000  0.88189000  1.0
  H  H16  1  0.14621000  0.00381000  0.12149000  1.0
  H  H17  1  0.85380000  0.99619000  0.87851000  1.0
  H  H18  1  0.12313000  0.82224000  0.55208000  1.0
  H  H19  1  0.87686000  0.17776000  0.44792000  1.0
  H  H20  1  0.29712000  0.86292000  0.45099000  1.0
  H  H21  1  0.70288000  0.13709000  0.54902000  1.0
  H  H22  1  0.55825000  0.98018000  0.08340000  1.0
  H  H23  1  0.44175000  0.01982000  0.91659000  1.0
  H  H24  1  0.45140000  0.55188000  0.14574000  1.0
  H  H25  1  0.54860000  0.44812000  0.85426000  1.0
  H  H26  1  0.69862000  0.16335000  0.08570000  1.0
  H  H27  1  0.30138000  0.83665000  0.91429000  1.0
  H  H28  1  0.12828000  0.05048000  0.31390000  1.0
  H  H29  1  0.87171000  0.94952000  0.68610000  1.0
  H  H30  1  0.92450000  0.03106000  0.35506000  1.0
  H  H31  1  0.07550000  0.96895000  0.64493000  1.0
  H  H32  1  0.37552000  0.62098000  0.57943000  1.0
  H  H33  1  0.62448000  0.37903000  0.42057000  1.0
  H  H34  1  0.19984000  0.60356000  0.53734000  1.0
  H  H35  1  0.80016000  0.39644000  0.46266000  1.0
  H  H36  1  0.14525000  0.55252000  0.03231000  1.0
  H  H37  1  0.85476000  0.44748000  0.96769000  1.0
  H  H38  1  0.04280000  0.63536000  0.91204000  1.0
  H  H39  1  0.95719000  0.36464000  0.08796000  1.0
  C  C40  1  0.18181000  0.30324000  0.34425000  1.0
  C  C41  1  0.81819000  0.69676000  0.65575000  1.0
  C  C42  1  0.43504000  0.06349000  0.46835000  1.0
  C  C43  1  0.56496000  0.93651000  0.53165000  1.0
  C  C44  1  0.03785000  0.42297000  0.28406000  1.0
  C  C45  1  0.96215000  0.57703000  0.71594000  1.0
  C  C46  1  0.28979000  0.27672000  0.13337000  1.0
  C  C47  1  0.71021000  0.72328000  0.86664000  1.0
  C  C48  1  0.41756000  0.11389000  0.33703000  1.0
  C  C49  1  0.58244000  0.88610000  0.66297000  1.0
  C  C50  1  0.29510000  0.23171000  0.27464000  1.0
  C  C51  1  0.70491000  0.76828000  0.72536000  1.0
  C  C52  1  0.20026000  0.25597000  0.47496000  1.0
  C  C53  1  0.79974000  0.74403000  0.52504000  1.0
  C  C54  1  0.32329000  0.13836000  0.53600000  1.0
  C  C55  1  0.67671000  0.86163000  0.46400000  1.0
  C  C56  1  0.93459000  0.85523000  0.16619000  1.0
  C  C57  1  0.06542000  0.14477000  0.83381000  1.0
  C  C58  1  0.32975000  0.58354000  0.32195000  1.0
  C  C59  1  0.67025000  0.41646000  0.67805000  1.0
  C  C60  1  0.52269000  0.66247000  0.33609000  1.0
  C  C61  1  0.47731000  0.33754000  0.66391000  1.0
  C  C62  1  0.02565000  0.04013000  0.16640000  1.0
  C  C63  1  0.97435000  0.95987000  0.83359000  1.0
  C  C64  1  0.20512000  0.80898000  0.47012000  1.0
  C  C65  1  0.79488000  0.19102000  0.52988000  1.0
  C  C66  1  0.68175000  0.96405000  0.10684000  1.0
  C  C67  1  0.31826000  0.03595000  0.89316000  1.0
  C  C68  1  0.44567000  0.58394000  0.22241000  1.0
  C  C69  1  0.55433000  0.41606000  0.77759000  1.0
  C  C70  1  0.74830000  0.05621000  0.10824000  1.0
  C  C71  1  0.25170000  0.94379000  0.89176000  1.0
  C  C72  1  0.04527000  0.00002000  0.30608000  1.0
  C  C73  1  0.95473000  0.99998000  0.69392000  1.0
  C  C74  1  0.29031000  0.65953000  0.50348000  1.0
  C  C75  1  0.70969000  0.34047000  0.49652000  1.0
  N  N76  1  0.56484000  0.63351000  0.23258000  1.0
  N  N77  1  0.43516000  0.36649000  0.76742000  1.0
  N  N78  1  0.38119000  0.63284000  0.39314000  1.0
  N  N79  1  0.61881000  0.36717000  0.60686000  1.0
  N  N80  1  0.79943000  0.83917000  0.14334000  1.0
  N  N81  1  0.20057000  0.16083000  0.85666000  1.0
  N  N82  1  0.90831000  0.98546000  0.14621000  1.0
  N  N83  1  0.09169000  0.01454000  0.85379000  1.0
  O  O84  1  0.11531000  0.85763000  0.36047000  1.0
  O  O85  1  0.88469000  0.14238000  0.63953000  1.0
  O  O86  1  0.00415000  0.52654000  0.30873000  1.0
  O  O87  1  0.99585000  0.47345000  0.69127000  1.0
  O  O88  1  0.95128000  0.41342000  0.21138000  1.0
  O  O89  1  0.04872000  0.58657000  0.78862000  1.0
  O  O90  1  0.28187000  0.39809000  0.06141000  1.0
  O  O91  1  0.71813000  0.60191000  0.93859000  1.0
  O  O92  1  0.29494000  0.18898000  0.09206000  1.0
  O  O93  1  0.70506000  0.81102000  0.90794000  1.0
  O  O94  1  0.05987000  0.64015000  0.99207000  1.0
  O  O95  1  0.94013000  0.35985000  0.00792000  1.0
