# generated using pymatgen
data_AgH3C3N2
_symmetry_space_group_name_H-M   'P 1'
_cell_length_a   9.22792000
_cell_length_b   11.41400000
_cell_length_c   16.48200000
_cell_angle_alpha   90.00000000
_cell_angle_beta   90.00000000
_cell_angle_gamma   105.58900000
_symmetry_Int_Tables_number   1
_chemical_formula_structural   AgH3C3N2
_chemical_formula_sum   'Ag16 H48 C48 N32'
_cell_volume   1672.14704367
_cell_formula_units_Z   16
loop_
 _symmetry_equiv_pos_site_id
 _symmetry_equiv_pos_as_xyz
  1  'x, y, z'
loop_
 _atom_site_type_symbol
 _atom_site_label
 _atom_site_symmetry_multiplicity
 _atom_site_fract_x
 _atom_site_fract_y
 _atom_site_fract_z
 _atom_site_occupancy
  Ag  Ag0  1  0.88120000  0.11919000  0.20120000  1.0
  Ag  Ag1  1  0.61880000  0.88081000  0.70120000  1.0
  Ag  Ag2  1  0.11880000  0.88081000  0.79880000  1.0
  Ag  Ag3  1  0.38120000  0.11919000  0.29880000  1.0
  Ag  Ag4  1  0.30512000  0.59125000  0.06683000  1.0
  Ag  Ag5  1  0.19488000  0.40875000  0.56683000  1.0
  Ag  Ag6  1  0.69488000  0.40875000  0.93317000  1.0
  Ag  Ag7  1  0.80512000  0.59125000  0.43317000  1.0
  Ag  Ag8  1  0.58524000  0.13755000  0.12260000  1.0
  Ag  Ag9  1  0.91476000  0.86245000  0.62260000  1.0
  Ag  Ag10  1  0.41476000  0.86245000  0.87740000  1.0
  Ag  Ag11  1  0.08523000  0.13755000  0.37740000  1.0
  Ag  Ag12  1  0.37739000  0.67859000  0.31126000  1.0
  Ag  Ag13  1  0.12262000  0.32140000  0.81126000  1.0
  Ag  Ag14  1  0.62262000  0.32140000  0.68875000  1.0
  Ag  Ag15  1  0.87739000  0.67860000  0.18874000  1.0
  H  H16  1  0.16162000  0.37060000  0.19452000  1.0
  H  H17  1  0.33838000  0.62940000  0.69452000  1.0
  H  H18  1  0.83838000  0.62940000  0.80548000  1.0
  H  H19  1  0.66162000  0.37061000  0.30548000  1.0
  H  H20  1  0.86920000  0.19311000  0.00915000  1.0
  H  H21  1  0.63080000  0.80689000  0.50914000  1.0
  H  H22  1  0.13080000  0.80689000  0.99086000  1.0
  H  H23  1  0.36920000  0.19311000  0.49085000  1.0
  H  H24  1  0.05200000  0.40983000  0.94964000  1.0
  H  H25  1  0.44799000  0.59017000  0.44965000  1.0
  H  H26  1  0.94800000  0.59017000  0.05035000  1.0
  H  H27  1  0.55200000  0.40982000  0.55036000  1.0
  H  H28  1  0.33435000  0.87013000  0.12190000  1.0
  H  H29  1  0.16565000  0.12987000  0.62190000  1.0
  H  H30  1  0.66565000  0.12987000  0.87810000  1.0
  H  H31  1  0.83435000  0.87013000  0.37810000  1.0
  H  H32  1  0.65997000  0.72066000  0.01479000  1.0
  H  H33  1  0.84003000  0.27935000  0.51479000  1.0
  H  H34  1  0.34003000  0.27935000  0.98521000  1.0
  H  H35  1  0.15997000  0.72066000  0.48521000  1.0
  H  H36  1  0.77869000  0.97051000  0.03411000  1.0
  H  H37  1  0.72131000  0.02949000  0.53411000  1.0
  H  H38  1  0.22131000  0.02949000  0.96589000  1.0
  H  H39  1  0.27869000  0.97051000  0.46589000  1.0
  H  H40  1  0.34981000  0.39234000  0.34334000  1.0
  H  H41  1  0.15019000  0.60765000  0.84334000  1.0
  H  H42  1  0.65019000  0.60765000  0.65666000  1.0
  H  H43  1  0.84981000  0.39235000  0.15666000  1.0
  H  H44  1  0.00718000  0.56787000  0.30480000  1.0
  H  H45  1  0.49283000  0.43214000  0.80481000  1.0
  H  H46  1  0.99282000  0.43214000  0.69520000  1.0
  H  H47  1  0.50718000  0.56787000  0.19520000  1.0
  H  H48  1  0.87776000  0.32474000  0.34146000  1.0
  H  H49  1  0.62224000  0.67527000  0.84146000  1.0
  H  H50  1  0.12224000  0.67527000  0.65854000  1.0
  H  H51  1  0.37776000  0.32474000  0.15854000  1.0
  H  H52  1  0.67182000  0.83574000  0.20456000  1.0
  H  H53  1  0.82818000  0.16426000  0.70456000  1.0
  H  H54  1  0.32818000  0.16426000  0.79544000  1.0
  H  H55  1  0.17182000  0.83574000  0.29544000  1.0
  H  H56  1  0.72103000  0.11433000  0.37880000  1.0
  H  H57  1  0.77897000  0.88567000  0.87880000  1.0
  H  H58  1  0.27897000  0.88567000  0.62120000  1.0
  H  H59  1  0.22103000  0.11433000  0.12120000  1.0
  H  H60  1  0.48467000  0.91712000  0.42379000  1.0
  H  H61  1  0.01533000  0.08288000  0.92379000  1.0
  H  H62  1  0.51533000  0.08288000  0.57621000  1.0
  H  H63  1  0.98468000  0.91713000  0.07621000  1.0
  C  C64  1  0.10859000  0.35078000  0.13560000  1.0
  C  C65  1  0.39142000  0.64922000  0.63561000  1.0
  C  C66  1  0.89142000  0.64922000  0.86439000  1.0
  C  C67  1  0.60859000  0.35078000  0.36440000  1.0
  C  C68  1  0.95864000  0.26087000  0.03880000  1.0
  C  C69  1  0.54136000  0.73913000  0.53880000  1.0
  C  C70  1  0.04136000  0.73913000  0.96120000  1.0
  C  C71  1  0.45863000  0.26087000  0.46120000  1.0
  C  C72  1  0.04960000  0.36864000  0.00905000  1.0
  C  C73  1  0.45039000  0.63136000  0.50905000  1.0
  C  C74  1  0.95040000  0.63136000  0.99095000  1.0
  C  C75  1  0.54960000  0.36864000  0.49095000  1.0
  C  C76  1  0.43909000  0.86349000  0.09524000  1.0
  C  C77  1  0.06091000  0.13651000  0.59523000  1.0
  C  C78  1  0.56091000  0.13651000  0.90476000  1.0
  C  C79  1  0.93909000  0.86349000  0.40476000  1.0
  C  C80  1  0.60999000  0.78843000  0.04018000  1.0
  C  C81  1  0.89001000  0.21157000  0.54018000  1.0
  C  C82  1  0.39001000  0.21157000  0.95982000  1.0
  C  C83  1  0.10999000  0.78843000  0.45982000  1.0
  C  C84  1  0.66915000  0.91231000  0.05027000  1.0
  C  C85  1  0.83085000  0.08770000  0.55027000  1.0
  C  C86  1  0.33085000  0.08770000  0.94973000  1.0
  C  C87  1  0.16915000  0.91230000  0.44973000  1.0
  C  C88  1  0.23899000  0.40716000  0.33814000  1.0
  C  C89  1  0.26101000  0.59283000  0.83814000  1.0
  C  C90  1  0.76101000  0.59283000  0.66186000  1.0
  C  C91  1  0.73899000  0.40717000  0.16186000  1.0
  C  C92  1  0.05948000  0.49553000  0.31843000  1.0
  C  C93  1  0.44052000  0.50447000  0.81843000  1.0
  C  C94  1  0.94052000  0.50447000  0.68157000  1.0
  C  C95  1  0.55948000  0.49553000  0.18157000  1.0
  C  C96  1  0.99516000  0.37461000  0.33637000  1.0
  C  C97  1  0.50484000  0.62539000  0.83637000  1.0
  C  C98  1  0.00483000  0.62539000  0.66363000  1.0
  C  C99  1  0.49516000  0.37461000  0.16363000  1.0
  C  C100  1  0.65380000  0.88427000  0.25863000  1.0
  C  C101  1  0.84620000  0.11573000  0.75863000  1.0
  C  C102  1  0.34620000  0.11573000  0.74138000  1.0
  C  C103  1  0.15380000  0.88427000  0.24137000  1.0
  C  C104  1  0.67604000  0.02745000  0.34915000  1.0
  C  C105  1  0.82396000  0.97255000  0.84915000  1.0
  C  C106  1  0.32396000  0.97255000  0.65085000  1.0
  C  C107  1  0.17604000  0.02745000  0.15085000  1.0
  C  C108  1  0.55837000  0.93004000  0.37153000  1.0
  C  C109  1  0.94163000  0.06996000  0.87153000  1.0
  C  C110  1  0.44163000  0.06996000  0.62847000  1.0
  C  C111  1  0.05837000  0.93004000  0.12847000  1.0
  N  N112  1  0.99690000  0.25023000  0.11907000  1.0
  N  N113  1  0.50310000  0.74977000  0.61907000  1.0
  N  N114  1  0.00310000  0.74977000  0.88093000  1.0
  N  N115  1  0.49690000  0.25023000  0.38093000  1.0
  N  N116  1  0.14455000  0.42493000  0.07057000  1.0
  N  N117  1  0.35545000  0.57507000  0.57057000  1.0
  N  N118  1  0.85545000  0.57507000  0.92943000  1.0
  N  N119  1  0.64455000  0.42493000  0.42943000  1.0
  N  N120  1  0.46361000  0.75845000  0.06882000  1.0
  N  N121  1  0.03639000  0.24155000  0.56882000  1.0
  N  N122  1  0.53639000  0.24155000  0.93118000  1.0
  N  N123  1  0.96361000  0.75845000  0.43118000  1.0
  N  N124  1  0.56053000  0.95882000  0.08528000  1.0
  N  N125  1  0.93946000  0.04117000  0.58528000  1.0
  N  N126  1  0.43946000  0.04118000  0.91472000  1.0
  N  N127  1  0.06053000  0.95882000  0.41472000  1.0
  N  N128  1  0.10938000  0.31936000  0.34861000  1.0
  N  N129  1  0.39061000  0.68063000  0.84861000  1.0
  N  N130  1  0.89062000  0.68063000  0.65139000  1.0
  N  N131  1  0.60938000  0.31937000  0.15139000  1.0
  N  N132  1  0.21381000  0.51537000  0.31959000  1.0
  N  N133  1  0.28620000  0.48462000  0.81959000  1.0
  N  N134  1  0.78620000  0.48462000  0.68041000  1.0
  N  N135  1  0.71380000  0.51538000  0.18041000  1.0
  N  N136  1  0.54523000  0.83972000  0.31386000  1.0
  N  N137  1  0.95477000  0.16027000  0.81386000  1.0
  N  N138  1  0.45477000  0.16028000  0.68614000  1.0
  N  N139  1  0.04523000  0.83973000  0.18614000  1.0
  N  N140  1  0.73594000  0.99757000  0.27775000  1.0
  N  N141  1  0.76406000  0.00243000  0.77775000  1.0
  N  N142  1  0.26406000  0.00243000  0.72225000  1.0
  N  N143  1  0.23594000  0.99757000  0.22225000  1.0
