# generated using pymatgen
data_AgH8C5N4O3
_symmetry_space_group_name_H-M   'P 1'
_cell_length_a   5.33260000
_cell_length_b   12.29680000
_cell_length_c   13.22510000
_cell_angle_alpha   89.99890000
_cell_angle_beta   89.99990000
_cell_angle_gamma   100.39800000
_symmetry_Int_Tables_number   1
_chemical_formula_structural   AgH8C5N4O3
_chemical_formula_sum   'Ag4 H32 C20 N16 O12'
_cell_volume   852.97988096
_cell_formula_units_Z   4
loop_
 _symmetry_equiv_pos_site_id
 _symmetry_equiv_pos_as_xyz
  1  'x, y, z'
loop_
 _atom_site_type_symbol
 _atom_site_label
 _atom_site_symmetry_multiplicity
 _atom_site_fract_x
 _atom_site_fract_y
 _atom_site_fract_z
 _atom_site_occupancy
  Ag  Ag0  1  0.91727000  0.80316000  0.30348000  1.0
  Ag  Ag1  1  0.08270000  0.69684000  0.80350000  1.0
  Ag  Ag2  1  0.08270000  0.19684000  0.69650000  1.0
  Ag  Ag3  1  0.91730000  0.30316000  0.19650000  1.0
  H  H4  1  0.29643000  0.73061000  0.12139000  1.0
  H  H5  1  0.70354000  0.76940000  0.62141000  1.0
  H  H6  1  0.70354000  0.26939000  0.87860000  1.0
  H  H7  1  0.29643000  0.23062000  0.37860000  1.0
  H  H8  1  0.27795000  0.50801000  0.06950000  1.0
  H  H9  1  0.72204000  0.99199000  0.56950000  1.0
  H  H10  1  0.72203000  0.49199000  0.93050000  1.0
  H  H11  1  0.27797000  0.00800000  0.43049000  1.0
  H  H12  1  0.50767000  0.47118000  0.26095000  1.0
  H  H13  1  0.49234000  0.02880000  0.76095000  1.0
  H  H14  1  0.49235000  0.52880000  0.73905000  1.0
  H  H15  1  0.50764000  0.97119000  0.23905000  1.0
  H  H16  1  0.60526000  0.60060000  0.32470000  1.0
  H  H17  1  0.39473000  0.89938000  0.82469000  1.0
  H  H18  1  0.39477000  0.39939000  0.67532000  1.0
  H  H19  1  0.60523000  0.10060000  0.17532000  1.0
  H  H20  1  0.57832000  0.44397000  0.44335000  1.0
  H  H21  1  0.42171000  0.05601000  0.94334000  1.0
  H  H22  1  0.42173000  0.55600000  0.55665000  1.0
  H  H23  1  0.57826000  0.94400000  0.05665000  1.0
  H  H24  1  0.78754000  0.38177000  0.37040000  1.0
  H  H25  1  0.21249000  0.11822000  0.87040000  1.0
  H  H26  1  0.21251000  0.61822000  0.62959000  1.0
  H  H27  1  0.78748000  0.88179000  0.12959000  1.0
  H  H28  1  0.93679000  0.61219000  0.46767000  1.0
  H  H29  1  0.06320000  0.88781000  0.96767000  1.0
  H  H30  1  0.06323000  0.38780000  0.53233000  1.0
  H  H31  1  0.93676000  0.11220000  0.03231000  1.0
  H  H32  1  0.14368000  0.53965000  0.40257000  1.0
  H  H33  1  0.85634000  0.96035000  0.90256000  1.0
  H  H34  1  0.85635000  0.46035000  0.59744000  1.0
  H  H35  1  0.14363000  0.03967000  0.09743000  1.0
  C  C36  1  0.17288000  0.65677000  0.14844000  1.0
  C  C37  1  0.82713000  0.84323000  0.64844000  1.0
  C  C38  1  0.82713000  0.34322000  0.85158000  1.0
  C  C39  1  0.17287000  0.15677000  0.35158000  1.0
  C  C40  1  0.16377000  0.54656000  0.12157000  1.0
  C  C41  1  0.83625000  0.95344000  0.62157000  1.0
  C  C42  1  0.83623000  0.45344000  0.87843000  1.0
  C  C43  1  0.16375000  0.04655000  0.37843000  1.0
  C  C44  1  0.66382000  0.52309000  0.30186000  1.0
  C  C45  1  0.33618000  0.97690000  0.80185000  1.0
  C  C46  1  0.33621000  0.47690000  0.69815000  1.0
  C  C47  1  0.66380000  0.02311000  0.19815000  1.0
  C  C48  1  0.74586000  0.46295000  0.39353000  1.0
  C  C49  1  0.25416000  0.03704000  0.89352000  1.0
  C  C50  1  0.25418000  0.53703000  0.60647000  1.0
  C  C51  1  0.74582000  0.96297000  0.10647000  1.0
  C  C52  1  0.97221000  0.52846000  0.45093000  1.0
  C  C53  1  0.02780000  0.97154000  0.95093000  1.0
  C  C54  1  0.02781000  0.47153000  0.54907000  1.0
  C  C55  1  0.97218000  0.02847000  0.04906000  1.0
  N  N56  1  0.87057000  0.55583000  0.22940000  1.0
  N  N57  1  0.12943000  0.94416000  0.72940000  1.0
  N  N58  1  0.12944000  0.44416000  0.77060000  1.0
  N  N59  1  0.87055000  0.05584000  0.27060000  1.0
  N  N60  1  0.98679000  0.66043000  0.21635000  1.0
  N  N61  1  0.01319000  0.83956000  0.71635000  1.0
  N  N62  1  0.01319000  0.33956000  0.78365000  1.0
  N  N63  1  0.98681000  0.16045000  0.28365000  1.0
  N  N64  1  0.97315000  0.48471000  0.17411000  1.0
  N  N65  1  0.02688000  0.01530000  0.67411000  1.0
  N  N66  1  0.02689000  0.51530000  0.82589000  1.0
  N  N67  1  0.97311000  0.98470000  0.32588000  1.0
  N  N68  1  0.44113000  0.79083000  0.43099000  1.0
  N  N69  1  0.55886000  0.70917000  0.93098000  1.0
  N  N70  1  0.55888000  0.20918000  0.56904000  1.0
  N  N71  1  0.44113000  0.29083000  0.06902000  1.0
  O  O72  1  0.61858000  0.73633000  0.45003000  1.0
  O  O73  1  0.38141000  0.76366000  0.95003000  1.0
  O  O74  1  0.38142000  0.26365000  0.54997000  1.0
  O  O75  1  0.61857000  0.23634000  0.04997000  1.0
  O  O76  1  0.41338000  0.82134000  0.33982000  1.0
  O  O77  1  0.58662000  0.67868000  0.83981000  1.0
  O  O78  1  0.58663000  0.17869000  0.66020000  1.0
  O  O79  1  0.41339000  0.32133000  0.16019000  1.0
  O  O80  1  0.29816000  0.81408000  0.50002000  1.0
  O  O81  1  0.70185000  0.68592000  0.00000000  1.0
  O  O82  1  0.70192000  0.18593000  0.50001000  1.0
  O  O83  1  0.29812000  0.31408000  0.99999000  1.0
