# generated using pymatgen
data_DyCuH22C18IN5O9
_symmetry_space_group_name_H-M   'P 1'
_cell_length_a   10.87550000
_cell_length_b   11.76810000
_cell_length_c   14.51000000
_cell_angle_alpha   82.40750000
_cell_angle_beta   84.14430000
_cell_angle_gamma   68.32520000
_symmetry_Int_Tables_number   1
_chemical_formula_structural   DyCuH22C18IN5O9
_chemical_formula_sum   'Dy2 Cu2 H44 C36 I2 N10 O18'
_cell_volume   1707.75734030
_cell_formula_units_Z   2
loop_
 _symmetry_equiv_pos_site_id
 _symmetry_equiv_pos_as_xyz
  1  'x, y, z'
loop_
 _atom_site_type_symbol
 _atom_site_label
 _atom_site_symmetry_multiplicity
 _atom_site_fract_x
 _atom_site_fract_y
 _atom_site_fract_z
 _atom_site_occupancy
  Dy  Dy0  1  0.90178000  0.87510000  0.03671000  1.0
  Dy  Dy1  1  0.09822000  0.12490000  0.96330000  1.0
  Cu  Cu2  1  0.51470000  0.49727000  0.41229000  1.0
  Cu  Cu3  1  0.48528000  0.50273000  0.58770000  1.0
  H  H4  1  0.55470000  0.70616000  0.29370000  1.0
  H  H5  1  0.44529000  0.29383000  0.70632000  1.0
  H  H6  1  0.44511000  0.85377000  0.15962000  1.0
  H  H7  1  0.55490000  0.14622000  0.84038000  1.0
  H  H8  1  0.12956000  0.70909000  0.20353000  1.0
  H  H9  1  0.87043000  0.29091000  0.79646000  1.0
  H  H10  1  0.25557000  0.56287000  0.33333333  1.0
  H  H11  1  0.74442000  0.43712000  0.66666667  1.0
  H  H12  1  0.79306000  0.43441000  0.33945000  1.0
  H  H13  1  0.20693000  0.56561000  0.66054000  1.0
  H  H14  1  0.93848000  0.29529000  0.22156000  1.0
  H  H15  1  0.06150000  0.70473000  0.77844000  1.0
  H  H16  1  0.65792000  0.11294000  0.24607000  1.0
  H  H17  1  0.34209000  0.88705000  0.75394000  1.0
  H  H18  1  0.52094000  0.26194000  0.36158000  1.0
  H  H19  1  0.47906000  0.73805000  0.63842000  1.0
  H  H20  1  0.26866000  0.57476000  0.07050000  1.0
  H  H21  1  0.73135000  0.42524000  0.92949000  1.0
  H  H22  1  0.39112000  0.50401000  0.98188000  1.0
  H  H23  1  0.60888000  0.49600000  0.01811000  1.0
  H  H24  1  0.33060000  0.41125000  0.06795000  1.0
  H  H25  1  0.66941000  0.58875000  0.93205000  1.0
  H  H26  1  0.14494000  0.44995000  0.85285000  1.0
  H  H27  1  0.85507000  0.55005000  0.14714000  1.0
  H  H28  1  0.26953000  0.33707000  0.92085000  1.0
  H  H29  1  0.73049000  0.66293000  0.07914000  1.0
  H  H30  1  0.30996000  0.45098000  0.84233000  1.0
  H  H31  1  0.69005000  0.54903000  0.15766000  1.0
  H  H32  1  0.00687000  0.60064000  0.92662000  1.0
  H  H33  1  0.99314000  0.39936000  0.07339000  1.0
  H  H34  1  0.56294000  0.82989000  0.97868000  1.0
  H  H35  1  0.43705000  0.17011000  0.02133000  1.0
  H  H36  1  0.49228000  0.77903000  0.89296000  1.0
  H  H37  1  0.50772000  0.22097000  0.10704000  1.0
  H  H38  1  0.44170000  0.93887000  0.90475000  1.0
  H  H39  1  0.55829000  0.06113000  0.09526000  1.0
  H  H40  1  0.68247000  0.92944000  0.70817000  1.0
  H  H41  1  0.31754000  0.07056000  0.29184000  1.0
  H  H42  1  0.51162000  0.99661000  0.74542000  1.0
  H  H43  1  0.48838000  0.00339000  0.25458000  1.0
  H  H44  1  0.57666000  0.84398000  0.71063000  1.0
  H  H45  1  0.42335000  0.15601000  0.28938000  1.0
  H  H46  1  0.82399000  0.85241000  0.81273000  1.0
  H  H47  1  0.17600000  0.14762000  0.18729000  1.0
  C  C48  1  0.46217000  0.70762000  0.26962000  1.0
  C  C49  1  0.53782000  0.29237000  0.73039000  1.0
  C  C50  1  0.39993000  0.79061000  0.19614000  1.0
  C  C51  1  0.60007000  0.20937000  0.80386000  1.0
  C  C52  1  0.27862000  0.79226000  0.17015000  1.0
  C  C53  1  0.72138000  0.20774000  0.82985000  1.0
  C  C54  1  0.22490000  0.70935000  0.22001000  1.0
  C  C55  1  0.77510000  0.29065000  0.77998000  1.0
  C  C56  1  0.29395000  0.62842000  0.29192000  1.0
  C  C57  1  0.70604000  0.37157000  0.70808000  1.0
  C  C58  1  0.20570000  0.88276000  0.09367000  1.0
  C  C59  1  0.79430000  0.11724000  0.90633000  1.0
  C  C60  1  0.76626000  0.36298000  0.31523000  1.0
  C  C61  1  0.23373000  0.63703000  0.68477000  1.0
  C  C62  1  0.84614000  0.28580000  0.25082000  1.0
  C  C63  1  0.15386000  0.71422000  0.74917000  1.0
  C  C64  1  0.80608000  0.19637000  0.22232000  1.0
  C  C65  1  0.19393000  0.80363000  0.77768000  1.0
  C  C66  1  0.68895000  0.18470000  0.26415000  1.0
  C  C67  1  0.31105000  0.81529000  0.73586000  1.0
  C  C68  1  0.61388000  0.26589000  0.32747000  1.0
  C  C69  1  0.38612000  0.73410000  0.67254000  1.0
  C  C70  1  0.88295000  0.11834000  0.14693000  1.0
  C  C71  1  0.11705000  0.88167000  0.85307000  1.0
  C  C72  1  0.30335000  0.50037000  0.02524000  1.0
  C  C73  1  0.69666000  0.49963000  0.97475000  1.0
  C  C74  1  0.23302000  0.43341000  0.89087000  1.0
  C  C75  1  0.76699000  0.56659000  0.10912000  1.0
  C  C76  1  0.07665000  0.59574000  0.97841000  1.0
  C  C77  1  0.92335000  0.40426000  0.02159000  1.0
  C  C78  1  0.52602000  0.85134000  0.90869000  1.0
  C  C79  1  0.47397000  0.14866000  0.09131000  1.0
  C  C80  1  0.59839000  0.91076000  0.74612000  1.0
  C  C81  1  0.40161000  0.08923000  0.25389000  1.0
  C  C82  1  0.75474000  0.83200000  0.86761000  1.0
  C  C83  1  0.24526000  0.16801000  0.13240000  1.0
  I  I84  1  0.65455000  0.59685000  0.49220000  1.0
  I  I85  1  0.34543000  0.40315000  0.50779000  1.0
  N  N86  1  0.41129000  0.62632000  0.31684000  1.0
  N  N87  1  0.58870000  0.37367000  0.68316000  1.0
  N  N88  1  0.64933000  0.35624000  0.35139000  1.0
  N  N89  1  0.35067000  0.64376000  0.64861000  1.0
  N  N90  1  0.19878000  0.51383000  0.96505000  1.0
  N  N91  1  0.80123000  0.48616000  0.03495000  1.0
  N  N92  1  0.63195000  0.86160000  0.84171000  1.0
  N  N93  1  0.36805000  0.13841000  0.15830000  1.0
  N  N94  1  0.76169000  0.82787000  0.20738000  1.0
  N  N95  1  0.23832000  0.17212000  0.79263000  1.0
  O  O96  1  0.25292000  0.96243000  0.05463000  1.0
  O  O97  1  0.74708000  0.03756000  0.94537000  1.0
  O  O98  1  0.09726000  0.87819000  0.07193000  1.0
  O  O99  1  0.90273000  0.12182000  0.92807000  1.0
  O  O100  1  0.98425000  0.13958000  0.10871000  1.0
  O  O101  1  0.01575000  0.86044000  0.89128000  1.0
  O  O102  1  0.83939000  0.03972000  0.12560000  1.0
  O  O103  1  0.16061000  0.96028000  0.87441000  1.0
  O  O104  1  0.04041000  0.66280000  0.04398000  1.0
  O  O105  1  0.95961000  0.33720000  0.95601000  1.0
  O  O106  1  0.79293000  0.78508000  0.94771000  1.0
  O  O107  1  0.20707000  0.21493000  0.05230000  1.0
  O  O108  1  0.88866000  0.79033000  0.19993000  1.0
  O  O109  1  0.11135000  0.20966000  0.80008000  1.0
  O  O110  1  0.70303000  0.86774000  0.12947000  1.0
  O  O111  1  0.29698000  0.13225000  0.87054000  1.0
  O  O112  1  0.69842000  0.82679000  0.28268000  1.0
  O  O113  1  0.30159000  0.17320000  0.71733000  1.0
