# generated using pymatgen
data_HgH8C12(NCl)2
_symmetry_space_group_name_H-M   'P 1'
_cell_length_a   3.99026500
_cell_length_b   8.82970000
_cell_length_c   9.39331399
_cell_angle_alpha   109.89586640
_cell_angle_beta   101.62711159
_cell_angle_gamma   98.52470000
_symmetry_Int_Tables_number   1
_chemical_formula_structural   HgH8C12(NCl)2
_chemical_formula_sum   'Hg1 H8 C12 N2 Cl2'
_cell_volume   296.24672192
_cell_formula_units_Z   1
loop_
 _symmetry_equiv_pos_site_id
 _symmetry_equiv_pos_as_xyz
  1  'x, y, z'
loop_
 _atom_site_type_symbol
 _atom_site_label
 _atom_site_symmetry_multiplicity
 _atom_site_fract_x
 _atom_site_fract_y
 _atom_site_fract_z
 _atom_site_occupancy
  C  C0  1  0.21692000  0.97741000  0.61894000  1.0
  C  C1  1  0.78309000  0.02259000  0.38106000  1.0
  C  C2  1  0.15014000  0.13826500  0.63268000  1.0
  C  C3  1  0.84987500  0.86173500  0.36731500  1.0
  C  C4  1  0.31335000  0.27661500  0.77620000  1.0
  C  C5  1  0.68666500  0.72338500  0.22379500  1.0
  C  C6  1  0.53840500  0.25884000  0.89750500  1.0
  C  C7  1  0.46159500  0.74116000  0.10249500  1.0
  C  C8  1  0.61186500  0.10214000  0.88237500  1.0
  C  C9  1  0.38814000  0.89785500  0.11763000  1.0
  C  C10  1  0.45351500  0.96456000  0.74737500  1.0
  C  C11  1  0.54648000  0.03544500  0.25262000  1.0
  Cl  Cl12  1  0.21012000  0.40080000  0.27801000  1.0
  Cl  Cl13  1  0.78988500  0.59920500  0.72199500  1.0
  H  H14  1  0.25284500  0.39520000  0.78561500  1.0
  H  H15  1  0.74714500  0.60479500  0.21438500  1.0
  H  H16  1  0.66659000  0.36505500  0.00679000  1.0
  H  H17  1  0.33340500  0.63494000  0.99321500  1.0
  H  H18  1  0.79666000  0.09263000  0.97977000  1.0
  H  H19  1  0.20332500  0.90736500  0.02023500  1.0
  H  H20  1  0.50931000  0.84417000  0.73398000  1.0
  H  H21  1  0.49066500  0.15583000  0.26601500  1.0
  Hg  Hg22  1  0.00000000  0.50000000  0.50000000  1.0
  N  N23  1  0.06403500  0.84183500  0.48676500  1.0
  N  N24  1  0.93599000  0.15817000  0.51323000  1.0
