# generated using pymatgen
data_CuH18C20(I2O3)4
_symmetry_space_group_name_H-M   'P 1'
_cell_length_a   9.58888000
_cell_length_b   10.49280000
_cell_length_c   10.49640000
_cell_angle_alpha   103.85500000
_cell_angle_beta   96.87820000
_cell_angle_gamma   113.43900000
_symmetry_Int_Tables_number   1
_chemical_formula_structural   CuH18C20(I2O3)4
_chemical_formula_sum   'Cu1 H18 C20 I8 O12'
_cell_volume   912.93581082
_cell_formula_units_Z   1
loop_
 _symmetry_equiv_pos_site_id
 _symmetry_equiv_pos_as_xyz
  1  'x, y, z'
loop_
 _atom_site_type_symbol
 _atom_site_label
 _atom_site_symmetry_multiplicity
 _atom_site_fract_x
 _atom_site_fract_y
 _atom_site_fract_z
 _atom_site_occupancy
  Cu  Cu0  1  0.50000000  0.99999000  0.00000000  1.0
  H  H1  1  0.48675000  0.98446000  0.34320000  1.0
  H  H2  1  0.51325000  0.01552000  0.65680000  1.0
  H  H3  1  0.68905000  0.07313000  0.43407000  1.0
  H  H4  1  0.31096000  0.92687000  0.56594000  1.0
  H  H5  1  0.61268000  0.90077000  0.30365000  1.0
  H  H6  1  0.38734000  0.09924000  0.69635000  1.0
  H  H7  1  0.17543000  0.00145000  0.94082000  1.0
  H  H8  1  0.82456000  0.99854000  0.05919000  1.0
  H  H9  1  0.28824000  0.17573000  0.92104000  1.0
  H  H10  1  0.71173000  0.82426000  0.07896000  1.0
  H  H11  1  0.19739000  0.16581000  0.06109000  1.0
  H  H12  1  0.80260000  0.83417000  0.93892000  1.0
  H  H13  1  0.66277000  0.17413000  0.26335000  1.0
  H  H14  1  0.33720000  0.82586000  0.73665000  1.0
  H  H15  1  0.47444000  0.22127000  0.11651000  1.0
  H  H16  1  0.52555000  0.77873000  0.88348000  1.0
  H  H17  1  0.21548000  0.49812000  0.72183000  1.0
  H  H18  1  0.78452000  0.50188000  0.27816000  1.0
  C  C19  1  0.73477000  0.30397000  0.07476000  1.0
  C  C20  1  0.26523000  0.69605000  0.92524000  1.0
  C  C21  1  0.87320000  0.41206000  0.04161000  1.0
  C  C22  1  0.12678000  0.58794000  0.95838000  1.0
  C  C23  1  0.02554000  0.43744000  0.09955000  1.0
  C  C24  1  0.97443000  0.56257000  0.90045000  1.0
  C  C25  1  0.15330000  0.52480000  0.05752000  1.0
  C  C26  1  0.84670000  0.47521000  0.94246000  1.0
  C  C27  1  0.60678000  0.00554000  0.33492000  1.0
  C  C28  1  0.39323000  0.99446000  0.66508000  1.0
  C  C29  1  0.25489000  0.11675000  0.99413000  1.0
  C  C30  1  0.74510000  0.88324000  0.00589000  1.0
  C  C31  1  0.17886000  0.29691000  0.68472000  1.0
  C  C32  1  0.82117000  0.70311000  0.31529000  1.0
  C  C33  1  0.08320000  0.14429000  0.58684000  1.0
  C  C34  1  0.91683000  0.85571000  0.41318000  1.0
  C  C35  1  0.13839000  0.09529000  0.47632000  1.0
  C  C36  1  0.86163000  0.90472000  0.52368000  1.0
  C  C37  1  0.05523000  0.95084000  0.38870000  1.0
  C  C38  1  0.94480000  0.04916000  0.61133000  1.0
  I  I39  1  0.05833000  0.34509000  0.25098000  1.0
  I  I40  1  0.94165000  0.65490000  0.74900000  1.0
  I  I41  1  0.38430000  0.56585000  0.13546000  1.0
  I  I42  1  0.61568000  0.43413000  0.86452000  1.0
  I  I43  1  0.35122000  0.24209000  0.44942000  1.0
  I  I44  1  0.64880000  0.75791000  0.55059000  1.0
  I  I45  1  0.13463000  0.87405000  0.22260000  1.0
  I  I46  1  0.86540000  0.12595000  0.77741000  1.0
  O  O47  1  0.67976000  0.17473000  0.99225000  1.0
  O  O48  1  0.32024000  0.82528000  0.00775000  1.0
  O  O49  1  0.68222000  0.34235000  0.17539000  1.0
  O  O50  1  0.31776000  0.65765000  0.82461000  1.0
  O  O51  1  0.64958000  0.07365000  0.23302000  1.0
  O  O52  1  0.35041000  0.92635000  0.76699000  1.0
  O  O53  1  0.38962000  0.12023000  0.07656000  1.0
  O  O54  1  0.61038000  0.87977000  0.92344000  1.0
  O  O55  1  0.14588000  0.39740000  0.65099000  1.0
  O  O56  1  0.85413000  0.60260000  0.34900000  1.0
  O  O57  1  0.27779000  0.32028000  0.78456000  1.0
  O  O58  1  0.72220000  0.67974000  0.21545000  1.0
