# generated using pymatgen
data_CdH22C25N4O7
_symmetry_space_group_name_H-M   'P 1'
_cell_length_a   10.32430000
_cell_length_b   10.96420000
_cell_length_c   14.03220000
_cell_angle_alpha   89.23320000
_cell_angle_beta   72.47910000
_cell_angle_gamma   75.55640000
_symmetry_Int_Tables_number   1
_chemical_formula_structural   CdH22C25N4O7
_chemical_formula_sum   'Cd2 H44 C50 N8 O14'
_cell_volume   1463.56831958
_cell_formula_units_Z   2
loop_
 _symmetry_equiv_pos_site_id
 _symmetry_equiv_pos_as_xyz
  1  'x, y, z'
loop_
 _atom_site_type_symbol
 _atom_site_label
 _atom_site_symmetry_multiplicity
 _atom_site_fract_x
 _atom_site_fract_y
 _atom_site_fract_z
 _atom_site_occupancy
  Cd  Cd0  1  0.89460000  0.36052000  0.73869000  1.0
  Cd  Cd1  1  0.10540000  0.63948000  0.26131000  1.0
  H  H2  1  0.26786000  0.68348000  0.54410000  1.0
  H  H3  1  0.73214000  0.31653000  0.45590000  1.0
  H  H4  1  0.02734000  0.54081000  0.61049000  1.0
  H  H5  1  0.97266000  0.45919000  0.38950000  1.0
  H  H6  1  0.70434000  0.64846000  0.52197000  1.0
  H  H7  1  0.29566000  0.35155000  0.47802000  1.0
  H  H8  1  0.58331000  0.63180000  0.25702000  1.0
  H  H9  1  0.41669000  0.36820000  0.74298000  1.0
  H  H10  1  0.41761000  0.93700000  0.67346000  1.0
  H  H11  1  0.58239000  0.06301000  0.32655000  1.0
  H  H12  1  0.47891000  0.70118000  0.77876000  1.0
  H  H13  1  0.52109000  0.29882000  0.22124000  1.0
  H  H14  1  0.61328000  0.60241000  0.68179000  1.0
  H  H15  1  0.38672000  0.39759000  0.31821000  1.0
  H  H16  1  0.85225000  0.89047000  0.41363000  1.0
  H  H17  1  0.14775000  0.10953000  0.58637000  1.0
  H  H18  1  0.93070000  0.86715000  0.61059000  1.0
  H  H19  1  0.06930000  0.13286000  0.38941000  1.0
  H  H20  1  0.05331000  0.31766000  0.91818000  1.0
  H  H21  1  0.94669000  0.68234000  0.08181000  1.0
  H  H22  1  0.99274000  0.26126000  0.24817000  1.0
  H  H23  1  0.00726000  0.73874000  0.75182000  1.0
  H  H24  1  0.81527000  0.30912000  0.25020000  1.0
  H  H25  1  0.18474000  0.69087000  0.74980000  1.0
  H  H26  1  0.62202000  0.47252000  0.96243000  1.0
  H  H27  1  0.37798000  0.52748000  0.03757000  1.0
  H  H28  1  0.77384000  0.13031000  0.34681000  1.0
  H  H29  1  0.22617000  0.86970000  0.65319000  1.0
  H  H30  1  0.11330000  0.89970000  0.11932000  1.0
  H  H31  1  0.88670000  0.10030000  0.88068000  1.0
  H  H32  1  0.94191000  0.46424000  0.16763000  1.0
  H  H33  1  0.05809000  0.53576000  0.83237000  1.0
  H  H34  1  0.07458000  0.34473000  0.08426000  1.0
  H  H35  1  0.92543000  0.65527000  0.91574000  1.0
  H  H36  1  0.52668000  0.11485000  0.62913000  1.0
  H  H37  1  0.47332000  0.88515000  0.37087000  1.0
  H  H38  1  0.78494000  0.08154000  0.59765000  1.0
  H  H39  1  0.21506000  0.91847000  0.40236000  1.0
  H  H40  1  0.04250000  0.12247000  0.08661000  1.0
  H  H41  1  0.95751000  0.87753000  0.91339000  1.0
  H  H42  1  0.85746000  0.15400000  0.11320000  1.0
  H  H43  1  0.14254000  0.84600000  0.88679000  1.0
  H  H44  1  0.67206000  0.48045000  0.14686000  1.0
  H  H45  1  0.32794000  0.51956000  0.85314000  1.0
  C  C46  1  0.47984000  0.67362000  0.54676000  1.0
  C  C47  1  0.52016000  0.32638000  0.45324000  1.0
  C  C48  1  0.41639000  0.65221000  0.39614000  1.0
  C  C49  1  0.58361000  0.34779000  0.60386000  1.0
  C  C50  1  0.37770000  0.67147000  0.50036000  1.0
  C  C51  1  0.62230000  0.32853000  0.49964000  1.0
  C  C52  1  0.65791000  0.63695000  0.38472000  1.0
  C  C53  1  0.34209000  0.36305000  0.61528000  1.0
  C  C54  1  0.84477000  0.65930000  0.66846000  1.0
  C  C55  1  0.15523000  0.34070000  0.33154000  1.0
  C  C56  1  0.62106000  0.65141000  0.48917000  1.0
  C  C57  1  0.37894000  0.34859000  0.51083000  1.0
  C  C58  1  0.75476000  0.78398000  0.65607000  1.0
  C  C59  1  0.24525000  0.21602000  0.34393000  1.0
  C  C60  1  0.55583000  0.63859000  0.33819000  1.0
  C  C61  1  0.44417000  0.36141000  0.66181000  1.0
  C  C62  1  0.30858000  0.64834000  0.34541000  1.0
  C  C63  1  0.69141000  0.35167000  0.65459000  1.0
  C  C64  1  0.60883000  0.80209000  0.67387000  1.0
  C  C65  1  0.39117000  0.19791000  0.32613000  1.0
  C  C66  1  0.52969000  0.92201000  0.66258000  1.0
  C  C67  1  0.47031000  0.07799000  0.33742000  1.0
  C  C68  1  0.53756000  0.69511000  0.69861000  1.0
  C  C69  1  0.46245000  0.30489000  0.30139000  1.0
  C  C70  1  0.89486000  0.92770000  0.34229000  1.0
  C  C71  1  0.10514000  0.07230000  0.65771000  1.0
  C  C72  1  0.80585000  0.62741000  0.32178000  1.0
  C  C73  1  0.19415000  0.37259000  0.67822000  1.0
  C  C74  1  0.81726000  0.88421000  0.62692000  1.0
  C  C75  1  0.18274000  0.11579000  0.37308000  1.0
  C  C76  1  0.94201000  0.35741000  0.95520000  1.0
  C  C77  1  0.05799000  0.64259000  0.04480000  1.0
  C  C78  1  0.92382000  0.27442000  0.20063000  1.0
  C  C79  1  0.07618000  0.72558000  0.79937000  1.0
  C  C80  1  0.71865000  0.43994000  0.98145000  1.0
  C  C81  1  0.28135000  0.56006000  0.01855000  1.0
  C  C82  1  0.85504000  0.04671000  0.31076000  1.0
  C  C83  1  0.14496000  0.95329000  0.68924000  1.0
  C  C84  1  0.03193000  0.92761000  0.19080000  1.0
  C  C85  1  0.96807000  0.07239000  0.80920000  1.0
  C  C86  1  0.96239000  0.37304000  0.12735000  1.0
  C  C87  1  0.03761000  0.62696000  0.87265000  1.0
  C  C88  1  0.59149000  0.02216000  0.63615000  1.0
  C  C89  1  0.40851000  0.97784000  0.36386000  1.0
  C  C90  1  0.73591000  0.00364000  0.61844000  1.0
  C  C91  1  0.26409000  0.99636000  0.38156000  1.0
  C  C92  1  0.94183000  0.14814000  0.14726000  1.0
  C  C93  1  0.05817000  0.85186000  0.85274000  1.0
  C  C94  1  0.74195000  0.44411000  0.07284000  1.0
  C  C95  1  0.25805000  0.55589000  0.92716000  1.0
  N  N96  1  0.84413000  0.38600000  0.90893000  1.0
  N  N97  1  0.15587000  0.61400000  0.09106000  1.0
  N  N98  1  0.00493000  0.85476000  0.26676000  1.0
  N  N99  1  0.99507000  0.14524000  0.73324000  1.0
  N  N100  1  0.88453000  0.39147000  0.05449000  1.0
  N  N101  1  0.11547000  0.60853000  0.94551000  1.0
  N  N102  1  0.94324000  0.04507000  0.21416000  1.0
  N  N103  1  0.05677000  0.95493000  0.78583000  1.0
  O  O104  1  0.43241000  0.69946000  0.64903000  1.0
  O  O105  1  0.56759000  0.30054000  0.35097000  1.0
  O  O106  1  0.80312000  0.59347000  0.73840000  1.0
  O  O107  1  0.19688000  0.40653000  0.26160000  1.0
  O  O108  1  0.34826000  0.62910000  0.25025000  1.0
  O  O109  1  0.65174000  0.37090000  0.74975000  1.0
  O  O110  1  0.97036000  0.62849000  0.60042000  1.0
  O  O111  1  0.02964000  0.37150000  0.39958000  1.0
  O  O112  1  0.90354000  0.59542000  0.36518000  1.0
  O  O113  1  0.09646000  0.40458000  0.63482000  1.0
  O  O114  1  0.82992000  0.65291000  0.23179000  1.0
  O  O115  1  0.17008000  0.34709000  0.76821000  1.0
  O  O116  1  0.18134000  0.66315000  0.40013000  1.0
  O  O117  1  0.81865000  0.33684000  0.59988000  1.0
