# generated using pymatgen
data_CuH7C4NClO
_symmetry_space_group_name_H-M   'P 1'
_cell_length_a   7.36645000
_cell_length_b   7.37276000
_cell_length_c   7.40196827
_cell_angle_alpha   113.27971992
_cell_angle_beta   105.04506420
_cell_angle_gamma   109.93200000
_symmetry_Int_Tables_number   1
_chemical_formula_structural   CuH7C4NClO
_chemical_formula_sum   'Cu2 H14 C8 N2 Cl2 O2'
_cell_volume   308.85591194
_cell_formula_units_Z   2
loop_
 _symmetry_equiv_pos_site_id
 _symmetry_equiv_pos_as_xyz
  1  'x, y, z'
loop_
 _atom_site_type_symbol
 _atom_site_label
 _atom_site_symmetry_multiplicity
 _atom_site_fract_x
 _atom_site_fract_y
 _atom_site_fract_z
 _atom_site_occupancy
  Cu  Cu0  1  0.58616000  0.16161000  0.74859000  1.0
  Cu  Cu1  1  0.41382000  0.83839000  0.25139000  1.0
  H  H2  1  0.48077000  0.67881000  0.85890000  1.0
  H  H3  1  0.81974000  0.62061000  0.14018000  1.0
  H  H4  1  0.51923000  0.32118000  0.14110000  1.0
  H  H5  1  0.18028000  0.37940000  0.85983000  1.0
  H  H6  1  0.67707000  0.61313000  0.79754000  1.0
  H  H7  1  0.81601000  0.87816000  0.20093000  1.0
  H  H8  1  0.32294000  0.38687000  0.20246000  1.0
  H  H9  1  0.18399000  0.12184000  0.79907000  1.0
  H  H10  1  0.36957000  0.28908000  0.44895000  1.0
  H  H11  1  0.84080000  0.92053000  0.55046000  1.0
  H  H12  1  0.63043000  0.71091000  0.55105000  1.0
  H  H13  1  0.15920000  0.07947000  0.44954000  1.0
  H  H14  1  0.18153000  0.35405000  0.53559000  1.0
  H  H15  1  0.81848000  0.64595000  0.46442000  1.0
  C  C16  1  0.78435000  0.18066000  0.96578000  1.0
  C  C17  1  0.21566000  0.81937000  0.03423000  1.0
  C  C18  1  0.57293000  0.59109000  0.87838000  1.0
  C  C19  1  0.71286000  0.69368000  0.12083000  1.0
  C  C20  1  0.42706000  0.40889000  0.12161000  1.0
  C  C21  1  0.28715000  0.30633000  0.87918000  1.0
  C  C22  1  0.27232000  0.26233000  0.53503000  1.0
  C  C23  1  0.72768000  0.73767000  0.46497000  1.0
  N  N24  1  0.41883000  0.34362000  0.76275000  1.0
  N  N25  1  0.58116000  0.65637000  0.23724000  1.0
  Cl  Cl26  1  0.28515000  0.78536000  0.49996000  1.0
  Cl  Cl27  1  0.71484000  0.21464000  0.50004000  1.0
  O  O28  1  0.91338000  0.17826000  0.09204000  1.0
  O  O29  1  0.08664000  0.82176000  0.90798000  1.0
