# generated using pymatgen
data_DyNiH34C51(NO2)5
_symmetry_space_group_name_H-M   'P 1'
_cell_length_a   8.68907000
_cell_length_b   21.24580000
_cell_length_c   27.78180000
_cell_angle_alpha   90.00010000
_cell_angle_beta   90.00020000
_cell_angle_gamma   98.10790000
_symmetry_Int_Tables_number   1
_chemical_formula_structural   DyNiH34C51(NO2)5
_chemical_formula_sum   'Dy4 Ni4 H136 C204 N20 O40'
_cell_volume   5077.42844237
_cell_formula_units_Z   4
loop_
 _symmetry_equiv_pos_site_id
 _symmetry_equiv_pos_as_xyz
  1  'x, y, z'
loop_
 _atom_site_type_symbol
 _atom_site_label
 _atom_site_symmetry_multiplicity
 _atom_site_fract_x
 _atom_site_fract_y
 _atom_site_fract_z
 _atom_site_occupancy
  Dy  Dy0  1  0.81587000  0.75435000  0.31299000  1.0
  Dy  Dy1  1  0.23181000  0.74870000  0.42035000  1.0
  Dy  Dy2  1  0.18412000  0.24564000  0.81298000  1.0
  Dy  Dy3  1  0.76818000  0.25130000  0.92034000  1.0
  Ni  Ni4  1  0.27709000  0.23953000  0.31442000  1.0
  Ni  Ni5  1  0.77745000  0.26426000  0.40745000  1.0
  Ni  Ni6  1  0.72291000  0.76047000  0.81442000  1.0
  Ni  Ni7  1  0.22255000  0.73573000  0.90744000  1.0
  H  H8  1  0.33195000  0.04187000  0.20990000  1.0
  H  H9  1  0.21124000  0.12322000  0.15034000  1.0
  H  H10  1  0.19598000  0.37224000  0.16160000  1.0
  H  H11  1  0.17700000  0.45182000  0.23677000  1.0
  H  H12  1  0.05302000  0.40357000  0.42192000  1.0
  H  H13  1  0.13293000  0.31515000  0.48349000  1.0
  H  H14  1  0.50200000  0.13653000  0.46315000  1.0
  H  H15  1  0.57108000  0.06640000  0.38718000  1.0
  H  H16  1  0.94882000  0.17887000  0.15982000  1.0
  H  H17  1  0.83962000  0.17900000  0.07702000  1.0
  H  H18  1  0.24219000  0.30496000  0.03011000  1.0
  H  H19  1  0.35068000  0.30601000  0.11294000  1.0
  H  H20  1  0.91254000  0.43263000  0.28491000  1.0
  H  H21  1  0.84847000  0.54290000  0.29169000  1.0
  H  H22  1  0.22254000  0.58880000  0.39146000  1.0
  H  H23  1  0.29376000  0.48002000  0.38332000  1.0
  H  H24  1  0.18711000  0.12921000  0.49477000  1.0
  H  H25  1  0.19737000  0.12340000  0.58381000  1.0
  H  H26  1  0.45312000  0.31156000  0.58856000  1.0
  H  H27  1  0.44519000  0.31737000  0.49888000  1.0
  H  H28  1  0.27773000  0.16148000  0.70068000  1.0
  H  H29  1  0.33648000  0.99533000  0.35578000  1.0
  H  H30  1  0.43404000  0.89175000  0.35268000  1.0
  H  H31  1  0.70910000  0.95428000  0.22802000  1.0
  H  H32  1  0.62026000  0.06045000  0.23387000  1.0
  H  H33  1  0.70987000  0.45424000  0.51930000  1.0
  H  H34  1  0.80595000  0.36539000  0.57788000  1.0
  H  H35  1  0.82964000  0.11939000  0.55502000  1.0
  H  H36  1  0.87925000  0.04775000  0.47746000  1.0
  H  H37  1  0.00823000  0.10828000  0.29376000  1.0
  H  H38  1  0.90385000  0.19473000  0.23511000  1.0
  H  H39  1  0.55244000  0.37524000  0.26227000  1.0
  H  H40  1  0.50016000  0.44647000  0.33966000  1.0
  H  H41  1  0.05561000  0.30123000  0.58427000  1.0
  H  H42  1  0.08652000  0.29043000  0.67316000  1.0
  H  H43  1  0.64615000  0.17061000  0.68046000  1.0
  H  H44  1  0.61675000  0.17916000  0.59119000  1.0
  H  H45  1  0.80254000  0.03059000  0.32592000  1.0
  H  H46  1  0.87899000  0.92293000  0.31742000  1.0
  H  H47  1  0.19853000  0.95998000  0.43477000  1.0
  H  H48  1  0.14188000  0.07166000  0.43856000  1.0
  H  H49  1  0.86948000  0.37638000  0.22855000  1.0
  H  H50  1  0.83923000  0.38822000  0.14034000  1.0
  H  H51  1  0.53980000  0.20932000  0.13566000  1.0
  H  H52  1  0.57665000  0.19569000  0.22387000  1.0
  H  H53  1  0.73626000  0.35422000  0.02373000  1.0
  H  H54  1  0.74587000  0.51786000  0.38036000  1.0
  H  H55  1  0.64628000  0.62064000  0.38839000  1.0
  H  H56  1  0.31653000  0.53858000  0.49479000  1.0
  H  H57  1  0.41520000  0.43486000  0.48584000  1.0
  H  H58  1  0.41729000  0.72069000  0.24812000  1.0
  H  H59  1  0.28244000  0.59013000  0.18927000  1.0
  H  H60  1  0.22421000  0.65903000  0.21660000  1.0
  H  H61  1  0.17335000  0.58305000  0.24429000  1.0
  H  H62  1  0.39892000  0.54026000  0.29300000  1.0
  H  H63  1  0.58899000  0.58286000  0.28223000  1.0
  H  H64  1  0.48625000  0.53672000  0.23498000  1.0
  H  H65  1  0.43438000  0.82274000  0.51450000  1.0
  H  H66  1  0.77048000  0.94060000  0.44800000  1.0
  H  H67  1  0.70698000  0.86652000  0.41840000  1.0
  H  H68  1  0.86605000  0.87312000  0.46004000  1.0
  H  H69  1  0.60331000  0.86506000  0.56489000  1.0
  H  H70  1  0.71305000  0.93795000  0.54427000  1.0
  H  H71  1  0.80194000  0.86696000  0.54812000  1.0
  H  H72  1  0.64776000  0.72178000  0.40510000  1.0
  H  H73  1  0.82787000  0.73200000  0.42213000  1.0
  H  H74  1  0.43968000  0.79103000  0.34191000  1.0
  H  H75  1  0.27604000  0.78189000  0.31377000  1.0
  H  H76  1  0.66805000  0.95814000  0.70990000  1.0
  H  H77  1  0.78877000  0.87677000  0.65033000  1.0
  H  H78  1  0.80402000  0.62776000  0.66160000  1.0
  H  H79  1  0.82301000  0.54817000  0.73676000  1.0
  H  H80  1  0.94699000  0.59643000  0.92192000  1.0
  H  H81  1  0.86707000  0.68486000  0.98350000  1.0
  H  H82  1  0.49799000  0.86347000  0.96316000  1.0
  H  H83  1  0.42892000  0.93360000  0.88717000  1.0
  H  H84  1  0.05118000  0.82113000  0.65982000  1.0
  H  H85  1  0.16040000  0.82100000  0.57702000  1.0
  H  H86  1  0.75781000  0.69504000  0.53011000  1.0
  H  H87  1  0.64932000  0.69399000  0.61295000  1.0
  H  H88  1  0.08747000  0.56737000  0.78491000  1.0
  H  H89  1  0.15154000  0.45710000  0.79169000  1.0
  H  H90  1  0.77746000  0.41120000  0.89145000  1.0
  H  H91  1  0.70625000  0.51998000  0.88332000  1.0
  H  H92  1  0.81289000  0.87079000  0.99477000  1.0
  H  H93  1  0.80264000  0.87660000  0.08381000  1.0
  H  H94  1  0.54687000  0.68844000  0.08856000  1.0
  H  H95  1  0.55482000  0.68263000  0.99888000  1.0
  H  H96  1  0.72227000  0.83852000  0.20068000  1.0
  H  H97  1  0.66352000  0.00467000  0.85578000  1.0
  H  H98  1  0.56596000  0.10825000  0.85267000  1.0
  H  H99  1  0.29090000  0.04572000  0.72801000  1.0
  H  H100  1  0.37974000  0.93955000  0.73387000  1.0
  H  H101  1  0.29012000  0.54576000  0.01930000  1.0
  H  H102  1  0.19404000  0.63461000  0.07788000  1.0
  H  H103  1  0.17037000  0.88061000  0.05503000  1.0
  H  H104  1  0.12077000  0.95225000  0.97745000  1.0
  H  H105  1  0.99175000  0.89173000  0.79376000  1.0
  H  H106  1  0.09614000  0.80526000  0.73511000  1.0
  H  H107  1  0.44756000  0.62476000  0.76227000  1.0
  H  H108  1  0.49986000  0.55352000  0.83965000  1.0
  H  H109  1  0.94439000  0.69877000  0.08427000  1.0
  H  H110  1  0.91348000  0.70957000  0.17315000  1.0
  H  H111  1  0.35385000  0.82939000  0.18046000  1.0
  H  H112  1  0.38325000  0.82084000  0.09119000  1.0
  H  H113  1  0.19746000  0.96942000  0.82591000  1.0
  H  H114  1  0.12102000  0.07707000  0.81742000  1.0
  H  H115  1  0.80147000  0.04002000  0.93477000  1.0
  H  H116  1  0.85813000  0.92834000  0.93856000  1.0
  H  H117  1  0.13051000  0.62362000  0.72855000  1.0
  H  H118  1  0.16077000  0.61178000  0.64034000  1.0
  H  H119  1  0.46021000  0.79068000  0.63565000  1.0
  H  H120  1  0.42335000  0.80431000  0.72387000  1.0
  H  H121  1  0.26374000  0.64577000  0.52373000  1.0
  H  H122  1  0.25413000  0.48213000  0.88036000  1.0
  H  H123  1  0.35371000  0.37936000  0.88838000  1.0
  H  H124  1  0.68348000  0.46142000  0.99478000  1.0
  H  H125  1  0.58480000  0.56514000  0.98583000  1.0
  H  H126  1  0.58271000  0.27932000  0.74811000  1.0
  H  H127  1  0.71757000  0.40988000  0.68927000  1.0
  H  H128  1  0.77579000  0.34097000  0.71660000  1.0
  H  H129  1  0.82665000  0.41695000  0.74430000  1.0
  H  H130  1  0.60108000  0.45974000  0.79300000  1.0
  H  H131  1  0.41102000  0.41714000  0.78224000  1.0
  H  H132  1  0.51375000  0.46328000  0.73498000  1.0
  H  H133  1  0.56563000  0.17726000  0.01450000  1.0
  H  H134  1  0.22951000  0.05940000  0.94800000  1.0
  H  H135  1  0.29300000  0.13348000  0.91840000  1.0
  H  H136  1  0.13395000  0.12688000  0.96004000  1.0
  H  H137  1  0.39669000  0.13494000  0.06489000  1.0
  H  H138  1  0.28695000  0.06205000  0.04427000  1.0
  H  H139  1  0.19806000  0.13304000  0.04812000  1.0
  H  H140  1  0.35224000  0.27822000  0.90510000  1.0
  H  H141  1  0.17212000  0.26799000  0.92212000  1.0
  H  H142  1  0.56031000  0.20897000  0.84191000  1.0
  H  H143  1  0.72395000  0.21811000  0.81377000  1.0
  C  C144  1  0.34407000  0.12286000  0.26220000  1.0
  C  C145  1  0.31065000  0.09001000  0.21724000  1.0
  C  C146  1  0.24844000  0.13071000  0.18739000  1.0
  C  C147  1  0.24392000  0.18860000  0.21389000  1.0
  C  C148  1  0.21099000  0.24479000  0.19305000  1.0
  C  C149  1  0.21801000  0.30075000  0.21969000  1.0
  C  C150  1  0.20190000  0.36195000  0.19972000  1.0
  C  C151  1  0.19156000  0.40199000  0.23760000  1.0
  C  C152  1  0.19539000  0.36475000  0.28074000  1.0
  C  C153  1  0.15811000  0.38520000  0.32640000  1.0
  C  C154  1  0.16531000  0.34735000  0.36701000  1.0
  C  C155  1  0.11433000  0.36372000  0.41412000  1.0
  C  C156  1  0.15489000  0.31927000  0.44516000  1.0
  C  C157  1  0.23136000  0.27576000  0.41718000  1.0
  C  C158  1  0.30613000  0.22804000  0.43705000  1.0
  C  C159  1  0.37351000  0.18594000  0.40797000  1.0
  C  C160  1  0.46620000  0.14004000  0.42597000  1.0
  C  C161  1  0.50087000  0.10465000  0.38764000  1.0
  C  C162  1  0.42759000  0.12798000  0.34604000  1.0
  C  C163  1  0.41712000  0.09798000  0.30117000  1.0
  C  C164  1  0.15621000  0.24350000  0.14234000  1.0
  C  C165  1  0.01362000  0.20630000  0.13138000  1.0
  C  C166  1  0.95264000  0.20589000  0.08525000  1.0
  C  C167  1  0.03336000  0.24204000  0.04854000  1.0
  C  C168  1  0.17773000  0.27768000  0.05869000  1.0
  C  C169  1  0.23799000  0.27855000  0.10529000  1.0
  C  C170  1  0.95512000  0.24361000  0.00098000  1.0
  C  C171  1  0.11166000  0.44926000  0.33209000  1.0
  C  C172  1  0.98451000  0.46749000  0.30699000  1.0
  C  C173  1  0.94674000  0.52876000  0.31127000  1.0
  C  C174  1  0.03423000  0.57313000  0.34145000  1.0
  C  C175  1  0.15785000  0.55461000  0.36747000  1.0
  C  C176  1  0.19673000  0.49368000  0.36288000  1.0
  C  C177  1  0.99617000  0.63930000  0.34612000  1.0
  C  C178  1  0.31591000  0.22359000  0.49038000  1.0
  C  C179  1  0.24852000  0.16886000  0.51502000  1.0
  C  C180  1  0.25298000  0.16559000  0.56506000  1.0
  C  C181  1  0.32603000  0.21727000  0.59181000  1.0
  C  C182  1  0.39460000  0.27197000  0.56751000  1.0
  C  C183  1  0.38967000  0.27507000  0.51755000  1.0
  C  C184  1  0.33229000  0.21631000  0.64548000  1.0
  C  C185  1  0.47305000  0.03553000  0.29580000  1.0
  C  C186  1  0.42029000  0.98664000  0.32836000  1.0
  C  C187  1  0.47316000  0.92815000  0.32610000  1.0
  C  C188  1  0.57766000  0.91604000  0.28991000  1.0
  C  C189  1  0.62660000  0.96346000  0.25586000  1.0
  C  C190  1  0.57618000  0.02283000  0.25908000  1.0
  C  C191  1  0.64619000  0.85594000  0.29189000  1.0
  C  C192  1  0.70906000  0.37830000  0.46330000  1.0
  C  C193  1  0.73130000  0.40658000  0.51032000  1.0
  C  C194  1  0.78077000  0.36208000  0.53967000  1.0
  C  C195  1  0.79027000  0.30673000  0.51056000  1.0
  C  C196  1  0.81442000  0.24810000  0.52922000  1.0
  C  C197  1  0.82070000  0.19559000  0.49974000  1.0
  C  C198  1  0.83556000  0.13311000  0.51741000  1.0
  C  C199  1  0.86148000  0.09722000  0.47835000  1.0
  C  C200  1  0.86672000  0.13818000  0.43690000  1.0
  C  C201  1  0.91080000  0.12124000  0.39088000  1.0
  C  C202  1  0.89762000  0.16064000  0.35146000  1.0
  C  C203  1  0.94322000  0.14638000  0.30326000  1.0
  C  C204  1  0.89026000  0.18966000  0.27370000  1.0
  C  C205  1  0.81540000  0.23138000  0.30368000  1.0
  C  C206  1  0.73869000  0.27952000  0.28562000  1.0
  C  C207  1  0.67762000  0.32198000  0.31590000  1.0
  C  C208  1  0.59018000  0.37041000  0.29913000  1.0
  C  C209  1  0.56380000  0.40620000  0.33813000  1.0
  C  C210  1  0.63486000  0.37989000  0.37890000  1.0
  C  C211  1  0.64427000  0.40713000  0.42464000  1.0
  C  C212  1  0.83338000  0.24132000  0.58200000  1.0
  C  C213  1  0.96549000  0.27276000  0.60539000  1.0
  C  C214  1  0.98300000  0.26695000  0.65496000  1.0
  C  C215  1  0.86728000  0.23032000  0.68208000  1.0
  C  C216  1  0.73565000  0.19857000  0.65885000  1.0
  C  C217  1  0.71963000  0.20351000  0.60923000  1.0
  C  C218  1  0.88053000  0.22650000  0.73578000  1.0
  C  C219  1  0.96314000  0.05846000  0.38398000  1.0
  C  C220  1  0.89243000  0.01607000  0.34906000  1.0
  C  C221  1  0.93236000  0.95526000  0.34484000  1.0
  C  C222  1  0.03800000  0.93382000  0.37676000  1.0
  C  C223  1  0.11333000  0.97635000  0.41069000  1.0
  C  C224  1  0.07887000  0.03822000  0.41338000  1.0
  C  C225  1  0.06138000  0.86550000  0.37657000  1.0
  C  C226  1  0.72222000  0.28592000  0.23259000  1.0
  C  C227  1  0.79538000  0.34003000  0.20843000  1.0
  C  C228  1  0.77920000  0.34676000  0.15895000  1.0
  C  C229  1  0.68555000  0.29990000  0.13256000  1.0
  C  C230  1  0.61299000  0.24549000  0.15635000  1.0
  C  C231  1  0.63308000  0.23809000  0.20560000  1.0
  C  C232  1  0.66007000  0.30652000  0.07990000  1.0
  C  C233  1  0.58727000  0.46911000  0.43221000  1.0
  C  C234  1  0.65180000  0.52245000  0.40545000  1.0
  C  C235  1  0.59677000  0.58042000  0.41036000  1.0
  C  C236  1  0.47559000  0.58680000  0.44263000  1.0
  C  C237  1  0.41277000  0.53418000  0.47042000  1.0
  C  C238  1  0.46817000  0.47607000  0.46532000  1.0
  C  C239  1  0.40416000  0.64652000  0.44239000  1.0
  C  C240  1  0.47717000  0.68181000  0.26145000  1.0
  C  C241  1  0.26376000  0.61324000  0.22383000  1.0
  C  C242  1  0.47468000  0.56739000  0.26628000  1.0
  C  C243  1  0.50484000  0.83605000  0.48225000  1.0
  C  C244  1  0.75337000  0.88855000  0.45198000  1.0
  C  C245  1  0.69356000  0.88592000  0.53974000  1.0
  C  C246  1  0.65593000  0.87714000  0.76219000  1.0
  C  C247  1  0.68935000  0.90999000  0.71724000  1.0
  C  C248  1  0.75156000  0.86928000  0.68738000  1.0
  C  C249  1  0.75609000  0.81140000  0.71389000  1.0
  C  C250  1  0.78901000  0.75521000  0.69305000  1.0
  C  C251  1  0.78199000  0.69925000  0.71969000  1.0
  C  C252  1  0.79810000  0.63805000  0.69972000  1.0
  C  C253  1  0.80844000  0.59800000  0.73760000  1.0
  C  C254  1  0.80460000  0.63525000  0.78074000  1.0
  C  C255  1  0.84189000  0.61480000  0.82640000  1.0
  C  C256  1  0.83468000  0.65265000  0.86701000  1.0
  C  C257  1  0.88567000  0.63629000  0.91412000  1.0
  C  C258  1  0.84510000  0.68073000  0.94516000  1.0
  C  C259  1  0.76863000  0.72424000  0.91718000  1.0
  C  C260  1  0.69387000  0.77196000  0.93705000  1.0
  C  C261  1  0.62649000  0.81406000  0.90797000  1.0
  C  C262  1  0.53381000  0.85996000  0.92597000  1.0
  C  C263  1  0.49914000  0.89535000  0.88763000  1.0
  C  C264  1  0.57241000  0.87202000  0.84604000  1.0
  C  C265  1  0.58287000  0.90202000  0.80116000  1.0
  C  C266  1  0.84379000  0.75650000  0.64234000  1.0
  C  C267  1  0.98638000  0.79370000  0.63138000  1.0
  C  C268  1  0.04736000  0.79411000  0.58526000  1.0
  C  C269  1  0.96664000  0.75796000  0.54854000  1.0
  C  C270  1  0.82227000  0.72232000  0.55869000  1.0
  C  C271  1  0.76201000  0.72145000  0.60529000  1.0
  C  C272  1  0.04488000  0.75639000  0.50099000  1.0
  C  C273  1  0.88835000  0.55074000  0.83209000  1.0
  C  C274  1  0.01550000  0.53251000  0.80698000  1.0
  C  C275  1  0.05326000  0.47124000  0.81126000  1.0
  C  C276  1  0.96577000  0.42687000  0.84144000  1.0
  C  C277  1  0.84215000  0.44539000  0.86747000  1.0
  C  C278  1  0.80327000  0.50632000  0.86287000  1.0
  C  C279  1  0.00383000  0.36070000  0.84611000  1.0
  C  C280  1  0.68409000  0.77641000  0.99038000  1.0
  C  C281  1  0.75148000  0.83115000  0.01502000  1.0
  C  C282  1  0.74703000  0.83441000  0.06506000  1.0
  C  C283  1  0.67397000  0.78273000  0.09181000  1.0
  C  C284  1  0.60540000  0.72803000  0.06751000  1.0
  C  C285  1  0.61033000  0.72493000  0.01755000  1.0
  C  C286  1  0.66771000  0.78369000  0.14547000  1.0
  C  C287  1  0.52695000  0.96447000  0.79580000  1.0
  C  C288  1  0.57971000  0.01336000  0.82836000  1.0
  C  C289  1  0.52684000  0.07185000  0.82610000  1.0
  C  C290  1  0.42234000  0.08396000  0.78990000  1.0
  C  C291  1  0.37340000  0.03654000  0.75585000  1.0
  C  C292  1  0.42382000  0.97717000  0.75908000  1.0
  C  C293  1  0.35381000  0.14406000  0.79188000  1.0
  C  C294  1  0.29094000  0.62170000  0.96330000  1.0
  C  C295  1  0.26870000  0.59342000  0.01031000  1.0
  C  C296  1  0.21922000  0.63791000  0.03967000  1.0
  C  C297  1  0.20973000  0.69327000  0.01057000  1.0
  C  C298  1  0.18558000  0.75190000  0.02922000  1.0
  C  C299  1  0.17930000  0.80441000  0.99975000  1.0
  C  C300  1  0.16445000  0.86690000  0.01741000  1.0
  C  C301  1  0.13852000  0.90278000  0.97835000  1.0
  C  C302  1  0.13328000  0.86181000  0.93690000  1.0
  C  C303  1  0.08921000  0.87876000  0.89088000  1.0
  C  C304  1  0.10237000  0.83937000  0.85145000  1.0
  C  C305  1  0.05677000  0.85362000  0.80325000  1.0
  C  C306  1  0.10973000  0.81034000  0.77370000  1.0
  C  C307  1  0.18460000  0.76862000  0.80367000  1.0
  C  C308  1  0.26131000  0.72049000  0.78562000  1.0
  C  C309  1  0.32238000  0.67802000  0.81590000  1.0
  C  C310  1  0.40982000  0.62959000  0.79913000  1.0
  C  C311  1  0.43621000  0.59379000  0.83812000  1.0
  C  C312  1  0.36515000  0.62010000  0.87889000  1.0
  C  C313  1  0.35573000  0.59287000  0.92463000  1.0
  C  C314  1  0.16663000  0.75868000  0.08200000  1.0
  C  C315  1  0.03451000  0.72724000  0.10539000  1.0
  C  C316  1  0.01700000  0.73306000  0.15496000  1.0
  C  C317  1  0.13271000  0.76968000  0.18208000  1.0
  C  C318  1  0.26435000  0.80144000  0.15885000  1.0
  C  C319  1  0.28037000  0.79649000  0.10923000  1.0
  C  C320  1  0.11948000  0.77350000  0.23578000  1.0
  C  C321  1  0.03687000  0.94154000  0.88398000  1.0
  C  C322  1  0.10758000  0.98393000  0.84905000  1.0
  C  C323  1  0.06764000  0.04475000  0.84484000  1.0
  C  C324  1  0.96200000  0.06618000  0.87675000  1.0
  C  C325  1  0.88667000  0.02366000  0.91068000  1.0
  C  C326  1  0.92114000  0.96178000  0.91337000  1.0
  C  C327  1  0.93861000  0.13450000  0.87657000  1.0
  C  C328  1  0.27778000  0.71408000  0.73259000  1.0
  C  C329  1  0.20462000  0.65997000  0.70843000  1.0
  C  C330  1  0.22080000  0.65325000  0.65895000  1.0
  C  C331  1  0.31445000  0.70010000  0.63256000  1.0
  C  C332  1  0.38701000  0.75451000  0.65635000  1.0
  C  C333  1  0.36693000  0.76191000  0.70560000  1.0
  C  C334  1  0.33993000  0.69348000  0.57991000  1.0
  C  C335  1  0.41272000  0.53089000  0.93221000  1.0
  C  C336  1  0.34819000  0.47755000  0.90544000  1.0
  C  C337  1  0.40323000  0.41958000  0.91036000  1.0
  C  C338  1  0.52440000  0.41320000  0.94262000  1.0
  C  C339  1  0.58723000  0.46582000  0.97041000  1.0
  C  C340  1  0.53182000  0.52393000  0.96532000  1.0
  C  C341  1  0.59583000  0.35349000  0.94239000  1.0
  C  C342  1  0.52282000  0.31819000  0.76144000  1.0
  C  C343  1  0.73625000  0.38676000  0.72383000  1.0
  C  C344  1  0.52532000  0.43261000  0.76628000  1.0
  C  C345  1  0.49516000  0.16395000  0.98225000  1.0
  C  C346  1  0.24662000  0.11145000  0.95198000  1.0
  C  C347  1  0.30644000  0.11408000  0.03974000  1.0
  N  N348  1  0.29757000  0.18251000  0.26047000  1.0
  N  N349  1  0.22228000  0.30375000  0.26956000  1.0
  N  N350  1  0.22996000  0.29142000  0.36876000  1.0
  N  N351  1  0.35609000  0.18015000  0.35844000  1.0
  N  N352  1  0.75160000  0.31787000  0.46317000  1.0
  N  N353  1  0.83202000  0.19744000  0.44995000  1.0
  N  N354  1  0.82603000  0.21505000  0.35174000  1.0
  N  N355  1  0.69936000  0.32641000  0.36531000  1.0
  N  N356  1  0.40761000  0.62328000  0.25125000  1.0
  N  N357  1  0.64478000  0.86911000  0.49082000  1.0
  N  N358  1  0.70242000  0.81749000  0.76046000  1.0
  N  N359  1  0.77771000  0.69625000  0.76956000  1.0
  N  N360  1  0.77003000  0.70858000  0.86876000  1.0
  N  N361  1  0.64391000  0.81985000  0.85844000  1.0
  N  N362  1  0.24840000  0.68213000  0.96316000  1.0
  N  N363  1  0.16798000  0.80256000  0.94995000  1.0
  N  N364  1  0.17395000  0.78495000  0.85173000  1.0
  N  N365  1  0.30065000  0.67359000  0.86530000  1.0
  N  N366  1  0.59239000  0.37672000  0.75125000  1.0
  N  N367  1  0.35521000  0.13089000  0.99082000  1.0
  O  O368  1  0.81314000  0.21827000  0.99854000  1.0
  O  O369  1  0.02256000  0.27104000  0.96387000  1.0
  O  O370  1  0.88018000  0.65307000  0.32245000  1.0
  O  O371  1  0.08074000  0.67853000  0.37301000  1.0
  O  O372  1  0.27769000  0.15930000  0.66428000  1.0
  O  O373  1  0.38278000  0.26327000  0.66967000  1.0
  O  O374  1  0.62350000  0.82126000  0.32982000  1.0
  O  O375  1  0.73677000  0.83977000  0.25911000  1.0
  O  O376  1  0.75995000  0.20569000  0.75930000  1.0
  O  O377  1  0.01400000  0.24665000  0.75413000  1.0
  O  O378  1  0.99006000  0.82893000  0.34484000  1.0
  O  O379  1  0.14725000  0.84664000  0.40885000  1.0
  O  O380  1  0.56029000  0.27137000  0.05741000  1.0
  O  O381  1  0.75470000  0.35475000  0.05978000  1.0
  O  O382  1  0.45875000  0.69226000  0.41461000  1.0
  O  O383  1  0.27924000  0.65092000  0.46619000  1.0
  O  O384  1  0.60158000  0.69228000  0.28494000  1.0
  O  O385  1  0.45573000  0.81997000  0.44092000  1.0
  O  O386  1  0.75654000  0.73731000  0.39503000  1.0
  O  O387  1  0.32821000  0.77333000  0.34532000  1.0
  O  O388  1  0.18686000  0.78174000  0.49854000  1.0
  O  O389  1  0.97744000  0.72896000  0.46387000  1.0
  O  O390  1  0.11982000  0.34693000  0.82244000  1.0
  O  O391  1  0.91925000  0.32146000  0.87300000  1.0
  O  O392  1  0.72231000  0.84070000  0.16428000  1.0
  O  O393  1  0.61722000  0.73673000  0.16967000  1.0
  O  O394  1  0.37650000  0.17874000  0.82981000  1.0
  O  O395  1  0.26323000  0.16023000  0.75911000  1.0
  O  O396  1  0.24006000  0.79431000  0.25930000  1.0
  O  O397  1  0.98600000  0.75335000  0.25412000  1.0
  O  O398  1  0.00994000  0.17106000  0.84483000  1.0
  O  O399  1  0.85274000  0.15336000  0.90884000  1.0
  O  O400  1  0.43971000  0.72863000  0.55741000  1.0
  O  O401  1  0.24530000  0.64525000  0.55978000  1.0
  O  O402  1  0.54124000  0.30774000  0.91460000  1.0
  O  O403  1  0.72075000  0.34908000  0.96618000  1.0
  O  O404  1  0.39842000  0.30771000  0.78494000  1.0
  O  O405  1  0.54427000  0.18003000  0.94092000  1.0
  O  O406  1  0.24346000  0.26269000  0.89503000  1.0
  O  O407  1  0.67178000  0.22667000  0.84532000  1.0
