# generated using pymatgen
data_Zn2P2H16C13(NO3)2
_symmetry_space_group_name_H-M   'P 1'
_cell_length_a   8.56332000
_cell_length_b   9.66458000
_cell_length_c   23.62420000
_cell_angle_alpha   90.00000000
_cell_angle_beta   90.00010000
_cell_angle_gamma   89.99990000
_symmetry_Int_Tables_number   1
_chemical_formula_structural   Zn2P2H16C13(NO3)2
_chemical_formula_sum   'Zn8 P8 H64 C52 N8 O24'
_cell_volume   1955.15984601
_cell_formula_units_Z   4
loop_
 _symmetry_equiv_pos_site_id
 _symmetry_equiv_pos_as_xyz
  1  'x, y, z'
loop_
 _atom_site_type_symbol
 _atom_site_label
 _atom_site_symmetry_multiplicity
 _atom_site_fract_x
 _atom_site_fract_y
 _atom_site_fract_z
 _atom_site_occupancy
  Zn  Zn0  1  0.22474000  0.40085000  0.46712000  1.0
  Zn  Zn1  1  0.22474000  0.09915000  0.03288000  1.0
  Zn  Zn2  1  0.27525000  0.59915000  0.96712000  1.0
  Zn  Zn3  1  0.27526000  0.90085000  0.53288000  1.0
  Zn  Zn4  1  0.77525000  0.59915000  0.53288000  1.0
  Zn  Zn5  1  0.77526000  0.90085000  0.96712000  1.0
  Zn  Zn6  1  0.72475000  0.40085000  0.03288000  1.0
  Zn  Zn7  1  0.72474000  0.09915000  0.46712000  1.0
  P  P8  1  0.12920000  0.60320000  0.56470000  1.0
  P  P9  1  0.12921000  0.89680000  0.93530000  1.0
  P  P10  1  0.37080000  0.39680000  0.06470000  1.0
  P  P11  1  0.37079000  0.10320000  0.43529000  1.0
  P  P12  1  0.87079000  0.39681000  0.43530000  1.0
  P  P13  1  0.87079000  0.10319000  0.06471000  1.0
  P  P14  1  0.62921000  0.60320000  0.93529000  1.0
  P  P15  1  0.62921000  0.89680000  0.56470000  1.0
  H  H16  1  0.21474000  0.62073000  0.61555000  1.0
  H  H17  1  0.21474000  0.87926000  0.88445000  1.0
  H  H18  1  0.28526000  0.37926000  0.11555000  1.0
  H  H19  1  0.28526000  0.12074000  0.38445000  1.0
  H  H20  1  0.78526000  0.37927000  0.38445000  1.0
  H  H21  1  0.78526000  0.12074000  0.11555000  1.0
  H  H22  1  0.71474000  0.62074000  0.88445000  1.0
  H  H23  1  0.71474000  0.87926000  0.61555000  1.0
  H  H24  1  0.58686000  0.79980000  0.40381000  1.0
  H  H25  1  0.58685000  0.70019000  0.09619000  1.0
  H  H26  1  0.91315000  0.20019000  0.90381000  1.0
  H  H27  1  0.91314000  0.29981000  0.59619000  1.0
  H  H28  1  0.41315000  0.20019000  0.59619000  1.0
  H  H29  1  0.41314000  0.29981000  0.90381000  1.0
  H  H30  1  0.08685000  0.79981000  0.09619000  1.0
  H  H31  1  0.08686000  0.70019000  0.40381000  1.0
  H  H32  1  0.40086000  0.68091000  0.46804000  1.0
  H  H33  1  0.40086000  0.81909000  0.03196000  1.0
  H  H34  1  0.09914000  0.31909000  0.96804000  1.0
  H  H35  1  0.09914000  0.18091000  0.53196000  1.0
  H  H36  1  0.59914000  0.31909000  0.53196000  1.0
  H  H37  1  0.59914000  0.18091000  0.96804000  1.0
  H  H38  1  0.90086000  0.68091000  0.03196000  1.0
  H  H39  1  0.90087000  0.81909000  0.46804000  1.0
  H  H40  1  0.37152000  0.33972000  0.36209000  1.0
  H  H41  1  0.37153000  0.16027000  0.13791000  1.0
  H  H42  1  0.12847000  0.66028000  0.86209000  1.0
  H  H43  1  0.12848000  0.83972000  0.63791000  1.0
  H  H44  1  0.62848000  0.66027000  0.63791000  1.0
  H  H45  1  0.62848000  0.83973000  0.86209000  1.0
  H  H46  1  0.87154000  0.33973000  0.13791000  1.0
  H  H47  1  0.87152000  0.16028000  0.36209000  1.0
  H  H48  1  0.55787000  0.44347000  0.29337000  1.0
  H  H49  1  0.55787000  0.05652000  0.20663000  1.0
  H  H50  1  0.94212000  0.55652000  0.79338000  1.0
  H  H51  1  0.94213000  0.94348000  0.70662000  1.0
  H  H52  1  0.44213000  0.55652000  0.70662000  1.0
  H  H53  1  0.44213000  0.94348000  0.79337000  1.0
  H  H54  1  0.05788000  0.44348000  0.20663000  1.0
  H  H55  1  0.05787000  0.05652000  0.29337000  1.0
  H  H56  1  0.78142000  0.61860000  0.28544000  1.0
  H  H57  1  0.78142000  0.88139000  0.21456000  1.0
  H  H58  1  0.71858000  0.38139000  0.78544000  1.0
  H  H59  1  0.71858000  0.11860000  0.71456000  1.0
  H  H60  1  0.21858000  0.38140000  0.71456000  1.0
  H  H61  1  0.21858000  0.11860000  0.78544000  1.0
  H  H62  1  0.28142000  0.61861000  0.21456000  1.0
  H  H63  1  0.28142000  0.88140000  0.28544000  1.0
  H  H64  1  0.76344000  0.78123000  0.31961000  1.0
  H  H65  1  0.76343000  0.71876000  0.18039000  1.0
  H  H66  1  0.73656000  0.21876000  0.81961000  1.0
  H  H67  1  0.73656000  0.28123000  0.68039000  1.0
  H  H68  1  0.23656000  0.21877000  0.68039000  1.0
  H  H69  1  0.23656000  0.28124000  0.81961000  1.0
  H  H70  1  0.26343000  0.78124000  0.18039000  1.0
  H  H71  1  0.26343000  0.71877000  0.31961000  1.0
  H  H72  1  0.52360000  0.83311000  0.26521000  1.0
  H  H73  1  0.52360000  0.66689000  0.23479000  1.0
  H  H74  1  0.97640000  0.16689000  0.76521000  1.0
  H  H75  1  0.97640000  0.33311000  0.73479000  1.0
  H  H76  1  0.47640000  0.16689000  0.73479000  1.0
  H  H77  1  0.47640000  0.33311000  0.76521000  1.0
  H  H78  1  0.02360000  0.83311000  0.23479000  1.0
  H  H79  1  0.02360000  0.66689000  0.26521000  1.0
  C  C80  1  0.54326000  0.69760000  0.39248000  1.0
  C  C81  1  0.54326000  0.80239000  0.10752000  1.0
  C  C82  1  0.95674000  0.30239000  0.89248000  1.0
  C  C83  1  0.95674000  0.19761000  0.60752000  1.0
  C  C84  1  0.45674000  0.30239000  0.60752000  1.0
  C  C85  1  0.45673000  0.19761000  0.89248000  1.0
  C  C86  1  0.04327000  0.69761000  0.10752000  1.0
  C  C87  1  0.04326000  0.80240000  0.39248000  1.0
  C  C88  1  0.43925000  0.63212000  0.42896000  1.0
  C  C89  1  0.43924000  0.86788000  0.07104000  1.0
  C  C90  1  0.06076000  0.36788000  0.92896000  1.0
  C  C91  1  0.06075000  0.13213000  0.57103000  1.0
  C  C92  1  0.56076000  0.36788000  0.57104000  1.0
  C  C93  1  0.56076000  0.13212000  0.92896000  1.0
  C  C94  1  0.93925000  0.63212000  0.07104000  1.0
  C  C95  1  0.93925000  0.86788000  0.42896000  1.0
  C  C96  1  0.42183000  0.44169000  0.36948000  1.0
  C  C97  1  0.42184000  0.05831000  0.13052000  1.0
  C  C98  1  0.07817000  0.55832000  0.86948000  1.0
  C  C99  1  0.07817000  0.94169000  0.63052000  1.0
  C  C100  1  0.57817000  0.55831000  0.63052000  1.0
  C  C101  1  0.57817000  0.94169000  0.86948000  1.0
  C  C102  1  0.92184000  0.44168000  0.13052000  1.0
  C  C103  1  0.92183000  0.05831000  0.36948000  1.0
  C  C104  1  0.52567000  0.50026000  0.33157000  1.0
  C  C105  1  0.52567000  0.99973000  0.16843000  1.0
  C  C106  1  0.97433000  0.49973000  0.83157000  1.0
  C  C107  1  0.97433000  0.00026000  0.66843000  1.0
  C  C108  1  0.47434000  0.49974000  0.66843000  1.0
  C  C109  1  0.47433000  0.00027000  0.83157000  1.0
  C  C110  1  0.02567000  0.50027000  0.16843000  1.0
  C  C111  1  0.02566000  0.99974000  0.33157000  1.0
  C  C112  1  0.58964000  0.63110000  0.34278000  1.0
  C  C113  1  0.58964000  0.86890000  0.15722000  1.0
  C  C114  1  0.91036000  0.36890000  0.84278000  1.0
  C  C115  1  0.91036000  0.13111000  0.65722000  1.0
  C  C116  1  0.41037000  0.36890000  0.65722000  1.0
  C  C117  1  0.41036000  0.13110000  0.84278000  1.0
  C  C118  1  0.08964000  0.63110000  0.15722000  1.0
  C  C119  1  0.08964000  0.86889000  0.34278000  1.0
  C  C120  1  0.69682000  0.69643000  0.30024000  1.0
  C  C121  1  0.69682000  0.80356000  0.19975000  1.0
  C  C122  1  0.80318000  0.30357000  0.80025000  1.0
  C  C123  1  0.80318000  0.19643000  0.69976000  1.0
  C  C124  1  0.30318000  0.30357000  0.69976000  1.0
  C  C125  1  0.30318000  0.19644000  0.80025000  1.0
  C  C126  1  0.19682000  0.69644000  0.19975000  1.0
  C  C127  1  0.19682000  0.80357000  0.30024000  1.0
  C  C128  1  0.60090000  0.75000000  0.25000000  1.0
  C  C129  1  0.89910000  0.25000000  0.75000000  1.0
  C  C130  1  0.39910000  0.25000000  0.75000000  1.0
  C  C131  1  0.10090000  0.75000000  0.25000000  1.0
  N  N132  1  0.37923000  0.50624000  0.41773000  1.0
  N  N133  1  0.37923000  0.99376000  0.08226000  1.0
  N  N134  1  0.12077000  0.49376000  0.91774000  1.0
  N  N135  1  0.12077000  0.00624000  0.58226000  1.0
  N  N136  1  0.62077000  0.49376000  0.58227000  1.0
  N  N137  1  0.62077000  0.00624000  0.91774000  1.0
  N  N138  1  0.87924000  0.50624000  0.08226000  1.0
  N  N139  1  0.87923000  0.99376000  0.41774000  1.0
  O  O140  1  0.17315000  0.45844000  0.54297000  1.0
  O  O141  1  0.17315000  0.04156000  0.95703000  1.0
  O  O142  1  0.32685000  0.54156000  0.04297000  1.0
  O  O143  1  0.32685000  0.95844000  0.45703000  1.0
  O  O144  1  0.82685000  0.54156000  0.45703000  1.0
  O  O145  1  0.82685000  0.95844000  0.04297000  1.0
  O  O146  1  0.67315000  0.45844000  0.95703000  1.0
  O  O147  1  0.67315000  0.04156000  0.54297000  1.0
  O  O148  1  0.18108000  0.71686000  0.52324000  1.0
  O  O149  1  0.18108000  0.78315000  0.97676000  1.0
  O  O150  1  0.31892000  0.28315000  0.02324000  1.0
  O  O151  1  0.31892000  0.21685000  0.47676000  1.0
  O  O152  1  0.81892000  0.28315000  0.47676000  1.0
  O  O153  1  0.81892000  0.21685000  0.02324000  1.0
  O  O154  1  0.68108000  0.71685000  0.97676000  1.0
  O  O155  1  0.68108000  0.78315000  0.52324000  1.0
  O  O156  1  0.95753000  0.61443000  0.58329000  1.0
  O  O157  1  0.95753000  0.88557000  0.91671000  1.0
  O  O158  1  0.54247000  0.38557000  0.08329000  1.0
  O  O159  1  0.54247000  0.11443000  0.41671000  1.0
  O  O160  1  0.04247000  0.38557000  0.41671000  1.0
  O  O161  1  0.04247000  0.11443000  0.08329000  1.0
  O  O162  1  0.45753000  0.61443000  0.91671000  1.0
  O  O163  1  0.45753000  0.88557000  0.58329000  1.0
