# generated using pymatgen
data_ZnH16C32N4(ClO)4
_symmetry_space_group_name_H-M   'P 1'
_cell_length_a   9.08558000
_cell_length_b   10.01400000
_cell_length_c   16.79040000
_cell_angle_alpha   95.39390000
_cell_angle_beta   90.74120000
_cell_angle_gamma   106.46000000
_symmetry_Int_Tables_number   1
_chemical_formula_structural   ZnH16C32N4(ClO)4
_chemical_formula_sum   'Zn2 H32 C64 N8 Cl8 O8'
_cell_volume   1457.29436334
_cell_formula_units_Z   2
loop_
 _symmetry_equiv_pos_site_id
 _symmetry_equiv_pos_as_xyz
  1  'x, y, z'
loop_
 _atom_site_type_symbol
 _atom_site_label
 _atom_site_symmetry_multiplicity
 _atom_site_fract_x
 _atom_site_fract_y
 _atom_site_fract_z
 _atom_site_occupancy
  Zn  Zn0  1  0.94561000  0.71395000  0.75636000  1.0
  Zn  Zn1  1  0.05438000  0.28604000  0.24363000  1.0
  H  H2  1  0.66206000  0.76305000  0.85079000  1.0
  H  H3  1  0.33793000  0.23694000  0.14920000  1.0
  H  H4  1  0.49626000  0.92573000  0.84615000  1.0
  H  H5  1  0.50374000  0.07425000  0.15385000  1.0
  H  H6  1  0.56821000  0.12052000  0.75694000  1.0
  H  H7  1  0.43179000  0.87948000  0.24306000  1.0
  H  H8  1  0.74164000  0.23400000  0.65043000  1.0
  H  H9  1  0.25837000  0.76601000  0.34958000  1.0
  H  H10  1  0.96679000  0.24104000  0.56576000  1.0
  H  H11  1  0.03322000  0.75897000  0.43425000  1.0
  H  H12  1  0.18951000  0.15404000  0.52998000  1.0
  H  H13  1  0.81051000  0.84597000  0.47003000  1.0
  H  H14  1  0.35100000  0.99375000  0.55776000  1.0
  H  H15  1  0.64901000  0.00625000  0.44224000  1.0
  H  H16  1  0.26574000  0.82446000  0.65988000  1.0
  H  H17  1  0.73425000  0.17552000  0.34011000  1.0
  H  H18  1  0.02563000  0.96111000  0.91019000  1.0
  H  H19  1  0.97433000  0.03887000  0.08981000  1.0
  H  H20  1  0.19650000  0.01138000  0.03456000  1.0
  H  H21  1  0.80346000  0.98861000  0.96543000  1.0
  H  H22  1  0.37072000  0.86047000  0.05392000  1.0
  H  H23  1  0.62924000  0.13953000  0.94609000  1.0
  H  H24  1  0.47781000  0.66876000  0.99680000  1.0
  H  H25  1  0.52217000  0.33125000  0.00321000  1.0
  H  H26  1  0.49998000  0.50262000  0.87971000  1.0
  H  H27  1  0.50003000  0.49740000  0.12030000  1.0
  H  H28  1  0.42502000  0.40514000  0.73761000  1.0
  H  H29  1  0.57500000  0.59487000  0.26240000  1.0
  H  H30  1  0.23950000  0.37602000  0.61911000  1.0
  H  H31  1  0.76053000  0.62399000  0.38089000  1.0
  H  H32  1  0.03541000  0.49997000  0.62918000  1.0
  H  H33  1  0.96461000  0.50003000  0.37081000  1.0
  C  C34  1  0.68986000  0.84989000  0.81377000  1.0
  C  C35  1  0.31014000  0.15010000  0.18622000  1.0
  C  C36  1  0.59727000  0.94068000  0.81001000  1.0
  C  C37  1  0.40273000  0.05931000  0.18999000  1.0
  C  C38  1  0.63583000  0.04671000  0.76020000  1.0
  C  C39  1  0.36417000  0.95329000  0.23980000  1.0
  C  C40  1  0.76616000  0.06041000  0.71313000  1.0
  C  C41  1  0.23385000  0.93959000  0.28687000  1.0
  C  C42  1  0.85473000  0.96596000  0.72225000  1.0
  C  C43  1  0.14527000  0.03404000  0.27776000  1.0
  C  C44  1  0.81010000  0.16166000  0.65660000  1.0
  C  C45  1  0.18991000  0.83834000  0.34340000  1.0
  C  C46  1  0.93440000  0.16723000  0.61064000  1.0
  C  C47  1  0.06562000  0.83277000  0.38936000  1.0
  C  C48  1  0.02854000  0.07630000  0.62017000  1.0
  C  C49  1  0.97148000  0.92370000  0.37983000  1.0
  C  C50  1  0.99019000  0.97655000  0.67664000  1.0
  C  C51  1  0.00983000  0.02345000  0.32337000  1.0
  C  C52  1  0.16087000  0.08126000  0.57574000  1.0
  C  C53  1  0.83915000  0.91874000  0.42427000  1.0
  C  C54  1  0.24840000  0.99309000  0.59083000  1.0
  C  C55  1  0.75161000  0.00690000  0.40918000  1.0
  C  C56  1  0.20088000  0.89754000  0.64823000  1.0
  C  C57  1  0.79912000  0.10245000  0.35177000  1.0
  C  C58  1  0.10535000  0.89993000  0.91962000  1.0
  C  C59  1  0.89462000  0.10005000  0.08038000  1.0
  C  C60  1  0.20163000  0.92787000  0.98918000  1.0
  C  C61  1  0.79834000  0.07213000  0.01082000  1.0
  C  C62  1  0.29952000  0.84675000  0.99934000  1.0
  C  C63  1  0.70046000  0.15326000  0.00066000  1.0
  C  C64  1  0.30595000  0.74192000  0.93811000  1.0
  C  C65  1  0.69402000  0.25809000  0.06190000  1.0
  C  C66  1  0.20574000  0.72268000  0.86973000  1.0
  C  C67  1  0.79424000  0.27732000  0.13027000  1.0
  C  C68  1  0.40876000  0.65750000  0.94173000  1.0
  C  C69  1  0.59123000  0.34252000  0.05828000  1.0
  C  C70  1  0.41946000  0.56525000  0.87819000  1.0
  C  C71  1  0.58054000  0.43476000  0.12182000  1.0
  C  C72  1  0.32419000  0.54730000  0.80712000  1.0
  C  C73  1  0.67581000  0.45271000  0.19288000  1.0
  C  C74  1  0.21206000  0.62072000  0.80426000  1.0
  C  C75  1  0.78794000  0.37928000  0.19574000  1.0
  C  C76  1  0.33546000  0.45836000  0.73827000  1.0
  C  C77  1  0.66456000  0.54165000  0.26174000  1.0
  C  C78  1  0.23410000  0.44230000  0.67357000  1.0
  C  C79  1  0.76593000  0.55772000  0.32644000  1.0
  C  C80  1  0.12028000  0.51295000  0.67797000  1.0
  C  C81  1  0.87974000  0.48706000  0.32203000  1.0
  C  C82  1  0.79963000  0.63197000  0.58399000  1.0
  C  C83  1  0.20038000  0.36803000  0.41599000  1.0
  C  C84  1  0.64344000  0.56380000  0.54112000  1.0
  C  C85  1  0.35657000  0.43620000  0.45887000  1.0
  C  C86  1  0.61303000  0.43076000  0.49930000  1.0
  C  C87  1  0.38698000  0.56926000  0.50068000  1.0
  C  C88  1  0.47091000  0.36759000  0.45873000  1.0
  C  C89  1  0.52911000  0.63243000  0.54125000  1.0
  C  C90  1  0.77037000  0.47747000  0.86934000  1.0
  C  C91  1  0.22961000  0.52253000  0.13066000  1.0
  C  C92  1  0.89324000  0.49247000  0.93559000  1.0
  C  C93  1  0.10674000  0.50752000  0.06441000  1.0
  C  C94  1  0.98972000  0.40510000  0.93262000  1.0
  C  C95  1  0.01027000  0.59489000  0.06738000  1.0
  C  C96  1  0.09421000  0.41200000  0.99632000  1.0
  C  C97  1  0.90578000  0.58800000  0.00368000  1.0
  N  N98  1  0.81554000  0.86334000  0.77183000  1.0
  N  N99  1  0.18445000  0.13665000  0.22817000  1.0
  N  N100  1  0.07470000  0.88813000  0.68902000  1.0
  N  N101  1  0.92530000  0.11186000  0.31098000  1.0
  N  N102  1  0.10543000  0.79892000  0.86235000  1.0
  N  N103  1  0.89454000  0.20107000  0.13764000  1.0
  N  N104  1  0.11083000  0.60053000  0.74109000  1.0
  N  N105  1  0.88917000  0.39946000  0.25891000  1.0
  Cl  Cl106  1  0.75508000  0.34744000  0.49664000  1.0
  Cl  Cl107  1  0.24493000  0.65258000  0.50335000  1.0
  Cl  Cl108  1  0.43478000  0.20283000  0.40764000  1.0
  Cl  Cl109  1  0.56523000  0.79719000  0.59235000  1.0
  Cl  Cl110  1  0.97862000  0.28777000  0.84918000  1.0
  Cl  Cl111  1  0.02137000  0.71223000  0.15082000  1.0
  Cl  Cl112  1  0.21086000  0.30206000  0.98994000  1.0
  Cl  Cl113  1  0.78913000  0.69794000  0.01006000  1.0
  O  O114  1  0.80336000  0.60958000  0.65740000  1.0
  O  O115  1  0.19664000  0.39041000  0.34258000  1.0
  O  O116  1  0.90420000  0.69930000  0.54335000  1.0
  O  O117  1  0.09582000  0.30070000  0.45664000  1.0
  O  O118  1  0.78972000  0.57526000  0.82388000  1.0
  O  O119  1  0.21027000  0.42474000  0.17612000  1.0
  O  O120  1  0.65658000  0.37139000  0.86805000  1.0
  O  O121  1  0.34340000  0.62861000  0.13195000  1.0
