# generated using pymatgen
data_KH7C9(N2O)2
_symmetry_space_group_name_H-M   'P 1'
_cell_length_a   4.16641000
_cell_length_b   7.85727000
_cell_length_c   15.09550000
_cell_angle_alpha   88.17790000
_cell_angle_beta   84.77060000
_cell_angle_gamma   87.34130000
_symmetry_Int_Tables_number   1
_chemical_formula_structural   KH7C9(N2O)2
_chemical_formula_sum   'K2 H14 C18 N8 O4'
_cell_volume   491.40004761
_cell_formula_units_Z   2
loop_
 _symmetry_equiv_pos_site_id
 _symmetry_equiv_pos_as_xyz
  1  'x, y, z'
loop_
 _atom_site_type_symbol
 _atom_site_label
 _atom_site_symmetry_multiplicity
 _atom_site_fract_x
 _atom_site_fract_y
 _atom_site_fract_z
 _atom_site_occupancy
  K  K0  1  0.91229000  0.97573000  0.63863000  1.0
  K  K1  1  0.08770000  0.02428000  0.36136000  1.0
  H  H2  1  0.94405000  0.56157000  0.71927000  1.0
  H  H3  1  0.05596000  0.43843000  0.28074000  1.0
  H  H4  1  0.89566000  0.35509000  0.87100000  1.0
  H  H5  1  0.10434000  0.64490000  0.12900000  1.0
  H  H6  1  0.31945000  0.08145000  0.82543000  1.0
  H  H7  1  0.68055000  0.91854000  0.17456000  1.0
  H  H8  1  0.92432000  0.98002000  0.92554000  1.0
  H  H9  1  0.07567000  0.01998000  0.07446000  1.0
  H  H10  1  0.59398000  0.75207000  0.03809000  1.0
  H  H11  1  0.40599000  0.24792000  0.96191000  1.0
  H  H12  1  0.29672000  0.55565000  0.92277000  1.0
  H  H13  1  0.70326000  0.44435000  0.07722000  1.0
  H  H14  1  0.46601000  0.68039000  0.76618000  1.0
  H  H15  1  0.53400000  0.31961000  0.23381000  1.0
  C  C16  1  0.36467000  0.33168000  0.51129000  1.0
  C  C17  1  0.63534000  0.66832000  0.48871000  1.0
  C  C18  1  0.38681000  0.43160000  0.58724000  1.0
  C  C19  1  0.61321000  0.56841000  0.41276000  1.0
  C  C20  1  0.49687000  0.59886000  0.58033000  1.0
  C  C21  1  0.50314000  0.40115000  0.41968000  1.0
  C  C22  1  0.06501000  0.44092000  0.73439000  1.0
  C  C23  1  0.93500000  0.55908000  0.26562000  1.0
  C  C24  1  0.04639000  0.33480000  0.80957000  1.0
  C  C25  1  0.95361000  0.66519000  0.19043000  1.0
  C  C26  1  0.25743000  0.19468000  0.78656000  1.0
  C  C27  1  0.74258000  0.80531000  0.21344000  1.0
  C  C28  1  0.77438000  0.87868000  0.90878000  1.0
  C  C29  1  0.22561000  0.12132000  0.09122000  1.0
  C  C30  1  0.60631000  0.76139000  0.96610000  1.0
  C  C31  1  0.39368000  0.23861000  0.03390000  1.0
  C  C32  1  0.45561000  0.66052000  0.90974000  1.0
  C  C33  1  0.54438000  0.33947000  0.09026000  1.0
  N  N34  1  0.27567000  0.36395000  0.67232000  1.0
  N  N35  1  0.72434000  0.63605000  0.32768000  1.0
  N  N36  1  0.39765000  0.21163000  0.70335000  1.0
  N  N37  1  0.60236000  0.78837000  0.29664000  1.0
  N  N38  1  0.53628000  0.71934000  0.82591000  1.0
  N  N39  1  0.46371000  0.28066000  0.17409000  1.0
  N  N40  1  0.73217000  0.85248000  0.82320000  1.0
  N  N41  1  0.26783000  0.14752000  0.17681000  1.0
  O  O42  1  0.23300000  0.19062000  0.51347000  1.0
  O  O43  1  0.76699000  0.80939000  0.48654000  1.0
  O  O44  1  0.49175000  0.69981000  0.64465000  1.0
  O  O45  1  0.50826000  0.30020000  0.35535000  1.0
