# generated using pymatgen
data_AlH10C14NO5
_symmetry_space_group_name_H-M   'P 1'
_cell_length_a   6.68265000
_cell_length_b   11.07010000
_cell_length_c   16.83000000
_cell_angle_alpha   77.43970000
_cell_angle_beta   84.11100000
_cell_angle_gamma   73.43700000
_symmetry_Int_Tables_number   1
_chemical_formula_structural   AlH10C14NO5
_chemical_formula_sum   'Al2 H20 C28 N2 O10'
_cell_volume   1163.72414060
_cell_formula_units_Z   2
loop_
 _symmetry_equiv_pos_site_id
 _symmetry_equiv_pos_as_xyz
  1  'x, y, z'
loop_
 _atom_site_type_symbol
 _atom_site_label
 _atom_site_symmetry_multiplicity
 _atom_site_fract_x
 _atom_site_fract_y
 _atom_site_fract_z
 _atom_site_occupancy
  Al  Al0  1  0.49117000  0.50504000  0.49558000  1.0
  Al  Al1  1  0.99081000  0.50440000  0.49610000  1.0
  H  H2  1  0.17786000  0.66269000  0.44119000  1.0
  H  H3  1  0.80740000  0.34477000  0.54347000  1.0
  H  H4  1  0.92136000  0.41543000  0.74284000  1.0
  H  H5  1  0.84763000  0.42281000  0.89127000  1.0
  H  H6  1  0.37588000  0.57258000  0.88677000  1.0
  H  H7  1  0.61372000  0.43330000  0.10549000  1.0
  H  H8  1  0.13878000  0.58574000  0.10174000  1.0
  H  H9  1  0.06260000  0.59372000  0.24997000  1.0
  H  H10  1  0.90759000  0.74457000  0.60320000  1.0
  H  H11  1  0.08740000  0.84352000  0.68094000  1.0
  H  H12  1  0.64319000  0.21049000  0.60991000  1.0
  H  H13  1  0.95397000  0.07752000  0.68477000  1.0
  H  H14  1  0.16569000  0.13249000  0.44593000  1.0
  H  H15  1  0.28667000  0.89632000  0.44861000  1.0
  H  H16  1  0.57907000  0.61497000  0.77050000  1.0
  H  H17  1  0.44628000  0.66540000  0.67735000  1.0
  H  H18  1  0.61309000  0.51030000  0.70005000  1.0
  H  H19  1  0.37278000  0.49494000  0.29164000  1.0
  H  H20  1  0.54221000  0.34066000  0.31485000  1.0
  H  H21  1  0.41080000  0.38974000  0.22134000  1.0
  C  C22  1  0.62903000  0.72974000  0.50474000  1.0
  C  C23  1  0.77398000  0.52113000  0.34961000  1.0
  C  C24  1  0.35212000  0.27536000  0.50172000  1.0
  C  C25  1  0.20953000  0.48733000  0.64282000  1.0
  C  C26  1  0.18650000  0.49115000  0.73143000  1.0
  C  C27  1  0.01930000  0.44988000  0.77553000  1.0
  C  C28  1  0.97783000  0.45382000  0.85725000  1.0
  C  C29  1  0.10738000  0.50034000  0.89670000  1.0
  C  C30  1  0.27767000  0.53833000  0.85373000  1.0
  C  C31  1  0.32067000  0.53581000  0.77084000  1.0
  C  C32  1  0.71056000  0.46834000  0.13865000  1.0
  C  C33  1  0.88048000  0.50709000  0.09591000  1.0
  C  C34  1  0.00866000  0.55435000  0.13555000  1.0
  C  C35  1  0.96583000  0.55857000  0.21718000  1.0
  C  C36  1  0.79876000  0.51678000  0.26104000  1.0
  C  C37  1  0.66630000  0.47101000  0.22148000  1.0
  C  C38  1  0.55966000  0.86678000  0.51415000  1.0
  C  C39  1  0.67517000  0.92167000  0.55695000  1.0
  C  C40  1  0.37517000  0.94139000  0.47826000  1.0
  C  C41  1  0.85245000  0.84713000  0.60243000  1.0
  C  C42  1  0.95240000  0.90271000  0.64625000  1.0
  C  C43  1  0.42049000  0.13236000  0.51320000  1.0
  C  C44  1  0.30643000  0.07383000  0.47713000  1.0
  C  C45  1  0.60153000  0.05722000  0.55747000  1.0
  C  C46  1  0.70532000  0.10994000  0.60540000  1.0
  C  C47  1  0.87749000  0.03487000  0.64826000  1.0
  C  C48  1  0.49976000  0.58399000  0.72789000  1.0
  C  C49  1  0.48806000  0.42165000  0.26415000  1.0
  N  N50  1  0.07954000  0.51242000  0.97925000  1.0
  N  N51  1  0.90912000  0.49489000  0.01342000  1.0
  O  O52  1  0.48517000  0.67466000  0.50536000  1.0
  O  O53  1  0.93901000  0.51438000  0.38446000  1.0
  O  O54  1  0.15636000  0.32928000  0.50310000  1.0
  O  O55  1  0.39063000  0.47454000  0.60784000  1.0
  O  O56  1  0.49440000  0.33401000  0.48947000  1.0
  O  O57  1  0.04315000  0.49585000  0.60824000  1.0
  O  O58  1  0.82362000  0.67799000  0.49437000  1.0
  O  O59  1  0.59255000  0.53260000  0.38423000  1.0
  O  O60  1  0.21889000  0.57021000  0.45985000  1.0
  O  O61  1  0.76309000  0.43814000  0.53228000  1.0
