# generated using pymatgen
data_SnH17C13S2NO2
_symmetry_space_group_name_H-M   'P 1'
_cell_length_a   9.80097000
_cell_length_b   10.52490000
_cell_length_c   21.04500000
_cell_angle_alpha   90.00000000
_cell_angle_beta   90.00000000
_cell_angle_gamma   101.40800000
_symmetry_Int_Tables_number   1
_chemical_formula_structural   SnH17C13S2NO2
_chemical_formula_sum   'Sn4 H68 C52 S8 N4 O8'
_cell_volume   2127.99189216
_cell_formula_units_Z   4
loop_
 _symmetry_equiv_pos_site_id
 _symmetry_equiv_pos_as_xyz
  1  'x, y, z'
loop_
 _atom_site_type_symbol
 _atom_site_label
 _atom_site_symmetry_multiplicity
 _atom_site_fract_x
 _atom_site_fract_y
 _atom_site_fract_z
 _atom_site_occupancy
  Sn  Sn0  1  0.69266000  0.22234000  0.73679000  1.0
  Sn  Sn1  1  0.30734000  0.27766000  0.23679000  1.0
  Sn  Sn2  1  0.30734000  0.77766000  0.26321000  1.0
  Sn  Sn3  1  0.69266000  0.72234000  0.76321000  1.0
  H  H4  1  0.07753000  0.06509000  0.64163000  1.0
  H  H5  1  0.92247000  0.43491000  0.14164000  1.0
  H  H6  1  0.92247000  0.93491000  0.35836000  1.0
  H  H7  1  0.07753000  0.56509000  0.85836000  1.0
  H  H8  1  0.18539000  0.21020000  0.67096000  1.0
  H  H9  1  0.81461000  0.28980000  0.17096000  1.0
  H  H10  1  0.81461000  0.78980000  0.32904000  1.0
  H  H11  1  0.18539000  0.71020000  0.82904000  1.0
  H  H12  1  0.04364000  0.97744000  0.75175000  1.0
  H  H13  1  0.95636000  0.52257000  0.25175000  1.0
  H  H14  1  0.95636000  0.02257000  0.24825000  1.0
  H  H15  1  0.04364000  0.47744000  0.74825000  1.0
  H  H16  1  0.15687000  0.12089000  0.78180000  1.0
  H  H17  1  0.84313000  0.37911000  0.28181000  1.0
  H  H18  1  0.84313000  0.87911000  0.21820000  1.0
  H  H19  1  0.15687000  0.62089000  0.71820000  1.0
  H  H20  1  0.15183000  0.85587000  0.67043000  1.0
  H  H21  1  0.84817000  0.64413000  0.17043000  1.0
  H  H22  1  0.84817000  0.14414000  0.32957000  1.0
  H  H23  1  0.15183000  0.35587000  0.82957000  1.0
  H  H24  1  0.33241000  0.86812000  0.65662000  1.0
  H  H25  1  0.66759000  0.63188000  0.15662000  1.0
  H  H26  1  0.66758000  0.13188000  0.34338000  1.0
  H  H27  1  0.33241000  0.36812000  0.84338000  1.0
  H  H28  1  0.41256000  0.05112000  0.55665000  1.0
  H  H29  1  0.58744000  0.44888000  0.05665000  1.0
  H  H30  1  0.58743000  0.94888000  0.44335000  1.0
  H  H31  1  0.41256000  0.55112000  0.94335000  1.0
  H  H32  1  0.37227000  0.05892000  0.44036000  1.0
  H  H33  1  0.62774000  0.44109000  0.94035000  1.0
  H  H34  1  0.62773000  0.94108000  0.55964000  1.0
  H  H35  1  0.37227000  0.55892000  0.05964000  1.0
  H  H36  1  0.15568000  0.93289000  0.39280000  1.0
  H  H37  1  0.84432000  0.56713000  0.89280000  1.0
  H  H38  1  0.84432000  0.06711000  0.60719000  1.0
  H  H39  1  0.15569000  0.43288000  0.10720000  1.0
  H  H40  1  0.97573000  0.79995000  0.46275000  1.0
  H  H41  1  0.02427000  0.70005000  0.96275000  1.0
  H  H42  1  0.02427000  0.20005000  0.53725000  1.0
  H  H43  1  0.97573000  0.29995000  0.03725000  1.0
  H  H44  1  0.01679000  0.79156000  0.57927000  1.0
  H  H45  1  0.98322000  0.70844000  0.07927000  1.0
  H  H46  1  0.98321000  0.20845000  0.42073000  1.0
  H  H47  1  0.01679000  0.29155000  0.92073000  1.0
  H  H48  1  0.75614000  0.32203000  0.85284000  1.0
  H  H49  1  0.24386000  0.17797000  0.35284000  1.0
  H  H50  1  0.24386000  0.67797000  0.14716000  1.0
  H  H51  1  0.75614000  0.82203000  0.64716000  1.0
  H  H52  1  0.72915000  0.14888000  0.85755000  1.0
  H  H53  1  0.27085000  0.35112000  0.35755000  1.0
  H  H54  1  0.27085000  0.85112000  0.14245000  1.0
  H  H55  1  0.72915000  0.64888000  0.64245000  1.0
  H  H56  1  0.58130000  0.22710000  0.85460000  1.0
  H  H57  1  0.41870000  0.27290000  0.35460000  1.0
  H  H58  1  0.41869000  0.77290000  0.14540000  1.0
  H  H59  1  0.58130000  0.72710000  0.64540000  1.0
  H  H60  1  0.75479000  0.45062000  0.67619000  1.0
  H  H61  1  0.24521000  0.04938000  0.17619000  1.0
  H  H62  1  0.24521000  0.54938000  0.32381000  1.0
  H  H63  1  0.75479000  0.95061000  0.82381000  1.0
  H  H64  1  0.70424000  0.32197000  0.61928000  1.0
  H  H65  1  0.29576000  0.17803000  0.11928000  1.0
  H  H66  1  0.29576000  0.67803000  0.38072000  1.0
  H  H67  1  0.70424000  0.82197000  0.88072000  1.0
  H  H68  1  0.87726000  0.35277000  0.65262000  1.0
  H  H69  1  0.12274000  0.14723000  0.15262000  1.0
  H  H70  1  0.12274000  0.64723000  0.34738000  1.0
  H  H71  1  0.87726000  0.85277000  0.84738000  1.0
  C  C72  1  0.39697000  0.10420000  0.69409000  1.0
  C  C73  1  0.60303000  0.39580000  0.19409000  1.0
  C  C74  1  0.60303000  0.89580000  0.30591000  1.0
  C  C75  1  0.39697000  0.60420000  0.80591000  1.0
  C  C76  1  0.15042000  0.10587000  0.67941000  1.0
  C  C77  1  0.84958000  0.39412000  0.17941000  1.0
  C  C78  1  0.84958000  0.89412000  0.32059000  1.0
  C  C79  1  0.15042000  0.60588000  0.82059000  1.0
  C  C80  1  0.08060000  0.08202000  0.74498000  1.0
  C  C81  1  0.91940000  0.41798000  0.24498000  1.0
  C  C82  1  0.91940000  0.91798000  0.25502000  1.0
  C  C83  1  0.08060000  0.58202000  0.75501000  1.0
  C  C84  1  0.95942000  0.15130000  0.74856000  1.0
  C  C85  1  0.04058000  0.34870000  0.24856000  1.0
  C  C86  1  0.04058000  0.84869000  0.25144000  1.0
  C  C87  1  0.95942000  0.65131000  0.75143000  1.0
  C  C88  1  0.24297000  0.91322000  0.64608000  1.0
  C  C89  1  0.75703000  0.58678000  0.14608000  1.0
  C  C90  1  0.75703000  0.08678000  0.35392000  1.0
  C  C91  1  0.24297000  0.41322000  0.85392000  1.0
  C  C92  1  0.21793000  0.91903000  0.57540000  1.0
  C  C93  1  0.78207000  0.58097000  0.07540000  1.0
  C  C94  1  0.78207000  0.08097000  0.42460000  1.0
  C  C95  1  0.21794000  0.41903000  0.92460000  1.0
  C  C96  1  0.31698000  0.99546000  0.53600000  1.0
  C  C97  1  0.68302000  0.50454000  0.03599000  1.0
  C  C98  1  0.68302000  0.00454000  0.46400000  1.0
  C  C99  1  0.31698000  0.49546000  0.96400000  1.0
  C  C100  1  0.29422000  0.00030000  0.47077000  1.0
  C  C101  1  0.70579000  0.49971000  0.97076000  1.0
  C  C102  1  0.70579000  0.99970000  0.52923000  1.0
  C  C103  1  0.29421000  0.50029000  0.02923000  1.0
  C  C104  1  0.17204000  0.92911000  0.44401000  1.0
  C  C105  1  0.82796000  0.57089000  0.94401000  1.0
  C  C106  1  0.82796000  0.07089000  0.55599000  1.0
  C  C107  1  0.17204000  0.42911000  0.05599000  1.0
  C  C108  1  0.07244000  0.85393000  0.48303000  1.0
  C  C109  1  0.92756000  0.64607000  0.98303000  1.0
  C  C110  1  0.92755000  0.14607000  0.51697000  1.0
  C  C111  1  0.07245000  0.35393000  0.01697000  1.0
  C  C112  1  0.09515000  0.84911000  0.54850000  1.0
  C  C113  1  0.90485000  0.65089000  0.04850000  1.0
  C  C114  1  0.90484000  0.15090000  0.45150000  1.0
  C  C115  1  0.09515000  0.34911000  0.95150000  1.0
  C  C116  1  0.68829000  0.23089000  0.83868000  1.0
  C  C117  1  0.31171000  0.26911000  0.33868000  1.0
  C  C118  1  0.31171000  0.76911000  0.16132000  1.0
  C  C119  1  0.68829000  0.73089000  0.66132000  1.0
  C  C120  1  0.76746000  0.35408000  0.66135000  1.0
  C  C121  1  0.23254000  0.14592000  0.16135000  1.0
  C  C122  1  0.23254000  0.64592000  0.33866000  1.0
  C  C123  1  0.76746000  0.85407000  0.83866000  1.0
  S  S124  1  0.53733000  0.02617000  0.68892000  1.0
  S  S125  1  0.46267000  0.47383000  0.18892000  1.0
  S  S126  1  0.46267000  0.97382000  0.31108000  1.0
  S  S127  1  0.53733000  0.52618000  0.81108000  1.0
  S  S128  1  0.42518000  0.25808000  0.72435000  1.0
  S  S129  1  0.57482000  0.24192000  0.22435000  1.0
  S  S130  1  0.57482000  0.74192000  0.27565000  1.0
  S  S131  1  0.42518000  0.75808000  0.77565000  1.0
  N  N132  1  0.27093000  0.04361000  0.67440000  1.0
  N  N133  1  0.72906000  0.45638000  0.17440000  1.0
  N  N134  1  0.72906000  0.95638000  0.32560000  1.0
  N  N135  1  0.27094000  0.54362000  0.82560000  1.0
  O  O136  1  0.84145000  0.08957000  0.72526000  1.0
  O  O137  1  0.15855000  0.41044000  0.22526000  1.0
  O  O138  1  0.15855000  0.91044000  0.27474000  1.0
  O  O139  1  0.84145000  0.58957000  0.77474000  1.0
  O  O140  1  0.97315000  0.26340000  0.77106000  1.0
  O  O141  1  0.02685000  0.23660000  0.27106000  1.0
  O  O142  1  0.02685000  0.73660000  0.22894000  1.0
  O  O143  1  0.97314000  0.76340000  0.72894000  1.0
