# generated using pymatgen
data_AgH17C12S(N2O)2
_symmetry_space_group_name_H-M   'P 1'
_cell_length_a   6.43158000
_cell_length_b   11.06070000
_cell_length_c   18.88940000
_cell_angle_alpha   90.00080000
_cell_angle_beta   90.00040000
_cell_angle_gamma   102.16600000
_symmetry_Int_Tables_number   1
_chemical_formula_structural   AgH17C12S(N2O)2
_chemical_formula_sum   'Ag4 H68 C48 S4 N16 O8'
_cell_volume   1313.57081113
_cell_formula_units_Z   4
loop_
 _symmetry_equiv_pos_site_id
 _symmetry_equiv_pos_as_xyz
  1  'x, y, z'
loop_
 _atom_site_type_symbol
 _atom_site_label
 _atom_site_symmetry_multiplicity
 _atom_site_fract_x
 _atom_site_fract_y
 _atom_site_fract_z
 _atom_site_occupancy
  Ag  Ag0  1  0.38680000  0.39363000  0.46090000  1.0
  Ag  Ag1  1  0.11319000  0.10638000  0.96090000  1.0
  Ag  Ag2  1  0.61319000  0.60637000  0.53909000  1.0
  Ag  Ag3  1  0.88683000  0.89363000  0.03910000  1.0
  H  H4  1  0.65766000  0.30418000  0.33117000  1.0
  H  H5  1  0.84234000  0.19584000  0.83118000  1.0
  H  H6  1  0.34233000  0.69583000  0.66882000  1.0
  H  H7  1  0.15767000  0.80417000  0.16883000  1.0
  H  H8  1  0.46412000  0.17519000  0.36305000  1.0
  H  H9  1  0.03588000  0.32481000  0.86306000  1.0
  H  H10  1  0.53587000  0.82481000  0.63694000  1.0
  H  H11  1  0.96414000  0.67519000  0.13695000  1.0
  H  H12  1  0.89961000  0.38481000  0.50409000  1.0
  H  H13  1  0.60039000  0.11520000  0.00410000  1.0
  H  H14  1  0.10038000  0.61519000  0.49590000  1.0
  H  H15  1  0.39964000  0.88482000  0.99591000  1.0
  H  H16  1  0.90871000  0.42634000  0.41210000  1.0
  H  H17  1  0.59130000  0.07367000  0.91210000  1.0
  H  H18  1  0.09130000  0.57366000  0.58789000  1.0
  H  H19  1  0.40872000  0.92634000  0.08791000  1.0
  H  H20  1  0.45658000  0.12242000  0.48777000  1.0
  H  H21  1  0.04343000  0.37760000  0.98777000  1.0
  H  H22  1  0.54340000  0.87759000  0.51222000  1.0
  H  H23  1  0.95660000  0.62242000  0.01223000  1.0
  H  H24  1  0.64517000  0.21413000  0.54663000  1.0
  H  H25  1  0.85483000  0.28587000  0.04663000  1.0
  H  H26  1  0.35481000  0.78586000  0.45336000  1.0
  H  H27  1  0.14521000  0.71414000  0.95337000  1.0
  H  H28  1  0.02243000  0.29245000  0.32552000  1.0
  H  H29  1  0.47756000  0.20756000  0.82552000  1.0
  H  H30  1  0.97756000  0.70755000  0.67448000  1.0
  H  H31  1  0.52245000  0.79244000  0.17449000  1.0
  H  H32  1  0.10403000  0.15490000  0.35363000  1.0
  H  H33  1  0.39597000  0.34511000  0.85363000  1.0
  H  H34  1  0.89596000  0.84509000  0.64637000  1.0
  H  H35  1  0.60404000  0.65491000  0.14638000  1.0
  H  H36  1  0.84299000  0.98220000  0.39779000  1.0
  H  H37  1  0.65701000  0.51780000  0.89780000  1.0
  H  H38  1  0.15699000  0.01779000  0.60220000  1.0
  H  H39  1  0.34301000  0.48221000  0.10221000  1.0
  H  H40  1  0.56999000  0.99376000  0.40244000  1.0
  H  H41  1  0.93001000  0.50625000  0.90245000  1.0
  H  H42  1  0.42999000  0.00624000  0.59755000  1.0
  H  H43  1  0.07002000  0.49376000  0.09755000  1.0
  H  H44  1  0.01529000  0.20148000  0.54105000  1.0
  H  H45  1  0.48472000  0.29852000  0.04105000  1.0
  H  H46  1  0.98470000  0.79851000  0.45894000  1.0
  H  H47  1  0.51531000  0.70149000  0.95896000  1.0
  H  H48  1  0.09692000  0.10231000  0.47681000  1.0
  H  H49  1  0.40309000  0.39770000  0.97681000  1.0
  H  H50  1  0.90306000  0.89768000  0.52318000  1.0
  H  H51  1  0.59695000  0.60232000  0.02320000  1.0
  H  H52  1  0.26086000  0.44539000  0.27718000  1.0
  H  H53  1  0.23913000  0.05457000  0.77718000  1.0
  H  H54  1  0.73912000  0.55458000  0.72282000  1.0
  H  H55  1  0.76086000  0.94543000  0.22282000  1.0
  H  H56  1  0.37097000  0.31454000  0.18156000  1.0
  H  H57  1  0.12903000  0.18542000  0.68156000  1.0
  H  H58  1  0.62904000  0.68543000  0.81845000  1.0
  H  H59  1  0.87095000  0.81459000  0.31845000  1.0
  H  H60  1  0.75557000  0.33471000  0.15461000  1.0
  H  H61  1  0.74445000  0.16527000  0.65460000  1.0
  H  H62  1  0.24444000  0.66527000  0.84540000  1.0
  H  H63  1  0.25552000  0.83473000  0.34541000  1.0
  H  H64  1  0.02718000  0.48815000  0.22045000  1.0
  H  H65  1  0.47282000  0.01186000  0.72044000  1.0
  H  H66  1  0.97281000  0.51184000  0.77956000  1.0
  H  H67  1  0.52716000  0.98813000  0.27957000  1.0
  H  H68  1  0.91559000  0.61367000  0.31668000  1.0
  H  H69  1  0.58437000  0.88634000  0.81669000  1.0
  H  H70  1  0.08440000  0.38632000  0.68331000  1.0
  H  H71  1  0.41563000  0.11365000  0.18331000  1.0
  C  C72  1  0.62839000  0.22758000  0.36914000  1.0
  C  C73  1  0.87161000  0.27244000  0.86915000  1.0
  C  C74  1  0.37161000  0.77242000  0.63085000  1.0
  C  C75  1  0.12841000  0.72757000  0.13086000  1.0
  C  C76  1  0.87834000  0.34908000  0.44979000  1.0
  C  C77  1  0.62167000  0.15093000  0.94980000  1.0
  C  C78  1  0.12166000  0.65092000  0.55020000  1.0
  C  C79  1  0.37834000  0.84908000  0.05021000  1.0
  C  C80  1  0.62060000  0.17528000  0.49311000  1.0
  C  C81  1  0.87940000  0.32472000  0.99312000  1.0
  C  C82  1  0.37938000  0.82472000  0.50688000  1.0
  C  C83  1  0.12063000  0.67529000  0.00688000  1.0
  C  C84  1  0.99317000  0.21617000  0.36389000  1.0
  C  C85  1  0.50683000  0.28384000  0.86389000  1.0
  C  C86  1  0.00683000  0.78383000  0.63611000  1.0
  C  C87  1  0.49319000  0.71617000  0.13612000  1.0
  C  C88  1  0.73524000  0.04516000  0.40795000  1.0
  C  C89  1  0.76476000  0.45485000  0.90795000  1.0
  C  C90  1  0.26474000  0.95483000  0.59204000  1.0
  C  C91  1  0.23526000  0.54516000  0.09205000  1.0
  C  C92  1  0.98642000  0.16374000  0.48742000  1.0
  C  C93  1  0.51358000  0.33627000  0.98742000  1.0
  C  C94  1  0.01355000  0.83624000  0.51257000  1.0
  C  C95  1  0.48646000  0.66375000  0.01259000  1.0
  C  C96  1  0.58111000  0.53791000  0.30095000  1.0
  C  C97  1  0.91884000  0.96208000  0.80095000  1.0
  C  C98  1  0.41882000  0.46207000  0.69905000  1.0
  C  C99  1  0.08118000  0.03792000  0.19906000  1.0
  C  C100  1  0.42779000  0.45362000  0.26369000  1.0
  C  C101  1  0.07221000  0.04636000  0.76371000  1.0
  C  C102  1  0.57220000  0.54634000  0.73631000  1.0
  C  C103  1  0.92777000  0.95364000  0.23630000  1.0
  C  C104  1  0.48992000  0.38059000  0.21082000  1.0
  C  C105  1  0.01008000  0.11937000  0.71080000  1.0
  C  C106  1  0.51006000  0.61939000  0.78918000  1.0
  C  C107  1  0.98994000  0.88063000  0.28920000  1.0
  C  C108  1  0.70584000  0.39267000  0.19519000  1.0
  C  C109  1  0.79420000  0.10730000  0.69518000  1.0
  C  C110  1  0.29420000  0.60731000  0.80481000  1.0
  C  C111  1  0.20577000  0.89270000  0.30482000  1.0
  C  C112  1  0.85881000  0.47674000  0.23285000  1.0
  C  C113  1  0.64116000  0.02328000  0.73285000  1.0
  C  C114  1  0.14118000  0.52326000  0.76715000  1.0
  C  C115  1  0.35882000  0.97672000  0.26716000  1.0
  C  C116  1  0.79719000  0.54961000  0.28608000  1.0
  C  C117  1  0.70277000  0.95038000  0.78608000  1.0
  C  C118  1  0.20278000  0.45038000  0.71392000  1.0
  C  C119  1  0.29722000  0.04962000  0.21392000  1.0
  S  S120  1  0.49583000  0.64247000  0.36332000  1.0
  S  S121  1  0.00414000  0.85753000  0.86333000  1.0
  S  S122  1  0.50415000  0.35752000  0.63667000  1.0
  S  S123  1  0.99588000  0.14248000  0.13668000  1.0
  N  N124  1  0.65456000  0.28013000  0.44204000  1.0
  N  N125  1  0.84544000  0.21987000  0.94205000  1.0
  N  N126  1  0.34544000  0.71986000  0.55795000  1.0
  N  N127  1  0.15458000  0.78013000  0.05796000  1.0
  N  N128  1  0.77475000  0.14542000  0.35528000  1.0
  N  N129  1  0.72524000  0.35459000  0.85528000  1.0
  N  N130  1  0.22524000  0.85458000  0.64471000  1.0
  N  N131  1  0.27478000  0.64542000  0.14472000  1.0
  N  N132  1  0.03141000  0.26838000  0.43642000  1.0
  N  N133  1  0.46860000  0.23163000  0.93642000  1.0
  N  N134  1  0.96859000  0.73161000  0.56358000  1.0
  N  N135  1  0.53142000  0.76839000  0.06359000  1.0
  N  N136  1  0.76722000  0.09235000  0.48098000  1.0
  N  N137  1  0.73279000  0.40766000  0.98098000  1.0
  N  N138  1  0.23276000  0.90765000  0.51902000  1.0
  N  N139  1  0.26725000  0.59235000  0.01902000  1.0
  O  O140  1  0.30208000  0.55982000  0.39840000  1.0
  O  O141  1  0.19791000  0.94019000  0.89840000  1.0
  O  O142  1  0.69791000  0.44018000  0.60159000  1.0
  O  O143  1  0.80211000  0.05982000  0.10160000  1.0
  O  O144  1  0.68340000  0.67201000  0.41400000  1.0
  O  O145  1  0.81656000  0.82800000  0.91401000  1.0
  O  O146  1  0.31658000  0.32799000  0.58599000  1.0
  O  O147  1  0.18345000  0.17201000  0.08599000  1.0
