# generated using pymatgen
data_BaH4(CO)7
_symmetry_space_group_name_H-M   'P 1'
_cell_length_a   4.34564000
_cell_length_b   10.18440000
_cell_length_c   19.45390000
_cell_angle_alpha   90.00000000
_cell_angle_beta   90.00000000
_cell_angle_gamma   90.00000000
_symmetry_Int_Tables_number   1
_chemical_formula_structural   BaH4(CO)7
_chemical_formula_sum   'Ba4 H16 C28 O28'
_cell_volume   860.98557068
_cell_formula_units_Z   4
loop_
 _symmetry_equiv_pos_site_id
 _symmetry_equiv_pos_as_xyz
  1  'x, y, z'
loop_
 _atom_site_type_symbol
 _atom_site_label
 _atom_site_symmetry_multiplicity
 _atom_site_fract_x
 _atom_site_fract_y
 _atom_site_fract_z
 _atom_site_occupancy
  Ba  Ba0  1  0.43791000  0.25000000  0.83732000  1.0
  Ba  Ba1  1  0.93791000  0.75000000  0.66268000  1.0
  Ba  Ba2  1  0.56209000  0.75000000  0.16268000  1.0
  Ba  Ba3  1  0.06209000  0.25000000  0.33732000  1.0
  H  H4  1  0.73840000  0.46498000  0.03359000  1.0
  H  H5  1  0.23840000  0.53502000  0.46641000  1.0
  H  H6  1  0.26159000  0.96498000  0.96641000  1.0
  H  H7  1  0.76160000  0.03502000  0.53359000  1.0
  H  H8  1  0.26160000  0.53502000  0.96641000  1.0
  H  H9  1  0.76160000  0.46498000  0.53359000  1.0
  H  H10  1  0.73840000  0.03502000  0.03359000  1.0
  H  H11  1  0.23840000  0.96498000  0.46641000  1.0
  H  H12  1  0.98283000  0.17156000  0.71371000  1.0
  H  H13  1  0.48283000  0.82844000  0.78629000  1.0
  H  H14  1  0.01717000  0.67156000  0.28629000  1.0
  H  H15  1  0.51716000  0.32844000  0.21371000  1.0
  H  H16  1  0.01717000  0.82844000  0.28629000  1.0
  H  H17  1  0.51717000  0.17156000  0.21371000  1.0
  H  H18  1  0.98283000  0.32844000  0.71371000  1.0
  H  H19  1  0.48283000  0.67156000  0.78629000  1.0
  C  C20  1  0.01989000  0.36494000  0.10427000  1.0
  C  C21  1  0.51989000  0.63506000  0.39573000  1.0
  C  C22  1  0.98011000  0.86494000  0.89573000  1.0
  C  C23  1  0.48011000  0.13506000  0.60427000  1.0
  C  C24  1  0.98011000  0.63506000  0.89573000  1.0
  C  C25  1  0.48011000  0.36494000  0.60427000  1.0
  C  C26  1  0.01989000  0.13506000  0.10427000  1.0
  C  C27  1  0.51989000  0.86494000  0.39573000  1.0
  C  C28  1  0.69203000  0.25000000  0.02207000  1.0
  C  C29  1  0.19203000  0.75000000  0.47793000  1.0
  C  C30  1  0.30797000  0.75000000  0.97793000  1.0
  C  C31  1  0.80797000  0.25000000  0.52207000  1.0
  C  C32  1  0.81310000  0.36926000  0.05200000  1.0
  C  C33  1  0.31310000  0.63074000  0.44800000  1.0
  C  C34  1  0.18689000  0.86926000  0.94800000  1.0
  C  C35  1  0.68690000  0.13074000  0.55200000  1.0
  C  C36  1  0.18690000  0.63074000  0.94800000  1.0
  C  C37  1  0.68690000  0.36926000  0.55200000  1.0
  C  C38  1  0.81310000  0.13074000  0.05200000  1.0
  C  C39  1  0.31310000  0.86926000  0.44800000  1.0
  C  C40  1  0.15577000  0.48488000  0.13836000  1.0
  C  C41  1  0.65577000  0.51512000  0.36164000  1.0
  C  C42  1  0.84423000  0.98488000  0.86164000  1.0
  C  C43  1  0.34424000  0.01512000  0.63836000  1.0
  C  C44  1  0.84424000  0.51512000  0.86164000  1.0
  C  C45  1  0.34424000  0.48488000  0.63836000  1.0
  C  C46  1  0.15577000  0.01512000  0.13836000  1.0
  C  C47  1  0.65576000  0.98488000  0.36164000  1.0
  O  O48  1  0.91742000  0.25000000  0.74087000  1.0
  O  O49  1  0.41742000  0.75000000  0.75913000  1.0
  O  O50  1  0.08258000  0.75000000  0.25913000  1.0
  O  O51  1  0.58258000  0.25000000  0.24087000  1.0
  O  O52  1  0.49200000  0.25000000  0.97528000  1.0
  O  O53  1  0.99200000  0.75000000  0.52472000  1.0
  O  O54  1  0.50800000  0.75000000  0.02472000  1.0
  O  O55  1  0.00800000  0.25000000  0.47528000  1.0
  O  O56  1  0.12725000  0.25000000  0.13022000  1.0
  O  O57  1  0.62725000  0.75000000  0.36978000  1.0
  O  O58  1  0.87275000  0.75000000  0.86978000  1.0
  O  O59  1  0.37276000  0.25000000  0.63022000  1.0
  O  O60  1  0.37366000  0.47079000  0.18112000  1.0
  O  O61  1  0.87366000  0.52921000  0.31888000  1.0
  O  O62  1  0.62634000  0.97079000  0.81888000  1.0
  O  O63  1  0.12634000  0.02921000  0.68112000  1.0
  O  O64  1  0.62634000  0.52921000  0.81888000  1.0
  O  O65  1  0.12634000  0.47079000  0.68112000  1.0
  O  O66  1  0.37366000  0.02921000  0.18112000  1.0
  O  O67  1  0.87366000  0.97079000  0.31888000  1.0
  O  O68  1  0.04391000  0.59400000  0.11946000  1.0
  O  O69  1  0.54391000  0.40600000  0.38054000  1.0
  O  O70  1  0.95609000  0.09400000  0.88054000  1.0
  O  O71  1  0.45608000  0.90600000  0.61946000  1.0
  O  O72  1  0.95609000  0.40600000  0.88054000  1.0
  O  O73  1  0.45609000  0.59400000  0.61946000  1.0
  O  O74  1  0.04391000  0.90600000  0.11946000  1.0
  O  O75  1  0.54391000  0.09400000  0.38054000  1.0
