# generated using pymatgen
data_ZnH19C26(NO3)2
_symmetry_space_group_name_H-M   'P 1'
_cell_length_a   9.67064000
_cell_length_b   9.78909000
_cell_length_c   12.40760000
_cell_angle_alpha   77.55660000
_cell_angle_beta   74.60160000
_cell_angle_gamma   78.22380000
_symmetry_Int_Tables_number   1
_chemical_formula_structural   ZnH19C26(NO3)2
_chemical_formula_sum   'Zn2 H38 C52 N4 O12'
_cell_volume   1092.28172521
_cell_formula_units_Z   2
loop_
 _symmetry_equiv_pos_site_id
 _symmetry_equiv_pos_as_xyz
  1  'x, y, z'
loop_
 _atom_site_type_symbol
 _atom_site_label
 _atom_site_symmetry_multiplicity
 _atom_site_fract_x
 _atom_site_fract_y
 _atom_site_fract_z
 _atom_site_occupancy
  Zn  Zn0  1  0.37729000  0.59667000  0.05312000  1.0
  Zn  Zn1  1  0.62271000  0.40333000  0.94688000  1.0
  H  H2  1  0.37299000  0.95627000  0.76872000  1.0
  H  H3  1  0.62701000  0.04373000  0.23128000  1.0
  H  H4  1  0.68534000  0.12421000  0.47682000  1.0
  H  H5  1  0.31466000  0.87578000  0.52318000  1.0
  H  H6  1  0.78508000  0.70005000  0.65621000  1.0
  H  H7  1  0.21492000  0.29995000  0.34379000  1.0
  H  H8  1  0.94779000  0.06937000  0.38500000  1.0
  H  H9  1  0.05221000  0.93063000  0.61500000  1.0
  H  H10  1  0.81161000  0.00733000  0.34321000  1.0
  H  H11  1  0.18839000  0.99267000  0.65679000  1.0
  H  H12  1  0.88867000  0.72815000  0.31795000  1.0
  H  H13  1  0.11134000  0.27185000  0.68205000  1.0
  H  H14  1  0.07949000  0.58538000  0.18800000  1.0
  H  H15  1  0.92051000  0.41462000  0.81200000  1.0
  H  H16  1  0.36585000  0.86933000  0.13026000  1.0
  H  H17  1  0.63416000  0.13067000  0.86974000  1.0
  H  H18  1  0.18751000  0.02490000  0.25694000  1.0
  H  H19  1  0.81249000  0.97510000  0.74306000  1.0
  H  H20  1  0.46310000  0.28563000  0.45588000  1.0
  H  H21  1  0.53690000  0.71436000  0.54412000  1.0
  H  H22  1  0.56919000  0.31289000  0.54585000  1.0
  H  H23  1  0.43081000  0.68711000  0.45415000  1.0
  H  H24  1  0.42050000  0.41814000  0.73115000  1.0
  H  H25  1  0.57950000  0.58186000  0.26885000  1.0
  H  H26  1  0.23593000  0.62361000  0.78632000  1.0
  H  H27  1  0.76407000  0.37640000  0.21368000  1.0
  H  H28  1  0.07124000  0.66711000  0.50278000  1.0
  H  H29  1  0.92876000  0.33289000  0.49721000  1.0
  H  H30  1  0.25215000  0.46336000  0.43352000  1.0
  H  H31  1  0.74786000  0.53664000  0.56648000  1.0
  H  H32  1  0.60835000  0.87486000  0.10399000  1.0
  H  H33  1  0.39165000  0.12515000  0.89602000  1.0
  H  H34  1  0.75305000  0.06200000  0.08290000  1.0
  H  H35  1  0.24695000  0.93800000  0.91710000  1.0
  H  H36  1  0.13456000  0.79636000  0.92384000  1.0
  H  H37  1  0.86544000  0.20364000  0.07616000  1.0
  H  H38  1  0.98622000  0.61431000  0.94084000  1.0
  H  H39  1  0.01377000  0.38569000  0.05916000  1.0
  C  C40  1  0.52994000  0.69628000  0.81675000  1.0
  C  C41  1  0.47005000  0.30373000  0.18326000  1.0
  C  C42  1  0.57353000  0.81523000  0.72197000  1.0
  C  C43  1  0.42647000  0.18477000  0.27803000  1.0
  C  C44  1  0.47840000  0.94248000  0.71036000  1.0
  C  C45  1  0.52160000  0.05752000  0.28964000  1.0
  C  C46  1  0.51939000  0.05402000  0.62362000  1.0
  C  C47  1  0.48061000  0.94598000  0.37638000  1.0
  C  C48  1  0.65368000  0.03844000  0.54537000  1.0
  C  C49  1  0.34632000  0.96156000  0.45463000  1.0
  C  C50  1  0.74676000  0.90868000  0.55711000  1.0
  C  C51  1  0.25324000  0.09131000  0.44288000  1.0
  C  C52  1  0.70936000  0.79810000  0.64628000  1.0
  C  C53  1  0.29063000  0.20189000  0.35372000  1.0
  C  C54  1  0.91064000  0.97411000  0.37637000  1.0
  C  C55  1  0.08936000  0.02589000  0.62363000  1.0
  C  C56  1  0.02362000  0.88794000  0.29828000  1.0
  C  C57  1  0.97639000  0.11206000  0.70172000  1.0
  C  C58  1  0.99356000  0.76248000  0.27856000  1.0
  C  C59  1  0.00644000  0.23752000  0.72144000  1.0
  C  C60  1  0.09827000  0.68283000  0.20698000  1.0
  C  C61  1  0.90174000  0.31717000  0.79303000  1.0
  C  C62  1  0.25866000  0.84264000  0.17385000  1.0
  C  C63  1  0.74134000  0.15736000  0.82615000  1.0
  C  C64  1  0.15909000  0.92802000  0.24476000  1.0
  C  C65  1  0.84091000  0.07198000  0.75523000  1.0
  C  C66  1  0.46049000  0.29866000  0.54231000  1.0
  C  C67  1  0.53951000  0.70134000  0.45769000  1.0
  C  C68  1  0.35028000  0.42282000  0.57764000  1.0
  C  C69  1  0.64972000  0.57718000  0.42236000  1.0
  C  C70  1  0.34501000  0.46978000  0.67773000  1.0
  C  C71  1  0.65499000  0.53022000  0.32227000  1.0
  C  C72  1  0.24110000  0.58497000  0.70877000  1.0
  C  C73  1  0.75890000  0.41503000  0.29122000  1.0
  C  C74  1  0.15035000  0.60871000  0.55137000  1.0
  C  C75  1  0.84966000  0.39128000  0.44863000  1.0
  C  C76  1  0.25061000  0.49464000  0.51312000  1.0
  C  C77  1  0.74939000  0.50536000  0.48688000  1.0
  C  C78  1  0.69446000  0.62541000  0.02967000  1.0
  C  C79  1  0.30553000  0.37460000  0.97034000  1.0
  C  C80  1  0.78743000  0.73201000  0.02412000  1.0
  C  C81  1  0.21257000  0.26799000  0.97588000  1.0
  C  C82  1  0.72407000  0.85871000  0.06480000  1.0
  C  C83  1  0.27592000  0.14129000  0.93520000  1.0
  C  C84  1  0.80704000  0.96274000  0.05448000  1.0
  C  C85  1  0.19296000  0.03725000  0.94552000  1.0
  C  C86  1  0.95673000  0.94412000  0.00446000  1.0
  C  C87  1  0.04327000  0.05588000  0.99554000  1.0
  C  C88  1  0.01917000  0.81660000  0.96327000  1.0
  C  C89  1  0.98083000  0.18340000  0.03673000  1.0
  C  C90  1  0.93612000  0.71233000  0.97287000  1.0
  C  C91  1  0.06388000  0.28767000  0.02713000  1.0
  N  N92  1  0.22893000  0.72258000  0.15511000  1.0
  N  N93  1  0.77107000  0.27742000  0.84489000  1.0
  N  N94  1  0.14444000  0.65447000  0.64740000  1.0
  N  N95  1  0.85556000  0.34553000  0.35260000  1.0
  O  O96  1  0.41476000  0.72377000  0.89295000  1.0
  O  O97  1  0.58524000  0.27624000  0.10705000  1.0
  O  O98  1  0.61218000  0.57733000  0.81454000  1.0
  O  O99  1  0.38782000  0.42267000  0.18547000  1.0
  O  O100  1  0.87899000  0.88117000  0.48430000  1.0
  O  O101  1  0.12101000  0.11882000  0.51570000  1.0
  O  O102  1  0.41946000  0.17498000  0.62216000  1.0
  O  O103  1  0.58054000  0.82501000  0.37784000  1.0
  O  O104  1  0.55876000  0.65748000  0.07182000  1.0
  O  O105  1  0.44124000  0.34253000  0.92817000  1.0
  O  O106  1  0.75457000  0.51173000  0.99081000  1.0
  O  O107  1  0.24542000  0.48827000  0.00919000  1.0
