# generated using pymatgen
data_DyMn2H15C21O13
_symmetry_space_group_name_H-M   'P 1'
_cell_length_a   6.76616000
_cell_length_b   11.66780000
_cell_length_c   14.98500000
_cell_angle_alpha   89.25830000
_cell_angle_beta   89.40490000
_cell_angle_gamma   85.28380000
_symmetry_Int_Tables_number   1
_chemical_formula_structural   DyMn2H15C21O13
_chemical_formula_sum   'Dy2 Mn4 H30 C42 O26'
_cell_volume   1178.85301017
_cell_formula_units_Z   2
loop_
 _symmetry_equiv_pos_site_id
 _symmetry_equiv_pos_as_xyz
  1  'x, y, z'
loop_
 _atom_site_type_symbol
 _atom_site_label
 _atom_site_symmetry_multiplicity
 _atom_site_fract_x
 _atom_site_fract_y
 _atom_site_fract_z
 _atom_site_occupancy
  Dy  Dy0  1  0.25682000  0.05964000  0.43823000  1.0
  Dy  Dy1  1  0.74314000  0.94037000  0.56176000  1.0
  Mn  Mn2  1  0.09808000  0.24132000  0.08408000  1.0
  Mn  Mn3  1  0.90200000  0.75868000  0.91591000  1.0
  Mn  Mn4  1  0.51744000  0.36055000  0.73880000  1.0
  Mn  Mn5  1  0.48251000  0.63944000  0.26120000  1.0
  H  H6  1  0.89034000  0.18837000  0.49547000  1.0
  H  H7  1  0.10961000  0.81163000  0.50453000  1.0
  H  H8  1  0.25062000  0.00296000  0.09430000  1.0
  H  H9  1  0.74951000  0.99703000  0.90568000  1.0
  H  H10  1  0.33486000  0.12356000  0.94566000  1.0
  H  H11  1  0.66530000  0.87646000  0.05434000  1.0
  H  H12  1  0.43885000  0.33327000  0.99819000  1.0
  H  H13  1  0.56125000  0.66675000  0.00183000  1.0
  H  H14  1  0.41761000  0.33898000  0.17698000  1.0
  H  H15  1  0.58242000  0.66103000  0.82304000  1.0
  H  H16  1  0.89048000  0.28949000  0.65722000  1.0
  H  H17  1  0.10948000  0.71050000  0.34278000  1.0
  H  H18  1  0.84464000  0.50562000  0.72206000  1.0
  H  H19  1  0.15532000  0.49436000  0.27796000  1.0
  H  H20  1  0.48132000  0.59905000  0.67397000  1.0
  H  H21  1  0.51864000  0.40095000  0.32604000  1.0
  H  H22  1  0.30400000  0.43982000  0.57944000  1.0
  H  H23  1  0.69596000  0.56018000  0.42056000  1.0
  H  H24  1  0.65208000  0.01599000  0.24161000  1.0
  H  H25  1  0.34791000  0.98400000  0.75838000  1.0
  H  H26  1  0.91859000  0.01043000  0.24997000  1.0
  H  H27  1  0.08140000  0.98958000  0.75004000  1.0
  H  H28  1  0.76892000  0.13980000  0.27339000  1.0
  H  H29  1  0.23104000  0.86020000  0.72660000  1.0
  H  H30  1  0.85859000  0.37162000  0.42551000  1.0
  H  H31  1  0.14135000  0.62836000  0.57450000  1.0
  H  H32  1  0.11526000  0.34721000  0.39568000  1.0
  H  H33  1  0.88468000  0.65278000  0.60432000  1.0
  H  H34  1  0.04522000  0.36509000  0.51046000  1.0
  H  H35  1  0.95471000  0.63491000  0.48955000  1.0
  C  C36  1  0.29639000  0.12796000  0.26283000  1.0
  C  C37  1  0.70362000  0.87206000  0.73716000  1.0
  C  C38  1  0.32361000  0.15973000  0.16775000  1.0
  C  C39  1  0.67646000  0.84028000  0.83225000  1.0
  C  C40  1  0.29722000  0.08966000  0.09175000  1.0
  C  C41  1  0.70289000  0.91035000  0.90825000  1.0
  C  C42  1  0.34218000  0.15361000  0.01362000  1.0
  C  C43  1  0.65792000  0.84640000  0.98638000  1.0
  C  C44  1  0.39659000  0.26381000  0.04115000  1.0
  C  C45  1  0.60352000  0.73621000  0.95886000  1.0
  C  C46  1  0.38484000  0.26788000  0.13551000  1.0
  C  C47  1  0.61522000  0.73213000  0.86450000  1.0
  C  C48  1  0.55513000  0.21955000  0.55599000  1.0
  C  C49  1  0.44480000  0.78045000  0.44400000  1.0
  C  C50  1  0.58676000  0.32886000  0.60138000  1.0
  C  C51  1  0.41321000  0.67113000  0.39863000  1.0
  C  C52  1  0.76281000  0.35095000  0.64832000  1.0
  C  C53  1  0.23714000  0.64904000  0.35167000  1.0
  C  C54  1  0.73744000  0.46428000  0.68284000  1.0
  C  C55  1  0.26249000  0.53572000  0.31717000  1.0
  C  C56  1  0.54408000  0.51307000  0.65771000  1.0
  C  C57  1  0.45588000  0.48693000  0.34230000  1.0
  C  C58  1  0.45099000  0.43008000  0.60815000  1.0
  C  C59  1  0.54899000  0.56992000  0.39185000  1.0
  C  C60  1  0.90427000  0.14961000  0.07279000  1.0
  C  C61  1  0.09585000  0.85037000  0.92719000  1.0
  C  C62  1  0.00274000  0.33501000  0.99690000  1.0
  C  C63  1  0.99727000  0.66498000  0.00309000  1.0
  C  C64  1  0.97249000  0.32338000  0.16893000  1.0
  C  C65  1  0.02758000  0.67662000  0.83105000  1.0
  C  C66  1  0.64776000  0.25527000  0.80787000  1.0
  C  C67  1  0.35221000  0.74474000  0.19213000  1.0
  C  C68  1  0.44925000  0.44238000  0.83470000  1.0
  C  C69  1  0.55069000  0.55762000  0.16530000  1.0
  C  C70  1  0.29897000  0.28672000  0.74618000  1.0
  C  C71  1  0.70103000  0.71326000  0.25382000  1.0
  C  C72  1  0.76272000  0.01251000  0.37465000  1.0
  C  C73  1  0.23724000  0.98750000  0.62535000  1.0
  C  C74  1  0.77712000  0.04530000  0.27838000  1.0
  C  C75  1  0.22286000  0.95470000  0.72162000  1.0
  C  C76  1  0.00323000  0.33041000  0.44609000  1.0
  C  C77  1  0.99671000  0.66958000  0.55391000  1.0
  O  O78  1  0.32620000  0.20077000  0.32337000  1.0
  O  O79  1  0.67378000  0.79925000  0.67663000  1.0
  O  O80  1  0.24823000  0.02688000  0.28324000  1.0
  O  O81  1  0.75173000  0.97314000  0.71676000  1.0
  O  O82  1  0.39110000  0.20918000  0.51889000  1.0
  O  O83  1  0.60886000  0.79083000  0.48111000  1.0
  O  O84  1  0.70445000  0.14346000  0.55725000  1.0
  O  O85  1  0.29550000  0.85654000  0.44275000  1.0
  O  O86  1  0.78335000  0.08434000  0.06559000  1.0
  O  O87  1  0.21677000  0.91566000  0.93440000  1.0
  O  O88  1  0.94388000  0.39531000  0.93859000  1.0
  O  O89  1  0.05609000  0.60468000  0.06141000  1.0
  O  O90  1  0.89454000  0.37472000  0.22814000  1.0
  O  O91  1  0.10552000  0.62529000  0.77183000  1.0
  O  O92  1  0.73311000  0.18800000  0.85460000  1.0
  O  O93  1  0.26688000  0.81201000  0.14541000  1.0
  O  O94  1  0.40725000  0.49536000  0.89885000  1.0
  O  O95  1  0.59272000  0.50466000  0.10114000  1.0
  O  O96  1  0.15702000  0.23590000  0.75042000  1.0
  O  O97  1  0.84297000  0.76407000  0.24959000  1.0
  O  O98  1  0.59382000  0.01190000  0.41378000  1.0
  O  O99  1  0.40616000  0.98810000  0.58622000  1.0
  O  O100  1  0.91818000  0.98477000  0.42085000  1.0
  O  O101  1  0.08179000  0.01523000  0.57916000  1.0
  O  O102  1  0.99507000  0.20825000  0.45166000  1.0
  O  O103  1  0.00488000  0.79174000  0.54835000  1.0
