# generated using pymatgen
data_Ag2P2H36C23N6O5
_symmetry_space_group_name_H-M   'P 1'
_cell_length_a   6.85536000
_cell_length_b   15.92320000
_cell_length_c   26.24190000
_cell_angle_alpha   89.99960000
_cell_angle_beta   89.99990000
_cell_angle_gamma   89.67770000
_symmetry_Int_Tables_number   1
_chemical_formula_structural   Ag2P2H36C23N6O5
_chemical_formula_sum   'Ag8 P8 H144 C92 N24 O20'
_cell_volume   2864.50128303
_cell_formula_units_Z   4
loop_
 _symmetry_equiv_pos_site_id
 _symmetry_equiv_pos_as_xyz
  1  'x, y, z'
loop_
 _atom_site_type_symbol
 _atom_site_label
 _atom_site_symmetry_multiplicity
 _atom_site_fract_x
 _atom_site_fract_y
 _atom_site_fract_z
 _atom_site_occupancy
  Ag  Ag0  1  0.50236000  0.09167000  0.76489000  1.0
  Ag  Ag1  1  0.49763000  0.40833000  0.26489000  1.0
  Ag  Ag2  1  0.49764000  0.90833000  0.23511000  1.0
  Ag  Ag3  1  0.50236000  0.59167000  0.73511000  1.0
  Ag  Ag4  1  0.07847000  0.15995000  0.96888000  1.0
  Ag  Ag5  1  0.92153000  0.34005000  0.46888000  1.0
  Ag  Ag6  1  0.92153000  0.84005000  0.03112000  1.0
  Ag  Ag7  1  0.07847000  0.65995000  0.53112000  1.0
  P  P8  1  0.22307000  0.03251000  0.72754000  1.0
  P  P9  1  0.77692000  0.46748000  0.22754000  1.0
  P  P10  1  0.77694000  0.96749000  0.27246000  1.0
  P  P11  1  0.22306000  0.53251000  0.77246000  1.0
  P  P12  1  0.78777000  0.19180000  0.92931000  1.0
  P  P13  1  0.21223000  0.30820000  0.42931000  1.0
  P  P14  1  0.21223000  0.80820000  0.07069000  1.0
  P  P15  1  0.78777000  0.69180000  0.57069000  1.0
  H  H16  1  0.68566000  0.18214000  0.59147000  1.0
  H  H17  1  0.31437000  0.31787000  0.09146000  1.0
  H  H18  1  0.31436000  0.81787000  0.40853000  1.0
  H  H19  1  0.68563000  0.68211000  0.90854000  1.0
  H  H20  1  0.52856000  0.07147000  0.53925000  1.0
  H  H21  1  0.47151000  0.42853000  0.03925000  1.0
  H  H22  1  0.47147000  0.92854000  0.46074000  1.0
  H  H23  1  0.52851000  0.57146000  0.96076000  1.0
  H  H24  1  0.17488000  0.08372000  0.51665000  1.0
  H  H25  1  0.82518000  0.41628000  0.01665000  1.0
  H  H26  1  0.82514000  0.91629000  0.48335000  1.0
  H  H27  1  0.17483000  0.58372000  0.98336000  1.0
  H  H28  1  0.98598000  0.21038000  0.54490000  1.0
  H  H29  1  0.01406000  0.28961000  0.04491000  1.0
  H  H30  1  0.01404000  0.78962000  0.45510000  1.0
  H  H31  1  0.98594000  0.71038000  0.95510000  1.0
  H  H32  1  0.14422000  0.32068000  0.59470000  1.0
  H  H33  1  0.85579000  0.17931000  0.09469000  1.0
  H  H34  1  0.85580000  0.67932000  0.40530000  1.0
  H  H35  1  0.14420000  0.82068000  0.90531000  1.0
  H  H36  1  0.47180000  0.39011000  0.70244000  1.0
  H  H37  1  0.52820000  0.10989000  0.20244000  1.0
  H  H38  1  0.52821000  0.60989000  0.29756000  1.0
  H  H39  1  0.47180000  0.89010000  0.79756000  1.0
  H  H40  1  0.25419000  0.35958000  0.67180000  1.0
  H  H41  1  0.74581000  0.14043000  0.17180000  1.0
  H  H42  1  0.74582000  0.64041000  0.32820000  1.0
  H  H43  1  0.25418000  0.85958000  0.82821000  1.0
  H  H44  1  0.41216000  0.43184000  0.58830000  1.0
  H  H45  1  0.58786000  0.06817000  0.08830000  1.0
  H  H46  1  0.58785000  0.56816000  0.41170000  1.0
  H  H47  1  0.41213000  0.93183000  0.91170000  1.0
  H  H48  1  0.59045000  0.45623000  0.63381000  1.0
  H  H49  1  0.40956000  0.04378000  0.13380000  1.0
  H  H50  1  0.40956000  0.54378000  0.36619000  1.0
  H  H51  1  0.59043000  0.95622000  0.86620000  1.0
  H  H52  1  0.98490000  0.02998000  0.79719000  1.0
  H  H53  1  0.01510000  0.47002000  0.29719000  1.0
  H  H54  1  0.01511000  0.97003000  0.20281000  1.0
  H  H55  1  0.98489000  0.52998000  0.70281000  1.0
  H  H56  1  0.00039000  0.13047000  0.76675000  1.0
  H  H57  1  0.99961000  0.36953000  0.26675000  1.0
  H  H58  1  0.99961000  0.86954000  0.23325000  1.0
  H  H59  1  0.00038000  0.63047000  0.73325000  1.0
  H  H60  1  0.26232000  0.90085000  0.68079000  1.0
  H  H61  1  0.73767000  0.59915000  0.18079000  1.0
  H  H62  1  0.73769000  0.09916000  0.31921000  1.0
  H  H63  1  0.26232000  0.40085000  0.81921000  1.0
  H  H64  1  0.15427000  0.88016000  0.74057000  1.0
  H  H65  1  0.84571000  0.61984000  0.24057000  1.0
  H  H66  1  0.84574000  0.11985000  0.25943000  1.0
  H  H67  1  0.15427000  0.38015000  0.75943000  1.0
  H  H68  1  0.17747000  0.15190000  0.67075000  1.0
  H  H69  1  0.82253000  0.34810000  0.17075000  1.0
  H  H70  1  0.82254000  0.84811000  0.32924000  1.0
  H  H71  1  0.17747000  0.65189000  0.82925000  1.0
  H  H72  1  0.27800000  0.06492000  0.63722000  1.0
  H  H73  1  0.72199000  0.43507000  0.13722000  1.0
  H  H74  1  0.72200000  0.93508000  0.36278000  1.0
  H  H75  1  0.27800000  0.56492000  0.86278000  1.0
  H  H76  1  0.81255000  0.91629000  0.75432000  1.0
  H  H77  1  0.18744000  0.58371000  0.25432000  1.0
  H  H78  1  0.18746000  0.08371000  0.24568000  1.0
  H  H79  1  0.81255000  0.41629000  0.74568000  1.0
  H  H80  1  0.66349000  0.94054000  0.70026000  1.0
  H  H81  1  0.33650000  0.55946000  0.20025000  1.0
  H  H82  1  0.33652000  0.05946000  0.29974000  1.0
  H  H83  1  0.66349000  0.44054000  0.79975000  1.0
  H  H84  1  0.06839000  0.95140000  0.61128000  1.0
  H  H85  1  0.93161000  0.54860000  0.11128000  1.0
  H  H86  1  0.93162000  0.04860000  0.38871000  1.0
  H  H87  1  0.06839000  0.45140000  0.88872000  1.0
  H  H88  1  0.80947000  0.96258000  0.61911000  1.0
  H  H89  1  0.19052000  0.53742000  0.11910000  1.0
  H  H90  1  0.19054000  0.03742000  0.38089000  1.0
  H  H91  1  0.80947000  0.46258000  0.88090000  1.0
  H  H92  1  0.67743000  0.08075000  0.66246000  1.0
  H  H93  1  0.32256000  0.41925000  0.16246000  1.0
  H  H94  1  0.32257000  0.91925000  0.33754000  1.0
  H  H95  1  0.67743000  0.58075000  0.83754000  1.0
  H  H96  1  0.83432000  0.15731000  0.68937000  1.0
  H  H97  1  0.16568000  0.34269000  0.18937000  1.0
  H  H98  1  0.16568000  0.84269000  0.31063000  1.0
  H  H99  1  0.83432000  0.65731000  0.81063000  1.0
  H  H100  1  0.66551000  0.29943000  0.64301000  1.0
  H  H101  1  0.33450000  0.20057000  0.14300000  1.0
  H  H102  1  0.33450000  0.70057000  0.35699000  1.0
  H  H103  1  0.66550000  0.79942000  0.85699000  1.0
  H  H104  1  0.85890000  0.15396000  0.84119000  1.0
  H  H105  1  0.14109000  0.34604000  0.34119000  1.0
  H  H106  1  0.14109000  0.84604000  0.15881000  1.0
  H  H107  1  0.85891000  0.65397000  0.65881000  1.0
  H  H108  1  0.74353000  0.07054000  0.87510000  1.0
  H  H109  1  0.25646000  0.42945000  0.37510000  1.0
  H  H110  1  0.25646000  0.92946000  0.12490000  1.0
  H  H111  1  0.74354000  0.57054000  0.62490000  1.0
  H  H112  1  0.54315000  0.10361000  0.96813000  1.0
  H  H113  1  0.45686000  0.39639000  0.46813000  1.0
  H  H114  1  0.45685000  0.89639000  0.03187000  1.0
  H  H115  1  0.54315000  0.60362000  0.53187000  1.0
  H  H116  1  0.53736000  0.20605000  0.99540000  1.0
  H  H117  1  0.46265000  0.29395000  0.49540000  1.0
  H  H118  1  0.46264000  0.79395000  0.00460000  1.0
  H  H119  1  0.53736000  0.70605000  0.50460000  1.0
  H  H120  1  0.74031000  0.34291000  0.93936000  1.0
  H  H121  1  0.25969000  0.15709000  0.43936000  1.0
  H  H122  1  0.25969000  0.65709000  0.06064000  1.0
  H  H123  1  0.74031000  0.84291000  0.56064000  1.0
  H  H124  1  0.85582000  0.31824000  0.88005000  1.0
  H  H125  1  0.14417000  0.18176000  0.38006000  1.0
  H  H126  1  0.14417000  0.68176000  0.11995000  1.0
  H  H127  1  0.85583000  0.81824000  0.61994000  1.0
  H  H128  1  0.25249000  0.15888000  0.85701000  1.0
  H  H129  1  0.74751000  0.34112000  0.35701000  1.0
  H  H130  1  0.74750000  0.84112000  0.14299000  1.0
  H  H131  1  0.25250000  0.65888000  0.64299000  1.0
  H  H132  1  0.38657000  0.07729000  0.88839000  1.0
  H  H133  1  0.61343000  0.42271000  0.38838000  1.0
  H  H134  1  0.61343000  0.92271000  0.11162000  1.0
  H  H135  1  0.38658000  0.57729000  0.61162000  1.0
  H  H136  1  0.67343000  0.27062000  0.80947000  1.0
  H  H137  1  0.32656000  0.22938000  0.30947000  1.0
  H  H138  1  0.32657000  0.72938000  0.19053000  1.0
  H  H139  1  0.67344000  0.77062000  0.69053000  1.0
  H  H140  1  0.41328000  0.26752000  0.81244000  1.0
  H  H141  1  0.58671000  0.23248000  0.31244000  1.0
  H  H142  1  0.58672000  0.73248000  0.18757000  1.0
  H  H143  1  0.41329000  0.76752000  0.68756000  1.0
  H  H144  1  0.39331000  0.32095000  0.94791000  1.0
  H  H145  1  0.60669000  0.17905000  0.44791000  1.0
  H  H146  1  0.60669000  0.67905000  0.05209000  1.0
  H  H147  1  0.39331000  0.82095000  0.55209000  1.0
  H  H148  1  0.25116000  0.29871000  0.89206000  1.0
  H  H149  1  0.74883000  0.20129000  0.39206000  1.0
  H  H150  1  0.74883000  0.70129000  0.10794000  1.0
  H  H151  1  0.25117000  0.79871000  0.60794000  1.0
  H  H152  1  0.01822000  0.99145000  0.94776000  1.0
  H  H153  1  0.98174000  0.50855000  0.44776000  1.0
  H  H154  1  0.98175000  0.00855000  0.05224000  1.0
  H  H155  1  0.01826000  0.49145000  0.55224000  1.0
  H  H156  1  0.19495000  0.00138000  0.98512000  1.0
  H  H157  1  0.80503000  0.49862000  0.48512000  1.0
  H  H158  1  0.80502000  0.99861000  0.01488000  1.0
  H  H159  1  0.19497000  0.50138000  0.51488000  1.0
  C  C160  1  0.42651000  0.25862000  0.59792000  1.0
  C  C161  1  0.57350000  0.24138000  0.09791000  1.0
  C  C162  1  0.57351000  0.74139000  0.40209000  1.0
  C  C163  1  0.42649000  0.75861000  0.90209000  1.0
  C  C164  1  0.53212000  0.18812000  0.58116000  1.0
  C  C165  1  0.46793000  0.31189000  0.08116000  1.0
  C  C166  1  0.46789000  0.81189000  0.41884000  1.0
  C  C167  1  0.53208000  0.68810000  0.91884000  1.0
  C  C168  1  0.44362000  0.12611000  0.55154000  1.0
  C  C169  1  0.55641000  0.37390000  0.05154000  1.0
  C  C170  1  0.55640000  0.87390000  0.44846000  1.0
  C  C171  1  0.44360000  0.62609000  0.94847000  1.0
  C  C172  1  0.24635000  0.13320000  0.53845000  1.0
  C  C173  1  0.75370000  0.36679000  0.03844000  1.0
  C  C174  1  0.75365000  0.86680000  0.46156000  1.0
  C  C175  1  0.24631000  0.63320000  0.96156000  1.0
  C  C176  1  0.14011000  0.20357000  0.55434000  1.0
  C  C177  1  0.85993000  0.29643000  0.05434000  1.0
  C  C178  1  0.85990000  0.79644000  0.44566000  1.0
  C  C179  1  0.14007000  0.70355000  0.94566000  1.0
  C  C180  1  0.23011000  0.26586000  0.58339000  1.0
  C  C181  1  0.76992000  0.23414000  0.08338000  1.0
  C  C182  1  0.76991000  0.73415000  0.41662000  1.0
  C  C183  1  0.23008000  0.76585000  0.91662000  1.0
  C  C184  1  0.39575000  0.26211000  0.71586000  1.0
  C  C185  1  0.60423000  0.23789000  0.21586000  1.0
  C  C186  1  0.60426000  0.73789000  0.28414000  1.0
  C  C187  1  0.39575000  0.76210000  0.78414000  1.0
  C  C188  1  0.40347000  0.33869000  0.68065000  1.0
  C  C189  1  0.59652000  0.16132000  0.18065000  1.0
  C  C190  1  0.59654000  0.66131000  0.31935000  1.0
  C  C191  1  0.40346000  0.83868000  0.81935000  1.0
  C  C192  1  0.70291000  0.41244000  0.56311000  1.0
  C  C193  1  0.29711000  0.08755000  0.06311000  1.0
  C  C194  1  0.29710000  0.58756000  0.43689000  1.0
  C  C195  1  0.70289000  0.91244000  0.93689000  1.0
  C  C196  1  0.55055000  0.40893000  0.60500000  1.0
  C  C197  1  0.44946000  0.09108000  0.10499000  1.0
  C  C198  1  0.44946000  0.59108000  0.39500000  1.0
  C  C199  1  0.55053000  0.90891000  0.89501000  1.0
  C  C200  1  0.99236000  0.06235000  0.76021000  1.0
  C  C201  1  0.00764000  0.43765000  0.26021000  1.0
  C  C202  1  0.00765000  0.93766000  0.23979000  1.0
  C  C203  1  0.99235000  0.56235000  0.73979000  1.0
  C  C204  1  0.15246000  0.92386000  0.70814000  1.0
  C  C205  1  0.84753000  0.57614000  0.20814000  1.0
  C  C206  1  0.84755000  0.07614000  0.29186000  1.0
  C  C207  1  0.15246000  0.42386000  0.79186000  1.0
  C  C208  1  0.16722000  0.08384000  0.66531000  1.0
  C  C209  1  0.83278000  0.41616000  0.16531000  1.0
  C  C210  1  0.83278000  0.91616000  0.33469000  1.0
  C  C211  1  0.16722000  0.58384000  0.83469000  1.0
  C  C212  1  0.80547000  0.95190000  0.71846000  1.0
  C  C213  1  0.19451000  0.54810000  0.21845000  1.0
  C  C214  1  0.19453000  0.04810000  0.28154000  1.0
  C  C215  1  0.80548000  0.45190000  0.78155000  1.0
  C  C216  1  0.95216000  0.97292000  0.63723000  1.0
  C  C217  1  0.04783000  0.52708000  0.13722000  1.0
  C  C218  1  0.04784000  0.02708000  0.36277000  1.0
  C  C219  1  0.95217000  0.47292000  0.86277000  1.0
  C  C220  1  0.81953000  0.09031000  0.68089000  1.0
  C  C221  1  0.18046000  0.40969000  0.18088000  1.0
  C  C222  1  0.18047000  0.90969000  0.31911000  1.0
  C  C223  1  0.81953000  0.59031000  0.81912000  1.0
  C  C224  1  0.52189000  0.32419000  0.63163000  1.0
  C  C225  1  0.47812000  0.17582000  0.13163000  1.0
  C  C226  1  0.47813000  0.67581000  0.36837000  1.0
  C  C227  1  0.52187000  0.82417000  0.86837000  1.0
  C  C228  1  0.74092000  0.13838000  0.86779000  1.0
  C  C229  1  0.25908000  0.36162000  0.36779000  1.0
  C  C230  1  0.25907000  0.86162000  0.13221000  1.0
  C  C231  1  0.74093000  0.63838000  0.63221000  1.0
  C  C232  1  0.54918000  0.17103000  0.95952000  1.0
  C  C233  1  0.45082000  0.32897000  0.45952000  1.0
  C  C234  1  0.45081000  0.82897000  0.04048000  1.0
  C  C235  1  0.54918000  0.67103000  0.54048000  1.0
  C  C236  1  0.73887000  0.30012000  0.90652000  1.0
  C  C237  1  0.26112000  0.19988000  0.40652000  1.0
  C  C238  1  0.26113000  0.69988000  0.09348000  1.0
  C  C239  1  0.73888000  0.80012000  0.59348000  1.0
  C  C240  1  0.38631000  0.14406000  0.87835000  1.0
  C  C241  1  0.61369000  0.35594000  0.37835000  1.0
  C  C242  1  0.61369000  0.85594000  0.12165000  1.0
  C  C243  1  0.38631000  0.64406000  0.62165000  1.0
  C  C244  1  0.54836000  0.25518000  0.83370000  1.0
  C  C245  1  0.45163000  0.24482000  0.33370000  1.0
  C  C246  1  0.45164000  0.74483000  0.16630000  1.0
  C  C247  1  0.54837000  0.75518000  0.66630000  1.0
  C  C248  1  0.38769000  0.28430000  0.91244000  1.0
  C  C249  1  0.61231000  0.21569000  0.41244000  1.0
  C  C250  1  0.61231000  0.71570000  0.08756000  1.0
  C  C251  1  0.38770000  0.78431000  0.58756000  1.0
  N  N252  1  0.81584000  0.04320000  0.73013000  1.0
  N  N253  1  0.18416000  0.45680000  0.23013000  1.0
  N  N254  1  0.18416000  0.95681000  0.26986000  1.0
  N  N255  1  0.81584000  0.54320000  0.76987000  1.0
  N  N256  1  0.95873000  0.92190000  0.68399000  1.0
  N  N257  1  0.04125000  0.57810000  0.18398000  1.0
  N  N258  1  0.04127000  0.07810000  0.31602000  1.0
  N  N259  1  0.95874000  0.42190000  0.81602000  1.0
  N  N260  1  0.97284000  0.06277000  0.64616000  1.0
  N  N261  1  0.02715000  0.43723000  0.14616000  1.0
  N  N262  1  0.02716000  0.93723000  0.35383000  1.0
  N  N263  1  0.97284000  0.56277000  0.85384000  1.0
  N  N264  1  0.55280000  0.16321000  0.84446000  1.0
  N  N265  1  0.44719000  0.33679000  0.34446000  1.0
  N  N266  1  0.44720000  0.83679000  0.15554000  1.0
  N  N267  1  0.55281000  0.66321000  0.65554000  1.0
  N  N268  1  0.38404000  0.19393000  0.92585000  1.0
  N  N269  1  0.61596000  0.30606000  0.42585000  1.0
  N  N270  1  0.61596000  0.80607000  0.07415000  1.0
  N  N271  1  0.38405000  0.69394000  0.57415000  1.0
  N  N272  1  0.55133000  0.30717000  0.87966000  1.0
  N  N273  1  0.44867000  0.19283000  0.37966000  1.0
  N  N274  1  0.44867000  0.69283000  0.12034000  1.0
  N  N275  1  0.55133000  0.80717000  0.62034000  1.0
  O  O276  1  0.55590000  0.22150000  0.72092000  1.0
  O  O277  1  0.44406000  0.27849000  0.22091000  1.0
  O  O278  1  0.44412000  0.77850000  0.27909000  1.0
  O  O279  1  0.55588000  0.72150000  0.77909000  1.0
  O  O280  1  0.23679000  0.24560000  0.73825000  1.0
  O  O281  1  0.76319000  0.25440000  0.23825000  1.0
  O  O282  1  0.76323000  0.75440000  0.26175000  1.0
  O  O283  1  0.23677000  0.74560000  0.76175000  1.0
  O  O284  1  0.76683000  0.34415000  0.54437000  1.0
  O  O285  1  0.23318000  0.15586000  0.04436000  1.0
  O  O286  1  0.23318000  0.65585000  0.45563000  1.0
  O  O287  1  0.76683000  0.84415000  0.95563000  1.0
  O  O288  1  0.75635000  0.48597000  0.54909000  1.0
  O  O289  1  0.24366000  0.01403000  0.04908000  1.0
  O  O290  1  0.24364000  0.51403000  0.45091000  1.0
  O  O291  1  0.75632000  0.98597000  0.95092000  1.0
  O  O292  1  0.15935000  0.00465000  0.94830000  1.0
  O  O293  1  0.84061000  0.49534000  0.44830000  1.0
  O  O294  1  0.84063000  0.99534000  0.05171000  1.0
  O  O295  1  0.15939000  0.50466000  0.55170000  1.0
