# generated using pymatgen
data_CdH11C12SNO7
_symmetry_space_group_name_H-M   'P 1'
_cell_length_a   7.41780000
_cell_length_b   11.90870000
_cell_length_c   15.64530000
_cell_angle_alpha   90.00000000
_cell_angle_beta   90.66070000
_cell_angle_gamma   90.00000000
_symmetry_Int_Tables_number   1
_chemical_formula_structural   CdH11C12SNO7
_chemical_formula_sum   'Cd4 H44 C48 S4 N4 O28'
_cell_volume   1381.95688615
_cell_formula_units_Z   4
loop_
 _symmetry_equiv_pos_site_id
 _symmetry_equiv_pos_as_xyz
  1  'x, y, z'
loop_
 _atom_site_type_symbol
 _atom_site_label
 _atom_site_symmetry_multiplicity
 _atom_site_fract_x
 _atom_site_fract_y
 _atom_site_fract_z
 _atom_site_occupancy
  Cd  Cd0  1  0.69227000  0.50564000  0.83258000  1.0
  Cd  Cd1  1  0.80773000  0.00564000  0.66742000  1.0
  Cd  Cd2  1  0.30773000  0.49436000  0.16742000  1.0
  Cd  Cd3  1  0.19227000  0.99436000  0.33258000  1.0
  H  H4  1  0.51235000  0.69637000  0.74348000  1.0
  H  H5  1  0.98765000  0.19637000  0.75652000  1.0
  H  H6  1  0.48764000  0.30363000  0.25652000  1.0
  H  H7  1  0.01235000  0.80363000  0.24348000  1.0
  H  H8  1  0.69886000  0.69273000  0.70032000  1.0
  H  H9  1  0.80114000  0.19273000  0.79968000  1.0
  H  H10  1  0.30114000  0.30727000  0.29968000  1.0
  H  H11  1  0.19886000  0.80727000  0.20032000  1.0
  H  H12  1  0.36549000  0.56462000  0.92346000  1.0
  H  H13  1  0.13451000  0.06462000  0.57654000  1.0
  H  H14  1  0.63451000  0.43538000  0.07654000  1.0
  H  H15  1  0.86549000  0.93537000  0.42346000  1.0
  H  H16  1  0.30953000  0.52723000  0.82486000  1.0
  H  H17  1  0.19047000  0.02723000  0.67514000  1.0
  H  H18  1  0.69047000  0.47277000  0.17515000  1.0
  H  H19  1  0.80952000  0.97277000  0.32486000  1.0
  H  H20  1  0.94148000  0.70885000  0.78893000  1.0
  H  H21  1  0.55852000  0.20885000  0.71106000  1.0
  H  H22  1  0.05852000  0.29115000  0.21107000  1.0
  H  H23  1  0.44148000  0.79115000  0.28893000  1.0
  H  H24  1  0.02317000  0.89161000  0.85096000  1.0
  H  H25  1  0.47683000  0.39161000  0.64904000  1.0
  H  H26  1  0.97683000  0.10839000  0.14904000  1.0
  H  H27  1  0.52317000  0.60839000  0.35096000  1.0
  H  H28  1  0.84685000  0.76537000  0.09628000  1.0
  H  H29  1  0.65315000  0.26538000  0.40372000  1.0
  H  H30  1  0.15315000  0.23462000  0.90372000  1.0
  H  H31  1  0.34685000  0.73463000  0.59628000  1.0
  H  H32  1  0.76272000  0.58773000  0.02247000  1.0
  H  H33  1  0.73729000  0.08773000  0.47752000  1.0
  H  H34  1  0.23728000  0.41227000  0.97753000  1.0
  H  H35  1  0.26272000  0.91227000  0.52247000  1.0
  H  H36  1  0.96893000  0.95178000  0.09072000  1.0
  H  H37  1  0.53107000  0.45178000  0.40928000  1.0
  H  H38  1  0.03107000  0.04822000  0.90928000  1.0
  H  H39  1  0.46893000  0.54822000  0.59072000  1.0
  H  H40  1  0.16131000  0.24561000  0.59983000  1.0
  H  H41  1  0.33869000  0.74561000  0.90017000  1.0
  H  H42  1  0.83868000  0.75439000  0.40017000  1.0
  H  H43  1  0.66132000  0.25439000  0.09983000  1.0
  H  H44  1  0.02937000  0.37455000  0.35061000  1.0
  H  H45  1  0.47063000  0.87455000  0.14939000  1.0
  H  H46  1  0.97063000  0.62545000  0.64939000  1.0
  H  H47  1  0.52937000  0.12545000  0.85061000  1.0
  C  C48  1  0.91986000  0.72490000  0.85655000  1.0
  C  C49  1  0.58014000  0.22490000  0.64344000  1.0
  C  C50  1  0.08014000  0.27510000  0.14345000  1.0
  C  C51  1  0.41986000  0.77510000  0.35655000  1.0
  C  C52  1  0.96528000  0.82745000  0.89185000  1.0
  C  C53  1  0.53472000  0.32745000  0.60815000  1.0
  C  C54  1  0.03472000  0.17255000  0.10815000  1.0
  C  C55  1  0.46528000  0.67255000  0.39185000  1.0
  C  C56  1  0.93714000  0.84642000  0.97954000  1.0
  C  C57  1  0.56286000  0.34643000  0.52046000  1.0
  C  C58  1  0.06286000  0.15358000  0.02046000  1.0
  C  C59  1  0.43714000  0.65358000  0.47954000  1.0
  C  C60  1  0.86822000  0.75681000  0.02774000  1.0
  C  C61  1  0.63178000  0.25682000  0.47226000  1.0
  C  C62  1  0.13178000  0.24319000  0.97226000  1.0
  C  C63  1  0.36822000  0.74319000  0.52774000  1.0
  C  C64  1  0.82256000  0.65696000  0.98723000  1.0
  C  C65  1  0.67745000  0.15697000  0.51277000  1.0
  C  C66  1  0.17744000  0.34304000  0.01277000  1.0
  C  C67  1  0.32256000  0.84304000  0.48723000  1.0
  C  C68  1  0.97730000  0.95258000  0.02102000  1.0
  C  C69  1  0.52269000  0.45259000  0.47897000  1.0
  C  C70  1  0.02270000  0.04742000  0.97897000  1.0
  C  C71  1  0.47731000  0.54742000  0.52103000  1.0
  C  C72  1  0.00638000  0.50753000  0.54546000  1.0
  C  C73  1  0.49362000  0.00753000  0.95454000  1.0
  C  C74  1  0.99362000  0.49247000  0.45454000  1.0
  C  C75  1  0.50638000  0.99247000  0.04546000  1.0
  C  C76  1  0.06767000  0.41475000  0.59604000  1.0
  C  C77  1  0.43233000  0.91475000  0.90396000  1.0
  C  C78  1  0.93233000  0.58525000  0.40396000  1.0
  C  C79  1  0.56767000  0.08525000  0.09604000  1.0
  C  C80  1  0.11542000  0.31441000  0.55953000  1.0
  C  C81  1  0.38458000  0.81442000  0.94047000  1.0
  C  C82  1  0.88458000  0.68558000  0.44047000  1.0
  C  C83  1  0.61542000  0.18559000  0.05953000  1.0
  C  C84  1  0.10523000  0.30114000  0.46993000  1.0
  C  C85  1  0.39476000  0.80114000  0.03007000  1.0
  C  C86  1  0.89476000  0.69886000  0.53007000  1.0
  C  C87  1  0.60523000  0.19886000  0.96993000  1.0
  C  C88  1  0.04338000  0.38803000  0.41897000  1.0
  C  C89  1  0.45662000  0.88804000  0.08103000  1.0
  C  C90  1  0.95662000  0.61196000  0.58103000  1.0
  C  C91  1  0.54338000  0.11197000  0.91897000  1.0
  C  C92  1  0.15607000  0.19191000  0.43028000  1.0
  C  C93  1  0.34393000  0.69191000  0.06972000  1.0
  C  C94  1  0.84393000  0.80809000  0.56972000  1.0
  C  C95  1  0.65607000  0.30809000  0.93028000  1.0
  S  S96  1  0.07226000  0.42374000  0.70961000  1.0
  S  S97  1  0.42774000  0.92374000  0.79039000  1.0
  S  S98  1  0.92774000  0.57626000  0.29039000  1.0
  S  S99  1  0.57226000  0.07626000  0.20961000  1.0
  N  N100  1  0.84579000  0.64133000  0.90278000  1.0
  N  N101  1  0.65421000  0.14133000  0.59722000  1.0
  N  N102  1  0.15421000  0.35867000  0.09722000  1.0
  N  N103  1  0.34579000  0.85867000  0.40278000  1.0
  O  O104  1  0.16830000  0.18826000  0.34847000  1.0
  O  O105  1  0.33170000  0.68826000  0.15153000  1.0
  O  O106  1  0.83170000  0.81174000  0.65154000  1.0
  O  O107  1  0.66830000  0.31174000  0.84847000  1.0
  O  O108  1  0.18392000  0.10623000  0.47692000  1.0
  O  O109  1  0.31608000  0.60623000  0.02308000  1.0
  O  O110  1  0.81608000  0.89377000  0.52309000  1.0
  O  O111  1  0.68392000  0.39377000  0.97692000  1.0
  O  O112  1  0.19385000  0.51720000  0.73177000  1.0
  O  O113  1  0.30615000  0.01720000  0.76823000  1.0
  O  O114  1  0.80615000  0.48280000  0.26823000  1.0
  O  O115  1  0.69385000  0.98280000  0.23177000  1.0
  O  O116  1  0.13361000  0.31481000  0.74236000  1.0
  O  O117  1  0.36639000  0.81481000  0.75764000  1.0
  O  O118  1  0.86639000  0.68519000  0.25764000  1.0
  O  O119  1  0.63361000  0.18519000  0.24236000  1.0
  O  O120  1  0.88191000  0.44899000  0.72875000  1.0
  O  O121  1  0.61809000  0.94899000  0.77125000  1.0
  O  O122  1  0.11809000  0.55101000  0.27125000  1.0
  O  O123  1  0.38191000  0.05101000  0.22875000  1.0
  O  O124  1  0.60729000  0.64283000  0.72581000  1.0
  O  O125  1  0.89271000  0.14283000  0.77419000  1.0
  O  O126  1  0.39271000  0.35717000  0.27419000  1.0
  O  O127  1  0.10729000  0.85717000  0.22581000  1.0
  O  O128  1  0.40062000  0.52131000  0.87167000  1.0
  O  O129  1  0.09939000  0.02131000  0.62833000  1.0
  O  O130  1  0.59938000  0.47869000  0.12833000  1.0
  O  O131  1  0.90062000  0.97868000  0.37167000  1.0
