# generated using pymatgen
data_Li2H4C2S(NO3)2
_symmetry_space_group_name_H-M   'P 1'
_cell_length_a   7.25035000
_cell_length_b   8.21189000
_cell_length_c   11.14200000
_cell_angle_alpha   90.00000000
_cell_angle_beta   90.00000000
_cell_angle_gamma   101.91300000
_symmetry_Int_Tables_number   1
_chemical_formula_structural   Li2H4C2S(NO3)2
_chemical_formula_sum   'Li8 H16 C8 S4 N8 O24'
_cell_volume   649.09653433
_cell_formula_units_Z   4
loop_
 _symmetry_equiv_pos_site_id
 _symmetry_equiv_pos_as_xyz
  1  'x, y, z'
loop_
 _atom_site_type_symbol
 _atom_site_label
 _atom_site_symmetry_multiplicity
 _atom_site_fract_x
 _atom_site_fract_y
 _atom_site_fract_z
 _atom_site_occupancy
  Li  Li0  1  0.20549000  0.49714000  0.01158000  1.0
  Li  Li1  1  0.29451000  0.00286000  0.51158000  1.0
  Li  Li2  1  0.79451000  0.50286000  0.98842000  1.0
  Li  Li3  1  0.70549000  0.99714000  0.48842000  1.0
  Li  Li4  1  0.02546000  0.31249000  0.45104000  1.0
  Li  Li5  1  0.47454000  0.18751000  0.95104000  1.0
  Li  Li6  1  0.97454000  0.68751000  0.54896000  1.0
  Li  Li7  1  0.52546000  0.81249000  0.04896000  1.0
  H  H8  1  0.98118000  0.31868000  0.84796000  1.0
  H  H9  1  0.51882000  0.18132000  0.34796000  1.0
  H  H10  1  0.01882000  0.68133000  0.15204000  1.0
  H  H11  1  0.48118000  0.81868000  0.65204000  1.0
  H  H12  1  0.98749000  0.50148000  0.80529000  1.0
  H  H13  1  0.51251000  0.99852000  0.30529000  1.0
  H  H14  1  0.01251000  0.49852000  0.19471000  1.0
  H  H15  1  0.48749000  0.00148000  0.69471000  1.0
  H  H16  1  0.37756000  0.66812000  0.84815000  1.0
  H  H17  1  0.12244000  0.83188000  0.34815000  1.0
  H  H18  1  0.62244000  0.33188000  0.15185000  1.0
  H  H19  1  0.87756000  0.16812000  0.65185000  1.0
  H  H20  1  0.22781000  0.75212000  0.91122000  1.0
  H  H21  1  0.27219000  0.74788000  0.41122000  1.0
  H  H22  1  0.77219000  0.24788000  0.08878000  1.0
  H  H23  1  0.72781000  0.25213000  0.58878000  1.0
  C  C24  1  0.63709000  0.65928000  0.41000000  1.0
  C  C25  1  0.86291000  0.84072000  0.91000000  1.0
  C  C26  1  0.36291000  0.34072000  0.59000000  1.0
  C  C27  1  0.13709000  0.15928000  0.09000000  1.0
  C  C28  1  0.69893000  0.49806000  0.36970000  1.0
  C  C29  1  0.80107000  0.00193000  0.86970000  1.0
  C  C30  1  0.30107000  0.50193000  0.63030000  1.0
  C  C31  1  0.19893000  0.99807000  0.13030000  1.0
  S  S32  1  0.40278000  0.51261000  0.27463000  1.0
  S  S33  1  0.09722000  0.98739000  0.77463000  1.0
  S  S34  1  0.59722000  0.48739000  0.72537000  1.0
  S  S35  1  0.90278000  0.01261000  0.22537000  1.0
  N  N36  1  0.46666000  0.66764000  0.36754000  1.0
  N  N37  1  0.03334000  0.83236000  0.86754000  1.0
  N  N38  1  0.53334000  0.33236000  0.63246000  1.0
  N  N39  1  0.96666000  0.16764000  0.13246000  1.0
  N  N40  1  0.56751000  0.40418000  0.29823000  1.0
  N  N41  1  0.93249000  0.09582000  0.79823000  1.0
  N  N42  1  0.43249000  0.59582000  0.70177000  1.0
  N  N43  1  0.06751000  0.90418000  0.20177000  1.0
  O  O44  1  0.21681000  0.41707000  0.30525000  1.0
  O  O45  1  0.28319000  0.08293000  0.80525000  1.0
  O  O46  1  0.78319000  0.58292000  0.69475000  1.0
  O  O47  1  0.71681000  0.91707000  0.19475000  1.0
  O  O48  1  0.41698000  0.57461000  0.15138000  1.0
  O  O49  1  0.08302000  0.92538000  0.65138000  1.0
  O  O50  1  0.58302000  0.42539000  0.84862000  1.0
  O  O51  1  0.91698000  0.07461000  0.34862000  1.0
  O  O52  1  0.74166000  0.76413000  0.47489000  1.0
  O  O53  1  0.75834000  0.73587000  0.97489000  1.0
  O  O54  1  0.25835000  0.23587000  0.52511000  1.0
  O  O55  1  0.24166000  0.26414000  0.02511000  1.0
  O  O56  1  0.85218000  0.46788000  0.40295000  1.0
  O  O57  1  0.64782000  0.03212000  0.90295000  1.0
  O  O58  1  0.14782000  0.53212000  0.59705000  1.0
  O  O59  1  0.35218000  0.96788000  0.09705000  1.0
  O  O60  1  0.99915000  0.43525000  0.87699000  1.0
  O  O61  1  0.50085000  0.06475000  0.37700000  1.0
  O  O62  1  0.00085000  0.56475000  0.12300000  1.0
  O  O63  1  0.49915000  0.93525000  0.62301000  1.0
  O  O64  1  0.33647000  0.69835000  0.92867000  1.0
  O  O65  1  0.16353000  0.80165000  0.42868000  1.0
  O  O66  1  0.66353000  0.30165000  0.07133000  1.0
  O  O67  1  0.83647000  0.19835000  0.57132000  1.0
