# generated using pymatgen
data_CuH7C5IN2
_symmetry_space_group_name_H-M   'P 1'
_cell_length_a   4.31164000
_cell_length_b   8.74282000
_cell_length_c   19.16800000
_cell_angle_alpha   90.00040000
_cell_angle_beta   90.00020000
_cell_angle_gamma   86.67510000
_symmetry_Int_Tables_number   1
_chemical_formula_structural   CuH7C5IN2
_chemical_formula_sum   'Cu4 H28 C20 I4 N8'
_cell_volume   721.33859353
_cell_formula_units_Z   4
loop_
 _symmetry_equiv_pos_site_id
 _symmetry_equiv_pos_as_xyz
  1  'x, y, z'
loop_
 _atom_site_type_symbol
 _atom_site_label
 _atom_site_symmetry_multiplicity
 _atom_site_fract_x
 _atom_site_fract_y
 _atom_site_fract_z
 _atom_site_occupancy
  Cu  Cu0  1  0.30724000  0.53580000  0.45010000  1.0
  Cu  Cu1  1  0.69276000  0.96419000  0.95010000  1.0
  Cu  Cu2  1  0.69276000  0.46419000  0.54989000  1.0
  Cu  Cu3  1  0.30725000  0.03581000  0.04989000  1.0
  H  H4  1  0.21240000  0.91161000  0.48399000  1.0
  H  H5  1  0.78760000  0.58839000  0.98399000  1.0
  H  H6  1  0.78759000  0.08839000  0.51601000  1.0
  H  H7  1  0.21241000  0.41161000  0.01601000  1.0
  H  H8  1  0.32731000  0.07544000  0.43756000  1.0
  H  H9  1  0.67270000  0.42456000  0.93756000  1.0
  H  H10  1  0.67269000  0.92457000  0.56244000  1.0
  H  H11  1  0.32731000  0.57544000  0.06245000  1.0
  H  H12  1  0.81474000  0.93058000  0.40035000  1.0
  H  H13  1  0.18526000  0.56942000  0.90035000  1.0
  H  H14  1  0.18526000  0.06942000  0.59965000  1.0
  H  H15  1  0.81475000  0.43058000  0.09966000  1.0
  H  H16  1  0.71913000  0.77048000  0.45163000  1.0
  H  H17  1  0.28087000  0.72952000  0.95163000  1.0
  H  H18  1  0.28085000  0.22952000  0.54837000  1.0
  H  H19  1  0.71915000  0.27048000  0.04837000  1.0
  H  H20  1  0.99010000  0.57401000  0.30152000  1.0
  H  H21  1  0.00988000  0.92598000  0.80152000  1.0
  H  H22  1  0.00989000  0.42600000  0.69847000  1.0
  H  H23  1  0.99012000  0.07401000  0.19847000  1.0
  H  H24  1  0.15148000  0.79565000  0.20712000  1.0
  H  H25  1  0.84850000  0.70433000  0.70712000  1.0
  H  H26  1  0.84852000  0.20436000  0.79288000  1.0
  H  H27  1  0.15149000  0.29565000  0.29288000  1.0
  H  H28  1  0.54262000  0.97138000  0.28353000  1.0
  H  H29  1  0.45737000  0.52862000  0.78354000  1.0
  H  H30  1  0.45737000  0.02863000  0.71647000  1.0
  H  H31  1  0.54264000  0.47137000  0.21647000  1.0
  C  C32  1  0.41357000  0.97447000  0.46778000  1.0
  C  C33  1  0.58643000  0.52554000  0.96778000  1.0
  C  C34  1  0.58642000  0.02554000  0.53222000  1.0
  C  C35  1  0.41358000  0.47447000  0.03223000  1.0
  C  C36  1  0.62112000  0.86950000  0.42186000  1.0
  C  C37  1  0.37888000  0.63050000  0.92186000  1.0
  C  C38  1  0.37887000  0.13050000  0.57814000  1.0
  C  C39  1  0.62114000  0.36950000  0.07814000  1.0
  C  C40  1  0.14195000  0.66755000  0.30821000  1.0
  C  C41  1  0.85803000  0.83245000  0.80822000  1.0
  C  C42  1  0.85804000  0.33245000  0.69178000  1.0
  C  C43  1  0.14197000  0.16755000  0.19178000  1.0
  C  C44  1  0.22445000  0.78096000  0.26096000  1.0
  C  C45  1  0.77554000  0.71904000  0.76095000  1.0
  C  C46  1  0.77555000  0.21905000  0.73904000  1.0
  C  C47  1  0.22447000  0.28095000  0.23904000  1.0
  C  C48  1  0.42283000  0.87058000  0.29813000  1.0
  C  C49  1  0.57715000  0.62941000  0.79813000  1.0
  C  C50  1  0.57717000  0.12943000  0.70187000  1.0
  C  C51  1  0.42284000  0.37057000  0.20187000  1.0
  I  I52  1  0.18188000  0.64049000  0.57602000  1.0
  I  I53  1  0.81812000  0.85951000  0.07602000  1.0
  I  I54  1  0.81811000  0.35951000  0.42397000  1.0
  I  I55  1  0.18189000  0.14049000  0.92398000  1.0
  N  N56  1  0.28163000  0.68533000  0.37026000  1.0
  N  N57  1  0.71836000  0.81467000  0.87026000  1.0
  N  N58  1  0.71836000  0.31468000  0.62974000  1.0
  N  N59  1  0.28165000  0.18533000  0.12974000  1.0
  N  N60  1  0.45304000  0.80996000  0.36302000  1.0
  N  N61  1  0.54696000  0.69003000  0.86302000  1.0
  N  N62  1  0.54695000  0.19004000  0.63698000  1.0
  N  N63  1  0.45305000  0.30996000  0.13698000  1.0
