# generated using pymatgen
data_Zn4H32C36S4O25
_symmetry_space_group_name_H-M   'P 1'
_cell_length_a   17.76930000
_cell_length_b   18.65010000
_cell_length_c   23.31259596
_cell_angle_alpha   113.54601436
_cell_angle_beta   110.25143656
_cell_angle_gamma   90.03070000
_symmetry_Int_Tables_number   1
_chemical_formula_structural   Zn4H32C36S4O25
_chemical_formula_sum   'Zn8 H64 C72 S8 O50'
_cell_volume   6557.58500124
_cell_formula_units_Z   2
loop_
 _symmetry_equiv_pos_site_id
 _symmetry_equiv_pos_as_xyz
  1  'x, y, z'
loop_
 _atom_site_type_symbol
 _atom_site_label
 _atom_site_symmetry_multiplicity
 _atom_site_fract_x
 _atom_site_fract_y
 _atom_site_fract_z
 _atom_site_occupancy
  Zn  Zn0  1  0.11916000  0.52191000  0.05587000  1.0
  Zn  Zn1  1  0.97802000  0.38980000  0.95144000  1.0
  Zn  Zn2  1  0.97489000  0.56378000  0.95160000  1.0
  Zn  Zn3  1  0.93476000  0.53823000  0.06080000  1.0
  Zn  Zn4  1  0.38488000  0.97000000  0.95140000  1.0
  Zn  Zn5  1  0.52410000  0.94476000  0.05994000  1.0
  Zn  Zn6  1  0.52751000  0.11808000  0.06184000  1.0
  Zn  Zn7  1  0.57106000  0.98405000  0.95283000  1.0
  H  H8  1  0.43461000  0.79089000  0.61106000  1.0
  H  H9  1  0.19835000  0.82492000  0.62279000  1.0
  H  H10  1  0.31513000  0.70884000  0.38558000  1.0
  H  H11  1  0.08050000  0.68693000  0.40019000  1.0
  H  H12  1  0.68202000  0.31237000  0.39348000  1.0
  H  H13  1  0.70904000  0.08243000  0.39527000  1.0
  H  H14  1  0.82227000  0.42547000  0.61730000  1.0
  H  H15  1  0.79342000  0.19546000  0.61837000  1.0
  H  H16  1  0.19540000  0.78378000  0.08860000  1.0
  H  H17  1  0.12421000  0.77739000  0.01073000  1.0
  H  H18  1  0.21289000  0.87288000  0.01450000  1.0
  H  H19  1  0.28490000  0.87673000  0.09113000  1.0
  H  H20  1  0.21212000  0.77412000  0.90277000  1.0
  H  H21  1  0.28612000  0.71115000  0.89929000  1.0
  H  H22  1  0.12685000  0.67580000  0.89960000  1.0
  H  H23  1  0.20307000  0.61554000  0.90013000  1.0
  H  H24  1  0.30251000  0.69463000  0.08871000  1.0
  H  H25  1  0.30480000  0.62409000  0.01213000  1.0
  H  H26  1  0.39104000  0.71669000  0.01007000  1.0
  H  H27  1  0.39127000  0.78599000  0.08798000  1.0
  H  H28  1  0.89098000  0.29845000  0.09037000  1.0
  H  H29  1  0.88379000  0.23122000  0.00860000  1.0
  H  H30  1  0.79634000  0.13935000  0.01035000  1.0
  H  H31  1  0.80207000  0.20810000  0.09122000  1.0
  H  H32  1  0.69187000  0.13916000  0.90536000  1.0
  H  H33  1  0.61953000  0.20393000  0.91041000  1.0
  H  H34  1  0.77641000  0.23435000  0.90422000  1.0
  H  H35  1  0.70576000  0.30009000  0.91333000  1.0
  H  H36  1  0.79121000  0.39514000  0.10279000  1.0
  H  H37  1  0.71686000  0.39758000  0.03079000  1.0
  H  H38  1  0.62668000  0.30362000  0.02741000  1.0
  H  H39  1  0.69999000  0.30347000  0.10076000  1.0
  H  H40  1  0.16663000  0.26855000  0.06703000  1.0
  H  H41  1  0.25093000  0.34560000  0.10661000  1.0
  H  H42  1  0.33894000  0.25326000  0.10969000  1.0
  H  H43  1  0.25432000  0.17670000  0.07013000  1.0
  H  H44  1  0.39714000  0.29111000  0.03940000  1.0
  H  H45  1  0.35375000  0.24187000  0.95017000  1.0
  H  H46  1  0.30916000  0.38391000  0.03699000  1.0
  H  H47  1  0.26671000  0.33445000  0.94776000  1.0
  H  H48  1  0.10401000  0.19679000  0.93749000  1.0
  H  H49  1  0.14603000  0.22343000  0.88945000  1.0
  H  H50  1  0.23264000  0.12972000  0.89262000  1.0
  H  H51  1  0.19186000  0.10465000  0.94191000  1.0
  H  H52  1  0.89224000  0.80416000  0.06646000  1.0
  H  H53  1  0.84662000  0.77174000  0.11043000  1.0
  H  H54  1  0.75974000  0.86515000  0.10871000  1.0
  H  H55  1  0.80401000  0.89547000  0.06291000  1.0
  H  H56  1  0.64081000  0.75337000  0.04637000  1.0
  H  H57  1  0.59946000  0.70661000  0.95711000  1.0
  H  H58  1  0.72871000  0.66035000  0.04703000  1.0
  H  H59  1  0.68780000  0.61479000  0.95772000  1.0
  H  H60  1  0.83385000  0.73840000  0.93681000  1.0
  H  H61  1  0.75082000  0.66091000  0.89272000  1.0
  H  H62  1  0.66172000  0.75256000  0.89093000  1.0
  H  H63  1  0.74477000  0.82976000  0.93476000  1.0
  H  H64  1  0.55020000  0.96249000  0.81397000  1.0
  H  H65  1  0.28700000  0.84406000  0.82217000  1.0
  H  H66  1  0.22270000  0.53057000  0.18589000  1.0
  H  H67  1  0.96226000  0.65955000  0.19871000  1.0
  H  H68  1  0.66087000  0.21871000  0.18918000  1.0
  H  H69  1  0.53155000  0.96890000  0.19603000  1.0
  H  H70  1  0.84611000  0.54038000  0.82237000  1.0
  H  H71  1  0.97278000  0.28207000  0.81671000  1.0
  C  C72  1  0.14488000  0.35797000  0.99866000  1.0
  C  C73  1  0.91340000  0.41509000  0.82747000  1.0
  C  C74  1  0.14487000  0.63124000  0.99962000  1.0
  C  C75  1  0.85578000  0.64576000  0.00494000  1.0
  C  C76  1  0.08737000  0.59104000  0.18311000  1.0
  C  C77  1  0.85916000  0.37277000  0.00807000  1.0
  C  C78  1  0.35768000  0.85801000  0.00287000  1.0
  C  C79  1  0.59052000  0.09003000  0.18468000  1.0
  C  C80  1  0.35873000  0.13589000  0.00514000  1.0
  C  C81  1  0.64398000  0.14958000  0.00717000  1.0
  C  C82  1  0.42353000  0.90994000  0.82692000  1.0
  C  C83  1  0.64054000  0.86738000  0.00227000  1.0
  C  C84  1  0.38520000  0.87295000  0.75096000  1.0
  C  C85  1  0.43171000  0.84554000  0.71018000  1.0
  C  C86  1  0.39602000  0.81154000  0.63998000  1.0
  C  C87  1  0.31135000  0.80320000  0.60696000  1.0
  C  C88  1  0.26395000  0.82998000  0.64657000  1.0
  C  C89  1  0.30015000  0.86384000  0.71670000  1.0
  C  C90  1  0.27417000  0.76840000  0.53562000  1.0
  C  C91  1  0.24109000  0.73817000  0.47412000  1.0
  C  C92  1  0.20312000  0.70271000  0.40282000  1.0
  C  C93  1  0.24950000  0.69035000  0.36243000  1.0
  C  C94  1  0.21219000  0.65481000  0.29235000  1.0
  C  C95  1  0.12704000  0.62996000  0.25895000  1.0
  C  C96  1  0.08150000  0.64317000  0.30047000  1.0
  C  C97  1  0.11829000  0.67866000  0.37061000  1.0
  C  C98  1  0.62851000  0.12863000  0.26032000  1.0
  C  C99  1  0.64013000  0.21192000  0.29717000  1.0
  C  C100  1  0.67496000  0.24814000  0.36734000  1.0
  C  C101  1  0.70016000  0.20234000  0.40403000  1.0
  C  C102  1  0.68935000  0.11941000  0.36834000  1.0
  C  C103  1  0.65437000  0.08367000  0.29819000  1.0
  C  C104  1  0.73598000  0.23879000  0.47532000  1.0
  C  C105  1  0.76711000  0.26992000  0.53688000  1.0
  C  C106  1  0.80302000  0.30563000  0.60818000  1.0
  C  C107  1  0.82891000  0.38809000  0.64406000  1.0
  C  C108  1  0.86405000  0.42288000  0.71422000  1.0
  C  C109  1  0.87523000  0.37736000  0.75183000  1.0
  C  C110  1  0.84879000  0.29457000  0.71477000  1.0
  C  C111  1  0.81346000  0.25929000  0.64463000  1.0
  C  C112  1  0.18772000  0.77391000  0.03697000  1.0
  C  C113  1  0.24671000  0.83658000  0.03867000  1.0
  C  C114  1  0.30208000  0.79463000  0.00094000  1.0
  C  C115  1  0.24752000  0.73903000  0.92742000  1.0
  C  C116  1  0.19092000  0.67519000  0.92665000  1.0
  C  C117  1  0.20455000  0.68955000  0.99976000  1.0
  C  C118  1  0.29313000  0.68447000  0.03681000  1.0
  C  C119  1  0.35112000  0.74590000  0.03633000  1.0
  C  C120  1  0.84802000  0.26120000  0.03872000  1.0
  C  C121  1  0.78924000  0.20023000  0.03921000  1.0
  C  C122  1  0.70029000  0.21126000  0.00764000  1.0
  C  C123  1  0.68345000  0.19935000  0.93453000  1.0
  C  C124  1  0.74090000  0.26232000  0.93509000  1.0
  C  C125  1  0.79920000  0.31501000  0.00840000  1.0
  C  C126  1  0.74973000  0.35753000  0.05081000  1.0
  C  C127  1  0.68996000  0.29588000  0.04935000  1.0
  C  C128  1  0.22301000  0.28758000  0.06374000  1.0
  C  C129  1  0.28152000  0.22637000  0.06582000  1.0
  C  C130  1  0.29968000  0.19404000  0.00043000  1.0
  C  C131  1  0.33941000  0.26443000  0.99596000  1.0
  C  C132  1  0.28115000  0.32596000  0.99425000  1.0
  C  C133  1  0.20160000  0.29710000  0.99703000  1.0
  C  C134  1  0.16168000  0.21641000  0.93666000  1.0
  C  C135  1  0.21974000  0.15495000  0.93895000  1.0
  C  C136  1  0.83384000  0.78232000  0.06509000  1.0
  C  C137  1  0.77532000  0.84371000  0.06362000  1.0
  C  C138  1  0.69630000  0.80546000  0.99962000  1.0
  C  C139  1  0.65661000  0.73313000  0.00151000  1.0
  C  C140  1  0.71531000  0.67180000  0.00212000  1.0
  C  C141  1  0.79531000  0.70286000  0.00145000  1.0
  C  C142  1  0.77680000  0.71751000  0.93781000  1.0
  C  C143  1  0.71766000  0.77817000  0.93651000  1.0
  S  S144  1  0.54003000  0.84626000  0.74436000  1.0
  S  S145  1  0.23045000  0.89844000  0.75913000  1.0
  S  S146  1  0.28040000  0.64748000  0.24862000  1.0
  S  S147  1  0.97291000  0.61133000  0.26741000  1.0
  S  S148  1  0.60782000  0.27915000  0.25827000  1.0
  S  S149  1  0.65050000  0.97744000  0.26029000  1.0
  S  S150  1  0.89830000  0.52859000  0.75204000  1.0
  S  S151  1  0.85305000  0.22729000  0.75376000  1.0
  O  O152  1  0.00176000  0.50424000  0.00638000  1.0
  O  O153  1  0.17502000  0.42985000  0.04119000  1.0
  O  O154  1  0.96300000  0.37961000  0.85696000  1.0
  O  O155  1  0.07066000  0.62274000  0.96121000  1.0
  O  O156  1  0.07050000  0.33327000  0.95891000  1.0
  O  O157  1  0.17254000  0.59682000  0.03839000  1.0
  O  O158  1  0.89510000  0.48144000  0.85982000  1.0
  O  O159  1  0.89551000  0.63322000  0.96648000  1.0
  O  O160  1  0.01988000  0.60973000  0.15464000  1.0
  O  O161  1  0.86445000  0.61552000  0.04695000  1.0
  O  O162  1  0.12305000  0.54083000  0.15016000  1.0
  O  O163  1  0.89664000  0.34227000  0.96823000  1.0
  O  O164  1  0.86830000  0.44600000  0.04736000  1.0
  O  O165  1  0.50135000  0.00416000  0.00495000  1.0
  O  O166  1  0.32761000  0.88957000  0.96195000  1.0
  O  O167  1  0.54055000  0.02522000  0.15544000  1.0
  O  O168  1  0.43016000  0.16522000  0.05050000  1.0
  O  O169  1  0.43047000  0.87668000  0.04610000  1.0
  O  O170  1  0.33265000  0.06298000  0.96456000  1.0
  O  O171  1  0.60903000  0.12322000  0.15183000  1.0
  O  O172  1  0.60555000  0.17443000  0.04675000  1.0
  O  O173  1  0.49068000  0.95786000  0.85626000  1.0
  O  O174  1  0.63923000  0.07698000  0.96760000  1.0
  O  O175  1  0.38698000  0.89243000  0.85921000  1.0
  O  O176  1  0.60678000  0.88150000  0.04513000  1.0
  O  O177  1  0.63307000  0.90157000  0.96327000  1.0
  O  O178  1  0.57436000  0.93846000  0.77876000  1.0
  O  O179  1  0.56652000  0.81124000  0.68919000  1.0
  O  O180  1  0.55550000  0.81609000  0.79470000  1.0
  O  O181  1  0.22959000  0.83674000  0.79045000  1.0
  O  O182  1  0.15066000  0.88398000  0.70900000  1.0
  O  O183  1  0.26603000  0.97694000  0.81187000  1.0
  O  O184  1  0.28066000  0.55442000  0.21649000  1.0
  O  O185  1  0.36071000  0.68267000  0.29793000  1.0
  O  O186  1  0.24357000  0.67385000  0.19642000  1.0
  O  O187  1  0.93928000  0.67077000  0.23459000  1.0
  O  O188  1  0.94768000  0.63095000  0.32319000  1.0
  O  O189  1  0.95528000  0.53127000  0.21592000  1.0
  O  O190  1  0.67130000  0.27522000  0.22322000  1.0
  O  O191  1  0.62534000  0.35782000  0.31079000  1.0
  O  O192  1  0.52683000  0.24627000  0.20806000  1.0
  O  O193  1  0.55545000  0.94650000  0.22981000  1.0
  O  O194  1  0.68547000  0.95278000  0.31334000  1.0
  O  O195  1  0.68099000  0.95882000  0.20706000  1.0
  O  O196  1  0.83622000  0.56226000  0.78796000  1.0
  O  O197  1  0.88089000  0.55368000  0.69886000  1.0
  O  O198  1  0.97960000  0.54473000  0.80148000  1.0
  O  O199  1  0.94805000  0.22605000  0.78315000  1.0
  O  O200  1  0.81698000  0.14947000  0.70140000  1.0
  O  O201  1  0.82397000  0.26301000  0.80777000  1.0
