# generated using pymatgen
data_ZnH9C19I5NO4
_symmetry_space_group_name_H-M   'P 1'
_cell_length_a   10.85660000
_cell_length_b   16.54570000
_cell_length_c   17.82570000
_cell_angle_alpha   90.53240000
_cell_angle_beta   91.42700000
_cell_angle_gamma   90.71770000
_symmetry_Int_Tables_number   1
_chemical_formula_structural   ZnH9C19I5NO4
_chemical_formula_sum   'Zn2 H18 C38 I10 N2 O8'
_cell_volume   3200.63940150
_cell_formula_units_Z   2
loop_
 _symmetry_equiv_pos_site_id
 _symmetry_equiv_pos_as_xyz
  1  'x, y, z'
loop_
 _atom_site_type_symbol
 _atom_site_label
 _atom_site_symmetry_multiplicity
 _atom_site_fract_x
 _atom_site_fract_y
 _atom_site_fract_z
 _atom_site_occupancy
  Zn  Zn0  1  0.50161000  0.41306000  0.50601000  1.0
  Zn  Zn1  1  0.50030000  0.58559000  0.50719000  1.0
  H  H2  1  0.87888000  0.37576000  0.44864000  1.0
  H  H3  1  0.91033000  0.40019000  0.57682000  1.0
  H  H4  1  0.09227000  0.36708000  0.46816000  1.0
  H  H5  1  0.12078000  0.42836000  0.60249000  1.0
  H  H6  1  0.09094000  0.58182000  0.40846000  1.0
  H  H7  1  0.12160000  0.62484000  0.49833000  1.0
  H  H8  1  0.43489000  0.40487000  0.11341000  1.0
  H  H9  1  0.65539000  0.62177000  0.14204000  1.0
  H  H10  1  0.49875000  0.37599000  0.74583000  1.0
  H  H11  1  0.56549000  0.63169000  0.73936000  1.0
  H  H12  1  0.59566000  0.10755000  0.56574000  1.0
  H  H13  1  0.61074000  0.89309000  0.55256000  1.0
  H  H14  1  0.35531000  0.30509000  0.42171000  1.0
  H  H15  1  0.34401000  0.68928000  0.42615000  1.0
  H  H16  1  0.10914000  0.42941000  0.38948000  1.0
  H  H17  1  0.09748000  0.53375000  0.61089000  1.0
  H  H18  1  0.88261000  0.60638000  0.43302000  1.0
  H  H19  1  0.91231000  0.61990000  0.52980000  1.0
  C  C20  1  0.51058000  0.50324000  0.65161000  1.0
  C  C21  1  0.73800000  0.49431000  0.49869000  1.0
  C  C22  1  0.49511000  0.50512000  0.35975000  1.0
  C  C23  1  0.26162000  0.49418000  0.50083000  1.0
  C  C24  1  0.92615000  0.43352000  0.43963000  1.0
  C  C25  1  0.93476000  0.46436000  0.57181000  1.0
  C  C26  1  0.06784000  0.42631000  0.44493000  1.0
  C  C27  1  0.07437000  0.48009000  0.57640000  1.0
  C  C28  1  0.93191000  0.58075000  0.48153000  1.0
  C  C29  1  0.87925000  0.49643000  0.49694000  1.0
  C  C30  1  0.12091000  0.49420000  0.49602000  1.0
  C  C31  1  0.07145000  0.57590000  0.46848000  1.0
  C  C32  1  0.47696000  0.45086000  0.15019000  1.0
  C  C33  1  0.60051000  0.57348000  0.16606000  1.0
  C  C34  1  0.45758000  0.45056000  0.22693000  1.0
  C  C35  1  0.57851000  0.57255000  0.24275000  1.0
  C  C36  1  0.50954000  0.50989000  0.27595000  1.0
  C  C37  1  0.55041000  0.51212000  0.11890000  1.0
  C  C38  1  0.56671000  0.51226000  0.04049000  1.0
  C  C39  1  0.57080000  0.50977000  0.97214000  1.0
  C  C40  1  0.53682000  0.43407000  0.85340000  1.0
  C  C41  1  0.57544000  0.57841000  0.84976000  1.0
  C  C42  1  0.51905000  0.43227000  0.77595000  1.0
  C  C43  1  0.55719000  0.57701000  0.77241000  1.0
  C  C44  1  0.52786000  0.50400000  0.73535000  1.0
  C  C45  1  0.56337000  0.50733000  0.89323000  1.0
  C  C46  1  0.54116000  0.14960000  0.53264000  1.0
  C  C47  1  0.54981000  0.84964000  0.52372000  1.0
  C  C48  1  0.55600000  0.23262000  0.54356000  1.0
  C  C49  1  0.56566000  0.76711000  0.53393000  1.0
  C  C50  1  0.40626000  0.25879000  0.45201000  1.0
  C  C51  1  0.39995000  0.73692000  0.45310000  1.0
  C  C52  1  0.38434000  0.17692000  0.43818000  1.0
  C  C53  1  0.37763000  0.81829000  0.43968000  1.0
  C  C54  1  0.45405000  0.11974000  0.47896000  1.0
  C  C55  1  0.45404000  0.87718000  0.47610000  1.0
  C  C56  1  0.44141000  0.03523000  0.47005000  1.0
  C  C57  1  0.44076000  0.96149000  0.46886000  1.0
  I  I58  1  0.86331000  0.46091000  0.32470000  1.0
  I  I59  1  0.84964000  0.51326000  0.67274000  1.0
  I  I60  1  0.68165000  0.27180000  0.62805000  1.0
  I  I61  1  0.71044000  0.73052000  0.60509000  1.0
  I  I62  1  0.24902000  0.14152000  0.35894000  1.0
  I  I63  1  0.23361000  0.85058000  0.36688000  1.0
  I  I64  1  0.33460000  0.35935000  0.26311000  1.0
  I  I65  1  0.65777000  0.67134000  0.30396000  1.0
  I  I66  1  0.52420000  0.32488000  0.91247000  1.0
  I  I67  1  0.62004000  0.68941000  0.90278000  1.0
  N  N68  1  0.49061000  0.28628000  0.50337000  1.0
  N  N69  1  0.49160000  0.71173000  0.49953000  1.0
  O  O70  1  0.48866000  0.43544000  0.61941000  1.0
  O  O71  1  0.52055000  0.57130000  0.61952000  1.0
  O  O72  1  0.68831000  0.42545000  0.50936000  1.0
  O  O73  1  0.68219000  0.56059000  0.49048000  1.0
  O  O74  1  0.51585000  0.43751000  0.39002000  1.0
  O  O75  1  0.46543000  0.57003000  0.39299000  1.0
  O  O76  1  0.31483000  0.42681000  0.49074000  1.0
  O  O77  1  0.31496000  0.56099000  0.51728000  1.0
