# generated using pymatgen
data_ZnH24C32N2(ClO)2
_symmetry_space_group_name_H-M   'P 1'
_cell_length_a   11.22600000
_cell_length_b   16.11450000
_cell_length_c   19.55320000
_cell_angle_alpha   90.00010000
_cell_angle_beta   89.99950000
_cell_angle_gamma   89.99980000
_symmetry_Int_Tables_number   1
_chemical_formula_structural   ZnH24C32N2(ClO)2
_chemical_formula_sum   'Zn4 H96 C128 N8 Cl8 O8'
_cell_volume   3537.20080459
_cell_formula_units_Z   4
loop_
 _symmetry_equiv_pos_site_id
 _symmetry_equiv_pos_as_xyz
  1  'x, y, z'
loop_
 _atom_site_type_symbol
 _atom_site_label
 _atom_site_symmetry_multiplicity
 _atom_site_fract_x
 _atom_site_fract_y
 _atom_site_fract_z
 _atom_site_occupancy
  Zn  Zn0  1  0.43941000  0.25805000  0.49407000  1.0
  Zn  Zn1  1  0.06059000  0.74195000  0.99407000  1.0
  Zn  Zn2  1  0.56059000  0.75806000  0.00593000  1.0
  Zn  Zn3  1  0.93941000  0.24194000  0.50593000  1.0
  H  H4  1  0.93027000  0.49204000  0.46272000  1.0
  H  H5  1  0.56973000  0.50796000  0.96272000  1.0
  H  H6  1  0.06973000  0.99205000  0.03728000  1.0
  H  H7  1  0.43027000  0.00795000  0.53728000  1.0
  H  H8  1  0.83013000  0.57435000  0.43866000  1.0
  H  H9  1  0.66987000  0.42565000  0.93866000  1.0
  H  H10  1  0.16988000  0.07435000  0.06134000  1.0
  H  H11  1  0.33013000  0.92565000  0.56134000  1.0
  H  H12  1  0.67851000  0.49275000  0.38344000  1.0
  H  H13  1  0.82149000  0.50725000  0.88344000  1.0
  H  H14  1  0.32149000  0.99275000  0.11656000  1.0
  H  H15  1  0.17851000  0.00725000  0.61656000  1.0
  H  H16  1  0.51987000  0.38390000  0.39312000  1.0
  H  H17  1  0.98013000  0.61610000  0.89312000  1.0
  H  H18  1  0.48013000  0.88389000  0.10688000  1.0
  H  H19  1  0.01987000  0.11610000  0.60688000  1.0
  H  H20  1  0.62959000  0.31991000  0.58829000  1.0
  H  H21  1  0.87041000  0.68009000  0.08829000  1.0
  H  H22  1  0.37041000  0.81991000  0.91171000  1.0
  H  H23  1  0.12959000  0.18009000  0.41171000  1.0
  H  H24  1  0.79118000  0.42671000  0.58743000  1.0
  H  H25  1  0.70882000  0.57329000  0.08743000  1.0
  H  H26  1  0.20882000  0.92671000  0.91257000  1.0
  H  H27  1  0.29119000  0.07329000  0.41257000  1.0
  H  H28  1  0.05411000  0.70395000  0.74275000  1.0
  H  H29  1  0.44589000  0.29605000  0.24275000  1.0
  H  H30  1  0.94589000  0.20395000  0.75725000  1.0
  H  H31  1  0.55412000  0.79605000  0.25725000  1.0
  H  H32  1  0.22786000  0.79192000  0.76480000  1.0
  H  H33  1  0.27214000  0.20808000  0.26480000  1.0
  H  H34  1  0.77214000  0.29193000  0.73520000  1.0
  H  H35  1  0.72786000  0.70807000  0.23520000  1.0
  H  H36  1  0.36104000  0.83683000  0.66863000  1.0
  H  H37  1  0.13896000  0.16317000  0.16863000  1.0
  H  H38  1  0.63896000  0.33684000  0.83137000  1.0
  H  H39  1  0.86104000  0.66316000  0.33137000  1.0
  H  H40  1  0.31908000  0.78845000  0.55002000  1.0
  H  H41  1  0.18092000  0.21155000  0.05002000  1.0
  H  H42  1  0.68092000  0.28845000  0.94999000  1.0
  H  H43  1  0.81908000  0.71155000  0.44999000  1.0
  H  H44  1  0.19454000  0.71174000  0.46912000  1.0
  H  H45  1  0.30546000  0.28826000  0.96912000  1.0
  H  H46  1  0.80546000  0.21174000  0.03088000  1.0
  H  H47  1  0.69454000  0.78826000  0.53088000  1.0
  H  H48  1  0.02477000  0.61871000  0.44584000  1.0
  H  H49  1  0.47523000  0.38130000  0.94584000  1.0
  H  H50  1  0.97523000  0.11871000  0.05416000  1.0
  H  H51  1  0.52477000  0.88130000  0.55416000  1.0
  H  H52  1  0.95889000  0.37328000  0.67603000  1.0
  H  H53  1  0.54111000  0.62672000  0.17603000  1.0
  H  H54  1  0.04111000  0.87328000  0.82397000  1.0
  H  H55  1  0.45889000  0.12672000  0.32397000  1.0
  H  H56  1  0.06317000  0.39530000  0.74262000  1.0
  H  H57  1  0.43682000  0.60470000  0.24262000  1.0
  H  H58  1  0.93682000  0.89531000  0.75738000  1.0
  H  H59  1  0.56318000  0.10469000  0.25738000  1.0
  H  H60  1  0.14886000  0.48399000  0.57692000  1.0
  H  H61  1  0.35114000  0.51600000  0.07692000  1.0
  H  H62  1  0.85114000  0.98400000  0.92308000  1.0
  H  H63  1  0.64886000  0.01600000  0.42308000  1.0
  H  H64  1  0.30082000  0.41869000  0.50021000  1.0
  H  H65  1  0.19918000  0.58131000  0.00021000  1.0
  H  H66  1  0.69918000  0.91869000  0.99979000  1.0
  H  H67  1  0.80082000  0.08131000  0.49979000  1.0
  H  H68  1  0.30729000  0.20367000  0.61589000  1.0
  H  H69  1  0.19272000  0.79633000  0.11589000  1.0
  H  H70  1  0.69272000  0.70367000  0.88411000  1.0
  H  H71  1  0.80728000  0.29633000  0.38411000  1.0
  H  H72  1  0.15109000  0.25786000  0.69545000  1.0
  H  H73  1  0.34891000  0.74215000  0.19545000  1.0
  H  H74  1  0.84891000  0.75786000  0.80455000  1.0
  H  H75  1  0.65109000  0.24214000  0.30456000  1.0
  H  H76  1  0.83327000  0.76477000  0.63277000  1.0
  H  H77  1  0.66672000  0.23523000  0.13277000  1.0
  H  H78  1  0.16673000  0.26477000  0.86724000  1.0
  H  H79  1  0.33333333  0.73523000  0.36723000  1.0
  H  H80  1  0.64723000  0.83660000  0.66662000  1.0
  H  H81  1  0.85276000  0.16340000  0.16662000  1.0
  H  H82  1  0.35277000  0.33660000  0.83338000  1.0
  H  H83  1  0.14724000  0.66339000  0.33333333  1.0
  H  H84  1  0.50267000  0.76783000  0.74602000  1.0
  H  H85  1  0.99733000  0.23217000  0.24602000  1.0
  H  H86  1  0.49733000  0.26783000  0.75398000  1.0
  H  H87  1  0.00267000  0.73217000  0.25398000  1.0
  H  H88  1  0.54490000  0.62780000  0.79111000  1.0
  H  H89  1  0.95510000  0.37220000  0.29111000  1.0
  H  H90  1  0.45510000  0.12780000  0.70889000  1.0
  H  H91  1  0.04490000  0.87220000  0.20889000  1.0
  H  H92  1  0.67302000  0.50323000  0.79444000  1.0
  H  H93  1  0.82697000  0.49677000  0.29444000  1.0
  H  H94  1  0.32698000  0.00323000  0.70556000  1.0
  H  H95  1  0.17303000  0.99677000  0.20556000  1.0
  H  H96  1  0.85858000  0.43066000  0.76254000  1.0
  H  H97  1  0.64142000  0.56934000  0.26254000  1.0
  H  H98  1  0.14142000  0.93066000  0.73746000  1.0
  H  H99  1  0.35858000  0.06934000  0.23746000  1.0
  C  C100  1  0.85031000  0.52760000  0.47806000  1.0
  C  C101  1  0.64969000  0.47241000  0.97806000  1.0
  C  C102  1  0.14969000  0.02760000  0.02194000  1.0
  C  C103  1  0.35031000  0.97240000  0.52194000  1.0
  C  C104  1  0.74861000  0.46804000  0.48473000  1.0
  C  C105  1  0.75139000  0.53196000  0.98473000  1.0
  C  C106  1  0.25139000  0.96804000  0.01527000  1.0
  C  C107  1  0.24861000  0.03196000  0.51527000  1.0
  C  C108  1  0.67025000  0.45636000  0.43006000  1.0
  C  C109  1  0.82975000  0.54364000  0.93006000  1.0
  C  C110  1  0.32975000  0.95636000  0.06994000  1.0
  C  C111  1  0.17025000  0.04364000  0.56994000  1.0
  C  C112  1  0.58173000  0.39664000  0.43492000  1.0
  C  C113  1  0.91827000  0.60336000  0.93492000  1.0
  C  C114  1  0.41827000  0.89664000  0.06508000  1.0
  C  C115  1  0.08173000  0.10336000  0.56508000  1.0
  C  C116  1  0.64207000  0.36119000  0.54469000  1.0
  C  C117  1  0.85793000  0.63881000  0.04468000  1.0
  C  C118  1  0.35793000  0.86119000  0.95531000  1.0
  C  C119  1  0.14207000  0.13881000  0.45532000  1.0
  C  C120  1  0.73263000  0.41992000  0.54350000  1.0
  C  C121  1  0.76737000  0.58009000  0.04350000  1.0
  C  C122  1  0.26737000  0.91992000  0.95650000  1.0
  C  C123  1  0.23264000  0.08009000  0.45650000  1.0
  C  C124  1  0.96499000  0.61645000  0.55192000  1.0
  C  C125  1  0.53501000  0.38355000  0.05192000  1.0
  C  C126  1  0.03501000  0.11646000  0.94808000  1.0
  C  C127  1  0.46499000  0.88355000  0.44808000  1.0
  C  C128  1  0.98413000  0.64356000  0.61881000  1.0
  C  C129  1  0.51587000  0.35644000  0.11881000  1.0
  C  C130  1  0.01587000  0.14357000  0.88119000  1.0
  C  C131  1  0.48413000  0.85643000  0.38119000  1.0
  C  C132  1  0.08283000  0.69607000  0.63286000  1.0
  C  C133  1  0.41717000  0.30393000  0.13286000  1.0
  C  C134  1  0.91717000  0.19607000  0.86714000  1.0
  C  C135  1  0.58283000  0.80393000  0.36714000  1.0
  C  C136  1  0.11006000  0.72371000  0.70015000  1.0
  C  C137  1  0.38994000  0.27629000  0.20015000  1.0
  C  C138  1  0.88994000  0.22371000  0.79985000  1.0
  C  C139  1  0.61006000  0.77629000  0.29985000  1.0
  C  C140  1  0.20790000  0.77333000  0.71239000  1.0
  C  C141  1  0.29210000  0.22667000  0.21239000  1.0
  C  C142  1  0.79210000  0.27333000  0.78761000  1.0
  C  C143  1  0.70791000  0.72666000  0.28761000  1.0
  C  C144  1  0.28336000  0.79817000  0.65804000  1.0
  C  C145  1  0.21664000  0.20183000  0.15805000  1.0
  C  C146  1  0.71664000  0.29817000  0.84196000  1.0
  C  C147  1  0.78336000  0.70182000  0.34196000  1.0
  C  C148  1  0.26013000  0.77189000  0.59228000  1.0
  C  C149  1  0.23987000  0.22811000  0.09228000  1.0
  C  C150  1  0.73987000  0.27189000  0.90773000  1.0
  C  C151  1  0.76013000  0.72811000  0.40772000  1.0
  C  C152  1  0.16035000  0.72077000  0.57787000  1.0
  C  C153  1  0.33965000  0.27923000  0.07786000  1.0
  C  C154  1  0.83965000  0.22077000  0.92214000  1.0
  C  C155  1  0.66035000  0.77923000  0.42213000  1.0
  C  C156  1  0.13648000  0.69208000  0.51085000  1.0
  C  C157  1  0.36352000  0.30792000  0.01086000  1.0
  C  C158  1  0.86352000  0.19208000  0.98915000  1.0
  C  C159  1  0.63649000  0.80792000  0.48915000  1.0
  C  C160  1  0.04109000  0.64058000  0.49770000  1.0
  C  C161  1  0.45891000  0.35942000  0.99770000  1.0
  C  C162  1  0.95890000  0.14058000  0.00230000  1.0
  C  C163  1  0.54110000  0.85942000  0.50230000  1.0
  C  C164  1  0.04113000  0.40786000  0.68855000  1.0
  C  C165  1  0.45887000  0.59214000  0.18855000  1.0
  C  C166  1  0.95887000  0.90786000  0.81145000  1.0
  C  C167  1  0.54113000  0.09214000  0.31145000  1.0
  C  C168  1  0.13786000  0.37606000  0.64266000  1.0
  C  C169  1  0.36213000  0.62394000  0.14266000  1.0
  C  C170  1  0.86214000  0.87606000  0.85734000  1.0
  C  C171  1  0.63786000  0.12394000  0.35734000  1.0
  C  C172  1  0.18165000  0.42175000  0.58735000  1.0
  C  C173  1  0.31835000  0.57825000  0.08735000  1.0
  C  C174  1  0.81835000  0.92175000  0.91265000  1.0
  C  C175  1  0.68165000  0.07825000  0.41265000  1.0
  C  C176  1  0.26652000  0.38591000  0.54487000  1.0
  C  C177  1  0.23348000  0.61409000  0.04487000  1.0
  C  C178  1  0.73348000  0.88591000  0.95513000  1.0
  C  C179  1  0.76652000  0.11409000  0.45513000  1.0
  C  C180  1  0.26813000  0.26499000  0.60904000  1.0
  C  C181  1  0.23186000  0.73501000  0.10904000  1.0
  C  C182  1  0.73187000  0.76499000  0.89096000  1.0
  C  C183  1  0.76813000  0.23501000  0.39096000  1.0
  C  C184  1  0.18227000  0.29593000  0.65306000  1.0
  C  C185  1  0.31773000  0.70407000  0.15306000  1.0
  C  C186  1  0.81773000  0.79593000  0.84694000  1.0
  C  C187  1  0.68227000  0.20407000  0.34694000  1.0
  C  C188  1  0.92340000  0.53189000  0.69855000  1.0
  C  C189  1  0.57660000  0.46811000  0.19855000  1.0
  C  C190  1  0.07660000  0.03189000  0.80145000  1.0
  C  C191  1  0.42340000  0.96811000  0.30145000  1.0
  C  C192  1  0.90245000  0.61114000  0.67257000  1.0
  C  C193  1  0.59755000  0.38886000  0.17257000  1.0
  C  C194  1  0.09755000  0.11114000  0.82743000  1.0
  C  C195  1  0.40246000  0.88886000  0.32743000  1.0
  C  C196  1  0.79694000  0.65397000  0.69202000  1.0
  C  C197  1  0.70306000  0.34603000  0.19202000  1.0
  C  C198  1  0.20306000  0.15397000  0.80798000  1.0
  C  C199  1  0.29694000  0.84603000  0.30798000  1.0
  C  C200  1  0.76980000  0.73472000  0.66702000  1.0
  C  C201  1  0.73019000  0.26528000  0.16702000  1.0
  C  C202  1  0.23020000  0.23472000  0.83298000  1.0
  C  C203  1  0.26980000  0.76528000  0.33298000  1.0
  C  C204  1  0.66595000  0.77441000  0.68597000  1.0
  C  C205  1  0.83404000  0.22559000  0.18597000  1.0
  C  C206  1  0.33405000  0.27441000  0.81403000  1.0
  C  C207  1  0.16596000  0.72559000  0.31403000  1.0
  C  C208  1  0.58391000  0.73575000  0.73078000  1.0
  C  C209  1  0.91608000  0.26425000  0.23078000  1.0
  C  C210  1  0.41609000  0.23574000  0.76922000  1.0
  C  C211  1  0.08392000  0.76425000  0.26922000  1.0
  C  C212  1  0.60701000  0.65735000  0.75568000  1.0
  C  C213  1  0.89298000  0.34265000  0.25568000  1.0
  C  C214  1  0.39299000  0.15735000  0.74432000  1.0
  C  C215  1  0.10701000  0.84265000  0.24431000  1.0
  C  C216  1  0.71273000  0.61458000  0.73708000  1.0
  C  C217  1  0.78726000  0.38542000  0.23708000  1.0
  C  C218  1  0.28726000  0.11458000  0.76292000  1.0
  C  C219  1  0.21274000  0.88541000  0.26292000  1.0
  C  C220  1  0.73765000  0.53352000  0.76098000  1.0
  C  C221  1  0.76234000  0.46649000  0.26098000  1.0
  C  C222  1  0.26234000  0.03351000  0.73902000  1.0
  C  C223  1  0.23766000  0.96648000  0.23901000  1.0
  C  C224  1  0.84113000  0.49281000  0.74303000  1.0
  C  C225  1  0.65886000  0.50719000  0.24304000  1.0
  C  C226  1  0.15886000  0.99281000  0.75697000  1.0
  C  C227  1  0.34114000  0.00719000  0.25697000  1.0
  N  N228  1  0.56807000  0.34955000  0.49129000  1.0
  N  N229  1  0.93193000  0.65045000  0.99129000  1.0
  N  N230  1  0.43193000  0.84955000  0.00871000  1.0
  N  N231  1  0.06807000  0.15045000  0.50871000  1.0
  N  N232  1  0.30981000  0.30916000  0.55562000  1.0
  N  N233  1  0.19019000  0.69084000  0.05562000  1.0
  N  N234  1  0.69019000  0.80916000  0.94438000  1.0
  N  N235  1  0.80981000  0.19084000  0.44438000  1.0
  Cl  Cl236  1  0.51383000  0.15331000  0.55546000  1.0
  Cl  Cl237  1  0.98617000  0.84669000  0.05546000  1.0
  Cl  Cl238  1  0.48617000  0.65331000  0.94454000  1.0
  Cl  Cl239  1  0.01383000  0.34669000  0.44454000  1.0
  Cl  Cl240  1  0.37166000  0.25497000  0.38651000  1.0
  Cl  Cl241  1  0.12834000  0.74503000  0.88651000  1.0
  Cl  Cl242  1  0.62834000  0.75497000  0.11349000  1.0
  Cl  Cl243  1  0.87166000  0.24503000  0.61349000  1.0
  O  O244  1  0.86852000  0.56578000  0.54315000  1.0
  O  O245  1  0.63148000  0.43423000  0.04315000  1.0
  O  O246  1  0.13148000  0.06578000  0.95685000  1.0
  O  O247  1  0.36852000  0.93422000  0.45685000  1.0
  O  O248  1  0.02599000  0.49454000  0.67687000  1.0
  O  O249  1  0.47401000  0.50546000  0.17687000  1.0
  O  O250  1  0.97400000  0.99454000  0.82312000  1.0
  O  O251  1  0.52599000  0.00546000  0.32313000  1.0
