# generated using pymatgen
data_NaH27C23SN3ClO5
_symmetry_space_group_name_H-M   'P 1'
_cell_length_a   10.04190000
_cell_length_b   10.85440000
_cell_length_c   11.38570000
_cell_angle_alpha   90.37530000
_cell_angle_beta   90.00020000
_cell_angle_gamma   89.99950000
_symmetry_Int_Tables_number   1
_chemical_formula_structural   NaH27C23SN3ClO5
_chemical_formula_sum   'Na2 H54 C46 S2 N6 Cl2 O10'
_cell_volume   1241.00100653
_cell_formula_units_Z   2
loop_
 _symmetry_equiv_pos_site_id
 _symmetry_equiv_pos_as_xyz
  1  'x, y, z'
loop_
 _atom_site_type_symbol
 _atom_site_label
 _atom_site_symmetry_multiplicity
 _atom_site_fract_x
 _atom_site_fract_y
 _atom_site_fract_z
 _atom_site_occupancy
  Na  Na0  1  0.40924000  0.59024000  0.59994000  1.0
  Na  Na1  1  0.90924000  0.40975000  0.40006000  1.0
  H  H2  1  0.46815000  0.59854000  0.33212000  1.0
  H  H3  1  0.96815000  0.40146000  0.66788000  1.0
  H  H4  1  0.11692000  0.80632000  0.59201000  1.0
  H  H5  1  0.61691000  0.19368000  0.40799000  1.0
  H  H6  1  0.76306000  0.98300000  0.72658000  1.0
  H  H7  1  0.26306000  0.01699000  0.27342000  1.0
  H  H8  1  0.98985000  0.61213000  0.56226000  1.0
  H  H9  1  0.48984000  0.38786000  0.43774000  1.0
  H  H10  1  0.98541000  0.96653000  0.44516000  1.0
  H  H11  1  0.48541000  0.03347000  0.55484000  1.0
  H  H12  1  0.12691000  0.01662000  0.64313000  1.0
  H  H13  1  0.62691000  0.98338000  0.35688000  1.0
  H  H14  1  0.01117000  0.07750000  0.74464000  1.0
  H  H15  1  0.51117000  0.92250000  0.25536000  1.0
  H  H16  1  0.68111000  0.61751000  0.15203000  1.0
  H  H17  1  0.18111000  0.38248000  0.84797000  1.0
  H  H18  1  0.63820000  0.78730000  0.70203000  1.0
  H  H19  1  0.13819000  0.21270000  0.29797000  1.0
  H  H20  1  0.76007000  0.17122000  0.17585000  1.0
  H  H21  1  0.26007000  0.82878000  0.82415000  1.0
  H  H22  1  0.90294000  0.73578000  0.13504000  1.0
  H  H23  1  0.40294000  0.26422000  0.86495000  1.0
  H  H24  1  0.12185000  0.71869000  0.37861000  1.0
  H  H25  1  0.62185000  0.28131000  0.62138000  1.0
  H  H26  1  0.10630000  0.72559000  0.22250000  1.0
  H  H27  1  0.60630000  0.27441000  0.77750000  1.0
  H  H28  1  0.97103000  0.66610000  0.30995000  1.0
  H  H29  1  0.47102000  0.33390000  0.69005000  1.0
  H  H30  1  0.76609000  0.83030000  0.97920000  1.0
  H  H31  1  0.26609000  0.16970000  0.02080000  1.0
  H  H32  1  0.35744000  0.48852000  0.97845000  1.0
  H  H33  1  0.85744000  0.51148000  0.02155000  1.0
  H  H34  1  0.45756000  0.50123000  0.85119000  1.0
  H  H35  1  0.95756000  0.49877000  0.14881000  1.0
  H  H36  1  0.66090000  0.45886000  0.96984000  1.0
  H  H37  1  0.16090000  0.54114000  0.03017000  1.0
  H  H38  1  0.54724000  0.33667000  0.98523000  1.0
  H  H39  1  0.04723000  0.66333000  0.01477000  1.0
  H  H40  1  0.46400000  0.42163000  0.17353000  1.0
  H  H41  1  0.96400000  0.57837000  0.82647000  1.0
  H  H42  1  0.63789000  0.39825000  0.18184000  1.0
  H  H43  1  0.13789000  0.60174000  0.81816000  1.0
  H  H44  1  0.40609000  0.71010000  0.93466000  1.0
  H  H45  1  0.90609000  0.28990000  0.06533000  1.0
  H  H46  1  0.57819000  0.67892000  0.93958000  1.0
  H  H47  1  0.07819000  0.32109000  0.06042000  1.0
  H  H48  1  0.50344000  0.77015000  0.13002000  1.0
  H  H49  1  0.00345000  0.22985000  0.86998000  1.0
  H  H50  1  0.37900000  0.65557000  0.14340000  1.0
  H  H51  1  0.87900000  0.34443000  0.85660000  1.0
  H  H52  1  0.86415000  0.15137000  0.59040000  1.0
  H  H53  1  0.36415000  0.84863000  0.40961000  1.0
  H  H54  1  0.02765000  0.20135000  0.55874000  1.0
  H  H55  1  0.52765000  0.79865000  0.44126000  1.0
  C  C56  1  0.66246000  0.58406000  0.37797000  1.0
  C  C57  1  0.16245000  0.41594000  0.62203000  1.0
  C  C58  1  0.80620000  0.68943000  0.62784000  1.0
  C  C59  1  0.30620000  0.31056000  0.37216000  1.0
  C  C60  1  0.01108000  0.80337000  0.61402000  1.0
  C  C61  1  0.51107000  0.19663000  0.38598000  1.0
  C  C62  1  0.87227000  0.02541000  0.25338000  1.0
  C  C63  1  0.37227000  0.97460000  0.74662000  1.0
  C  C64  1  0.89539000  0.10588000  0.35866000  1.0
  C  C65  1  0.39540000  0.89413000  0.64134000  1.0
  C  C66  1  0.81340000  0.90209000  0.69033000  1.0
  C  C67  1  0.31340000  0.09791000  0.30967000  1.0
  C  C68  1  0.94060000  0.69363000  0.59795000  1.0
  C  C69  1  0.44060000  0.30636000  0.40205000  1.0
  C  C70  1  0.94817000  0.90940000  0.65753000  1.0
  C  C71  1  0.44817000  0.09060000  0.34247000  1.0
  C  C72  1  0.02012000  0.03142000  0.65871000  1.0
  C  C73  1  0.52012000  0.96858000  0.34129000  1.0
  C  C74  1  0.57864000  0.58966000  0.17358000  1.0
  C  C75  1  0.07864000  0.41035000  0.82642000  1.0
  C  C76  1  0.74252000  0.79291000  0.67622000  1.0
  C  C77  1  0.24252000  0.20708000  0.32379000  1.0
  C  C78  1  0.91623000  0.90192000  0.23996000  1.0
  C  C79  1  0.41623000  0.09809000  0.76003000  1.0
  C  C80  1  0.79386000  0.07659000  0.16439000  1.0
  C  C81  1  0.29386000  0.92342000  0.83561000  1.0
  C  C82  1  0.75809000  0.00775000  0.06607000  1.0
  C  C83  1  0.25810000  0.99226000  0.93392000  1.0
  C  C84  1  0.87393000  0.83191000  0.14302000  1.0
  C  C85  1  0.37393000  0.16809000  0.85698000  1.0
  C  C86  1  0.05239000  0.73314000  0.30619000  1.0
  C  C87  1  0.55239000  0.26686000  0.69380000  1.0
  C  C88  1  0.79597000  0.88451000  0.05564000  1.0
  C  C89  1  0.29597000  0.11550000  0.94435000  1.0
  C  C90  1  0.45703000  0.51534000  0.94662000  1.0
  C  C91  1  0.95703000  0.48466000  0.05337000  1.0
  C  C92  1  0.56225000  0.43487000  0.00554000  1.0
  C  C93  1  0.06224000  0.56513000  0.99445000  1.0
  C  C94  1  0.56038000  0.45360000  0.13867000  1.0
  C  C95  1  0.06038000  0.54640000  0.86133000  1.0
  C  C96  1  0.48115000  0.65115000  0.97646000  1.0
  C  C97  1  0.98115000  0.34886000  0.02354000  1.0
  C  C98  1  0.48010000  0.67332000  0.10928000  1.0
  C  C99  1  0.98011000  0.32668000  0.89073000  1.0
  C  C100  1  0.96439000  0.11905000  0.56549000  1.0
  C  C101  1  0.46440000  0.88095000  0.43451000  1.0
  S  S102  1  0.70975000  0.55485000  0.60113000  1.0
  S  S103  1  0.20974000  0.44515000  0.39886000  1.0
  N  N104  1  0.61578000  0.58037000  0.49214000  1.0
  N  N105  1  0.11578000  0.41963000  0.50787000  1.0
  N  N106  1  0.56274000  0.60691000  0.29984000  1.0
  N  N107  1  0.06275000  0.39308000  0.70016000  1.0
  N  N108  1  0.95619000  0.05637000  0.45230000  1.0
  N  N109  1  0.45620000  0.94363000  0.54771000  1.0
  Cl  Cl110  1  0.66145000  0.07453000  0.95757000  1.0
  Cl  Cl111  1  0.16145000  0.92547000  0.04243000  1.0
  O  O112  1  0.80281000  0.45164000  0.58406000  1.0
  O  O113  1  0.30281000  0.54836000  0.41594000  1.0
  O  O114  1  0.78141000  0.56989000  0.34540000  1.0
  O  O115  1  0.28141000  0.43010000  0.65460000  1.0
  O  O116  1  0.61981000  0.54335000  0.70149000  1.0
  O  O117  1  0.11980000  0.45665000  0.29851000  1.0
  O  O118  1  0.00126000  0.85642000  0.32219000  1.0
  O  O119  1  0.50126000  0.14358000  0.67781000  1.0
  O  O120  1  0.85334000  0.21491000  0.36018000  1.0
  O  O121  1  0.35335000  0.78509000  0.63983000  1.0
