# generated using pymatgen
data_BiH19C12S(NO2)2
_symmetry_space_group_name_H-M   'P 1'
_cell_length_a   8.44823000
_cell_length_b   8.98335000
_cell_length_c   11.40230000
_cell_angle_alpha   68.81600000
_cell_angle_beta   89.99950000
_cell_angle_gamma   89.99970000
_symmetry_Int_Tables_number   1
_chemical_formula_structural   BiH19C12S(NO2)2
_chemical_formula_sum   'Bi2 H38 C24 S2 N4 O8'
_cell_volume   806.88251642
_cell_formula_units_Z   2
loop_
 _symmetry_equiv_pos_site_id
 _symmetry_equiv_pos_as_xyz
  1  'x, y, z'
loop_
 _atom_site_type_symbol
 _atom_site_label
 _atom_site_symmetry_multiplicity
 _atom_site_fract_x
 _atom_site_fract_y
 _atom_site_fract_z
 _atom_site_occupancy
  Bi  Bi0  1  0.91113000  0.99134000  0.24482000  1.0
  Bi  Bi1  1  0.08887000  0.99134000  0.74482000  1.0
  H  H2  1  0.68026000  0.57847000  0.12710000  1.0
  H  H3  1  0.31974000  0.57847000  0.62709000  1.0
  H  H4  1  0.45624000  0.49937000  0.28032000  1.0
  H  H5  1  0.54376000  0.49937000  0.78032000  1.0
  H  H6  1  0.41600000  0.21383000  0.41676000  1.0
  H  H7  1  0.58399000  0.21384000  0.91676000  1.0
  H  H8  1  0.93505000  0.50166000  0.05553000  1.0
  H  H9  1  0.06495000  0.50166000  0.55553000  1.0
  H  H10  1  0.86777000  0.35265000  0.99735000  1.0
  H  H11  1  0.13223000  0.35266000  0.49734000  1.0
  H  H12  1  0.20394000  0.22841000  0.28579000  1.0
  H  H13  1  0.79606000  0.22841000  0.78579000  1.0
  H  H14  1  0.02449000  0.32182000  0.30499000  1.0
  H  H15  1  0.97551000  0.32181000  0.80499000  1.0
  H  H16  1  0.16960000  0.43506000  0.19476000  1.0
  H  H17  1  0.83040000  0.43506000  0.69476000  1.0
  H  H18  1  0.10130000  0.21008000  0.98228000  1.0
  H  H19  1  0.89870000  0.21008000  0.48228000  1.0
  H  H20  1  0.25479000  0.18977000  0.09364000  1.0
  H  H21  1  0.74521000  0.18977000  0.59365000  1.0
  H  H22  1  0.19947000  0.38368000  0.98958000  1.0
  H  H23  1  0.80053000  0.38368000  0.48959000  1.0
  H  H24  1  0.67465000  0.93533000  0.50503000  1.0
  H  H25  1  0.32535000  0.93533000  0.00503000  1.0
  H  H26  1  0.47780000  0.92566000  0.44961000  1.0
  H  H27  1  0.52220000  0.92567000  0.94960000  1.0
  H  H28  1  0.60212000  0.77157000  0.21006000  1.0
  H  H29  1  0.39788000  0.77157000  0.71006000  1.0
  H  H30  1  0.52478000  0.96223000  0.19361000  1.0
  H  H31  1  0.47522000  0.96222000  0.69361000  1.0
  H  H32  1  0.43763000  0.78771000  0.30642000  1.0
  H  H33  1  0.56236000  0.78771000  0.80642000  1.0
  H  H34  1  0.79298000  0.70374000  0.51203000  1.0
  H  H35  1  0.20702000  0.70375000  0.01204000  1.0
  H  H36  1  0.74994000  0.62130000  0.39394000  1.0
  H  H37  1  0.25006000  0.62130000  0.89395000  1.0
  H  H38  1  0.59749000  0.63169000  0.49934000  1.0
  H  H39  1  0.40251000  0.63169000  0.99934000  1.0
  C  C40  1  0.73843000  0.17720000  0.25021000  1.0
  C  C41  1  0.26157000  0.17720000  0.75021000  1.0
  C  C42  1  0.76269000  0.33649000  0.17367000  1.0
  C  C43  1  0.23731000  0.33649000  0.67366000  1.0
  C  C44  1  0.65951000  0.45327000  0.18406000  1.0
  C  C45  1  0.34049000  0.45327000  0.68406000  1.0
  C  C46  1  0.53550000  0.40818000  0.27130000  1.0
  C  C47  1  0.46450000  0.40818000  0.77129000  1.0
  C  C48  1  0.51229000  0.24833000  0.34819000  1.0
  C  C49  1  0.48771000  0.24833000  0.84818000  1.0
  C  C50  1  0.61473000  0.13148000  0.33721000  1.0
  C  C51  1  0.38527000  0.13148000  0.83720000  1.0
  C  C52  1  0.90101000  0.37501000  0.08292000  1.0
  C  C53  1  0.09898000  0.37501000  0.58292000  1.0
  C  C54  1  0.11375000  0.31657000  0.23693000  1.0
  C  C55  1  0.88625000  0.31657000  0.73694000  1.0
  C  C56  1  0.15431000  0.26394000  0.04518000  1.0
  C  C57  1  0.84569000  0.26394000  0.54519000  1.0
  C  C58  1  0.60129000  0.95762000  0.42063000  1.0
  C  C59  1  0.39871000  0.95762000  0.92063000  1.0
  C  C60  1  0.54919000  0.84190000  0.26094000  1.0
  C  C61  1  0.45081000  0.84189000  0.76094000  1.0
  C  C62  1  0.70275000  0.69279000  0.44624000  1.0
  C  C63  1  0.29725000  0.69279000  0.94624000  1.0
  S  S64  1  0.12701000  0.90320000  0.50093000  1.0
  S  S65  1  0.87299000  0.90320000  0.00093000  1.0
  N  N66  1  0.03782000  0.26925000  0.13954000  1.0
  N  N67  1  0.96218000  0.26925000  0.63954000  1.0
  N  N68  1  0.66315000  0.85242000  0.35596000  1.0
  N  N69  1  0.33685000  0.85242000  0.85596000  1.0
  O  O70  1  0.96316000  0.97041000  0.45297000  1.0
  O  O71  1  0.03684000  0.97041000  0.95297000  1.0
  O  O72  1  0.20411000  0.02769000  0.54512000  1.0
  O  O73  1  0.79589000  0.02769000  0.04512000  1.0
  O  O74  1  0.21904000  0.88764000  0.39673000  1.0
  O  O75  1  0.78097000  0.88764000  0.89673000  1.0
  O  O76  1  0.10750000  0.75362000  0.60962000  1.0
  O  O77  1  0.89251000  0.75362000  0.10962000  1.0
