# generated using pymatgen
data_Zn7H52C76(NO3)6
_symmetry_space_group_name_H-M   'P 1'
_cell_length_a   12.92890000
_cell_length_b   16.89240000
_cell_length_c   17.45370000
_cell_angle_alpha   75.64610000
_cell_angle_beta   73.09510000
_cell_angle_gamma   68.90760000
_symmetry_Int_Tables_number   1
_chemical_formula_structural   Zn7H52C76(NO3)6
_chemical_formula_sum   'Zn7 H52 C76 N6 O18'
_cell_volume   3358.71004819
_cell_formula_units_Z   1
loop_
 _symmetry_equiv_pos_site_id
 _symmetry_equiv_pos_as_xyz
  1  'x, y, z'
loop_
 _atom_site_type_symbol
 _atom_site_label
 _atom_site_symmetry_multiplicity
 _atom_site_fract_x
 _atom_site_fract_y
 _atom_site_fract_z
 _atom_site_occupancy
  Zn  Zn0  1  0.46949000  0.31639000  0.05024000  1.0
  Zn  Zn1  1  0.53051000  0.68361000  0.94976000  1.0
  Zn  Zn2  1  0.35104000  0.44414000  0.17891000  1.0
  Zn  Zn3  1  0.64896000  0.55586000  0.82109000  1.0
  Zn  Zn4  1  0.61583000  0.37447000  0.13955000  1.0
  Zn  Zn5  1  0.38417000  0.62552000  0.86045000  1.0
  Zn  Zn6  1  0.50000000  0.50000000  0.00000000  1.0
  H  H7  1  0.64926000  0.36269000  0.37480000  1.0
  H  H8  1  0.35074000  0.63731000  0.62520000  1.0
  H  H9  1  0.64606000  0.36221000  0.51790000  1.0
  H  H10  1  0.35394000  0.63779000  0.48210000  1.0
  H  H11  1  0.28195000  0.41871000  0.57768000  1.0
  H  H12  1  0.71806000  0.58129000  0.42232000  1.0
  H  H13  1  0.28647000  0.42228000  0.43352000  1.0
  H  H14  1  0.71353000  0.57772000  0.56648000  1.0
  H  H15  1  0.15793000  0.69494000  0.23723000  1.0
  H  H16  1  0.84207000  0.30506000  0.76277000  1.0
  H  H17  1  0.00499000  0.83584000  0.24421000  1.0
  H  H18  1  0.99501000  0.16416000  0.75579000  1.0
  H  H19  1  0.03648000  0.87086000  0.98609000  1.0
  H  H20  1  0.96352000  0.12914000  0.01391000  1.0
  H  H21  1  0.19055000  0.73190000  0.97985000  1.0
  H  H22  1  0.80945000  0.26810000  0.02015000  1.0
  H  H23  1  0.96703000  0.30193000  0.24488000  1.0
  H  H24  1  0.03297000  0.69807000  0.75512000  1.0
  H  H25  1  0.77216000  0.30627000  0.24312000  1.0
  H  H26  1  0.22784000  0.69373000  0.75688000  1.0
  H  H27  1  0.79620000  0.43939000  0.00863000  1.0
  H  H28  1  0.20380000  0.56061000  0.99137000  1.0
  H  H29  1  0.99545000  0.43453000  0.99780000  1.0
  H  H30  1  0.00455000  0.56548000  0.00220000  1.0
  H  H31  1  0.30165000  0.49275000  0.80484000  1.0
  H  H32  1  0.69835000  0.50725000  0.19516000  1.0
  H  H33  1  0.30056000  0.48970000  0.66407000  1.0
  H  H34  1  0.69944000  0.51030000  0.33593000  1.0
  H  H35  1  0.62311000  0.28870000  0.64502000  1.0
  H  H36  1  0.37689000  0.71130000  0.35498000  1.0
  H  H37  1  0.62072000  0.29014000  0.78751000  1.0
  H  H38  1  0.37928000  0.70986000  0.21249000  1.0
  H  H39  1  0.81566000  0.12697000  0.20604000  1.0
  H  H40  1  0.18434000  0.87303000  0.79396000  1.0
  H  H41  1  0.97211000  0.98767000  0.20223000  1.0
  H  H42  1  0.02789000  0.01233000  0.79777000  1.0
  H  H43  1  0.83442000  0.92157000  0.03832000  1.0
  H  H44  1  0.16558000  0.07843000  0.96168000  1.0
  H  H45  1  0.67789000  0.06084000  0.04351000  1.0
  H  H46  1  0.32211000  0.93916000  0.95649000  1.0
  H  H47  1  0.11671000  0.47208000  0.26928000  1.0
  H  H48  1  0.88329000  0.52792000  0.73072000  1.0
  H  H49  1  0.01916000  0.41338000  0.29040000  1.0
  H  H50  1  0.98084000  0.58662000  0.70960000  1.0
  H  H51  1  0.00197000  0.50987000  0.21946000  1.0
  H  H52  1  0.99803000  0.49013000  0.78054000  1.0
  H  H53  1  0.32939000  0.26526000  0.97224000  1.0
  H  H54  1  0.67061000  0.73474000  0.02776000  1.0
  H  H55  1  0.19692000  0.33219000  0.94967000  1.0
  H  H56  1  0.80308000  0.66781000  0.05033000  1.0
  H  H57  1  0.20428000  0.23404000  0.01717000  1.0
  H  H58  1  0.79572000  0.76596000  0.98283000  1.0
  C  C59  1  0.46161000  0.39331000  0.89011000  1.0
  C  C60  1  0.53839000  0.60669000  0.10989000  1.0
  C  C61  1  0.46819000  0.39226000  0.39528000  1.0
  C  C62  1  0.53181000  0.60774000  0.60472000  1.0
  C  C63  1  0.56927000  0.37441000  0.42000000  1.0
  C  C64  1  0.43073000  0.62559000  0.58000000  1.0
  C  C65  1  0.56706000  0.37347000  0.50028000  1.0
  C  C66  1  0.43294000  0.62653000  0.49973000  1.0
  C  C67  1  0.46385000  0.38985000  0.55871000  1.0
  C  C68  1  0.53615000  0.61015000  0.44129000  1.0
  C  C69  1  0.36288000  0.40740000  0.53333000  1.0
  C  C70  1  0.63712000  0.59260000  0.46667000  1.0
  C  C71  1  0.36482000  0.40876000  0.45293000  1.0
  C  C72  1  0.63518000  0.59124000  0.54707000  1.0
  C  C73  1  0.18300000  0.70394000  0.10837000  1.0
  C  C74  1  0.81700000  0.29606000  0.89163000  1.0
  C  C75  1  0.13108000  0.73455000  0.18253000  1.0
  C  C76  1  0.86892000  0.26545000  0.81747000  1.0
  C  C77  1  0.04581000  0.81332000  0.18601000  1.0
  C  C78  1  0.95419000  0.18668000  0.81399000  1.0
  C  C79  1  0.00819000  0.86276000  0.11583000  1.0
  C  C80  1  0.99181000  0.13723000  0.88417000  1.0
  C  C81  1  0.06148000  0.83209000  0.04166000  1.0
  C  C82  1  0.93852000  0.16791000  0.95834000  1.0
  C  C83  1  0.14855000  0.75425000  0.03785000  1.0
  C  C84  1  0.85145000  0.24575000  0.96215000  1.0
  C  C85  1  0.99831000  0.36916000  0.12145000  1.0
  C  C86  1  0.00168000  0.63084000  0.87855000  1.0
  C  C87  1  0.93244000  0.33310000  0.19116000  1.0
  C  C88  1  0.06755000  0.66690000  0.80884000  1.0
  C  C89  1  0.82464000  0.33493000  0.19072000  1.0
  C  C90  1  0.17536000  0.66507000  0.80928000  1.0
  C  C91  1  0.83875000  0.40848000  0.05869000  1.0
  C  C92  1  0.16125000  0.59152000  0.94131000  1.0
  C  C93  1  0.94897000  0.40581000  0.05378000  1.0
  C  C94  1  0.05103000  0.59419000  0.94622000  1.0
  C  C95  1  0.46140000  0.39189000  0.80498000  1.0
  C  C96  1  0.53860000  0.60811000  0.19502000  1.0
  C  C97  1  0.37117000  0.44742000  0.76984000  1.0
  C  C98  1  0.62883000  0.55258000  0.23016000  1.0
  C  C99  1  0.37082000  0.44524000  0.69082000  1.0
  C  C100  1  0.62918000  0.55476000  0.30918000  1.0
  C  C101  1  0.46211000  0.38939000  0.64373000  1.0
  C  C102  1  0.53789000  0.61061000  0.35627000  1.0
  C  C103  1  0.55242000  0.33391000  0.67970000  1.0
  C  C104  1  0.44758000  0.66609000  0.32030000  1.0
  C  C105  1  0.55147000  0.33415000  0.75952000  1.0
  C  C106  1  0.44853000  0.66585000  0.24048000  1.0
  C  C107  1  0.81990000  0.08076000  0.17042000  1.0
  C  C108  1  0.18010000  0.91923000  0.82958000  1.0
  C  C109  1  0.90699000  0.00290000  0.16809000  1.0
  C  C110  1  0.09301000  0.99710000  0.83191000  1.0
  C  C111  1  0.91464000  0.94471000  0.11977000  1.0
  C  C112  1  0.08536000  0.05528000  0.88023000  1.0
  C  C113  1  0.83084000  0.96655000  0.07508000  1.0
  C  C114  1  0.16916000  0.03344000  0.92492000  1.0
  C  C115  1  0.74267000  0.04386000  0.07826000  1.0
  C  C116  1  0.25733000  0.95614000  0.92174000  1.0
  C  C117  1  0.73702000  0.10209000  0.12538000  1.0
  C  C118  1  0.26298000  0.89791000  0.87462000  1.0
  C  C119  1  0.47083000  0.39562000  0.30847000  1.0
  C  C120  1  0.52917000  0.60439000  0.69153000  1.0
  C  C121  1  0.64916000  0.18881000  0.12326000  1.0
  C  C122  1  0.35084000  0.81119000  0.87674000  1.0
  C  C123  1  0.27002000  0.61705000  0.10552000  1.0
  C  C124  1  0.72998000  0.38295000  0.89448000  1.0
  C  C125  1  0.06557000  0.45185000  0.24211000  1.0
  C  C126  1  0.93443000  0.54815000  0.75789000  1.0
  C  C127  1  0.14012000  0.40263000  0.17540000  1.0
  C  C128  1  0.85988000  0.59737000  0.82460000  1.0
  C  C129  1  0.11153000  0.36884000  0.12093000  1.0
  C  C130  1  0.88847000  0.63116000  0.87907000  1.0
  C  C131  1  0.21554000  0.33382000  0.06766000  1.0
  C  C132  1  0.78446000  0.66618000  0.93234000  1.0
  C  C133  1  0.23788000  0.28882000  0.99824000  1.0
  C  C134  1  0.76212000  0.71118000  0.00176000  1.0
  N  N135  1  0.25322000  0.38857000  0.15515000  1.0
  N  N136  1  0.74678000  0.61142000  0.84485000  1.0
  N  N137  1  0.29957000  0.34504000  0.09044000  1.0
  N  N138  1  0.70043000  0.65496000  0.90956000  1.0
  N  N139  1  0.77733000  0.37318000  0.12602000  1.0
  N  N140  1  0.22267000  0.62682000  0.87398000  1.0
  O  O141  1  0.48609000  0.40850000  0.09217000  1.0
  O  O142  1  0.51391000  0.59150000  0.90783000  1.0
  O  O143  1  0.41784000  0.46377000  0.91808000  1.0
  O  O144  1  0.58216000  0.53623000  0.08192000  1.0
  O  O145  1  0.50652000  0.32057000  0.93115000  1.0
  O  O146  1  0.49348000  0.67943000  0.06885000  1.0
  O  O147  1  0.56715000  0.38434000  0.25886000  1.0
  O  O148  1  0.43285000  0.61566000  0.74114000  1.0
  O  O149  1  0.37592000  0.41026000  0.29025000  1.0
  O  O150  1  0.62408000  0.58974000  0.70975000  1.0
  O  O151  1  0.57084000  0.20250000  0.08601000  1.0
  O  O152  1  0.42917000  0.79750000  0.91399000  1.0
  O  O153  1  0.66089000  0.24268000  0.15702000  1.0
  O  O154  1  0.33911000  0.75732000  0.84298000  1.0
  O  O155  1  0.28087000  0.56949000  0.17466000  1.0
  O  O156  1  0.71914000  0.43051000  0.82534000  1.0
  O  O157  1  0.32477000  0.59393000  0.03738000  1.0
  O  O158  1  0.67523000  0.40607000  0.96262000  1.0
