# generated using pymatgen
data_CdH12C15(N4O3)2
_symmetry_space_group_name_H-M   'P 1'
_cell_length_a   10.67170000
_cell_length_b   11.66530000
_cell_length_c   19.37054543
_cell_angle_alpha   86.89796368
_cell_angle_beta   74.02583407
_cell_angle_gamma   62.80450000
_symmetry_Int_Tables_number   1
_chemical_formula_structural   CdH12C15(N4O3)2
_chemical_formula_sum   'Cd4 H48 C60 N32 O24'
_cell_volume   2054.76101842
_cell_formula_units_Z   4
loop_
 _symmetry_equiv_pos_site_id
 _symmetry_equiv_pos_as_xyz
  1  'x, y, z'
loop_
 _atom_site_type_symbol
 _atom_site_label
 _atom_site_symmetry_multiplicity
 _atom_site_fract_x
 _atom_site_fract_y
 _atom_site_fract_z
 _atom_site_occupancy
  Cd  Cd0  1  0.25420000  0.91917000  0.34093000  1.0
  Cd  Cd1  1  0.98549000  0.41941000  0.84099000  1.0
  Cd  Cd2  1  0.74580000  0.08083000  0.65907000  1.0
  Cd  Cd3  1  0.01451000  0.58059000  0.15901000  1.0
  H  H4  1  0.17130000  0.08460000  0.21328000  1.0
  H  H5  1  0.03076000  0.58491000  0.71333000  1.0
  H  H6  1  0.82870000  0.91540000  0.78672000  1.0
  H  H7  1  0.96924000  0.41509000  0.28667000  1.0
  H  H8  1  0.26304000  0.20383000  0.11623000  1.0
  H  H9  1  0.91683000  0.70447000  0.61631000  1.0
  H  H10  1  0.73696000  0.79617000  0.88377000  1.0
  H  H11  1  0.08317000  0.29554000  0.38369000  1.0
  H  H12  1  0.63188000  0.09855000  0.20193000  1.0
  H  H13  1  0.56754000  0.59917000  0.70188000  1.0
  H  H14  1  0.36812000  0.90145000  0.79807000  1.0
  H  H15  1  0.43246000  0.40083000  0.29812000  1.0
  H  H16  1  0.52890000  0.98255000  0.29372000  1.0
  H  H17  1  0.69462000  0.48296000  0.79365000  1.0
  H  H18  1  0.47109000  0.01745000  0.70628000  1.0
  H  H19  1  0.30538000  0.51704000  0.20635000  1.0
  H  H20  1  0.00062000  0.14203000  0.66140000  1.0
  H  H21  1  0.69593000  0.64196000  0.16141000  1.0
  H  H22  1  0.99938000  0.85796000  0.33860000  1.0
  H  H23  1  0.30407000  0.35804000  0.83859000  1.0
  H  H24  1  0.11058000  0.29085000  0.61256000  1.0
  H  H25  1  0.48609000  0.79065000  0.11257000  1.0
  H  H26  1  0.88942000  0.70915000  0.38744000  1.0
  H  H27  1  0.51390000  0.20935000  0.88744000  1.0
  H  H28  1  0.79625000  0.44928000  0.48928000  1.0
  H  H29  1  0.76505000  0.94939000  0.98940000  1.0
  H  H30  1  0.20376000  0.55072000  0.51072000  1.0
  H  H31  1  0.23494000  0.05061000  0.01060000  1.0
  H  H32  1  0.69891000  0.29634000  0.54269000  1.0
  H  H33  1  0.96182000  0.79651000  0.04278000  1.0
  H  H34  1  0.30109000  0.70366000  0.45731000  1.0
  H  H35  1  0.03818000  0.20349000  0.95722000  1.0
  H  H36  1  0.18596000  0.02526000  0.50036000  1.0
  H  H37  1  0.78803000  0.52557000  0.00039000  1.0
  H  H38  1  0.81404000  0.97474000  0.49964000  1.0
  H  H39  1  0.21197000  0.47442000  0.99962000  1.0
  H  H40  1  0.28073000  0.95481000  0.60926000  1.0
  H  H41  1  0.65544000  0.45464000  0.10932000  1.0
  H  H42  1  0.71927000  0.04519000  0.39074000  1.0
  H  H43  1  0.34457000  0.54535000  0.89068000  1.0
  H  H44  1  0.69302000  0.68225000  0.46557000  1.0
  H  H45  1  0.65924000  0.18205000  0.96560000  1.0
  H  H46  1  0.30698000  0.31775000  0.53443000  1.0
  H  H47  1  0.34076000  0.81795000  0.03440000  1.0
  H  H48  1  0.58154000  0.75886000  0.36284000  1.0
  H  H49  1  0.79654000  0.25889000  0.86285000  1.0
  H  H50  1  0.41845000  0.24114000  0.63716000  1.0
  H  H51  1  0.20346000  0.74111000  0.13715000  1.0
  C  C52  1  0.27263000  0.09003000  0.20861000  1.0
  C  C53  1  0.92865000  0.59043000  0.70863000  1.0
  C  C54  1  0.72737000  0.90997000  0.79139000  1.0
  C  C55  1  0.07135000  0.40958000  0.29137000  1.0
  C  C56  1  0.32306000  0.15552000  0.15518000  1.0
  C  C57  1  0.86621000  0.65609000  0.65523000  1.0
  C  C58  1  0.67694000  0.84448000  0.84482000  1.0
  C  C59  1  0.13380000  0.34392000  0.34477000  1.0
  C  C60  1  0.45267000  0.16062000  0.15285000  1.0
  C  C61  1  0.73380000  0.66125000  0.65290000  1.0
  C  C62  1  0.54732000  0.83938000  0.84715000  1.0
  C  C63  1  0.26620000  0.33876000  0.34710000  1.0
  C  C64  1  0.52958000  0.09788000  0.20303000  1.0
  C  C65  1  0.66941000  0.59845000  0.70302000  1.0
  C  C66  1  0.47042000  0.90212000  0.79697000  1.0
  C  C67  1  0.33059000  0.40155000  0.29698000  1.0
  C  C68  1  0.47204000  0.03313000  0.25399000  1.0
  C  C69  1  0.74070000  0.53356000  0.75394000  1.0
  C  C70  1  0.52796000  0.96687000  0.74601000  1.0
  C  C71  1  0.25931000  0.46644000  0.24606000  1.0
  C  C72  1  0.95902000  0.21161000  0.62328000  1.0
  C  C73  1  0.70602000  0.71161000  0.12333000  1.0
  C  C74  1  0.04098000  0.78839000  0.37672000  1.0
  C  C75  1  0.29398000  0.28839000  0.87667000  1.0
  C  C76  1  0.01940000  0.29374000  0.59634000  1.0
  C  C77  1  0.59049000  0.79373000  0.09639000  1.0
  C  C78  1  0.98060000  0.70626000  0.40366000  1.0
  C  C79  1  0.40951000  0.20626000  0.90361000  1.0
  C  C80  1  0.96055000  0.38131000  0.54780000  1.0
  C  C81  1  0.61025000  0.88131000  0.04784000  1.0
  C  C82  1  0.03945000  0.61868000  0.45220000  1.0
  C  C83  1  0.38975000  0.11868000  0.95216000  1.0
  C  C84  1  0.84265000  0.38405000  0.52789000  1.0
  C  C85  1  0.74524000  0.88415000  0.02799000  1.0
  C  C86  1  0.15735000  0.61595000  0.47211000  1.0
  C  C87  1  0.25476000  0.11585000  0.97201000  1.0
  C  C88  1  0.78939000  0.29854000  0.55728000  1.0
  C  C89  1  0.85462000  0.79865000  0.05739000  1.0
  C  C90  1  0.21061000  0.70146000  0.44272000  1.0
  C  C91  1  0.14538000  0.20136000  0.94261000  1.0
  C  C92  1  0.75704000  0.45009000  0.99522000  1.0
  C  C93  1  0.29765000  0.95001000  0.49519000  1.0
  C  C94  1  0.24297000  0.54991000  0.00478000  1.0
  C  C95  1  0.70235000  0.04999000  0.50481000  1.0
  C  C96  1  0.68388000  0.41133000  0.05529000  1.0
  C  C97  1  0.34960000  0.91150000  0.55524000  1.0
  C  C98  1  0.31612000  0.58866000  0.94471000  1.0
  C  C99  1  0.65039000  0.08850000  0.44476000  1.0
  C  C100  1  0.64737000  0.31410000  0.04454000  1.0
  C  C101  1  0.49408000  0.81441000  0.54450000  1.0
  C  C102  1  0.35263000  0.68590000  0.95546000  1.0
  C  C103  1  0.50591000  0.18559000  0.45550000  1.0
  C  C104  1  0.58075000  0.75889000  0.47457000  1.0
  C  C105  1  0.68590000  0.25870000  0.97460000  1.0
  C  C106  1  0.41925000  0.24111000  0.52542000  1.0
  C  C107  1  0.31410000  0.74130000  0.02540000  1.0
  C  C108  1  0.51872000  0.80112000  0.41788000  1.0
  C  C109  1  0.76222000  0.30107000  0.91790000  1.0
  C  C110  1  0.48128000  0.19888000  0.58212000  1.0
  C  C111  1  0.23778000  0.69893000  0.08210000  1.0
  N  N112  1  0.96678000  0.14247000  0.37642000  1.0
  N  N113  1  0.01414000  0.64296000  0.87622000  1.0
  N  N114  1  0.03322000  0.85753000  0.62358000  1.0
  N  N115  1  0.98586000  0.35703000  0.12378000  1.0
  N  N116  1  0.40562000  0.69698000  0.23457000  1.0
  N  N117  1  0.16266000  0.19721000  0.73474000  1.0
  N  N118  1  0.59437000  0.30302000  0.76543000  1.0
  N  N119  1  0.83734000  0.80279000  0.26526000  1.0
  N  N120  1  0.34609000  0.02958000  0.25696000  1.0
  N  N121  1  0.86724000  0.52994000  0.75694000  1.0
  N  N122  1  0.65391000  0.97043000  0.74304000  1.0
  N  N123  1  0.13277000  0.47006000  0.24306000  1.0
  N  N124  1  0.84603000  0.21399000  0.60386000  1.0
  N  N125  1  0.83604000  0.71399000  0.10392000  1.0
  N  N126  1  0.15397000  0.78601000  0.39614000  1.0
  N  N127  1  0.16396000  0.28601000  0.89608000  1.0
  N  N128  1  0.02695000  0.46236000  0.52258000  1.0
  N  N129  1  0.48808000  0.96236000  0.02258000  1.0
  N  N130  1  0.97305000  0.53764000  0.47742000  1.0
  N  N131  1  0.51191000  0.03764000  0.97742000  1.0
  N  N132  1  0.79793000  0.39484000  0.92803000  1.0
  N  N133  1  0.37912000  0.89478000  0.42801000  1.0
  N  N134  1  0.20207000  0.60515000  0.07197000  1.0
  N  N135  1  0.62087000  0.10522000  0.57199000  1.0
  N  N136  1  0.58069000  0.27016000  0.10667000  1.0
  N  N137  1  0.54254000  0.77067000  0.60666000  1.0
  N  N138  1  0.41931000  0.72984000  0.89333000  1.0
  N  N139  1  0.45746000  0.22933000  0.39334000  1.0
  N  N140  1  0.50491000  0.22053000  0.09469000  1.0
  N  N141  1  0.67987000  0.72116000  0.59472000  1.0
  N  N142  1  0.49510000  0.77947000  0.90531000  1.0
  N  N143  1  0.32013000  0.27884000  0.40528000  1.0
  O  O144  1  0.00902000  0.06020000  0.32320000  1.0
  O  O145  1  0.10735000  0.56093000  0.82293000  1.0
  O  O146  1  0.99098000  0.93980000  0.67680000  1.0
  O  O147  1  0.89265000  0.43907000  0.17707000  1.0
  O  O148  1  0.05415000  0.11821000  0.41627000  1.0
  O  O149  1  0.91140000  0.61836000  0.91602000  1.0
  O  O150  1  0.94585000  0.88179000  0.58373000  1.0
  O  O151  1  0.08859000  0.38164000  0.08398000  1.0
  O  O152  1  0.02053000  0.74290000  0.88919000  1.0
  O  O153  1  0.84750000  0.24232000  0.38924000  1.0
  O  O154  1  0.97948000  0.25710000  0.11081000  1.0
  O  O155  1  0.15250000  0.75768000  0.61076000  1.0
  O  O156  1  0.28464000  0.79246000  0.23054000  1.0
  O  O157  1  0.19192000  0.29291000  0.73068000  1.0
  O  O158  1  0.71536000  0.20754000  0.76946000  1.0
  O  O159  1  0.80808000  0.70709000  0.26932000  1.0
  O  O160  1  0.46289000  0.70549000  0.28274000  1.0
  O  O161  1  0.04881000  0.20556000  0.78288000  1.0
  O  O162  1  0.53711000  0.29451000  0.71726000  1.0
  O  O163  1  0.95119000  0.79444000  0.21712000  1.0
  O  O164  1  0.24388000  0.09809000  0.69192000  1.0
  O  O165  1  0.46656000  0.59789000  0.19168000  1.0
  O  O166  1  0.75612000  0.90191000  0.30808000  1.0
  O  O167  1  0.53344000  0.40211000  0.80832000  1.0
