# generated using pymatgen
data_ZnH8C10Br2(NO)2
_symmetry_space_group_name_H-M   'P 1'
_cell_length_a   8.58572000
_cell_length_b   9.07997000
_cell_length_c   9.24000000
_cell_angle_alpha   67.72360000
_cell_angle_beta   85.05550000
_cell_angle_gamma   66.79130000
_symmetry_Int_Tables_number   1
_chemical_formula_structural   ZnH8C10Br2(NO)2
_chemical_formula_sum   'Zn2 H16 C20 Br4 N4 O4'
_cell_volume   610.93575017
_cell_formula_units_Z   2
loop_
 _symmetry_equiv_pos_site_id
 _symmetry_equiv_pos_as_xyz
  1  'x, y, z'
loop_
 _atom_site_type_symbol
 _atom_site_label
 _atom_site_symmetry_multiplicity
 _atom_site_fract_x
 _atom_site_fract_y
 _atom_site_fract_z
 _atom_site_occupancy
  Zn  Zn0  1  0.04667000  0.17972000  0.01279000  1.0
  Zn  Zn1  1  0.95333000  0.82028000  0.98720000  1.0
  H  H2  1  0.06262000  0.22067000  0.68025000  1.0
  H  H3  1  0.93738000  0.77932000  0.31975000  1.0
  H  H4  1  0.41863000  0.73890000  0.94403000  1.0
  H  H5  1  0.58138000  0.26110000  0.05597000  1.0
  H  H6  1  0.23653000  0.24573000  0.44859000  1.0
  H  H7  1  0.76347000  0.75426000  0.55141000  1.0
  H  H8  1  0.61333000  0.74065000  0.72860000  1.0
  H  H9  1  0.38667000  0.25935000  0.27141000  1.0
  H  H10  1  0.12800000  0.52289000  0.80169000  1.0
  H  H11  1  0.87200000  0.47711000  0.19830000  1.0
  H  H12  1  0.68238000  0.20534000  0.64542000  1.0
  H  H13  1  0.31762000  0.79466000  0.35458000  1.0
  H  H14  1  0.23004000  0.67931000  0.55718000  1.0
  H  H15  1  0.76996000  0.32068000  0.44281000  1.0
  H  H16  1  0.55860000  0.06919000  0.88244000  1.0
  H  H17  1  0.44140000  0.93081000  0.11757000  1.0
  C  C18  1  0.18607000  0.12088000  0.68056000  1.0
  C  C19  1  0.81393000  0.87912000  0.31944000  1.0
  C  C20  1  0.38985000  0.84615000  0.83135000  1.0
  C  C21  1  0.61015000  0.15385000  0.16865000  1.0
  C  C22  1  0.28620000  0.13038000  0.55503000  1.0
  C  C23  1  0.71380000  0.86961000  0.44498000  1.0
  C  C24  1  0.44496000  0.99544000  0.56562000  1.0
  C  C25  1  0.55504000  0.00456000  0.43438000  1.0
  C  C26  1  0.49297000  0.85129000  0.70807000  1.0
  C  C27  1  0.50703000  0.14871000  0.29193000  1.0
  C  C28  1  0.24817000  0.46083000  0.75858000  1.0
  C  C29  1  0.75184000  0.53917000  0.24141000  1.0
  C  C30  1  0.46656000  0.45733000  0.57245000  1.0
  C  C31  1  0.53345000  0.54266000  0.42755000  1.0
  C  C32  1  0.55797000  0.28420000  0.67036000  1.0
  C  C33  1  0.44203000  0.71580000  0.32964000  1.0
  C  C34  1  0.30914000  0.54383000  0.62212000  1.0
  C  C35  1  0.69087000  0.45617000  0.37788000  1.0
  C  C36  1  0.49323000  0.20385000  0.80471000  1.0
  C  C37  1  0.50678000  0.79615000  0.19529000  1.0
  Br  Br38  1  0.06300000  0.10983000  0.28683000  1.0
  Br  Br39  1  0.93699000  0.89018000  0.71316000  1.0
  Br  Br40  1  0.84071000  0.42660000  0.82160000  1.0
  Br  Br41  1  0.15928000  0.57341000  0.17840000  1.0
  N  N42  1  0.24098000  0.98188000  0.81806000  1.0
  N  N43  1  0.75902000  0.01812000  0.18194000  1.0
  N  N44  1  0.33894000  0.29129000  0.84724000  1.0
  N  N45  1  0.66106000  0.70872000  0.15275000  1.0
  O  O46  1  0.14712000  0.97325000  0.94100000  1.0
  O  O47  1  0.85288000  0.02674000  0.05900000  1.0
  O  O48  1  0.28285000  0.20976000  0.97881000  1.0
  O  O49  1  0.71715000  0.79024000  0.02119000  1.0
