# generated using pymatgen
data_ZnH4C16NClO4F5
_symmetry_space_group_name_H-M   'P 1'
_cell_length_a   9.96408000
_cell_length_b   10.93830000
_cell_length_c   11.02750000
_cell_angle_alpha   90.56150000
_cell_angle_beta   90.90260000
_cell_angle_gamma   96.86550000
_symmetry_Int_Tables_number   1
_chemical_formula_structural   ZnH4C16NClO4F5
_chemical_formula_sum   'Zn2 H8 C32 N2 Cl2 O8 F10'
_cell_volume   1193.03945637
_cell_formula_units_Z   2
loop_
 _symmetry_equiv_pos_site_id
 _symmetry_equiv_pos_as_xyz
  1  'x, y, z'
loop_
 _atom_site_type_symbol
 _atom_site_label
 _atom_site_symmetry_multiplicity
 _atom_site_fract_x
 _atom_site_fract_y
 _atom_site_fract_z
 _atom_site_occupancy
  Zn  Zn0  1  0.35748000  0.46814000  0.49320000  1.0
  Zn  Zn1  1  0.65217000  0.50326000  0.49603000  1.0
  H  H2  1  0.11516000  0.42505000  0.24839000  1.0
  H  H3  1  0.86997000  0.40759000  0.75685000  1.0
  H  H4  1  0.18001000  0.65905000  0.50250000  1.0
  H  H5  1  0.82887000  0.30914000  0.49125000  1.0
  H  H6  1  0.93848000  0.24441000  0.20408000  1.0
  H  H7  1  0.98227000  0.62488000  0.78667000  1.0
  H  H8  1  0.65638000  0.11986000  0.36827000  1.0
  H  H9  1  0.34027000  0.85103000  0.62365000  1.0
  C  C10  1  0.50453000  0.25191000  0.50472000  1.0
  C  C11  1  0.49920000  0.71943000  0.48681000  1.0
  C  C12  1  0.50732000  0.50272000  0.86446000  1.0
  C  C13  1  0.50407000  0.48412000  0.12401000  1.0
  C  C14  1  0.38400000  0.48770000  0.92613000  1.0
  C  C15  1  0.62732000  0.49573000  0.06181000  1.0
  C  C16  1  0.58834000  0.06126000  0.42547000  1.0
  C  C17  1  0.40923000  0.90878000  0.56633000  1.0
  C  C18  1  0.58634000  0.93466000  0.42047000  1.0
  C  C19  1  0.41175000  0.03594000  0.57226000  1.0
  C  C20  1  0.49785000  0.85624000  0.48998000  1.0
  C  C21  1  0.50048000  0.11484000  0.50264000  1.0
  C  C22  1  0.96391000  0.59683000  0.50072000  1.0
  C  C23  1  0.04538000  0.37130000  0.49472000  1.0
  C  C24  1  0.10126000  0.58089000  0.50199000  1.0
  C  C25  1  0.90789000  0.38720000  0.49448000  1.0
  C  C26  1  0.50102000  0.47788000  0.26068000  1.0
  C  C27  1  0.51080000  0.50176000  0.72787000  1.0
  C  C28  1  0.98547000  0.55734000  0.19225000  1.0
  C  C29  1  0.04901000  0.32804000  0.80797000  1.0
  C  C30  1  0.85966000  0.57760000  0.14440000  1.0
  C  C31  1  0.18292000  0.34940000  0.84944000  1.0
  C  C32  1  0.75959000  0.47965000  0.11977000  1.0
  C  C33  1  0.24751000  0.46892000  0.86742000  1.0
  C  C34  1  0.79257000  0.36128000  0.14362000  1.0
  C  C35  1  0.17151000  0.56530000  0.84195000  1.0
  C  C36  1  0.91747000  0.33870000  0.18975000  1.0
  C  C37  1  0.03807000  0.54646000  0.80136000  1.0
  C  C38  1  0.01500000  0.43869000  0.21468000  1.0
  C  C39  1  0.97594000  0.42568000  0.78457000  1.0
  C  C40  1  0.62547000  0.51109000  0.93637000  1.0
  C  C41  1  0.38661000  0.48309000  0.05268000  1.0
  N  N42  1  0.14186000  0.46829000  0.49811000  1.0
  N  N43  1  0.86732000  0.49977000  0.49693000  1.0
  Cl  Cl44  1  0.91892000  0.74170000  0.50345000  1.0
  Cl  Cl45  1  0.09019000  0.22644000  0.48704000  1.0
  O  O46  1  0.39707000  0.29644000  0.53305000  1.0
  O  O47  1  0.61065000  0.68112000  0.51411000  1.0
  O  O48  1  0.61584000  0.31343000  0.47521000  1.0
  O  O49  1  0.38797000  0.65462000  0.45930000  1.0
  O  O50  1  0.39112000  0.43647000  0.31094000  1.0
  O  O51  1  0.62028000  0.48019000  0.67846000  1.0
  O  O52  1  0.61175000  0.51712000  0.31470000  1.0
  O  O53  1  0.40217000  0.51996000  0.67273000  1.0
  F  F54  1  0.07896000  0.65588000  0.21677000  1.0
  F  F55  1  0.99034000  0.21007000  0.79295000  1.0
  F  F56  1  0.83383000  0.69399000  0.12310000  1.0
  F  F57  1  0.25058000  0.25236000  0.87452000  1.0
  F  F58  1  0.69692000  0.26372000  0.11983000  1.0
  F  F59  1  0.23184000  0.68280000  0.85894000  1.0
  F  F60  1  0.74772000  0.53284000  0.88350000  1.0
  F  F61  1  0.26503000  0.47615000  0.10670000  1.0
  F  F62  1  0.67171000  0.88542000  0.34355000  1.0
  F  F63  1  0.32653000  0.08218000  0.65076000  1.0
