# generated using pymatgen
data_CdNiH14(C3N2)3
_symmetry_space_group_name_H-M   'P 1'
_cell_length_a   7.56738000
_cell_length_b   13.80950000
_cell_length_c   22.26210000
_cell_angle_alpha   89.99950000
_cell_angle_beta   90.00000000
_cell_angle_gamma   89.86690000
_symmetry_Int_Tables_number   1
_chemical_formula_structural   CdNiH14(C3N2)3
_chemical_formula_sum   'Cd4 Ni4 H56 C36 N24'
_cell_volume   2326.42177758
_cell_formula_units_Z   4
loop_
 _symmetry_equiv_pos_site_id
 _symmetry_equiv_pos_as_xyz
  1  'x, y, z'
loop_
 _atom_site_type_symbol
 _atom_site_label
 _atom_site_symmetry_multiplicity
 _atom_site_fract_x
 _atom_site_fract_y
 _atom_site_fract_z
 _atom_site_occupancy
  Cd  Cd0  1  0.06415000  0.82742000  0.20118000  1.0
  Cd  Cd1  1  0.93586000  0.67258000  0.70118000  1.0
  Cd  Cd2  1  0.93585000  0.17259000  0.79882000  1.0
  Cd  Cd3  1  0.06415000  0.32741000  0.29882000  1.0
  Ni  Ni4  1  0.56501000  0.57683000  0.23232000  1.0
  Ni  Ni5  1  0.43498000  0.92317000  0.73232000  1.0
  Ni  Ni6  1  0.43499000  0.42317000  0.76768000  1.0
  Ni  Ni7  1  0.56502000  0.07683000  0.26768000  1.0
  H  H8  1  0.04297000  0.84488000  0.33103000  1.0
  H  H9  1  0.86979000  0.78987000  0.30225000  1.0
  H  H10  1  0.21801000  0.70364000  0.32939000  1.0
  H  H11  1  0.05939000  0.64458000  0.28482000  1.0
  H  H12  1  0.84637000  0.63921000  0.36812000  1.0
  H  H13  1  0.04606000  0.57942000  0.38384000  1.0
  H  H14  1  0.93559000  0.77830000  0.43396000  1.0
  H  H15  1  0.14668000  0.72599000  0.44450000  1.0
  H  H16  1  0.00526000  0.57850000  0.48950000  1.0
  H  H17  1  0.79490000  0.63220000  0.48161000  1.0
  H  H18  1  0.09485000  0.71523000  0.55961000  1.0
  H  H19  1  0.87694000  0.76030000  0.55626000  1.0
  H  H20  1  0.02461000  0.93605000  0.09683000  1.0
  H  H21  1  0.22578000  0.89076000  0.09661000  1.0
  H  H22  1  0.95703000  0.65512000  0.83103000  1.0
  H  H23  1  0.13021000  0.71013000  0.80225000  1.0
  H  H24  1  0.78200000  0.79635000  0.82939000  1.0
  H  H25  1  0.94061000  0.85542000  0.78482000  1.0
  H  H26  1  0.15364000  0.86079000  0.86812000  1.0
  H  H27  1  0.95394000  0.92058000  0.88384000  1.0
  H  H28  1  0.06440000  0.72170000  0.93397000  1.0
  H  H29  1  0.85332000  0.77401000  0.94450000  1.0
  H  H30  1  0.99473000  0.92150000  0.98950000  1.0
  H  H31  1  0.20509000  0.86779000  0.98161000  1.0
  H  H32  1  0.90515000  0.78477000  0.05961000  1.0
  H  H33  1  0.12305000  0.73970000  0.05626000  1.0
  H  H34  1  0.97538000  0.56395000  0.59683000  1.0
  H  H35  1  0.77421000  0.60924000  0.59661000  1.0
  H  H36  1  0.95703000  0.15512000  0.66897000  1.0
  H  H37  1  0.13021000  0.21013000  0.69775000  1.0
  H  H38  1  0.78199000  0.29636000  0.67061000  1.0
  H  H39  1  0.94061000  0.35542000  0.71518000  1.0
  H  H40  1  0.15363000  0.36080000  0.63188000  1.0
  H  H41  1  0.95394000  0.42058000  0.61616000  1.0
  H  H42  1  0.06441000  0.22171000  0.56604000  1.0
  H  H43  1  0.85332000  0.27402000  0.55550000  1.0
  H  H44  1  0.99474000  0.42151000  0.51050000  1.0
  H  H45  1  0.20510000  0.36780000  0.51839000  1.0
  H  H46  1  0.90516000  0.28478000  0.44039000  1.0
  H  H47  1  0.12306000  0.23970000  0.44374000  1.0
  H  H48  1  0.97538000  0.06395000  0.90318000  1.0
  H  H49  1  0.77421000  0.10924000  0.90340000  1.0
  H  H50  1  0.04297000  0.34488000  0.16896000  1.0
  H  H51  1  0.86979000  0.28987000  0.19774000  1.0
  H  H52  1  0.21801000  0.20364000  0.17061000  1.0
  H  H53  1  0.05939000  0.14458000  0.21518000  1.0
  H  H54  1  0.84637000  0.13920000  0.13188000  1.0
  H  H55  1  0.04606000  0.07942000  0.11616000  1.0
  H  H56  1  0.93559000  0.27830000  0.06604000  1.0
  H  H57  1  0.14668000  0.22599000  0.05550000  1.0
  H  H58  1  0.00526000  0.07850000  0.01050000  1.0
  H  H59  1  0.79490000  0.13220000  0.01839000  1.0
  H  H60  1  0.09485000  0.21523000  0.94039000  1.0
  H  H61  1  0.87694000  0.26030000  0.94374000  1.0
  H  H62  1  0.02462000  0.43605000  0.40317000  1.0
  H  H63  1  0.22579000  0.39076000  0.40339000  1.0
  C  C64  1  0.39451000  0.65874000  0.20299000  1.0
  C  C65  1  0.39094000  0.99633000  0.23933000  1.0
  C  C66  1  0.73492000  0.99771000  0.23453000  1.0
  C  C67  1  0.73562000  0.15804000  0.29755000  1.0
  C  C68  1  0.07492000  0.69533000  0.32240000  1.0
  C  C69  1  0.98738000  0.65195000  0.37785000  1.0
  C  C70  1  0.00630000  0.70845000  0.43661000  1.0
  C  C71  1  0.93577000  0.64895000  0.48928000  1.0
  C  C72  1  0.95680000  0.69407000  0.55147000  1.0
  C  C73  1  0.60548000  0.84126000  0.70299000  1.0
  C  C74  1  0.60906000  0.50367000  0.73933000  1.0
  C  C75  1  0.26508000  0.50229000  0.73454000  1.0
  C  C76  1  0.26440000  0.34196000  0.79757000  1.0
  C  C77  1  0.92509000  0.80467000  0.82240000  1.0
  C  C78  1  0.01262000  0.84805000  0.87785000  1.0
  C  C79  1  0.99370000  0.79155000  0.93661000  1.0
  C  C80  1  0.06423000  0.85105000  0.98928000  1.0
  C  C81  1  0.04319000  0.80593000  0.05147000  1.0
  C  C82  1  0.60548000  0.34126000  0.79701000  1.0
  C  C83  1  0.60905000  0.00366000  0.76067000  1.0
  C  C84  1  0.26507000  0.00229000  0.76547000  1.0
  C  C85  1  0.26439000  0.84196000  0.70244000  1.0
  C  C86  1  0.92508000  0.30467000  0.67760000  1.0
  C  C87  1  0.01262000  0.34805000  0.62215000  1.0
  C  C88  1  0.99370000  0.29155000  0.56339000  1.0
  C  C89  1  0.06424000  0.35105000  0.51072000  1.0
  C  C90  1  0.04320000  0.30593000  0.44853000  1.0
  C  C91  1  0.39452000  0.15874000  0.29701000  1.0
  C  C92  1  0.39094000  0.49634000  0.26067000  1.0
  C  C93  1  0.73492000  0.49771000  0.26547000  1.0
  C  C94  1  0.73560000  0.65805000  0.20244000  1.0
  C  C95  1  0.07492000  0.19533000  0.17760000  1.0
  C  C96  1  0.98738000  0.15195000  0.12215000  1.0
  C  C97  1  0.00630000  0.20845000  0.06339000  1.0
  C  C98  1  0.93577000  0.14895000  0.01072000  1.0
  C  C99  1  0.95680000  0.19407000  0.94853000  1.0
  N  N100  1  0.28470000  0.71266000  0.18667000  1.0
  N  N101  1  0.27852000  0.94491000  0.22234000  1.0
  N  N102  1  0.84263000  0.94809000  0.21229000  1.0
  N  N103  1  0.84336000  0.71118000  0.18388000  1.0
  N  N104  1  0.00495000  0.79026000  0.30297000  1.0
  N  N105  1  0.09504000  0.87291000  0.09990000  1.0
  N  N106  1  0.71529000  0.78734000  0.68667000  1.0
  N  N107  1  0.72148000  0.55509000  0.72235000  1.0
  N  N108  1  0.15738000  0.55191000  0.71229000  1.0
  N  N109  1  0.15664000  0.78882000  0.68389000  1.0
  N  N110  1  0.99506000  0.70974000  0.80297000  1.0
  N  N111  1  0.90495000  0.62709000  0.59990000  1.0
  N  N112  1  0.71529000  0.28733000  0.81333000  1.0
  N  N113  1  0.72147000  0.05510000  0.77766000  1.0
  N  N114  1  0.15737000  0.05191000  0.78771000  1.0
  N  N115  1  0.15665000  0.28883000  0.81612000  1.0
  N  N116  1  0.99505000  0.20974000  0.69703000  1.0
  N  N117  1  0.90495000  0.12709000  0.90010000  1.0
  N  N118  1  0.28471000  0.21266000  0.31333000  1.0
  N  N119  1  0.27851000  0.44491000  0.27766000  1.0
  N  N120  1  0.84262000  0.44809000  0.28771000  1.0
  N  N121  1  0.84337000  0.21117000  0.31611000  1.0
  N  N122  1  0.00495000  0.29026000  0.19703000  1.0
  N  N123  1  0.09505000  0.37291000  0.40010000  1.0
