# generated using pymatgen
data_LiBH8C4OF4
_symmetry_space_group_name_H-M   'P 1'
_cell_length_a   8.81240000
_cell_length_b   9.25493000
_cell_length_c   9.59651000
_cell_angle_alpha   89.99510000
_cell_angle_beta   69.03300000
_cell_angle_gamma   89.99430000
_symmetry_Int_Tables_number   1
_chemical_formula_structural   LiBH8C4OF4
_chemical_formula_sum   'Li4 B4 H32 C16 O4 F16'
_cell_volume   730.85013357
_cell_formula_units_Z   4
loop_
 _symmetry_equiv_pos_site_id
 _symmetry_equiv_pos_as_xyz
  1  'x, y, z'
loop_
 _atom_site_type_symbol
 _atom_site_label
 _atom_site_symmetry_multiplicity
 _atom_site_fract_x
 _atom_site_fract_y
 _atom_site_fract_z
 _atom_site_occupancy
  Li  Li0  1  0.03961000  0.65539000  0.14849000  1.0
  Li  Li1  1  0.96039000  0.15542000  0.35151000  1.0
  Li  Li2  1  0.96032000  0.34461000  0.85153000  1.0
  Li  Li3  1  0.03963000  0.84460000  0.64847000  1.0
  B  B4  1  0.85357000  0.82723000  0.43271000  1.0
  B  B5  1  0.14640000  0.32727000  0.06729000  1.0
  B  B6  1  0.14641000  0.17280000  0.56730000  1.0
  B  B7  1  0.85360000  0.67274000  0.93272000  1.0
  H  H8  1  0.25540000  0.67225000  0.81959000  1.0
  H  H9  1  0.74464000  0.17227000  0.68038000  1.0
  H  H10  1  0.74458000  0.32773000  0.18046000  1.0
  H  H11  1  0.25540000  0.82768000  0.31956000  1.0
  H  H12  1  0.39855000  0.61496000  0.90261000  1.0
  H  H13  1  0.60147000  0.11497000  0.59742000  1.0
  H  H14  1  0.60142000  0.38504000  0.09749000  1.0
  H  H15  1  0.39857000  0.88502000  0.40251000  1.0
  H  H16  1  0.54444000  0.84003000  0.84250000  1.0
  H  H17  1  0.45551000  0.34001000  0.65756000  1.0
  H  H18  1  0.45556000  0.15998000  0.15753000  1.0
  H  H19  1  0.54452000  0.65997000  0.34241000  1.0
  H  H20  1  0.48270000  0.82761000  0.68592000  1.0
  H  H21  1  0.51732000  0.32762000  0.81410000  1.0
  H  H22  1  0.51728000  0.17234000  0.31411000  1.0
  H  H23  1  0.48272000  0.67234000  0.18587000  1.0
  H  H24  1  0.24804000  0.98280000  0.80222000  1.0
  H  H25  1  0.75196000  0.48276000  0.69774000  1.0
  H  H26  1  0.75197000  0.01717000  0.19777000  1.0
  H  H27  1  0.24808000  0.51722000  0.30222000  1.0
  H  H28  1  0.39085000  0.06568000  0.86759000  1.0
  H  H29  1  0.60909000  0.56570000  0.63245000  1.0
  H  H30  1  0.60914000  0.93433000  0.13240000  1.0
  H  H31  1  0.39093000  0.43428000  0.36755000  1.0
  H  H32  1  0.27574000  0.95650000  0.10904000  1.0
  H  H33  1  0.72421000  0.45655000  0.39092000  1.0
  H  H34  1  0.72420000  0.04354000  0.89096000  1.0
  H  H35  1  0.27578000  0.54345000  0.60906000  1.0
  H  H36  1  0.09700000  0.95483000  0.06237000  1.0
  H  H37  1  0.90292000  0.45486000  0.43763000  1.0
  H  H38  1  0.90297000  0.04520000  0.93762000  1.0
  H  H39  1  0.09709000  0.54515000  0.56232000  1.0
  C  C40  1  0.33152000  0.70783000  0.88271000  1.0
  C  C41  1  0.66850000  0.20785000  0.61730000  1.0
  C  C42  1  0.66847000  0.29216000  0.11735000  1.0
  C  C43  1  0.33155000  0.79212000  0.38265000  1.0
  C  C44  1  0.43867000  0.83530000  0.80791000  1.0
  C  C45  1  0.56132000  0.33531000  0.69210000  1.0
  C  C46  1  0.56131000  0.16469000  0.19212000  1.0
  C  C47  1  0.43873000  0.66467000  0.30787000  1.0
  C  C48  1  0.32536000  0.96482000  0.86825000  1.0
  C  C49  1  0.67459000  0.46483000  0.63175000  1.0
  C  C50  1  0.67463000  0.03516000  0.13175000  1.0
  C  C51  1  0.32545000  0.53514000  0.36825000  1.0
  C  C52  1  0.22376000  0.91866000  0.02690000  1.0
  C  C53  1  0.77617000  0.41869000  0.47309000  1.0
  C  C54  1  0.77621000  0.08137000  0.97312000  1.0
  C  C55  1  0.22383000  0.58131000  0.52687000  1.0
  O  O56  1  0.22545000  0.76094000  0.02804000  1.0
  O  O57  1  0.77452000  0.26097000  0.47195000  1.0
  O  O58  1  0.77452000  0.23908000  0.97200000  1.0
  O  O59  1  0.22553000  0.73904000  0.52801000  1.0
  F  F60  1  0.95731000  0.71443000  0.34864000  1.0
  F  F61  1  0.04271000  0.21446000  0.15137000  1.0
  F  F62  1  0.04271000  0.28559000  0.65141000  1.0
  F  F63  1  0.95731000  0.78552000  0.84861000  1.0
  F  F64  1  0.86886000  0.83369000  0.57523000  1.0
  F  F65  1  0.13103000  0.33383000  0.92483000  1.0
  F  F66  1  0.13110000  0.16636000  0.42481000  1.0
  F  F67  1  0.86889000  0.66626000  0.07520000  1.0
  F  F68  1  0.91180000  0.95971000  0.35536000  1.0
  F  F69  1  0.08824000  0.45972000  0.14470000  1.0
  F  F70  1  0.08822000  0.04031000  0.64464000  1.0
  F  F71  1  0.91171000  0.54027000  0.85538000  1.0
  F  F72  1  0.69391000  0.80359000  0.44686000  1.0
  F  F73  1  0.30613000  0.30359000  0.05305000  1.0
  F  F74  1  0.30612000  0.19642000  0.55311000  1.0
  F  F75  1  0.69383000  0.69645000  0.94692000  1.0
