# generated using pymatgen
data_Hf3H2C30N9O16
_symmetry_space_group_name_H-M   'P 1'
_cell_length_a   16.51930000
_cell_length_b   16.51900000
_cell_length_c   16.52220000
_cell_angle_alpha   92.72250000
_cell_angle_beta   92.74740000
_cell_angle_gamma   92.72680000
_symmetry_Int_Tables_number   1
_chemical_formula_structural   Hf3H2C30N9O16
_chemical_formula_sum   'Hf6 H4 C60 N18 O32'
_cell_volume   4492.73241823
_cell_formula_units_Z   2
loop_
 _symmetry_equiv_pos_site_id
 _symmetry_equiv_pos_as_xyz
  1  'x, y, z'
loop_
 _atom_site_type_symbol
 _atom_site_label
 _atom_site_symmetry_multiplicity
 _atom_site_fract_x
 _atom_site_fract_y
 _atom_site_fract_z
 _atom_site_occupancy
  Hf  Hf0  1  0.80089000  0.95752000  0.84115000  1.0
  Hf  Hf1  1  0.74931000  0.84375000  0.00668000  1.0
  Hf  Hf2  1  0.99898000  0.99100000  0.92558000  1.0
  Hf  Hf3  1  0.91480000  0.79208000  0.89291000  1.0
  Hf  Hf4  1  0.83374000  0.04186000  0.03997000  1.0
  Hf  Hf5  1  0.94825000  0.87665000  0.09089000  1.0
  H  H6  1  0.74968000  0.79242000  0.84165000  1.0
  H  H7  1  0.88181000  0.10712000  0.89566000  1.0
  H  H8  1  0.06434000  0.84673000  0.97376000  1.0
  H  H9  1  0.80393000  0.92479000  0.15613000  1.0
  C  C10  1  0.94096000  0.19588000  0.55568000  1.0
  C  C11  1  0.93828000  0.17959000  0.41896000  1.0
  C  C12  1  0.91134000  0.30094000  0.47858000  1.0
  C  C13  1  0.81616000  0.63582000  0.37388000  1.0
  C  C14  1  0.84836000  0.53451000  0.45494000  1.0
  C  C15  1  0.82424000  0.65862000  0.51013000  1.0
  C  C16  1  0.15323000  0.50671000  0.03332000  1.0
  C  C17  1  0.25833000  0.42967000  0.00381000  1.0
  C  C18  1  0.13693000  0.36997000  0.03048000  1.0
  C  C19  1  0.59278000  0.32473000  0.90787000  1.0
  C  C20  1  0.49171000  0.40595000  0.94042000  1.0
  C  C21  1  0.61588000  0.46096000  0.91619000  1.0
  C  C22  1  0.46393000  0.98353000  0.24509000  1.0
  C  C23  1  0.38678000  0.95386000  0.35011000  1.0
  C  C24  1  0.32718000  0.98098000  0.22879000  1.0
  C  C25  1  0.28192000  0.85869000  0.68480000  1.0
  C  C26  1  0.41817000  0.86661000  0.70771000  1.0
  C  C27  1  0.36305000  0.89070000  0.58355000  1.0
  C  C28  1  0.93470000  0.06329000  0.75575000  1.0
  C  C29  1  0.62310000  0.87953000  0.85541000  1.0
  C  C30  1  0.83679000  0.80618000  0.71512000  1.0
  C  C31  1  0.72031000  0.12193000  0.90857000  1.0
  C  C32  1  0.81684000  0.76340000  0.17109000  1.0
  C  C33  1  0.12227000  0.96423000  0.08160000  1.0
  C  C34  1  0.76360000  0.66588000  0.92890000  1.0
  C  C35  1  0.66393000  0.97767000  0.11239000  1.0
  C  C36  1  0.98977000  0.16503000  0.01308000  1.0
  C  C37  1  0.07920000  0.85957000  0.81240000  1.0
  C  C38  1  0.02063000  0.70681000  0.02687000  1.0
  C  C39  1  0.92137000  0.03263000  0.21397000  1.0
  C  C40  1  0.20440000  0.84958000  0.71863000  1.0
  C  C41  1  0.14398000  0.84908000  0.75787000  1.0
  C  C42  1  0.48727000  0.86491000  0.76291000  1.0
  C  C43  1  0.54564000  0.86806000  0.81080000  1.0
  C  C44  1  0.19776000  0.98059000  0.12865000  1.0
  C  C45  1  0.25647000  0.98414000  0.17610000  1.0
  C  C46  1  0.53969000  0.99015000  0.20739000  1.0
  C  C47  1  0.59821000  0.98939000  0.16548000  1.0
  C  C48  1  0.37975000  0.93207000  0.43230000  1.0
  C  C49  1  0.37242000  0.91238000  0.50165000  1.0
  C  C50  1  0.62656000  0.24718000  0.89856000  1.0
  C  C51  1  0.66565000  0.18664000  0.89811000  1.0
  C  C52  1  0.67111000  0.53002000  0.91453000  1.0
  C  C53  1  0.71894000  0.58843000  0.91757000  1.0
  C  C54  1  0.03680000  0.24050000  0.02959000  1.0
  C  C55  1  0.08421000  0.29924000  0.03343000  1.0
  C  C56  1  0.07371000  0.64107000  0.03873000  1.0
  C  C57  1  0.11554000  0.58249000  0.03982000  1.0
  C  C58  1  0.40985000  0.41536000  0.96231000  1.0
  C  C59  1  0.34053000  0.42269000  0.98208000  1.0
  C  C60  1  0.80692000  0.66973000  0.29639000  1.0
  C  C61  1  0.80644000  0.70886000  0.23588000  1.0
  C  C62  1  0.82547000  0.76150000  0.63768000  1.0
  C  C63  1  0.82253000  0.71373000  0.57925000  1.0
  C  C64  1  0.94135000  0.12695000  0.34823000  1.0
  C  C65  1  0.93778000  0.07957000  0.28949000  1.0
  C  C66  1  0.94749000  0.15817000  0.63144000  1.0
  C  C67  1  0.94653000  0.11629000  0.68997000  1.0
  C  C68  1  0.87004000  0.45258000  0.46428000  1.0
  C  C69  1  0.88966000  0.38319000  0.47158000  1.0
  N  N70  1  0.95214000  0.14608000  0.49059000  1.0
  N  N71  1  0.91820000  0.25675000  0.40864000  1.0
  N  N72  1  0.92132000  0.27399000  0.55415000  1.0
  N  N73  1  0.83517000  0.55778000  0.37834000  1.0
  N  N74  1  0.84450000  0.58198000  0.52325000  1.0
  N  N75  1  0.80808000  0.68882000  0.43728000  1.0
  N  N76  1  0.23138000  0.50524000  0.01385000  1.0
  N  N77  1  0.21413000  0.35969000  0.01058000  1.0
  N  N78  1  0.10339000  0.44160000  0.04428000  1.0
  N  N79  1  0.51480000  0.32931000  0.92699000  1.0
  N  N80  1  0.53933000  0.47419000  0.93668000  1.0
  N  N81  1  0.64588000  0.38807000  0.89980000  1.0
  N  N82  1  0.46238000  0.96376000  0.32316000  1.0
  N  N83  1  0.31685000  0.96086000  0.30592000  1.0
  N  N84  1  0.39883000  0.99483000  0.19533000  1.0
  N  N85  1  0.34529000  0.85058000  0.73786000  1.0
  N  N86  1  0.43135000  0.88677000  0.63107000  1.0
  N  N87  1  0.28642000  0.87766000  0.60678000  1.0
  O  O88  1  0.99295000  0.05507000  0.80712000  1.0
  O  O89  1  0.63456000  0.84834000  0.92352000  1.0
  O  O90  1  0.80555000  0.87427000  0.72647000  1.0
  O  O91  1  0.73025000  0.07199000  0.84962000  1.0
  O  O92  1  0.75548000  0.12399000  0.97956000  1.0
  O  O93  1  0.87882000  0.76835000  0.76709000  1.0
  O  O94  1  0.67500000  0.92153000  0.81752000  1.0
  O  O95  1  0.86298000  0.03000000  0.75515000  1.0
  O  O96  1  0.77491000  0.95524000  0.96186000  1.0
  O  O97  1  0.91243000  0.91280000  0.86674000  1.0
  O  O98  1  0.78532000  0.82806000  0.87726000  1.0
  O  O99  1  0.87959000  0.05249000  0.91484000  1.0
  O  O100  1  0.75784000  0.77326000  0.12116000  1.0
  O  O101  1  0.11134000  0.99400000  0.01272000  1.0
  O  O102  1  0.83170000  0.67729000  0.89772000  1.0
  O  O103  1  0.71524000  0.03593000  0.10413000  1.0
  O  O104  1  0.92090000  0.15408000  0.04284000  1.0
  O  O105  1  0.02931000  0.80059000  0.82235000  1.0
  O  O106  1  0.01240000  0.75819000  0.08507000  1.0
  O  O107  1  0.95120000  0.96377000  0.20304000  1.0
  O  O108  1  0.98730000  0.70615000  0.95515000  1.0
  O  O109  1  0.87438000  0.06786000  0.16427000  1.0
  O  O110  1  0.72570000  0.71784000  0.97083000  1.0
  O  O111  1  0.08115000  0.93062000  0.84743000  1.0
  O  O112  1  0.02499000  0.11533000  0.96610000  1.0
  O  O113  1  0.66334000  0.90596000  0.07907000  1.0
  O  O114  1  0.88783000  0.79854000  0.17308000  1.0
  O  O115  1  0.07255000  0.91727000  0.11680000  1.0
  O  O116  1  0.94022000  0.98307000  0.03202000  1.0
  O  O117  1  0.87007000  0.81774000  0.00438000  1.0
  O  O118  1  0.00971000  0.86589000  0.97153000  1.0
  O  O119  1  0.82307000  0.92254000  0.10152000  1.0
