# generated using pymatgen
data_TbH9(CO2)4
_symmetry_space_group_name_H-M   'P 1'
_cell_length_a   6.79954000
_cell_length_b   10.76360000
_cell_length_c   11.13040000
_cell_angle_alpha   96.71070000
_cell_angle_beta   90.00000000
_cell_angle_gamma   89.99990000
_symmetry_Int_Tables_number   1
_chemical_formula_structural   TbH9(CO2)4
_chemical_formula_sum   'Tb4 H36 C16 O32'
_cell_volume   809.02547387
_cell_formula_units_Z   4
loop_
 _symmetry_equiv_pos_site_id
 _symmetry_equiv_pos_as_xyz
  1  'x, y, z'
loop_
 _atom_site_type_symbol
 _atom_site_label
 _atom_site_symmetry_multiplicity
 _atom_site_fract_x
 _atom_site_fract_y
 _atom_site_fract_z
 _atom_site_occupancy
  Tb  Tb0  1  0.97678000  0.15350000  0.09665000  1.0
  Tb  Tb1  1  0.47678000  0.84650000  0.40335000  1.0
  Tb  Tb2  1  0.02323000  0.84650000  0.90335000  1.0
  Tb  Tb3  1  0.52322000  0.15350000  0.59665000  1.0
  H  H4  1  0.47383000  0.38531000  0.10558000  1.0
  H  H5  1  0.97383000  0.61469000  0.39441000  1.0
  H  H6  1  0.52618000  0.61469000  0.89441000  1.0
  H  H7  1  0.02618000  0.38531000  0.60559000  1.0
  H  H8  1  0.50600000  0.28810000  0.96549000  1.0
  H  H9  1  0.00600000  0.71190000  0.53450000  1.0
  H  H10  1  0.49400000  0.71190000  0.03450000  1.0
  H  H11  1  0.99400000  0.28810000  0.46550000  1.0
  H  H12  1  0.26111000  0.34069000  0.84787000  1.0
  H  H13  1  0.76111000  0.65931000  0.65213000  1.0
  H  H14  1  0.73889000  0.65932000  0.15214000  1.0
  H  H15  1  0.23888000  0.34067000  0.34786000  1.0
  H  H16  1  0.20762000  0.47584000  0.95059000  1.0
  H  H17  1  0.70762000  0.52416000  0.54940000  1.0
  H  H18  1  0.79238000  0.52417000  0.04941000  1.0
  H  H19  1  0.29238000  0.47583000  0.45059000  1.0
  H  H20  1  0.13201000  0.09233000  0.85042000  1.0
  H  H21  1  0.63199000  0.90766000  0.64958000  1.0
  H  H22  1  0.86800000  0.90767000  0.14958000  1.0
  H  H23  1  0.36801000  0.09233000  0.35042000  1.0
  H  H24  1  0.82400000  0.37855000  0.26347000  1.0
  H  H25  1  0.32401000  0.62145000  0.23653000  1.0
  H  H26  1  0.17599000  0.62145000  0.73653000  1.0
  H  H27  1  0.67599000  0.37855000  0.76347000  1.0
  H  H28  1  0.01277000  0.43102000  0.20205000  1.0
  H  H29  1  0.51278000  0.56898000  0.29795000  1.0
  H  H30  1  0.98722000  0.56898000  0.79795000  1.0
  H  H31  1  0.48722000  0.43102000  0.70205000  1.0
  H  H32  1  0.81879000  0.16282000  0.34754000  1.0
  H  H33  1  0.31879000  0.83718000  0.15246000  1.0
  H  H34  1  0.18121000  0.83718000  0.65246000  1.0
  H  H35  1  0.68121000  0.16282000  0.84754000  1.0
  H  H36  1  0.89811000  0.02546000  0.32049000  1.0
  H  H37  1  0.39811000  0.97454000  0.17951000  1.0
  H  H38  1  0.10189000  0.97454000  0.67951000  1.0
  H  H39  1  0.60189000  0.02546000  0.82049000  1.0
  C  C40  1  0.95612000  0.36014000  0.89613000  1.0
  C  C41  1  0.45613000  0.63985000  0.60387000  1.0
  C  C42  1  0.04387000  0.63986000  0.10388000  1.0
  C  C43  1  0.54387000  0.36014000  0.39612000  1.0
  C  C44  1  0.46094000  0.18882000  0.11862000  1.0
  C  C45  1  0.96093000  0.81119000  0.38138000  1.0
  C  C46  1  0.53906000  0.81118000  0.88138000  1.0
  C  C47  1  0.03907000  0.18881000  0.61862000  1.0
  C  C48  1  0.42205000  0.29984000  0.05017000  1.0
  C  C49  1  0.92205000  0.70016000  0.44983000  1.0
  C  C50  1  0.57795000  0.70016000  0.94983000  1.0
  C  C51  1  0.07795000  0.29983000  0.55017000  1.0
  C  C52  1  0.17233000  0.37593000  0.92773000  1.0
  C  C53  1  0.67233000  0.62408000  0.57226000  1.0
  C  C54  1  0.82767000  0.62408000  0.07227000  1.0
  C  C55  1  0.32767000  0.37591000  0.42773000  1.0
  O  O56  1  0.95128000  0.35207000  0.22225000  1.0
  O  O57  1  0.45128000  0.64793000  0.27775000  1.0
  O  O58  1  0.04872000  0.64793000  0.77775000  1.0
  O  O59  1  0.54872000  0.35207000  0.72225000  1.0
  O  O60  1  0.21626000  0.30725000  0.02624000  1.0
  O  O61  1  0.71626000  0.69275000  0.47376000  1.0
  O  O62  1  0.78375000  0.69276000  0.97377000  1.0
  O  O63  1  0.28375000  0.30723000  0.52623000  1.0
  O  O64  1  0.31278000  0.13320000  0.16013000  1.0
  O  O65  1  0.81278000  0.86681000  0.33988000  1.0
  O  O66  1  0.68723000  0.86681000  0.83988000  1.0
  O  O67  1  0.18723000  0.13319000  0.66012000  1.0
  O  O68  1  0.92929000  0.11351000  0.31002000  1.0
  O  O69  1  0.42929000  0.88649000  0.18998000  1.0
  O  O70  1  0.07071000  0.88649000  0.68999000  1.0
  O  O71  1  0.57071000  0.11351000  0.81001000  1.0
  O  O72  1  0.85592000  0.28048000  0.94555000  1.0
  O  O73  1  0.35592000  0.71952000  0.55445000  1.0
  O  O74  1  0.14408000  0.71953000  0.05446000  1.0
  O  O75  1  0.64408000  0.28047000  0.44555000  1.0
  O  O76  1  0.88925000  0.42761000  0.81910000  1.0
  O  O77  1  0.38925000  0.57239000  0.68090000  1.0
  O  O78  1  0.11074000  0.57239000  0.18091000  1.0
  O  O79  1  0.61074000  0.42761000  0.31910000  1.0
  O  O80  1  0.63654000  0.15762000  0.13272000  1.0
  O  O81  1  0.13652000  0.84239000  0.36729000  1.0
  O  O82  1  0.36347000  0.84238000  0.86728000  1.0
  O  O83  1  0.86347000  0.15761000  0.63272000  1.0
  O  O84  1  0.06846000  0.05380000  0.91497000  1.0
  O  O85  1  0.56845000  0.94620000  0.58503000  1.0
  O  O86  1  0.93154000  0.94620000  0.08503000  1.0
  O  O87  1  0.43155000  0.05380000  0.41497000  1.0
