# generated using pymatgen
data_Hf3H18(C15O8)2
_symmetry_space_group_name_H-M   'P 1'
_cell_length_a   17.33230000
_cell_length_b   17.34700000
_cell_length_c   18.40770000
_cell_angle_alpha   89.82450000
_cell_angle_beta   89.79150000
_cell_angle_gamma   109.67700000
_symmetry_Int_Tables_number   1
_chemical_formula_structural   Hf3H18(C15O8)2
_chemical_formula_sum   'Hf6 H36 C60 O32'
_cell_volume   5211.24922310
_cell_formula_units_Z   2
loop_
 _symmetry_equiv_pos_site_id
 _symmetry_equiv_pos_as_xyz
  1  'x, y, z'
loop_
 _atom_site_type_symbol
 _atom_site_label
 _atom_site_symmetry_multiplicity
 _atom_site_fract_x
 _atom_site_fract_y
 _atom_site_fract_z
 _atom_site_occupancy
  Hf  Hf0  1  0.88345000  0.89586000  0.09016000  1.0
  Hf  Hf1  1  0.89396000  0.90770000  0.89828000  1.0
  Hf  Hf2  1  0.05879000  0.07257000  0.10071000  1.0
  Hf  Hf3  1  0.07099000  0.08245000  0.90936000  1.0
  Hf  Hf4  1  0.06444000  0.90272000  0.99986000  1.0
  Hf  Hf5  1  0.88925000  0.07677000  0.99961000  1.0
  H  H6  1  0.76714000  0.91522000  0.99440000  1.0
  H  H7  1  0.05239000  0.92810000  0.84730000  1.0
  H  H8  1  0.05069000  0.19900000  0.00436000  1.0
  H  H9  1  0.04169000  0.91754000  0.15221000  1.0
  H  H10  1  0.92575000  0.88793000  0.75611000  1.0
  H  H11  1  0.99288000  0.00638000  0.78239000  1.0
  H  H12  1  0.22211000  0.18895000  0.91570000  1.0
  H  H13  1  0.17713000  0.18763000  0.01785000  1.0
  H  H14  1  0.02548000  0.08707000  0.23949000  1.0
  H  H15  1  0.95873000  0.97192000  0.21695000  1.0
  H  H16  1  0.78048000  0.74254000  0.08212000  1.0
  H  H17  1  0.78092000  0.78822000  0.98165000  1.0
  H  H18  1  0.21780000  0.16991000  0.09422000  1.0
  H  H19  1  0.91425000  0.87353000  0.23735000  1.0
  H  H20  1  0.79733000  0.74787000  0.90407000  1.0
  H  H21  1  0.03193000  0.10586000  0.77039000  1.0
  H  H22  1  0.60128000  0.99214000  0.33260000  1.0
  H  H23  1  0.35148000  0.98953000  0.33103000  1.0
  H  H24  1  0.47859000  0.99027000  0.12908000  1.0
  H  H25  1  0.60344000  0.99581000  0.66390000  1.0
  H  H26  1  0.35345000  0.99248000  0.66991000  1.0
  H  H27  1  0.48458000  0.99788000  0.86955000  1.0
  H  H28  1  0.96985000  0.48220000  0.12987000  1.0
  H  H29  1  0.96724000  0.61067000  0.32968000  1.0
  H  H30  1  0.97175000  0.36368000  0.33572000  1.0
  H  H31  1  0.97566000  0.48772000  0.86998000  1.0
  H  H32  1  0.97025000  0.61328000  0.66845000  1.0
  H  H33  1  0.97213000  0.36530000  0.66593000  1.0
  H  H34  1  0.88996000  0.36356000  0.56807000  1.0
  H  H35  1  0.04876000  0.61541000  0.56557000  1.0
  H  H36  1  0.04823000  0.61465000  0.43172000  1.0
  H  H37  1  0.88950000  0.36278000  0.43431000  1.0
  H  H38  1  0.55260000  0.91623000  0.56652000  1.0
  H  H39  1  0.39988000  0.06754000  0.56589000  1.0
  H  H40  1  0.39929000  0.06635000  0.43227000  1.0
  H  H41  1  0.55203000  0.91505000  0.43300000  1.0
  C  C42  1  0.97139000  0.75902000  0.11455000  1.0
  C  C43  1  0.76046000  0.99884000  0.87374000  1.0
  C  C44  1  0.98002000  0.76599000  0.88017000  1.0
  C  C45  1  0.75372000  0.99110000  0.11919000  1.0
  C  C46  1  0.96784000  0.20571000  0.12691000  1.0
  C  C47  1  0.20866000  0.99587000  0.88700000  1.0
  C  C48  1  0.97416000  0.21244000  0.87862000  1.0
  C  C49  1  0.20141000  0.98791000  0.11841000  1.0
  C  C50  1  0.54771000  0.99078000  0.22706000  1.0
  C  C51  1  0.54617000  0.99057000  0.30349000  1.0
  C  C52  1  0.47624000  0.99069000  0.34191000  1.0
  C  C53  1  0.40717000  0.99087000  0.30261000  1.0
  C  C54  1  0.40747000  0.99046000  0.22613000  1.0
  C  C55  1  0.47797000  0.99048000  0.18824000  1.0
  C  C56  1  0.55194000  0.99656000  0.77041000  1.0
  C  C57  1  0.54888000  0.99472000  0.69406000  1.0
  C  C58  1  0.47812000  0.99374000  0.65690000  1.0
  C  C59  1  0.40972000  0.99458000  0.69737000  1.0
  C  C60  1  0.41151000  0.99582000  0.77383000  1.0
  C  C61  1  0.48285000  0.99684000  0.81042000  1.0
  C  C62  1  0.96918000  0.41437000  0.22913000  1.0
  C  C63  1  0.96972000  0.48360000  0.18902000  1.0
  C  C64  1  0.97007000  0.55469000  0.22563000  1.0
  C  C65  1  0.96922000  0.55586000  0.30211000  1.0
  C  C66  1  0.96934000  0.48736000  0.34259000  1.0
  C  C67  1  0.96977000  0.41708000  0.30551000  1.0
  C  C68  1  0.97231000  0.41803000  0.77177000  1.0
  C  C69  1  0.97425000  0.48811000  0.81085000  1.0
  C  C70  1  0.97450000  0.55874000  0.77317000  1.0
  C  C71  1  0.97213000  0.55866000  0.69672000  1.0
  C  C72  1  0.97085000  0.48930000  0.65725000  1.0
  C  C73  1  0.97126000  0.41939000  0.69537000  1.0
  C  C74  1  0.92578000  0.41857000  0.53841000  1.0
  C  C75  1  0.96953000  0.48950000  0.57699000  1.0
  C  C76  1  0.01251000  0.56015000  0.53700000  1.0
  C  C77  1  0.01222000  0.55972000  0.46141000  1.0
  C  C78  1  0.96895000  0.48861000  0.42286000  1.0
  C  C79  1  0.92552000  0.41813000  0.46287000  1.0
  C  C80  1  0.51969000  0.95030000  0.53735000  1.0
  C  C81  1  0.47641000  0.99211000  0.57659000  1.0
  C  C82  1  0.43236000  0.03280000  0.53705000  1.0
  C  C83  1  0.43203000  0.03213000  0.46144000  1.0
  C  C84  1  0.47570000  0.99073000  0.42223000  1.0
  C  C85  1  0.51935000  0.94961000  0.46180000  1.0
  C  C86  1  0.34144000  0.99585000  0.81401000  1.0
  C  C87  1  0.28141000  0.99607000  0.84849000  1.0
  C  C88  1  0.62475000  0.99833000  0.80640000  1.0
  C  C89  1  0.68767000  0.99955000  0.83631000  1.0
  C  C90  1  0.33646000  0.98966000  0.18756000  1.0
  C  C91  1  0.27520000  0.98895000  0.15497000  1.0
  C  C92  1  0.68163000  0.99209000  0.15806000  1.0
  C  C93  1  0.61962000  0.99156000  0.18961000  1.0
  C  C94  1  0.97257000  0.28422000  0.83977000  1.0
  C  C95  1  0.97246000  0.34628000  0.80880000  1.0
  C  C96  1  0.97652000  0.63003000  0.81179000  1.0
  C  C97  1  0.97862000  0.69186000  0.84410000  1.0
  C  C98  1  0.96762000  0.27864000  0.16420000  1.0
  C  C99  1  0.96857000  0.34182000  0.19343000  1.0
  C  C100  1  0.97039000  0.62503000  0.18587000  1.0
  C  C101  1  0.97092000  0.68587000  0.15235000  1.0
  O  O102  1  0.91346000  0.78638000  0.13117000  1.0
  O  O103  1  0.02926000  0.79022000  0.06935000  1.0
  O  O104  1  0.78952000  0.94331000  0.85588000  1.0
  O  O105  1  0.78811000  0.05363000  0.92238000  1.0
  O  O106  1  0.92339000  0.79440000  0.86240000  1.0
  O  O107  1  0.03754000  0.79693000  0.92530000  1.0
  O  O108  1  0.78131000  0.93396000  0.13502000  1.0
  O  O109  1  0.78222000  0.04742000  0.07148000  1.0
  O  O110  1  0.78221000  0.79383000  0.05966000  1.0
  O  O111  1  0.90532000  0.91822000  0.21072000  1.0
  O  O112  1  0.78663000  0.79544000  0.92355000  1.0
  O  O113  1  0.92116000  0.93144000  0.78691000  1.0
  O  O114  1  0.94099000  0.87967000  0.99599000  1.0
  O  O115  1  0.82660000  0.93655000  0.99500000  1.0
  O  O116  1  0.02195000  0.17486000  0.14643000  1.0
  O  O117  1  0.91479000  0.17959000  0.07702000  1.0
  O  O118  1  0.18243000  0.05481000  0.87257000  1.0
  O  O119  1  0.17658000  0.93659000  0.93091000  1.0
  O  O120  1  0.02961000  0.18295000  0.86017000  1.0
  O  O121  1  0.92069000  0.18593000  0.92868000  1.0
  O  O122  1  0.17420000  0.04582000  0.13383000  1.0
  O  O123  1  0.16941000  0.92876000  0.07484000  1.0
  O  O124  1  0.17042000  0.18174000  0.07550000  1.0
  O  O125  1  0.03254000  0.04225000  0.21181000  1.0
  O  O126  1  0.17059000  0.18642000  0.93837000  1.0
  O  O127  1  0.04570000  0.05954000  0.78922000  1.0
  O  O128  1  0.02954000  0.13957000  0.00425000  1.0
  O  O129  1  0.08683000  0.02574000  0.00341000  1.0
  O  O130  1  0.93612000  0.02235000  0.07877000  1.0
  O  O131  1  0.03217000  0.94597000  0.89105000  1.0
  O  O132  1  0.02204000  0.93635000  0.10867000  1.0
  O  O133  1  0.94356000  0.02987000  0.92002000  1.0
