# generated using pymatgen
data_Al2H13C24NO14
_symmetry_space_group_name_H-M   'P 1'
_cell_length_a   6.77938000
_cell_length_b   11.08872805
_cell_length_c   17.64758264
_cell_angle_alpha   82.27310418
_cell_angle_beta   80.44562060
_cell_angle_gamma   72.83667418
_symmetry_Int_Tables_number   1
_chemical_formula_structural   Al2H13C24NO14
_chemical_formula_sum   'Al2 H13 C24 N1 O14'
_cell_volume   1244.83593352
_cell_formula_units_Z   1
loop_
 _symmetry_equiv_pos_site_id
 _symmetry_equiv_pos_as_xyz
  1  'x, y, z'
loop_
 _atom_site_type_symbol
 _atom_site_label
 _atom_site_symmetry_multiplicity
 _atom_site_fract_x
 _atom_site_fract_y
 _atom_site_fract_z
 _atom_site_occupancy
  Al  Al0  1  0.49872000  0.50305000  0.50215000  1.0
  Al  Al1  1  0.99832000  0.50563000  0.50323000  1.0
  H  H2  1  0.29700000  0.35649000  0.55843000  1.0
  H  H3  1  0.74138000  0.59820000  0.41408000  1.0
  H  H4  1  0.77599000  0.88182000  0.47101000  1.0
  H  H5  1  0.36823000  0.88927000  0.52401000  1.0
  H  H6  1  0.65537000  0.12103000  0.46436000  1.0
  H  H7  1  0.33113000  0.49484000  0.72378000  1.0
  H  H8  1  0.23910000  0.49235000  0.86697000  1.0
  H  H9  1  0.94368000  0.51901000  0.74181000  1.0
  H  H10  1  0.04956000  0.48926000  0.26292000  1.0
  H  H11  1  0.67254000  0.49734000  0.27865000  1.0
  H  H12  1  0.76264000  0.49378000  0.13611000  1.0
  H  H13  1  0.82328000  0.51328000  0.94721000  1.0
  H  H14  1  0.16828000  0.48627000  0.05800000  1.0
  C  C15  1  0.69340000  0.50508000  0.63961000  1.0
  C  C16  1  0.85565000  0.27858000  0.49638000  1.0
  C  C17  1  0.30383000  0.50317000  0.36391000  1.0
  C  C18  1  0.14643000  0.72987000  0.50465000  1.0
  C  C19  1  0.93757000  0.13807000  0.49248000  1.0
  C  C20  1  0.07542000  0.87147000  0.50073000  1.0
  C  C21  1  0.14026000  0.07070000  0.50631000  1.0
  C  C22  1  0.87613000  0.93644000  0.48225000  1.0
  C  C23  1  0.21069000  0.93947000  0.51213000  1.0
  C  C24  1  0.80880000  0.06794000  0.47871000  1.0
  C  C25  1  0.64192000  0.50643000  0.72506000  1.0
  C  C26  1  0.44327000  0.49928000  0.76014000  1.0
  C  C27  1  0.39315000  0.49728000  0.83957000  1.0
  C  C28  1  0.54163000  0.50172000  0.88562000  1.0
  C  C29  1  0.74137000  0.51012000  0.84952000  1.0
  C  C30  1  0.79063000  0.51271000  0.76962000  1.0
  C  C31  1  0.50278000  0.49769000  0.96686000  1.0
  C  C32  1  0.49324000  0.49408000  0.03719000  1.0
  C  C33  1  0.45530000  0.49205000  0.11837000  1.0
  C  C34  1  0.25335000  0.48954000  0.15510000  1.0
  C  C35  1  0.20454000  0.49097000  0.23483000  1.0
  C  C36  1  0.35567000  0.49547000  0.27883000  1.0
  C  C37  1  0.55693000  0.49561000  0.24308000  1.0
  C  C38  1  0.60671000  0.49368000  0.16382000  1.0
  N  N39  1  0.29284000  0.14062000  0.50718000  1.0
  O  O40  1  0.55680000  0.48584000  0.60461000  1.0
  O  O41  1  0.98301000  0.33426000  0.51090000  1.0
  O  O42  1  0.12491000  0.49429000  0.39591000  1.0
  O  O43  1  0.33481000  0.67570000  0.51447000  1.0
  O  O44  1  0.44395000  0.52117000  0.39784000  1.0
  O  O45  1  0.01116000  0.67573000  0.49618000  1.0
  O  O46  1  0.86817000  0.52098000  0.60798000  1.0
  O  O47  1  0.66596000  0.32967000  0.48789000  1.0
  O  O48  1  0.26290000  0.44423000  0.53625000  1.0
  O  O49  1  0.73583000  0.56198000  0.46724000  1.0
  O  O50  1  0.36356000  0.18118000  0.44281000  1.0
  O  O51  1  0.34570000  0.15021000  0.56951000  1.0
  O  O52  1  0.88686000  0.51554000  0.89304000  1.0
  O  O53  1  0.10495000  0.48663000  0.11224000  1.0
