# generated using pymatgen
data_ZrP3H20C9(NO3)3
_symmetry_space_group_name_H-M   'P 1'
_cell_length_a   9.71056000
_cell_length_b   11.84379165
_cell_length_c   11.90650000
_cell_angle_alpha   113.04486216
_cell_angle_beta   104.84100000
_cell_angle_gamma   102.83047035
_symmetry_Int_Tables_number   1
_chemical_formula_structural   ZrP3H20C9(NO3)3
_chemical_formula_sum   'Zr2 P6 H40 C18 N6 O18'
_cell_volume   1135.26367138
_cell_formula_units_Z   2
loop_
 _symmetry_equiv_pos_site_id
 _symmetry_equiv_pos_as_xyz
  1  'x, y, z'
loop_
 _atom_site_type_symbol
 _atom_site_label
 _atom_site_symmetry_multiplicity
 _atom_site_fract_x
 _atom_site_fract_y
 _atom_site_fract_z
 _atom_site_occupancy
  Zr  Zr0  1  0.00005000  0.00009000  0.00002000  1.0
  Zr  Zr1  1  0.49997000  0.99991000  0.99990000  1.0
  P  P2  1  0.75012000  0.12382000  0.86735000  1.0
  P  P3  1  0.66283000  0.75582000  0.89379000  1.0
  P  P4  1  0.86917000  0.13120000  0.23912000  1.0
  P  P5  1  0.24989000  0.87626000  0.13262000  1.0
  P  P6  1  0.33731000  0.24415000  0.10623000  1.0
  P  P7  1  0.13073000  0.86877000  0.76083000  1.0
  H  H8  1  0.65844000  0.89356000  0.71481000  1.0
  H  H9  1  0.69910000  0.15644000  0.59822000  1.0
  H  H10  1  0.41188000  0.93056000  0.64472000  1.0
  H  H11  1  0.23756000  0.97463000  0.47947000  1.0
  H  H12  1  0.52165000  0.90511000  0.32958000  1.0
  H  H13  1  0.18942000  0.01606000  0.30746000  1.0
  H  H14  1  0.15388000  0.84161000  0.57451000  1.0
  H  H15  1  0.77631000  0.80086000  0.11523000  1.0
  H  H16  1  0.52308000  0.44331000  0.82599000  1.0
  H  H17  1  0.51234000  0.72651000  0.10927000  1.0
  H  H18  1  0.29470000  0.54167000  0.07353000  1.0
  H  H19  1  0.59420000  0.38878000  0.05992000  1.0
  H  H20  1  0.16726000  0.31660000  0.98984000  1.0
  H  H21  1  0.90335000  0.29634000  0.17147000  1.0
  H  H22  1  0.08774000  0.37313000  0.53757000  1.0
  H  H23  1  0.76531000  0.39588000  0.30323000  1.0
  H  H24  1  0.78310000  0.56355000  0.52533000  1.0
  H  H25  1  0.19767000  0.65162000  0.57065000  1.0
  H  H26  1  0.91924000  0.70546000  0.74409000  1.0
  H  H27  1  0.49363000  0.44762000  0.24430000  1.0
  H  H28  1  0.34159000  0.10650000  0.28515000  1.0
  H  H29  1  0.30090000  0.84363000  0.40182000  1.0
  H  H30  1  0.58816000  0.06953000  0.35532000  1.0
  H  H31  1  0.76252000  0.02550000  0.52059000  1.0
  H  H32  1  0.47845000  0.09497000  0.67044000  1.0
  H  H33  1  0.81065000  0.98398000  0.69259000  1.0
  H  H34  1  0.84604000  0.15833000  0.42546000  1.0
  H  H35  1  0.22369000  0.19910000  0.88479000  1.0
  H  H36  1  0.47689000  0.55663000  0.17399000  1.0
  H  H37  1  0.48761000  0.27345000  0.89073000  1.0
  H  H38  1  0.70526000  0.45828000  0.92649000  1.0
  H  H39  1  0.40574000  0.61118000  0.94008000  1.0
  H  H40  1  0.83275000  0.68335000  0.01027000  1.0
  H  H41  1  0.09666000  0.70373000  0.82856000  1.0
  H  H42  1  0.91222000  0.62684000  0.46247000  1.0
  H  H43  1  0.23465000  0.60408000  0.69681000  1.0
  H  H44  1  0.21686000  0.43641000  0.47471000  1.0
  H  H45  1  0.80232000  0.34836000  0.42941000  1.0
  H  H46  1  0.08074000  0.29451000  0.25596000  1.0
  H  H47  1  0.50656000  0.55237000  0.75568000  1.0
  C  C48  1  0.70176000  0.98188000  0.70491000  1.0
  C  C49  1  0.66174000  0.04891000  0.53263000  1.0
  C  C50  1  0.45556000  0.99077000  0.60173000  1.0
  C  C51  1  0.73296000  0.70883000  0.02147000  1.0
  C  C52  1  0.59734000  0.47126000  0.92892000  1.0
  C  C53  1  0.48549000  0.62531000  0.03440000  1.0
  C  C54  1  0.96921000  0.29474000  0.26077000  1.0
  C  C55  1  0.11508000  0.44193000  0.49782000  1.0
  C  C56  1  0.85156000  0.41932000  0.39756000  1.0
  C  C57  1  0.29830000  0.01818000  0.29508000  1.0
  C  C58  1  0.33829000  0.95117000  0.46736000  1.0
  C  C59  1  0.54447000  0.00929000  0.39826000  1.0
  C  C60  1  0.26703000  0.29113000  0.97855000  1.0
  C  C61  1  0.40263000  0.52871000  0.07108000  1.0
  C  C62  1  0.51444000  0.37464000  0.96558000  1.0
  C  C63  1  0.03078000  0.70529000  0.73926000  1.0
  C  C64  1  0.88489000  0.55805000  0.50224000  1.0
  C  C65  1  0.14840000  0.58066000  0.60250000  1.0
  N  N66  1  0.59484000  0.97160000  0.58818000  1.0
  N  N67  1  0.62567000  0.60500000  0.02452000  1.0
  N  N68  1  0.99093000  0.40950000  0.37759000  1.0
  N  N69  1  0.40518000  0.02840000  0.41176000  1.0
  N  N70  1  0.37427000  0.39496000  0.97545000  1.0
  N  N71  1  0.00903000  0.59048000  0.62247000  1.0
  O  O72  1  0.62284000  0.08108000  0.91847000  1.0
  O  O73  1  0.77056000  0.25210000  0.86740000  1.0
  O  O74  1  0.89702000  0.11795000  0.95747000  1.0
  O  O75  1  0.55611000  0.82983000  0.92577000  1.0
  O  O76  1  0.57298000  0.62587000  0.75301000  1.0
  O  O77  1  0.79730000  0.83350000  0.87676000  1.0
  O  O78  1  0.69571000  0.09064000  0.17856000  1.0
  O  O79  1  0.91486000  0.13563000  0.38062000  1.0
  O  O80  1  0.93147000  0.03246000  0.16126000  1.0
  O  O81  1  0.37702000  0.91885000  0.08132000  1.0
  O  O82  1  0.22938000  0.74797000  0.13256000  1.0
  O  O83  1  0.10311000  0.88229000  0.04256000  1.0
  O  O84  1  0.44388000  0.17002000  0.07415000  1.0
  O  O85  1  0.42729000  0.37410000  0.24701000  1.0
  O  O86  1  0.20282000  0.16658000  0.12335000  1.0
  O  O87  1  0.30419000  0.90927000  0.82134000  1.0
  O  O88  1  0.08500000  0.86426000  0.61931000  1.0
  O  O89  1  0.06847000  0.96756000  0.83867000  1.0
