# generated using pymatgen
data_BaH16C20(IN2)2
_symmetry_space_group_name_H-M   'P 1'
_cell_length_a   9.13492000
_cell_length_b   10.90800000
_cell_length_c   11.18460000
_cell_angle_alpha   88.94900000
_cell_angle_beta   78.24700000
_cell_angle_gamma   81.76370000
_symmetry_Int_Tables_number   1
_chemical_formula_structural   BaH16C20(IN2)2
_chemical_formula_sum   'Ba2 H32 C40 I4 N8'
_cell_volume   1079.78820633
_cell_formula_units_Z   2
loop_
 _symmetry_equiv_pos_site_id
 _symmetry_equiv_pos_as_xyz
  1  'x, y, z'
loop_
 _atom_site_type_symbol
 _atom_site_label
 _atom_site_symmetry_multiplicity
 _atom_site_fract_x
 _atom_site_fract_y
 _atom_site_fract_z
 _atom_site_occupancy
  Ba  Ba0  1  0.74114000  0.88917000  0.61158000  1.0
  Ba  Ba1  1  0.25886000  0.11083000  0.38842000  1.0
  H  H2  1  0.01269000  0.36737000  0.68537000  1.0
  H  H3  1  0.98731000  0.63263000  0.31463000  1.0
  H  H4  1  0.28289000  0.38788000  0.60465000  1.0
  H  H5  1  0.71711000  0.61212000  0.39535000  1.0
  H  H6  1  0.34720000  0.59620000  0.52255000  1.0
  H  H7  1  0.65280000  0.40380000  0.47745000  1.0
  H  H8  1  0.13955000  0.77001000  0.52749000  1.0
  H  H9  1  0.86045000  0.23000000  0.47251000  1.0
  H  H10  1  0.81474000  0.38991000  0.81904000  1.0
  H  H11  1  0.18526000  0.61008000  0.18096000  1.0
  H  H12  1  0.54245000  0.38335000  0.90229000  1.0
  H  H13  1  0.45755000  0.61665000  0.09771000  1.0
  H  H14  1  0.34923000  0.53983000  0.82967000  1.0
  H  H15  1  0.65076000  0.46017000  0.17033000  1.0
  H  H16  1  0.44213000  0.70269000  0.68426000  1.0
  H  H17  1  0.55787000  0.29731000  0.31574000  1.0
  H  H18  1  0.39999000  0.83303000  0.12676000  1.0
  H  H19  1  0.60001000  0.16697000  0.87324000  1.0
  H  H20  1  0.14549000  0.90075000  0.08883000  1.0
  H  H21  1  0.85451000  0.09925000  0.91117000  1.0
  H  H22  1  0.11741000  0.97052000  0.87444000  1.0
  H  H23  1  0.88259000  0.02948000  0.12556000  1.0
  H  H24  1  0.34882000  0.96873000  0.71455000  1.0
  H  H25  1  0.65117000  0.03127000  0.28545000  1.0
  H  H26  1  0.60410000  0.76644000  0.14831000  1.0
  H  H27  1  0.39590000  0.23356000  0.85168000  1.0
  H  H28  1  0.86377000  0.69079000  0.16853000  1.0
  H  H29  1  0.13623000  0.30922000  0.83147000  1.0
  H  H30  1  0.07758000  0.70184000  0.98650000  1.0
  H  H31  1  0.92242000  0.29815000  0.01350000  1.0
  H  H32  1  0.01407000  0.79403000  0.79448000  1.0
  H  H33  1  0.98593000  0.20597000  0.20552000  1.0
  C  C34  1  0.93383000  0.56123000  0.65793000  1.0
  C  C35  1  0.06617000  0.43877000  0.34207000  1.0
  C  C36  1  0.04455000  0.45744000  0.65569000  1.0
  C  C37  1  0.95545000  0.54256000  0.34431000  1.0
  C  C38  1  0.19538000  0.46821000  0.60829000  1.0
  C  C39  1  0.80462000  0.53179000  0.39171000  1.0
  C  C40  1  0.23173000  0.58210000  0.56262000  1.0
  C  C41  1  0.76827000  0.41790000  0.43739000  1.0
  C  C42  1  0.11505000  0.68027000  0.56523000  1.0
  C  C43  1  0.88495000  0.31973000  0.43477000  1.0
  C  C44  1  0.77243000  0.55333000  0.71036000  1.0
  C  C45  1  0.22757000  0.44667000  0.28964000  1.0
  C  C46  1  0.72979000  0.45905000  0.79164000  1.0
  C  C47  1  0.27020000  0.54095000  0.20836000  1.0
  C  C48  1  0.57710000  0.45448000  0.83734000  1.0
  C  C49  1  0.42290000  0.54552000  0.16266000  1.0
  C  C50  1  0.46996000  0.54177000  0.79864000  1.0
  C  C51  1  0.53003000  0.45823000  0.20136000  1.0
  C  C52  1  0.52134000  0.63258000  0.71801000  1.0
  C  C53  1  0.47866000  0.36742000  0.28199000  1.0
  C  C54  1  0.51256000  0.85831000  0.93828000  1.0
  C  C55  1  0.48743000  0.14170000  0.06172000  1.0
  C  C56  1  0.38691000  0.85940000  0.03465000  1.0
  C  C57  1  0.61309000  0.14060000  0.96535000  1.0
  C  C58  1  0.24275000  0.89870000  0.01330000  1.0
  C  C59  1  0.75725000  0.10130000  0.98670000  1.0
  C  C60  1  0.22678000  0.93726000  0.89678000  1.0
  C  C61  1  0.77321000  0.06274000  0.10322000  1.0
  C  C62  1  0.35686000  0.93629000  0.80643000  1.0
  C  C63  1  0.64314000  0.06371000  0.19357000  1.0
  C  C64  1  0.66824000  0.81410000  0.95597000  1.0
  C  C65  1  0.33176000  0.18590000  0.04403000  1.0
  C  C66  1  0.69513000  0.76750000  0.06859000  1.0
  C  C67  1  0.30487000  0.23251000  0.93141000  1.0
  C  C68  1  0.84232000  0.72555000  0.08097000  1.0
  C  C69  1  0.15768000  0.27445000  0.91903000  1.0
  C  C70  1  0.96023000  0.73231000  0.98120000  1.0
  C  C71  1  0.03978000  0.26769000  0.01880000  1.0
  C  C72  1  0.92489000  0.78302000  0.87357000  1.0
  C  C73  1  0.07512000  0.21698000  0.12643000  1.0
  I  I74  1  0.48584000  0.82337000  0.42015000  1.0
  I  I75  1  0.51416000  0.17662000  0.57985000  1.0
  I  I76  1  0.00199000  0.08734000  0.66799000  1.0
  I  I77  1  0.99801000  0.91265000  0.33200000  1.0
  N  N78  1  0.96924000  0.67110000  0.61130000  1.0
  N  N79  1  0.03076000  0.32890000  0.38870000  1.0
  N  N80  1  0.66816000  0.64048000  0.67653000  1.0
  N  N81  1  0.33184000  0.35952000  0.32347000  1.0
  N  N82  1  0.49651000  0.89795000  0.82560000  1.0
  N  N83  1  0.50349000  0.10205000  0.17440000  1.0
  N  N84  1  0.78330000  0.82176000  0.85965000  1.0
  N  N85  1  0.21670000  0.17824000  0.14035000  1.0
