# generated using pymatgen
data_SnH28C22O3
_symmetry_space_group_name_H-M   'P 1'
_cell_length_a   10.24790000
_cell_length_b   10.84020000
_cell_length_c   10.84030000
_cell_angle_alpha   65.20590000
_cell_angle_beta   72.09560000
_cell_angle_gamma   72.09620000
_symmetry_Int_Tables_number   1
_chemical_formula_structural   SnH28C22O3
_chemical_formula_sum   'Sn2 H56 C44 O6'
_cell_volume   1017.84070462
_cell_formula_units_Z   2
loop_
 _symmetry_equiv_pos_site_id
 _symmetry_equiv_pos_as_xyz
  1  'x, y, z'
loop_
 _atom_site_type_symbol
 _atom_site_label
 _atom_site_symmetry_multiplicity
 _atom_site_fract_x
 _atom_site_fract_y
 _atom_site_fract_z
 _atom_site_occupancy
  Sn  Sn0  1  0.43633000  0.32160000  0.50887000  1.0
  Sn  Sn1  1  0.93632000  0.50888000  0.32159000  1.0
  H  H2  1  0.61590000  0.62940000  0.55206000  1.0
  H  H3  1  0.11590000  0.55206000  0.62941000  1.0
  H  H4  1  0.54403000  0.77634000  0.69238000  1.0
  H  H5  1  0.04402000  0.69237000  0.77635000  1.0
  H  H6  1  0.23214000  0.81724000  0.39994000  1.0
  H  H7  1  0.73214000  0.39993000  0.81723000  1.0
  H  H8  1  0.15827000  0.96580000  0.54301000  1.0
  H  H9  1  0.65826000  0.54301000  0.96580000  1.0
  H  H10  1  0.31310000  0.94700000  0.68937000  1.0
  H  H11  1  0.81309000  0.68935000  0.94701000  1.0
  H  H12  1  0.32153000  0.58573000  0.22505000  1.0
  H  H13  1  0.82153000  0.22504000  0.58572000  1.0
  H  H14  1  0.58611000  0.83826000  0.20040000  1.0
  H  H15  1  0.08611000  0.20040000  0.83826000  1.0
  H  H16  1  0.32416000  0.71022000  0.97044000  1.0
  H  H17  1  0.82416000  0.97043000  0.71022000  1.0
  H  H18  1  0.46052000  0.89651000  0.83261000  1.0
  H  H19  1  0.96052000  0.83262000  0.89650000  1.0
  H  H20  1  0.41731000  0.13040000  0.42547000  1.0
  H  H21  1  0.91731000  0.42547000  0.13040000  1.0
  H  H22  1  0.37042000  0.29785000  0.30282000  1.0
  H  H23  1  0.87042000  0.30282000  0.29785000  1.0
  H  H24  1  0.55310000  0.04182000  0.23346000  1.0
  H  H25  1  0.05309000  0.23345000  0.04182000  1.0
  H  H26  1  0.51237000  0.20681000  0.10750000  1.0
  H  H27  1  0.01236000  0.10749000  0.20682000  1.0
  H  H28  1  0.67511000  0.14082000  0.32988000  1.0
  H  H29  1  0.17511000  0.32988000  0.14082000  1.0
  H  H30  1  0.62880000  0.30616000  0.20593000  1.0
  H  H31  1  0.12879000  0.20593000  0.30616000  1.0
  H  H32  1  0.77460000  0.20701000  0.01774000  1.0
  H  H33  1  0.27459000  0.01774000  0.20702000  1.0
  H  H34  1  0.72761000  0.07127000  0.00166000  1.0
  H  H35  1  0.22761000  0.00166000  0.07127000  1.0
  H  H36  1  0.81082000  0.03591000  0.13739000  1.0
  H  H37  1  0.31081000  0.13739000  0.03591000  1.0
  H  H38  1  0.40853000  0.14926000  0.77290000  1.0
  H  H39  1  0.90854000  0.77289000  0.14926000  1.0
  H  H40  1  0.59001000  0.14082000  0.69566000  1.0
  H  H41  1  0.09002000  0.69566000  0.14082000  1.0
  H  H42  1  0.59091000  0.96124000  0.94838000  1.0
  H  H43  1  0.09091000  0.94838000  0.96123000  1.0
  H  H44  1  0.27078000  0.34356000  0.86140000  1.0
  H  H45  1  0.77078000  0.86140000  0.34355000  1.0
  H  H46  1  0.32860000  0.47838000  0.71117000  1.0
  H  H47  1  0.82860000  0.71117000  0.47837000  1.0
  H  H48  1  0.37838000  0.40794000  0.00206000  1.0
  H  H49  1  0.87837000  0.00206000  0.40794000  1.0
  H  H50  1  0.25564000  0.55071000  0.91602000  1.0
  H  H51  1  0.75563000  0.91602000  0.55070000  1.0
  H  H52  1  0.43806000  0.54264000  0.84914000  1.0
  H  H53  1  0.93805000  0.84913000  0.54264000  1.0
  H  H54  1  0.52847000  0.23759000  0.88154000  1.0
  H  H55  1  0.02847000  0.88154000  0.23760000  1.0
  H  H56  1  0.57700000  0.36523000  0.71971000  1.0
  H  H57  1  0.07699000  0.71971000  0.36524000  1.0
  C  C58  1  0.46206000  0.61947000  0.38143000  1.0
  C  C59  1  0.96206000  0.38143000  0.61946000  1.0
  C  C60  1  0.42951000  0.71462000  0.46416000  1.0
  C  C61  1  0.92951000  0.46416000  0.71462000  1.0
  C  C62  1  0.51590000  0.70350000  0.54777000  1.0
  C  C63  1  0.01590000  0.54777000  0.70350000  1.0
  C  C64  1  0.47482000  0.78750000  0.62768000  1.0
  C  C65  1  0.97482000  0.62767000  0.78751000  1.0
  C  C66  1  0.30071000  0.80998000  0.46324000  1.0
  C  C67  1  0.80071000  0.46323000  0.80999000  1.0
  C  C68  1  0.25922000  0.89302000  0.54358000  1.0
  C  C69  1  0.75921000  0.54356000  0.89303000  1.0
  C  C70  1  0.34674000  0.88226000  0.62609000  1.0
  C  C71  1  0.84673000  0.62608000  0.88227000  1.0
  C  C72  1  0.38053000  0.66781000  0.16290000  1.0
  C  C73  1  0.88053000  0.16290000  0.66780000  1.0
  C  C74  1  0.45483000  0.70311000  0.22767000  1.0
  C  C75  1  0.95483000  0.22768000  0.70310000  1.0
  C  C76  1  0.52904000  0.81027000  0.14966000  1.0
  C  C77  1  0.02903000  0.14967000  0.81027000  1.0
  C  C78  1  0.38187000  0.73813000  0.02095000  1.0
  C  C79  1  0.88187000  0.02095000  0.73812000  1.0
  C  C80  1  0.45848000  0.84252000  0.94333000  1.0
  C  C81  1  0.95848000  0.94333000  0.84252000  1.0
  C  C82  1  0.61507000  0.53413000  0.37598000  1.0
  C  C83  1  0.11506000  0.37599000  0.53411000  1.0
  C  C84  1  0.45149000  0.22944000  0.36237000  1.0
  C  C85  1  0.95149000  0.36237000  0.22944000  1.0
  C  C86  1  0.59122000  0.13914000  0.17085000  1.0
  C  C87  1  0.09122000  0.17084000  0.13914000  1.0
  C  C88  1  0.59458000  0.20682000  0.26819000  1.0
  C  C89  1  0.09457000  0.26819000  0.20682000  1.0
  C  C90  1  0.73303000  0.11175000  0.07696000  1.0
  C  C91  1  0.23302000  0.07696000  0.11176000  1.0
  C  C92  1  0.48876000  0.21191000  0.71109000  1.0
  C  C93  1  0.98877000  0.71110000  0.21190000  1.0
  C  C94  1  0.53187000  0.87882000  0.00814000  1.0
  C  C95  1  0.03186000  0.00814000  0.87881000  1.0
  C  C96  1  0.35515000  0.40275000  0.81076000  1.0
  C  C97  1  0.85514000  0.81076000  0.40275000  1.0
  C  C98  1  0.35699000  0.48003000  0.89946000  1.0
  C  C99  1  0.85698000  0.89946000  0.48003000  1.0
  C  C100  1  0.49481000  0.30471000  0.78243000  1.0
  C  C101  1  0.99482000  0.78242000  0.30471000  1.0
  O  O102  1  0.63524000  0.40254000  0.41909000  1.0
  O  O103  1  0.13523000  0.41910000  0.40253000  1.0
  O  O104  1  0.71275000  0.60171000  0.32395000  1.0
  O  O105  1  0.21275000  0.32396000  0.60169000  1.0
  O  O106  1  0.36518000  0.53156000  0.44558000  1.0
  O  O107  1  0.86517000  0.44559000  0.53155000  1.0
