# generated using pymatgen
data_CdH6C8I2(BrN2)2
_symmetry_space_group_name_H-M   'P 1'
_cell_length_a   4.03648000
_cell_length_b   10.47660000
_cell_length_c   16.89170000
_cell_angle_alpha   89.99990000
_cell_angle_beta   89.99970000
_cell_angle_gamma   89.45660000
_symmetry_Int_Tables_number   1
_chemical_formula_structural   CdH6C8I2(BrN2)2
_chemical_formula_sum   'Cd2 H12 C16 I4 Br4 N8'
_cell_volume   714.29398830
_cell_formula_units_Z   2
loop_
 _symmetry_equiv_pos_site_id
 _symmetry_equiv_pos_as_xyz
  1  'x, y, z'
loop_
 _atom_site_type_symbol
 _atom_site_label
 _atom_site_symmetry_multiplicity
 _atom_site_fract_x
 _atom_site_fract_y
 _atom_site_fract_z
 _atom_site_occupancy
  Cd  Cd0  1  0.50000000  0.50000000  0.50000000  1.0
  Cd  Cd1  1  0.49999000  0.00000000  0.00000000  1.0
  H  H2  1  0.29024000  0.20285000  0.52356000  1.0
  H  H3  1  0.70977000  0.29715000  0.02356000  1.0
  H  H4  1  0.70977000  0.79715000  0.47644000  1.0
  H  H5  1  0.29023000  0.70285000  0.97644000  1.0
  H  H6  1  0.78058000  0.26765000  0.78363000  1.0
  H  H7  1  0.21942000  0.23235000  0.28363000  1.0
  H  H8  1  0.21942000  0.73235000  0.21637000  1.0
  H  H9  1  0.78058000  0.76765000  0.71637000  1.0
  H  H10  1  0.71706000  0.45058000  0.68635000  1.0
  H  H11  1  0.28294000  0.04942000  0.18635000  1.0
  H  H12  1  0.28295000  0.54942000  0.31365000  1.0
  H  H13  1  0.71705000  0.95058000  0.81364000  1.0
  C  C14  1  0.39815000  0.21718000  0.58203000  1.0
  C  C15  1  0.60185000  0.28282000  0.08204000  1.0
  C  C16  1  0.60185000  0.78282000  0.41796000  1.0
  C  C17  1  0.39815000  0.71718000  0.91796000  1.0
  C  C18  1  0.42611000  0.11869000  0.63780000  1.0
  C  C19  1  0.57390000  0.38131000  0.13780000  1.0
  C  C20  1  0.57390000  0.88131000  0.36220000  1.0
  C  C21  1  0.42610000  0.61869000  0.86220000  1.0
  C  C22  1  0.66836000  0.25354000  0.72557000  1.0
  C  C23  1  0.33164000  0.24646000  0.22557000  1.0
  C  C24  1  0.33165000  0.74646000  0.27444000  1.0
  C  C25  1  0.66836000  0.75354000  0.77444000  1.0
  C  C26  1  0.63768000  0.35415000  0.67184000  1.0
  C  C27  1  0.36231000  0.14585000  0.17184000  1.0
  C  C28  1  0.36233000  0.64584000  0.32816000  1.0
  C  C29  1  0.63767000  0.85416000  0.82816000  1.0
  I  I30  1  0.24786000  0.93503000  0.60944000  1.0
  I  I31  1  0.75215000  0.56497000  0.10945000  1.0
  I  I32  1  0.75214000  0.06497000  0.39055000  1.0
  I  I33  1  0.24785000  0.43503000  0.89055000  1.0
  Br  Br34  1  0.00204000  0.62799000  0.58233000  1.0
  Br  Br35  1  0.99795000  0.87201000  0.08233000  1.0
  Br  Br36  1  0.99796000  0.37201000  0.41768000  1.0
  Br  Br37  1  0.00204000  0.12799000  0.91767000  1.0
  N  N38  1  0.50612000  0.33436000  0.59979000  1.0
  N  N39  1  0.49389000  0.16565000  0.09978000  1.0
  N  N40  1  0.49390000  0.66564000  0.40022000  1.0
  N  N41  1  0.50610000  0.83436000  0.90021000  1.0
  N  N42  1  0.56364000  0.13549000  0.70843000  1.0
  N  N43  1  0.43637000  0.36451000  0.20844000  1.0
  N  N44  1  0.43637000  0.86451000  0.29156000  1.0
  N  N45  1  0.56363000  0.63549000  0.79156000  1.0
