# generated using pymatgen
data_MnH9C14NO7
_symmetry_space_group_name_H-M   'P 1'
_cell_length_a   7.40539000
_cell_length_b   10.06010000
_cell_length_c   10.64769891
_cell_angle_alpha   101.79653945
_cell_angle_beta   109.43144057
_cell_angle_gamma   109.96130000
_symmetry_Int_Tables_number   1
_chemical_formula_structural   MnH9C14NO7
_chemical_formula_sum   'Mn2 H18 C28 N2 O14'
_cell_volume   656.30934328
_cell_formula_units_Z   2
loop_
 _symmetry_equiv_pos_site_id
 _symmetry_equiv_pos_as_xyz
  1  'x, y, z'
loop_
 _atom_site_type_symbol
 _atom_site_label
 _atom_site_symmetry_multiplicity
 _atom_site_fract_x
 _atom_site_fract_y
 _atom_site_fract_z
 _atom_site_occupancy
  Mn  Mn0  1  0.30786000  0.08993000  0.93320000  1.0
  Mn  Mn1  1  0.69214000  0.91007000  0.06680000  1.0
  H  H2  1  0.46838000  0.13652000  0.22420000  1.0
  H  H3  1  0.53163000  0.86347000  0.77580000  1.0
  H  H4  1  0.21720000  0.03774000  0.14319000  1.0
  H  H5  1  0.78280000  0.96226000  0.85681000  1.0
  H  H6  1  0.30011000  0.56151000  0.95434000  1.0
  H  H7  1  0.69989000  0.43849000  0.04566000  1.0
  H  H8  1  0.74539000  0.62521000  0.74465000  1.0
  H  H9  1  0.25460000  0.37479000  0.25535000  1.0
  H  H10  1  0.67735000  0.17917000  0.74239000  1.0
  H  H11  1  0.32264000  0.82083000  0.25761000  1.0
  H  H12  1  0.49891000  0.16760000  0.50023000  1.0
  H  H13  1  0.50109000  0.83240000  0.49977000  1.0
  H  H14  1  0.10523000  0.02617000  0.34018000  1.0
  H  H15  1  0.89477000  0.97383000  0.65982000  1.0
  H  H16  1  0.01996000  0.36833000  0.59836000  1.0
  H  H17  1  0.98005000  0.63167000  0.40164000  1.0
  H  H18  1  0.41396000  0.48457000  0.76487000  1.0
  H  H19  1  0.58605000  0.51543000  0.23513000  1.0
  C  C20  1  0.10257000  0.25853000  0.88713000  1.0
  C  C21  1  0.89743000  0.74147000  0.11287000  1.0
  C  C22  1  0.00090000  0.35934000  0.84988000  1.0
  C  C23  1  0.99910000  0.64066000  0.15012000  1.0
  C  C24  1  0.12794000  0.51425000  0.89163000  1.0
  C  C25  1  0.87205000  0.48575000  0.10837000  1.0
  C  C26  1  0.03551000  0.60927000  0.85520000  1.0
  C  C27  1  0.96448000  0.39073000  0.14480000  1.0
  C  C28  1  0.17545000  0.77569000  0.90679000  1.0
  C  C29  1  0.82455000  0.22431000  0.09321000  1.0
  C  C30  1  0.81476000  0.54957000  0.77316000  1.0
  C  C31  1  0.18524000  0.45043000  0.22684000  1.0
  C  C32  1  0.69064000  0.39425000  0.73108000  1.0
  C  C33  1  0.30936000  0.60575000  0.26892000  1.0
  C  C34  1  0.77954000  0.29864000  0.77055000  1.0
  C  C35  1  0.22047000  0.70136000  0.22946000  1.0
  C  C36  1  0.38307000  0.20034000  0.52143000  1.0
  C  C37  1  0.61693000  0.79965000  0.47857000  1.0
  C  C38  1  0.16764000  0.12673000  0.43317000  1.0
  C  C39  1  0.83236000  0.87326000  0.56683000  1.0
  C  C40  1  0.03118000  0.18475000  0.45928000  1.0
  C  C41  1  0.96881000  0.81525000  0.54071000  1.0
  C  C42  1  0.12089000  0.31884000  0.57666000  1.0
  C  C43  1  0.87910000  0.68116000  0.42333000  1.0
  C  C44  1  0.33657000  0.38591000  0.66741000  1.0
  C  C45  1  0.66342000  0.61410000  0.33258000  1.0
  C  C46  1  0.79551000  0.10441000  0.36156000  1.0
  C  C47  1  0.20448000  0.89558000  0.63843000  1.0
  N  N48  1  0.46483000  0.32656000  0.63878000  1.0
  N  N49  1  0.53517000  0.67344000  0.36122000  1.0
  O  O50  1  0.98410000  0.11908000  0.85691000  1.0
  O  O51  1  0.01590000  0.88092000  0.14309000  1.0
  O  O52  1  0.30562000  0.31294000  0.94358000  1.0
  O  O53  1  0.69438000  0.68706000  0.05642000  1.0
  O  O54  1  0.36908000  0.82485000  0.99427000  1.0
  O  O55  1  0.63092000  0.17515000  0.00573000  1.0
  O  O56  1  0.33527000  0.12387000  0.14526000  1.0
  O  O57  1  0.66473000  0.87613000  0.85474000  1.0
  O  O58  1  0.09263000  0.85875000  0.86241000  1.0
  O  O59  1  0.90737000  0.14125000  0.13759000  1.0
  O  O60  1  0.72436000  0.96847000  0.27717000  1.0
  O  O61  1  0.27565000  0.03153000  0.72283000  1.0
  O  O62  1  0.68567000  0.17586000  0.36994000  1.0
  O  O63  1  0.31433000  0.82413000  0.63007000  1.0
