# generated using pymatgen
data_AgH6C6SNO3
_symmetry_space_group_name_H-M   'P 1'
_cell_length_a   8.76826000
_cell_length_b   9.22519000
_cell_length_c   9.42626000
_cell_angle_alpha   99.83550000
_cell_angle_beta   89.99970000
_cell_angle_gamma   89.99990000
_symmetry_Int_Tables_number   1
_chemical_formula_structural   AgH6C6SNO3
_chemical_formula_sum   'Ag4 H24 C24 S4 N4 O12'
_cell_volume   751.27273416
_cell_formula_units_Z   4
loop_
 _symmetry_equiv_pos_site_id
 _symmetry_equiv_pos_as_xyz
  1  'x, y, z'
loop_
 _atom_site_type_symbol
 _atom_site_label
 _atom_site_symmetry_multiplicity
 _atom_site_fract_x
 _atom_site_fract_y
 _atom_site_fract_z
 _atom_site_occupancy
  Ag  Ag0  1  0.28724000  0.96326000  0.39447000  1.0
  Ag  Ag1  1  0.78724000  0.03674000  0.10554000  1.0
  Ag  Ag2  1  0.71276000  0.03674000  0.60554000  1.0
  Ag  Ag3  1  0.21276000  0.96326000  0.89446000  1.0
  H  H4  1  0.99518000  0.42721000  0.07760000  1.0
  H  H5  1  0.49518000  0.57279000  0.42240000  1.0
  H  H6  1  0.00482000  0.57279000  0.92240000  1.0
  H  H7  1  0.50482000  0.42721000  0.57760000  1.0
  H  H8  1  0.98206000  0.69608000  0.17495000  1.0
  H  H9  1  0.48206000  0.30392000  0.32505000  1.0
  H  H10  1  0.01793000  0.30392000  0.82505000  1.0
  H  H11  1  0.51794000  0.69608000  0.67495000  1.0
  H  H12  1  0.21396000  0.62026000  0.55909000  1.0
  H  H13  1  0.71396000  0.37975000  0.94091000  1.0
  H  H14  1  0.78604000  0.37975000  0.44091000  1.0
  H  H15  1  0.28604000  0.62026000  0.05909000  1.0
  H  H16  1  0.23231000  0.35411000  0.45887000  1.0
  H  H17  1  0.73231000  0.64589000  0.04113000  1.0
  H  H18  1  0.76769000  0.64589000  0.54113000  1.0
  H  H19  1  0.26769000  0.35412000  0.95887000  1.0
  H  H20  1  0.06390000  0.84472000  0.53926000  1.0
  H  H21  1  0.56391000  0.15528000  0.96074000  1.0
  H  H22  1  0.93610000  0.15528000  0.46074000  1.0
  H  H23  1  0.43610000  0.84472000  0.03926000  1.0
  H  H24  1  0.99561000  0.87200000  0.38056000  1.0
  H  H25  1  0.49561000  0.12800000  0.11944000  1.0
  H  H26  1  0.00439000  0.12800000  0.61944000  1.0
  H  H27  1  0.50439000  0.87200000  0.88056000  1.0
  C  C28  1  0.11556000  0.37570000  0.26110000  1.0
  C  C29  1  0.61556000  0.62430000  0.23889000  1.0
  C  C30  1  0.88444000  0.62430000  0.73890000  1.0
  C  C31  1  0.38444000  0.37570000  0.76110000  1.0
  C  C32  1  0.04489000  0.47126000  0.18169000  1.0
  C  C33  1  0.54489000  0.52874000  0.31831000  1.0
  C  C34  1  0.95511000  0.52874000  0.81831000  1.0
  C  C35  1  0.45511000  0.47126000  0.68169000  1.0
  C  C36  1  0.03718000  0.62085000  0.23635000  1.0
  C  C37  1  0.53718000  0.37915000  0.26365000  1.0
  C  C38  1  0.96282000  0.37915000  0.76365000  1.0
  C  C39  1  0.46282000  0.62085000  0.73635000  1.0
  C  C40  1  0.09688000  0.67499000  0.37299000  1.0
  C  C41  1  0.59688000  0.32501000  0.12701000  1.0
  C  C42  1  0.90312000  0.32501000  0.62702000  1.0
  C  C43  1  0.40312000  0.67499000  0.87298000  1.0
  C  C44  1  0.16756000  0.57839000  0.45263000  1.0
  C  C45  1  0.66756000  0.42160000  0.04737000  1.0
  C  C46  1  0.83244000  0.42160000  0.54737000  1.0
  C  C47  1  0.33244000  0.57840000  0.95263000  1.0
  C  C48  1  0.17714000  0.42905000  0.39709000  1.0
  C  C49  1  0.67713000  0.57095000  0.10291000  1.0
  C  C50  1  0.82287000  0.57095000  0.60291000  1.0
  C  C51  1  0.32287000  0.42905000  0.89709000  1.0
  S  S52  1  0.12042000  0.18564000  0.18992000  1.0
  S  S53  1  0.62042000  0.81436000  0.31008000  1.0
  S  S54  1  0.87958000  0.81436000  0.81008000  1.0
  S  S55  1  0.37958000  0.18563000  0.68992000  1.0
  N  N56  1  0.08412000  0.82729000  0.42985000  1.0
  N  N57  1  0.58412000  0.17271000  0.07015000  1.0
  N  N58  1  0.91588000  0.17270000  0.57015000  1.0
  N  N59  1  0.41588000  0.82730000  0.92985000  1.0
  O  O60  1  0.00340000  0.11413000  0.26903000  1.0
  O  O61  1  0.50340000  0.88587000  0.23097000  1.0
  O  O62  1  0.99660000  0.88587000  0.73098000  1.0
  O  O63  1  0.49659000  0.11413000  0.76902000  1.0
  O  O64  1  0.27501000  0.13194000  0.21442000  1.0
  O  O65  1  0.77501000  0.86806000  0.28559000  1.0
  O  O66  1  0.72499000  0.86806000  0.78558000  1.0
  O  O67  1  0.22499000  0.13194000  0.71441000  1.0
  O  O68  1  0.08146000  0.17208000  0.03554000  1.0
  O  O69  1  0.58145000  0.82792000  0.46446000  1.0
  O  O70  1  0.91854000  0.82792000  0.96447000  1.0
  O  O71  1  0.41854000  0.17208000  0.53553000  1.0
