# generated using pymatgen
data_Cu4SiH32W12C40(NO5)8
_symmetry_space_group_name_H-M   'P 1'
_cell_length_a   14.21800000
_cell_length_b   14.21810000
_cell_length_c   21.20420000
_cell_angle_alpha   95.20490000
_cell_angle_beta   95.20470000
_cell_angle_gamma   114.25300000
_symmetry_Int_Tables_number   1
_chemical_formula_structural   Cu4SiH32W12C40(NO5)8
_chemical_formula_sum   'Cu8 Si2 H64 W24 C80 N16 O80'
_cell_volume   3853.19893912
_cell_formula_units_Z   2
loop_
 _symmetry_equiv_pos_site_id
 _symmetry_equiv_pos_as_xyz
  1  'x, y, z'
loop_
 _atom_site_type_symbol
 _atom_site_label
 _atom_site_symmetry_multiplicity
 _atom_site_fract_x
 _atom_site_fract_y
 _atom_site_fract_z
 _atom_site_occupancy
  Cu  Cu0  1  0.63000000  0.98855000  0.22350000  1.0
  Cu  Cu1  1  0.01146000  0.37001000  0.77650000  1.0
  Cu  Cu2  1  0.37001000  0.01146000  0.77650000  1.0
  Cu  Cu3  1  0.98853000  0.62999000  0.22350000  1.0
  Cu  Cu4  1  0.77228000  0.27277000  0.26504000  1.0
  Cu  Cu5  1  0.72722000  0.22772000  0.73496000  1.0
  Cu  Cu6  1  0.22772000  0.72724000  0.73495000  1.0
  Cu  Cu7  1  0.27277000  0.77228000  0.26505000  1.0
  Si  Si8  1  0.18343000  0.18343000  0.25582000  1.0
  Si  Si9  1  0.81657000  0.81657000  0.74418000  1.0
  H  H10  1  0.82146000  0.13638000  0.65125000  1.0
  H  H11  1  0.86363000  0.17853000  0.34876000  1.0
  H  H12  1  0.17853000  0.86362000  0.34876000  1.0
  H  H13  1  0.13638000  0.82147000  0.65124000  1.0
  H  H14  1  0.57639000  0.17693000  0.41672000  1.0
  H  H15  1  0.82308000  0.42361000  0.58329000  1.0
  H  H16  1  0.42362000  0.82308000  0.58328000  1.0
  H  H17  1  0.17691000  0.57638000  0.41671000  1.0
  H  H18  1  0.57228000  0.12992000  0.30139000  1.0
  H  H19  1  0.87009000  0.42772000  0.69861000  1.0
  H  H20  1  0.42773000  0.87009000  0.69861000  1.0
  H  H21  1  0.12990000  0.57227000  0.30139000  1.0
  H  H22  1  0.71004000  0.92813000  0.33452000  1.0
  H  H23  1  0.07188000  0.28996000  0.66547000  1.0
  H  H24  1  0.28996000  0.07188000  0.66548000  1.0
  H  H25  1  0.92811000  0.71004000  0.33452000  1.0
  H  H26  1  0.69452000  0.92816000  0.10179000  1.0
  H  H27  1  0.07184000  0.30547000  0.89821000  1.0
  H  H28  1  0.30547000  0.07184000  0.89820000  1.0
  H  H29  1  0.92816000  0.69452000  0.10180000  1.0
  H  H30  1  0.71796000  0.96493000  0.45171000  1.0
  H  H31  1  0.03508000  0.28204000  0.54829000  1.0
  H  H32  1  0.28204000  0.03507000  0.54829000  1.0
  H  H33  1  0.96491000  0.71796000  0.45171000  1.0
  H  H34  1  0.60805000  0.86538000  0.99067000  1.0
  H  H35  1  0.13461000  0.39194000  0.00933000  1.0
  H  H36  1  0.39194000  0.13462000  0.00933000  1.0
  H  H37  1  0.86539000  0.60806000  0.99068000  1.0
  H  H38  1  0.43328000  0.95030000  0.16117000  1.0
  H  H39  1  0.04971000  0.56673000  0.83883000  1.0
  H  H40  1  0.56673000  0.04971000  0.83883000  1.0
  H  H41  1  0.95028000  0.43327000  0.16117000  1.0
  H  H42  1  0.33871000  0.89816000  0.05255000  1.0
  H  H43  1  0.10185000  0.66128000  0.94746000  1.0
  H  H44  1  0.66129000  0.10185000  0.94746000  1.0
  H  H45  1  0.89815000  0.33871000  0.05254000  1.0
  H  H46  1  0.79695000  0.07527000  0.53646000  1.0
  H  H47  1  0.92473000  0.20305000  0.46354000  1.0
  H  H48  1  0.20305000  0.92473000  0.46354000  1.0
  H  H49  1  0.07527000  0.79695000  0.53646000  1.0
  H  H50  1  0.26873000  0.86164000  0.96455000  1.0
  H  H51  1  0.13836000  0.73126000  0.03545000  1.0
  H  H52  1  0.73126000  0.13836000  0.03545000  1.0
  H  H53  1  0.86165000  0.26874000  0.96455000  1.0
  H  H54  1  0.53187000  0.15307000  0.51487000  1.0
  H  H55  1  0.84693000  0.46813000  0.48513000  1.0
  H  H56  1  0.46813000  0.84693000  0.48513000  1.0
  H  H57  1  0.15308000  0.53188000  0.51487000  1.0
  H  H58  1  0.17713000  0.79665000  0.85573000  1.0
  H  H59  1  0.20335000  0.82287000  0.14427000  1.0
  H  H60  1  0.82286000  0.20335000  0.14427000  1.0
  H  H61  1  0.79665000  0.17713000  0.85573000  1.0
  H  H62  1  0.57228000  0.21790000  0.63103000  1.0
  H  H63  1  0.78209000  0.42772000  0.36897000  1.0
  H  H64  1  0.42772000  0.78210000  0.36897000  1.0
  H  H65  1  0.21791000  0.57229000  0.63102000  1.0
  H  H66  1  0.42070000  0.74001000  0.79497000  1.0
  H  H67  1  0.26001000  0.57931000  0.20503000  1.0
  H  H68  1  0.57930000  0.26000000  0.20503000  1.0
  H  H69  1  0.73999000  0.42069000  0.79497000  1.0
  H  H70  1  0.52285000  0.79920000  0.90153000  1.0
  H  H71  1  0.20083000  0.47715000  0.09847000  1.0
  H  H72  1  0.47715000  0.20081000  0.09847000  1.0
  H  H73  1  0.79918000  0.52285000  0.90153000  1.0
  W  W74  1  0.04408000  0.19977000  0.10836000  1.0
  W  W75  1  0.80023000  0.95592000  0.89164000  1.0
  W  W76  1  0.95592000  0.80023000  0.89163000  1.0
  W  W77  1  0.19977000  0.04408000  0.10837000  1.0
  W  W78  1  0.03131000  0.32480000  0.24995000  1.0
  W  W79  1  0.67521000  0.96869000  0.75004000  1.0
  W  W80  1  0.96869000  0.67520000  0.75004000  1.0
  W  W81  1  0.32480000  0.03131000  0.24996000  1.0
  W  W82  1  0.32048000  0.46124000  0.28663000  1.0
  W  W83  1  0.53876000  0.67953000  0.71337000  1.0
  W  W84  1  0.67953000  0.53876000  0.71337000  1.0
  W  W85  1  0.46124000  0.32047000  0.28663000  1.0
  W  W86  1  0.33489000  0.33488000  0.14571000  1.0
  W  W87  1  0.66512000  0.66511000  0.85429000  1.0
  W  W88  1  0.16598000  0.30729000  0.40487000  1.0
  W  W89  1  0.69272000  0.83402000  0.59513000  1.0
  W  W90  1  0.83402000  0.69272000  0.59513000  1.0
  W  W91  1  0.30728000  0.16598000  0.40487000  1.0
  W  W92  1  0.90823000  0.06281000  0.21921000  1.0
  W  W93  1  0.93719000  0.09177000  0.78080000  1.0
  W  W94  1  0.09177000  0.93719000  0.78079000  1.0
  W  W95  1  0.06281000  0.90823000  0.21921000  1.0
  W  W96  1  0.04346000  0.04346000  0.37393000  1.0
  W  W97  1  0.95654000  0.95654000  0.62607000  1.0
  C  C98  1  0.75913000  0.14008000  0.61937000  1.0
  C  C99  1  0.85993000  0.24087000  0.38063000  1.0
  C  C100  1  0.24086000  0.85992000  0.38063000  1.0
  C  C101  1  0.14008000  0.75914000  0.61937000  1.0
  C  C102  1  0.60563000  0.12014000  0.40110000  1.0
  C  C103  1  0.87986000  0.39437000  0.59890000  1.0
  C  C104  1  0.39437000  0.87986000  0.59890000  1.0
  C  C105  1  0.12013000  0.60563000  0.40109000  1.0
  C  C106  1  0.66220000  0.10895000  0.51450000  1.0
  C  C107  1  0.89105000  0.33780000  0.48551000  1.0
  C  C108  1  0.33780000  0.89105000  0.48550000  1.0
  C  C109  1  0.10895000  0.66220000  0.51449000  1.0
  C  C110  1  0.46254000  0.87260000  0.01041000  1.0
  C  C111  1  0.12740000  0.53745000  0.98960000  1.0
  C  C112  1  0.53745000  0.12740000  0.98959000  1.0
  C  C113  1  0.87260000  0.46254000  0.01040000  1.0
  C  C114  1  0.60346000  0.09463000  0.33615000  1.0
  C  C115  1  0.90538000  0.39653000  0.66385000  1.0
  C  C116  1  0.39654000  0.90538000  0.66385000  1.0
  C  C117  1  0.09462000  0.60346000  0.33615000  1.0
  C  C118  1  0.40559000  0.83587000  0.94489000  1.0
  C  C119  1  0.16414000  0.59440000  0.05512000  1.0
  C  C120  1  0.59441000  0.16413000  0.05512000  1.0
  C  C121  1  0.83587000  0.40559000  0.94488000  1.0
  C  C122  1  0.68033000  0.98196000  0.35483000  1.0
  C  C123  1  0.01805000  0.31967000  0.64517000  1.0
  C  C124  1  0.31967000  0.01805000  0.64517000  1.0
  C  C125  1  0.98194000  0.68033000  0.35483000  1.0
  C  C126  1  0.61455000  0.91756000  0.08883000  1.0
  C  C127  1  0.08244000  0.38545000  0.91117000  1.0
  C  C128  1  0.38545000  0.08244000  0.91117000  1.0
  C  C129  1  0.91755000  0.61455000  0.08883000  1.0
  C  C130  1  0.68558000  0.00412000  0.42040000  1.0
  C  C131  1  0.99588000  0.31443000  0.57959000  1.0
  C  C132  1  0.31443000  0.99588000  0.57960000  1.0
  C  C133  1  0.00411000  0.68557000  0.42040000  1.0
  C  C134  1  0.56472000  0.88253000  0.02630000  1.0
  C  C135  1  0.11746000  0.43527000  0.97370000  1.0
  C  C136  1  0.43528000  0.11747000  0.97370000  1.0
  C  C137  1  0.88254000  0.56472000  0.02630000  1.0
  C  C138  1  0.46923000  0.93162000  0.12180000  1.0
  C  C139  1  0.06838000  0.53077000  0.87820000  1.0
  C  C140  1  0.53077000  0.06839000  0.87820000  1.0
  C  C141  1  0.93161000  0.46923000  0.12180000  1.0
  C  C142  1  0.41609000  0.89996000  0.06027000  1.0
  C  C143  1  0.10005000  0.58391000  0.93973000  1.0
  C  C144  1  0.58391000  0.10005000  0.93973000  1.0
  C  C145  1  0.89995000  0.41608000  0.06027000  1.0
  C  C146  1  0.74395000  0.10510000  0.55466000  1.0
  C  C147  1  0.89491000  0.25605000  0.44534000  1.0
  C  C148  1  0.25605000  0.89490000  0.44535000  1.0
  C  C149  1  0.10509000  0.74396000  0.55466000  1.0
  C  C150  1  0.30635000  0.83385000  0.92957000  1.0
  C  C151  1  0.16615000  0.69365000  0.07043000  1.0
  C  C152  1  0.69365000  0.16615000  0.07043000  1.0
  C  C153  1  0.83385000  0.30635000  0.92957000  1.0
  C  C154  1  0.59827000  0.14920000  0.54273000  1.0
  C  C155  1  0.85080000  0.40173000  0.45727000  1.0
  C  C156  1  0.40173000  0.85080000  0.45727000  1.0
  C  C157  1  0.14920000  0.59827000  0.54273000  1.0
  C  C158  1  0.64901000  0.07603000  0.44517000  1.0
  C  C159  1  0.92398000  0.35100000  0.55483000  1.0
  C  C160  1  0.35100000  0.92398000  0.55483000  1.0
  C  C161  1  0.07602000  0.64900000  0.44517000  1.0
  C  C162  1  0.25373000  0.79834000  0.86793000  1.0
  C  C163  1  0.20167000  0.74627000  0.13207000  1.0
  C  C164  1  0.74627000  0.20166000  0.13207000  1.0
  C  C165  1  0.79834000  0.25373000  0.86793000  1.0
  C  C166  1  0.61882000  0.18405000  0.60797000  1.0
  C  C167  1  0.81595000  0.38117000  0.39202000  1.0
  C  C168  1  0.38117000  0.81595000  0.39202000  1.0
  C  C169  1  0.18406000  0.61884000  0.60797000  1.0
  C  C170  1  0.38999000  0.76695000  0.83417000  1.0
  C  C171  1  0.23306000  0.61001000  0.16583000  1.0
  C  C172  1  0.61001000  0.23306000  0.16583000  1.0
  C  C173  1  0.76694000  0.38998000  0.83417000  1.0
  C  C174  1  0.44676000  0.80081000  0.89485000  1.0
  C  C175  1  0.19920000  0.55324000  0.10515000  1.0
  C  C176  1  0.55324000  0.19919000  0.10515000  1.0
  C  C177  1  0.80080000  0.44676000  0.89485000  1.0
  N  N178  1  0.64031000  0.02662000  0.31257000  1.0
  N  N179  1  0.97339000  0.35969000  0.68743000  1.0
  N  N180  1  0.35970000  0.97339000  0.68743000  1.0
  N  N181  1  0.02661000  0.64031000  0.31257000  1.0
  N  N182  1  0.56743000  0.94083000  0.13671000  1.0
  N  N183  1  0.05918000  0.43256000  0.86329000  1.0
  N  N184  1  0.43257000  0.05918000  0.86329000  1.0
  N  N185  1  0.94082000  0.56743000  0.13671000  1.0
  N  N186  1  0.29449000  0.76542000  0.81995000  1.0
  N  N187  1  0.23459000  0.70551000  0.18005000  1.0
  N  N188  1  0.70550000  0.23458000  0.18005000  1.0
  N  N189  1  0.76542000  0.29449000  0.81995000  1.0
  N  N190  1  0.69839000  0.18009000  0.64629000  1.0
  N  N191  1  0.81991000  0.30160000  0.35371000  1.0
  N  N192  1  0.30160000  0.81991000  0.35371000  1.0
  N  N193  1  0.18010000  0.69840000  0.64629000  1.0
  O  O194  1  0.91840000  0.09760000  0.13297000  1.0
  O  O195  1  0.90240000  0.08160000  0.86703000  1.0
  O  O196  1  0.08161000  0.90240000  0.86703000  1.0
  O  O197  1  0.09760000  0.91840000  0.13297000  1.0
  O  O198  1  0.96552000  0.96552000  0.19896000  1.0
  O  O199  1  0.03448000  0.03448000  0.80104000  1.0
  O  O200  1  0.97059000  0.40850000  0.25980000  1.0
  O  O201  1  0.59150000  0.02941000  0.74020000  1.0
  O  O202  1  0.02941000  0.59150000  0.74020000  1.0
  O  O203  1  0.40850000  0.97059000  0.25980000  1.0
  O  O204  1  0.95201000  0.06107000  0.30699000  1.0
  O  O205  1  0.93893000  0.04799000  0.69301000  1.0
  O  O206  1  0.04799000  0.93893000  0.69301000  1.0
  O  O207  1  0.06107000  0.95201000  0.30699000  1.0
  O  O208  1  0.09449000  0.09449000  0.09369000  1.0
  O  O209  1  0.90551000  0.90550000  0.90631000  1.0
  O  O210  1  0.95494000  0.95494000  0.41395000  1.0
  O  O211  1  0.04506000  0.04506000  0.58605000  1.0
  O  O212  1  0.06733000  0.30837000  0.33625000  1.0
  O  O213  1  0.69163000  0.93267000  0.66375000  1.0
  O  O214  1  0.93268000  0.69163000  0.66375000  1.0
  O  O215  1  0.30837000  0.06732000  0.33625000  1.0
  O  O216  1  0.17726000  0.17726000  0.33201000  1.0
  O  O217  1  0.82274000  0.82274000  0.66799000  1.0
  O  O218  1  0.00002000  0.21357000  0.03255000  1.0
  O  O219  1  0.78643000  0.99998000  0.96745000  1.0
  O  O220  1  0.99999000  0.78643000  0.96745000  1.0
  O  O221  1  0.21357000  0.00001000  0.03255000  1.0
  O  O222  1  0.90371000  0.19534000  0.24358000  1.0
  O  O223  1  0.80466000  0.09629000  0.75642000  1.0
  O  O224  1  0.09629000  0.80466000  0.75642000  1.0
  O  O225  1  0.19534000  0.90371000  0.24358000  1.0
  O  O226  1  0.77519000  0.98048000  0.21161000  1.0
  O  O227  1  0.01953000  0.22481000  0.78838000  1.0
  O  O228  1  0.22481000  0.01952000  0.78838000  1.0
  O  O229  1  0.98048000  0.77519000  0.21161000  1.0
  O  O230  1  0.07845000  0.18995000  0.22148000  1.0
  O  O231  1  0.81006000  0.92155000  0.77852000  1.0
  O  O232  1  0.92155000  0.81005000  0.77851000  1.0
  O  O233  1  0.18995000  0.07845000  0.22149000  1.0
  O  O234  1  0.28648000  0.28648000  0.24711000  1.0
  O  O235  1  0.71352000  0.71352000  0.75289000  1.0
  O  O236  1  0.27099000  0.27099000  0.44542000  1.0
  O  O237  1  0.72901000  0.72901000  0.55458000  1.0
  O  O238  1  0.01520000  0.30496000  0.15761000  1.0
  O  O239  1  0.69504000  0.98480000  0.84239000  1.0
  O  O240  1  0.98481000  0.69504000  0.84239000  1.0
  O  O241  1  0.30496000  0.01519000  0.15761000  1.0
  O  O242  1  0.06186000  0.17445000  0.42034000  1.0
  O  O243  1  0.82554000  0.93814000  0.57966000  1.0
  O  O244  1  0.93814000  0.82555000  0.57966000  1.0
  O  O245  1  0.17445000  0.06186000  0.42034000  1.0
  O  O246  1  0.17389000  0.41826000  0.25420000  1.0
  O  O247  1  0.58173000  0.82611000  0.74580000  1.0
  O  O248  1  0.82611000  0.58173000  0.74580000  1.0
  O  O249  1  0.41827000  0.17389000  0.25420000  1.0
  O  O250  1  0.44832000  0.44832000  0.30937000  1.0
  O  O251  1  0.55168000  0.55168000  0.69063000  1.0
  O  O252  1  0.35700000  0.59325000  0.30816000  1.0
  O  O253  1  0.40675000  0.64300000  0.69184000  1.0
  O  O254  1  0.64300000  0.40674000  0.69184000  1.0
  O  O255  1  0.59326000  0.35700000  0.30816000  1.0
  O  O256  1  0.18818000  0.29761000  0.12058000  1.0
  O  O257  1  0.70239000  0.81181000  0.87942000  1.0
  O  O258  1  0.81182000  0.70238000  0.87941000  1.0
  O  O259  1  0.29761000  0.18818000  0.12059000  1.0
  O  O260  1  0.15399000  0.38927000  0.46607000  1.0
  O  O261  1  0.61073000  0.84601000  0.53393000  1.0
  O  O262  1  0.84601000  0.61073000  0.53393000  1.0
  O  O263  1  0.38927000  0.15398000  0.46606000  1.0
  O  O264  1  0.38656000  0.38655000  0.07976000  1.0
  O  O265  1  0.61346000  0.61344000  0.92024000  1.0
  O  O266  1  0.26909000  0.40430000  0.36165000  1.0
  O  O267  1  0.59570000  0.73091000  0.63835000  1.0
  O  O268  1  0.73092000  0.59570000  0.63835000  1.0
  O  O269  1  0.40430000  0.26908000  0.36165000  1.0
  O  O270  1  0.34596000  0.45857000  0.19862000  1.0
  O  O271  1  0.54143000  0.65404000  0.80138000  1.0
  O  O272  1  0.65405000  0.54142000  0.80138000  1.0
  O  O273  1  0.45858000  0.34595000  0.19862000  1.0
