# generated using pymatgen
data_ZnH6(C5O2)2
_symmetry_space_group_name_H-M   'P 1'
_cell_length_a   7.50359000
_cell_length_b   15.39160000
_cell_length_c   15.39690000
_cell_angle_alpha   89.99690000
_cell_angle_beta   89.72760000
_cell_angle_gamma   89.84890000
_symmetry_Int_Tables_number   1
_chemical_formula_structural   ZnH6(C5O2)2
_chemical_formula_sum   'Zn4 H24 C40 O16'
_cell_volume   1778.19643229
_cell_formula_units_Z   4
loop_
 _symmetry_equiv_pos_site_id
 _symmetry_equiv_pos_as_xyz
  1  'x, y, z'
loop_
 _atom_site_type_symbol
 _atom_site_label
 _atom_site_symmetry_multiplicity
 _atom_site_fract_x
 _atom_site_fract_y
 _atom_site_fract_z
 _atom_site_occupancy
  Zn  Zn0  1  0.66598000  0.99998000  0.49963000  1.0
  Zn  Zn1  1  0.30765000  0.99734000  0.49740000  1.0
  Zn  Zn2  1  0.30763000  0.50251000  0.00256000  1.0
  Zn  Zn3  1  0.66597000  0.49902000  0.99872000  1.0
  H  H4  1  0.11949000  0.80574000  0.69181000  1.0
  H  H5  1  0.11953000  0.69370000  0.80825000  1.0
  H  H6  1  0.82266000  0.65145000  0.76819000  1.0
  H  H7  1  0.82162000  0.73450000  0.84890000  1.0
  H  H8  1  0.82136000  0.84897000  0.73124000  1.0
  H  H9  1  0.82296000  0.76590000  0.65055000  1.0
  H  H10  1  0.11935000  0.19149000  0.30594000  1.0
  H  H11  1  0.11939000  0.30790000  0.19386000  1.0
  H  H12  1  0.82149000  0.34929000  0.23396000  1.0
  H  H13  1  0.82258000  0.26855000  0.15094000  1.0
  H  H14  1  0.82265000  0.15086000  0.26530000  1.0
  H  H15  1  0.82135000  0.23153000  0.34839000  1.0
  H  H16  1  0.27051000  0.19291000  0.69293000  1.0
  H  H17  1  0.27054000  0.30718000  0.80723000  1.0
  H  H18  1  0.97249000  0.26581000  0.84784000  1.0
  H  H19  1  0.97278000  0.34776000  0.76596000  1.0
  H  H20  1  0.97306000  0.23171000  0.64992000  1.0
  H  H21  1  0.97259000  0.14977000  0.73179000  1.0
  H  H22  1  0.87289000  0.80622000  0.30600000  1.0
  H  H23  1  0.87306000  0.69197000  0.19183000  1.0
  H  H24  1  0.17061000  0.65118000  0.23283000  1.0
  H  H25  1  0.17102000  0.73316000  0.15095000  1.0
  H  H26  1  0.17056000  0.84930000  0.26708000  1.0
  H  H27  1  0.17018000  0.76737000  0.34901000  1.0
  C  C28  1  0.58124000  0.88380000  0.38356000  1.0
  C  C29  1  0.40766000  0.88217000  0.61371000  1.0
  C  C30  1  0.55219000  0.11535000  0.61515000  1.0
  C  C31  1  0.40751000  0.11373000  0.38211000  1.0
  C  C32  1  0.55211000  0.38386000  0.88379000  1.0
  C  C33  1  0.40774000  0.61750000  0.88588000  1.0
  C  C34  1  0.58139000  0.61540000  0.11520000  1.0
  C  C35  1  0.40764000  0.38584000  0.11738000  1.0
  C  C36  1  0.40511000  0.68494000  0.81706000  1.0
  C  C37  1  0.40508000  0.81487000  0.68268000  1.0
  C  C38  1  0.56248000  0.71846000  0.78235000  1.0
  C  C39  1  0.24501000  0.78125000  0.71733000  1.0
  C  C40  1  0.56249000  0.78161000  0.71729000  1.0
  C  C41  1  0.24502000  0.71838000  0.78262000  1.0
  C  C42  1  0.76399000  0.71434000  0.78661000  1.0
  C  C43  1  0.76399000  0.78601000  0.71288000  1.0
  C  C44  1  0.40500000  0.31700000  0.18481000  1.0
  C  C45  1  0.40492000  0.18266000  0.31478000  1.0
  C  C46  1  0.56237000  0.28246000  0.21818000  1.0
  C  C47  1  0.24485000  0.21713000  0.28131000  1.0
  C  C48  1  0.56233000  0.21741000  0.28135000  1.0
  C  C49  1  0.24488000  0.28240000  0.21841000  1.0
  C  C50  1  0.76386000  0.28691000  0.21385000  1.0
  C  C51  1  0.76385000  0.21317000  0.28550000  1.0
  C  C52  1  0.55596000  0.31562000  0.81568000  1.0
  C  C53  1  0.55601000  0.18343000  0.68339000  1.0
  C  C54  1  0.71317000  0.28129000  0.78141000  1.0
  C  C55  1  0.39594000  0.21784000  0.71786000  1.0
  C  C56  1  0.71323000  0.21712000  0.71717000  1.0
  C  C57  1  0.39592000  0.28178000  0.78184000  1.0
  C  C58  1  0.91459000  0.28521000  0.78533000  1.0
  C  C59  1  0.91465000  0.21252000  0.71261000  1.0
  C  C60  1  0.58716000  0.68349000  0.18329000  1.0
  C  C61  1  0.58698000  0.81569000  0.31544000  1.0
  C  C62  1  0.42995000  0.71784000  0.21761000  1.0
  C  C63  1  0.74729000  0.78140000  0.28117000  1.0
  C  C64  1  0.42980000  0.78189000  0.28164000  1.0
  C  C65  1  0.74737000  0.71722000  0.21704000  1.0
  C  C66  1  0.22866000  0.71381000  0.21355000  1.0
  C  C67  1  0.22840000  0.78653000  0.28626000  1.0
  O  O68  1  0.73010000  0.91367000  0.41324000  1.0
  O  O69  1  0.42792000  0.90882000  0.40878000  1.0
  O  O70  1  0.25669000  0.90894000  0.58323000  1.0
  O  O71  1  0.55924000  0.90957000  0.58903000  1.0
  O  O72  1  0.40200000  0.08869000  0.58857000  1.0
  O  O73  1  0.70512000  0.08763000  0.58721000  1.0
  O  O74  1  0.55910000  0.08926000  0.40938000  1.0
  O  O75  1  0.25655000  0.08309000  0.40903000  1.0
  O  O76  1  0.40189000  0.41094000  0.91097000  1.0
  O  O77  1  0.70501000  0.41127000  0.91097000  1.0
  O  O78  1  0.55933000  0.58970000  0.90982000  1.0
  O  O79  1  0.25677000  0.59102000  0.91696000  1.0
  O  O80  1  0.73025000  0.58518000  0.08479000  1.0
  O  O81  1  0.42809000  0.59074000  0.09071000  1.0
  O  O82  1  0.25668000  0.41681000  0.09108000  1.0
  O  O83  1  0.55925000  0.40992000  0.08943000  1.0
