# generated using pymatgen
data_ZnH24C30NO4
_symmetry_space_group_name_H-M   'P 1'
_cell_length_a   17.90930000
_cell_length_b   18.21570000
_cell_length_c   19.69000000
_cell_angle_alpha   89.98200000
_cell_angle_beta   90.31770000
_cell_angle_gamma   89.89140000
_symmetry_Int_Tables_number   1
_chemical_formula_structural   ZnH24C30NO4
_chemical_formula_sum   'Zn2 H48 C60 N2 O8'
_cell_volume   6423.36666004
_cell_formula_units_Z   2
loop_
 _symmetry_equiv_pos_site_id
 _symmetry_equiv_pos_as_xyz
  1  'x, y, z'
loop_
 _atom_site_type_symbol
 _atom_site_label
 _atom_site_symmetry_multiplicity
 _atom_site_fract_x
 _atom_site_fract_y
 _atom_site_fract_z
 _atom_site_occupancy
  Zn  Zn0  1  0.50027000  0.42387000  0.50051000  1.0
  Zn  Zn1  1  0.50000000  0.57611000  0.50052000  1.0
  H  H2  1  0.87777000  0.38161000  0.47921000  1.0
  H  H3  1  0.12183000  0.61840000  0.47940000  1.0
  H  H4  1  0.12271000  0.38172000  0.47891000  1.0
  H  H5  1  0.87778000  0.61828000  0.47853000  1.0
  H  H6  1  0.73834000  0.38264000  0.48974000  1.0
  H  H7  1  0.26140000  0.61786000  0.48995000  1.0
  H  H8  1  0.26229000  0.38268000  0.48952000  1.0
  H  H9  1  0.73839000  0.61781000  0.48916000  1.0
  H  H10  1  0.50159000  0.61715000  0.71738000  1.0
  H  H11  1  0.49834000  0.38213000  0.28290000  1.0
  H  H12  1  0.50192000  0.61726000  0.28349000  1.0
  H  H13  1  0.49815000  0.38197000  0.71782000  1.0
  H  H14  1  0.50154000  0.61795000  0.84435000  1.0
  H  H15  1  0.49837000  0.38190000  0.15594000  1.0
  H  H16  1  0.50212000  0.61822000  0.15652000  1.0
  H  H17  1  0.49783000  0.38166000  0.84475000  1.0
  H  H18  1  0.41322000  0.41828000  0.93735000  1.0
  H  H19  1  0.58665000  0.58190000  0.06346000  1.0
  H  H20  1  0.41347000  0.41841000  0.06314000  1.0
  H  H21  1  0.58643000  0.58168000  0.93766000  1.0
  H  H22  1  0.42686000  0.30762000  0.58080000  1.0
  H  H23  1  0.58828000  0.69209000  0.43331000  1.0
  H  H24  1  0.57319000  0.30779000  0.41960000  1.0
  H  H25  1  0.41152000  0.69269000  0.56698000  1.0
  H  H26  1  0.42333000  0.16944000  0.58398000  1.0
  H  H27  1  0.59232000  0.83025000  0.43014000  1.0
  H  H28  1  0.57644000  0.16961000  0.41563000  1.0
  H  H29  1  0.40762000  0.83084000  0.56982000  1.0
  H  H30  1  0.29557000  0.04340000  0.45960000  1.0
  H  H31  1  0.32852000  0.12905000  0.48992000  1.0
  H  H32  1  0.28346000  0.12384000  0.40950000  1.0
  H  H33  1  0.42250000  0.13442000  0.39662000  1.0
  H  H34  1  0.38909000  0.05207000  0.36212000  1.0
  H  H35  1  0.54554000  0.95667000  0.68558000  1.0
  H  H36  1  0.51216000  0.87104000  0.65554000  1.0
  H  H37  1  0.60083000  0.87617000  0.69608000  1.0
  H  H38  1  0.61432000  0.86579000  0.56958000  1.0
  H  H39  1  0.65213000  0.94814000  0.59995000  1.0
  H  H40  1  0.70459000  0.04329000  0.54011000  1.0
  H  H41  1  0.67133000  0.12897000  0.50980000  1.0
  H  H42  1  0.71627000  0.12367000  0.59025000  1.0
  H  H43  1  0.57725000  0.13422000  0.60304000  1.0
  H  H44  1  0.61094000  0.05183000  0.63752000  1.0
  H  H45  1  0.45449000  0.95660000  0.31416000  1.0
  H  H46  1  0.48801000  0.87093000  0.34431000  1.0
  H  H47  1  0.39929000  0.87625000  0.30382000  1.0
  H  H48  1  0.38591000  0.86605000  0.43032000  1.0
  H  H49  1  0.34796000  0.94848000  0.39986000  1.0
  C  C50  1  0.50048000  0.49937000  0.36679000  1.0
  C  C51  1  0.49962000  0.49941000  0.63393000  1.0
  C  C52  1  0.49965000  0.49981000  0.85337000  1.0
  C  C53  1  0.50034000  0.50008000  0.14741000  1.0
  C  C54  1  0.49954000  0.49955000  0.71008000  1.0
  C  C55  1  0.50044000  0.49966000  0.29066000  1.0
  C  C56  1  0.45225000  0.45336000  0.96497000  1.0
  C  C57  1  0.54764000  0.54681000  0.03583000  1.0
  C  C58  1  0.45238000  0.45345000  0.03568000  1.0
  C  C59  1  0.54749000  0.54671000  0.96513000  1.0
  C  C60  1  0.50011000  0.50016000  0.07247000  1.0
  C  C61  1  0.49980000  0.49996000  0.92834000  1.0
  C  C62  1  0.45885000  0.27424000  0.54534000  1.0
  C  C63  1  0.54952000  0.72563000  0.46253000  1.0
  C  C64  1  0.54121000  0.27431000  0.45491000  1.0
  C  C65  1  0.45034000  0.72595000  0.53769000  1.0
  C  C66  1  0.45730000  0.19796000  0.54661000  1.0
  C  C67  1  0.55123000  0.80191000  0.46115000  1.0
  C  C68  1  0.54255000  0.19804000  0.45318000  1.0
  C  C69  1  0.44872000  0.80224000  0.53889000  1.0
  C  C70  1  0.49993000  0.15807000  0.49982000  1.0
  C  C71  1  0.50003000  0.84203000  0.50001000  1.0
  C  C72  1  0.45119000  0.03879000  0.45544000  1.0
  C  C73  1  0.54921000  0.96132000  0.54396000  1.0
  C  C74  1  0.54888000  0.03870000  0.54418000  1.0
  C  C75  1  0.45092000  0.96141000  0.45578000  1.0
  C  C76  1  0.50007000  0.92385000  0.49992000  1.0
  C  C77  1  0.50001000  0.07625000  0.49979000  1.0
  C  C78  1  0.35321000  0.50047000  0.49736000  1.0
  C  C79  1  0.64699000  0.50051000  0.49639000  1.0
  C  C80  1  0.84696000  0.43324000  0.48119000  1.0
  C  C81  1  0.15284000  0.56687000  0.48165000  1.0
  C  C82  1  0.15335000  0.43332000  0.48138000  1.0
  C  C83  1  0.84698000  0.56677000  0.48082000  1.0
  C  C84  1  0.76973000  0.43372000  0.48703000  1.0
  C  C85  1  0.23012000  0.56667000  0.48767000  1.0
  C  C86  1  0.23063000  0.43377000  0.48739000  1.0
  C  C87  1  0.76976000  0.56660000  0.48667000  1.0
  C  C88  1  0.73035000  0.50025000  0.49003000  1.0
  C  C89  1  0.26978000  0.50029000  0.49093000  1.0
  C  C90  1  0.88703000  0.49992000  0.47838000  1.0
  C  C91  1  0.11301000  0.50004000  0.47886000  1.0
  C  C92  1  0.96590000  0.49982000  0.47522000  1.0
  C  C93  1  0.03411000  0.49993000  0.47535000  1.0
  C  C94  1  0.50107000  0.56596000  0.74604000  1.0
  C  C95  1  0.49889000  0.43344000  0.25444000  1.0
  C  C96  1  0.50182000  0.56611000  0.25478000  1.0
  C  C97  1  0.49817000  0.43329000  0.74627000  1.0
  C  C98  1  0.50149000  0.56603000  0.81670000  1.0
  C  C99  1  0.49848000  0.43367000  0.18379000  1.0
  C  C100  1  0.50220000  0.56627000  0.18412000  1.0
  C  C101  1  0.49780000  0.43346000  0.81692000  1.0
  C  C102  1  0.39773000  0.08133000  0.41028000  1.0
  C  C103  1  0.32193000  0.09516000  0.44416000  1.0
  C  C104  1  0.59924000  0.91881000  0.59228000  1.0
  C  C105  1  0.56244000  0.90494000  0.66139000  1.0
  C  C106  1  0.60222000  0.08115000  0.58937000  1.0
  C  C107  1  0.67798000  0.09501000  0.55553000  1.0
  C  C108  1  0.40090000  0.91902000  0.40755000  1.0
  C  C109  1  0.43768000  0.90494000  0.33845000  1.0
  N  N110  1  0.50012000  0.31156000  0.50027000  1.0
  N  N111  1  0.49995000  0.68847000  0.50020000  1.0
  O  O112  1  0.50092000  0.43696000  0.39614000  1.0
  O  O113  1  0.50010000  0.56164000  0.60431000  1.0
  O  O114  1  0.49928000  0.43704000  0.60452000  1.0
  O  O115  1  0.50000000  0.56157000  0.39644000  1.0
  O  O116  1  0.38578000  0.43825000  0.49923000  1.0
  O  O117  1  0.61474000  0.56291000  0.49837000  1.0
  O  O118  1  0.61468000  0.43832000  0.49913000  1.0
  O  O119  1  0.38529000  0.56282000  0.50009000  1.0
