# generated using pymatgen
data_CuH30C22(NO2)4
_symmetry_space_group_name_H-M   'P 1'
_cell_length_a   6.55009000
_cell_length_b   9.81794000
_cell_length_c   10.20090000
_cell_angle_alpha   113.97400000
_cell_angle_beta   99.83840000
_cell_angle_gamma   98.83570000
_symmetry_Int_Tables_number   1
_chemical_formula_structural   CuH30C22(NO2)4
_chemical_formula_sum   'Cu1 H30 C22 N4 O8'
_cell_volume   572.18541259
_cell_formula_units_Z   1
loop_
 _symmetry_equiv_pos_site_id
 _symmetry_equiv_pos_as_xyz
  1  'x, y, z'
loop_
 _atom_site_type_symbol
 _atom_site_label
 _atom_site_symmetry_multiplicity
 _atom_site_fract_x
 _atom_site_fract_y
 _atom_site_fract_z
 _atom_site_occupancy
  Cu  Cu0  1  0.50000000  0.50000000  0.50000000  1.0
  H  H1  1  0.85656000  0.05318000  0.71034000  1.0
  H  H2  1  0.14345000  0.94682000  0.28966000  1.0
  H  H3  1  0.67476000  0.03966000  0.55688000  1.0
  H  H4  1  0.32524000  0.96035000  0.44313000  1.0
  H  H5  1  0.84225000  0.84703000  0.38558000  1.0
  H  H6  1  0.15775000  0.15297000  0.61441000  1.0
  H  H7  1  0.03366000  0.86848000  0.53969000  1.0
  H  H8  1  0.96634000  0.13152000  0.46031000  1.0
  H  H9  1  0.04270000  0.36489000  0.41143000  1.0
  H  H10  1  0.95730000  0.63511000  0.58856000  1.0
  H  H11  1  0.75418000  0.54234000  0.11992000  1.0
  H  H12  1  0.24582000  0.45766000  0.88007000  1.0
  H  H13  1  0.12579000  0.66367000  0.13000000  1.0
  H  H14  1  0.87421000  0.33633000  0.87000000  1.0
  H  H15  1  0.43785000  0.63823000  0.28749000  1.0
  H  H16  1  0.56215000  0.36177000  0.71252000  1.0
  H  H17  1  0.65103000  0.29054000  0.29995000  1.0
  H  H18  1  0.34897000  0.70946000  0.70004000  1.0
  H  H19  1  0.54379000  0.36552000  0.18628000  1.0
  H  H20  1  0.45622000  0.63448000  0.81372000  1.0
  H  H21  1  0.32605000  0.96624000  0.93372000  1.0
  H  H22  1  0.67394000  0.03377000  0.06629000  1.0
  H  H23  1  0.13172000  0.95527000  0.78733000  1.0
  H  H24  1  0.86827000  0.04472000  0.21267000  1.0
  H  H25  1  0.16547000  0.14663000  0.11929000  1.0
  H  H26  1  0.83453000  0.85337000  0.88071000  1.0
  H  H27  1  0.97167000  0.14114000  0.97476000  1.0
  H  H28  1  0.02833000  0.85886000  0.02524000  1.0
  H  H29  1  0.47385000  0.02953000  0.74829000  1.0
  H  H30  1  0.52614000  0.97046000  0.25171000  1.0
  C  C31  1  0.62265000  0.84012000  0.59457000  1.0
  C  C32  1  0.37735000  0.15988000  0.40544000  1.0
  C  C33  1  0.77268000  0.97395000  0.59375000  1.0
  C  C34  1  0.22733000  0.02605000  0.40625000  1.0
  C  C35  1  0.93084000  0.92986000  0.49982000  1.0
  C  C36  1  0.06916000  0.07014000  0.50018000  1.0
  C  C37  1  0.05258000  0.43296000  0.34999000  1.0
  C  C38  1  0.94743000  0.56704000  0.65000000  1.0
  C  C39  1  0.86646000  0.44474000  0.26729000  1.0
  C  C40  1  0.13355000  0.55526000  0.73271000  1.0
  C  C41  1  0.89335000  0.53084000  0.18693000  1.0
  C  C42  1  0.10665000  0.46916000  0.81307000  1.0
  C  C43  1  0.09892000  0.59935000  0.19340000  1.0
  C  C44  1  0.90109000  0.40065000  0.80660000  1.0
  C  C45  1  0.27538000  0.58555000  0.28053000  1.0
  C  C46  1  0.72463000  0.41446000  0.71947000  1.0
  C  C47  1  0.36214000  0.17212000  0.90625000  1.0
  C  C48  1  0.63784000  0.82786000  0.09374000  1.0
  C  C49  1  0.22123000  0.03225000  0.90319000  1.0
  C  C50  1  0.77876000  0.96775000  0.09681000  1.0
  C  C51  1  0.07100000  0.07177000  0.00427000  1.0
  C  C52  1  0.92900000  0.92823000  0.99573000  1.0
  N  N53  1  0.25011000  0.50383000  0.35807000  1.0
  N  N54  1  0.74990000  0.49617000  0.64194000  1.0
  N  N55  1  0.66726000  0.37924000  0.27046000  1.0
  N  N56  1  0.33274000  0.62076000  0.72953000  1.0
  O  O57  1  0.66021000  0.70834000  0.53306000  1.0
  O  O58  1  0.33979000  0.29166000  0.46694000  1.0
  O  O59  1  0.46913000  0.86568000  0.65604000  1.0
  O  O60  1  0.53087000  0.13432000  0.34396000  1.0
  O  O61  1  0.48855000  0.14625000  0.81402000  1.0
  O  O62  1  0.51143000  0.85374000  0.18598000  1.0
  O  O63  1  0.36329000  0.30484000  0.99033000  1.0
  O  O64  1  0.63670000  0.69517000  0.00968000  1.0
