# generated using pymatgen
data_Cd3H38C48(N4O11)2
_symmetry_space_group_name_H-M   'P 1'
_cell_length_a   8.92735000
_cell_length_b   10.20100000
_cell_length_c   15.47350000
_cell_angle_alpha   107.35700000
_cell_angle_beta   97.17720000
_cell_angle_gamma   105.99000000
_symmetry_Int_Tables_number   1
_chemical_formula_structural   Cd3H38C48(N4O11)2
_chemical_formula_sum   'Cd3 H38 C48 N8 O22'
_cell_volume   1259.56436917
_cell_formula_units_Z   1
loop_
 _symmetry_equiv_pos_site_id
 _symmetry_equiv_pos_as_xyz
  1  'x, y, z'
loop_
 _atom_site_type_symbol
 _atom_site_label
 _atom_site_symmetry_multiplicity
 _atom_site_fract_x
 _atom_site_fract_y
 _atom_site_fract_z
 _atom_site_occupancy
  Cd  Cd0  1  0.50000000  0.00000000  0.50000000  1.0
  Cd  Cd1  1  0.88329000  0.56165000  0.59042000  1.0
  Cd  Cd2  1  0.11672000  0.43835000  0.40958000  1.0
  H  H3  1  0.98270000  0.60446000  0.95172000  1.0
  H  H4  1  0.01729000  0.39553000  0.04828000  1.0
  H  H5  1  0.66102000  0.18595000  0.74905000  1.0
  H  H6  1  0.33899000  0.81404000  0.25095000  1.0
  H  H7  1  0.06800000  0.15055000  0.63858000  1.0
  H  H8  1  0.93200000  0.84945000  0.36142000  1.0
  H  H9  1  0.17971000  0.81830000  0.62289000  1.0
  H  H10  1  0.82029000  0.18171000  0.37712000  1.0
  H  H11  1  0.09651000  0.84544000  0.70534000  1.0
  H  H12  1  0.90349000  0.15455000  0.29466000  1.0
  H  H13  1  0.19442000  0.82328000  0.97362000  1.0
  H  H14  1  0.80557000  0.17672000  0.02638000  1.0
  H  H15  1  0.31630000  0.08864000  0.02764000  1.0
  H  H16  1  0.68369000  0.91136000  0.97236000  1.0
  H  H17  1  0.97407000  0.10678000  0.81146000  1.0
  H  H18  1  0.02592000  0.89322000  0.18854000  1.0
  H  H19  1  0.84841000  0.83844000  0.75826000  1.0
  H  H20  1  0.15158000  0.16156000  0.24174000  1.0
  H  H21  1  0.38178000  0.45286000  0.02877000  1.0
  H  H22  1  0.61822000  0.54714000  0.97123000  1.0
  H  H23  1  0.45433000  0.30067000  0.00092000  1.0
  H  H24  1  0.54567000  0.69933000  0.99908000  1.0
  H  H25  1  0.33499000  0.32238000  0.08568000  1.0
  H  H26  1  0.66501000  0.67762000  0.91432000  1.0
  H  H27  1  0.46176000  0.49298000  0.41349000  1.0
  H  H28  1  0.53825000  0.50702000  0.58651000  1.0
  H  H29  1  0.59923000  0.55083000  0.29552000  1.0
  H  H30  1  0.40076000  0.44917000  0.70448000  1.0
  H  H31  1  0.57358000  0.10249000  0.17725000  1.0
  H  H32  1  0.42643000  0.89751000  0.82275000  1.0
  H  H33  1  0.43687000  0.04594000  0.29816000  1.0
  H  H34  1  0.56314000  0.95407000  0.70184000  1.0
  H  H35  1  0.77588000  0.48899000  0.09705000  1.0
  H  H36  1  0.22412000  0.51101000  0.90295000  1.0
  H  H37  1  0.81963000  0.56815000  0.22168000  1.0
  H  H38  1  0.18037000  0.43186000  0.77833000  1.0
  H  H39  1  0.62865000  0.54264000  0.15424000  1.0
  H  H40  1  0.37136000  0.45736000  0.84576000  1.0
  C  C41  1  0.70026000  0.31247000  0.65122000  1.0
  C  C42  1  0.29974000  0.68753000  0.34878000  1.0
  C  C43  1  0.79307000  0.43152000  0.73980000  1.0
  C  C44  1  0.20693000  0.56848000  0.26020000  1.0
  C  C45  1  0.83252000  0.43090000  0.82972000  1.0
  C  C46  1  0.16748000  0.56910000  0.17028000  1.0
  C  C47  1  0.79065000  0.31897000  0.87227000  1.0
  C  C48  1  0.20936000  0.68103000  0.12773000  1.0
  C  C49  1  0.93955000  0.65433000  0.82778000  1.0
  C  C50  1  0.06045000  0.34567000  0.17223000  1.0
  C  C51  1  0.01559000  0.81143000  0.86058000  1.0
  C  C52  1  0.98440000  0.18857000  0.13942000  1.0
  C  C53  1  0.14580000  0.88433000  0.93737000  1.0
  C  C54  1  0.85419000  0.11567000  0.06263000  1.0
  C  C55  1  0.21536000  0.03500000  0.96787000  1.0
  C  C56  1  0.78463000  0.96500000  0.03213000  1.0
  C  C57  1  0.15385000  0.11493000  0.92188000  1.0
  C  C58  1  0.84615000  0.88507000  0.07812000  1.0
  C  C59  1  0.02224000  0.04327000  0.84561000  1.0
  C  C60  1  0.97776000  0.95673000  0.15439000  1.0
  C  C61  1  0.95375000  0.89324000  0.81557000  1.0
  C  C62  1  0.04625000  0.10676000  0.18443000  1.0
  C  C63  1  0.35436000  0.33764000  0.01998000  1.0
  C  C64  1  0.64564000  0.66236000  0.98002000  1.0
  C  C65  1  0.21288000  0.04784000  0.58558000  1.0
  C  C66  1  0.78712000  0.95216000  0.41442000  1.0
  C  C67  1  0.24404000  0.14365000  0.53131000  1.0
  C  C68  1  0.75596000  0.85635000  0.46869000  1.0
  C  C69  1  0.18281000  0.25381000  0.52514000  1.0
  C  C70  1  0.81720000  0.74620000  0.47486000  1.0
  C  C71  1  0.07195000  0.31499000  0.57356000  1.0
  C  C72  1  0.92806000  0.68501000  0.42644000  1.0
  C  C73  1  0.34672000  0.23304000  0.43200000  1.0
  C  C74  1  0.65329000  0.76696000  0.56800000  1.0
  C  C75  1  0.43734000  0.26462000  0.36410000  1.0
  C  C76  1  0.56267000  0.73538000  0.63590000  1.0
  C  C77  1  0.48441000  0.40620000  0.36156000  1.0
  C  C78  1  0.51560000  0.59380000  0.63845000  1.0
  C  C79  1  0.56229000  0.43928000  0.29439000  1.0
  C  C80  1  0.43771000  0.56072000  0.70561000  1.0
  C  C81  1  0.59399000  0.32931000  0.22753000  1.0
  C  C82  1  0.40601000  0.67069000  0.77248000  1.0
  C  C83  1  0.54724000  0.18693000  0.22911000  1.0
  C  C84  1  0.45276000  0.81307000  0.77089000  1.0
  C  C85  1  0.47177000  0.15602000  0.29719000  1.0
  C  C86  1  0.52823000  0.84398000  0.70282000  1.0
  C  C87  1  0.72642000  0.49690000  0.15884000  1.0
  C  C88  1  0.27359000  0.50311000  0.84116000  1.0
  N  N89  1  0.86099000  0.56943000  0.73998000  1.0
  N  N90  1  0.13900000  0.43057000  0.26002000  1.0
  N  N91  1  0.92556000  0.57159000  0.88281000  1.0
  N  N92  1  0.07444000  0.42841000  0.11719000  1.0
  N  N93  1  0.34677000  0.13198000  0.47239000  1.0
  N  N94  1  0.65323000  0.86802000  0.52761000  1.0
  N  N95  1  0.24747000  0.30750000  0.46240000  1.0
  N  N96  1  0.75254000  0.69250000  0.53760000  1.0
  O  O97  1  0.62666000  0.18751000  0.65575000  1.0
  O  O98  1  0.37335000  0.81249000  0.34425000  1.0
  O  O99  1  0.69527000  0.33824000  0.57648000  1.0
  O  O100  1  0.30473000  0.66176000  0.42352000  1.0
  O  O101  1  0.69212000  0.18918000  0.81824000  1.0
  O  O102  1  0.30789000  0.81081000  0.18175000  1.0
  O  O103  1  0.84360000  0.34761000  0.95626000  1.0
  O  O104  1  0.15640000  0.65238000  0.04374000  1.0
  O  O105  1  0.21271000  0.26273000  0.94719000  1.0
  O  O106  1  0.78729000  0.73727000  0.05281000  1.0
  O  O107  1  0.27848000  0.95160000  0.57847000  1.0
  O  O108  1  0.72152000  0.04840000  0.42152000  1.0
  O  O109  1  0.11395000  0.06305000  0.64094000  1.0
  O  O110  1  0.88605000  0.93696000  0.35905000  1.0
  O  O111  1  0.01581000  0.26501000  0.63342000  1.0
  O  O112  1  0.98420000  0.73499000  0.36658000  1.0
  O  O113  1  0.04156000  0.41860000  0.55264000  1.0
  O  O114  1  0.95844000  0.58141000  0.44736000  1.0
  O  O115  1  0.66927000  0.35095000  0.15892000  1.0
  O  O116  1  0.33074000  0.64905000  0.84108000  1.0
  O  O117  1  0.11731000  0.76731000  0.65920000  1.0
  O  O118  1  0.88270000  0.23269000  0.34080000  1.0
