# generated using pymatgen
data_TbH13(C4O3)4
_symmetry_space_group_name_H-M   'P 1'
_cell_length_a   7.18712000
_cell_length_b   10.86610000
_cell_length_c   11.14230000
_cell_angle_alpha   85.77480000
_cell_angle_beta   78.56840000
_cell_angle_gamma   78.19180000
_symmetry_Int_Tables_number   1
_chemical_formula_structural   TbH13(C4O3)4
_chemical_formula_sum   'Tb2 H26 C32 O24'
_cell_volume   834.35962016
_cell_formula_units_Z   2
loop_
 _symmetry_equiv_pos_site_id
 _symmetry_equiv_pos_as_xyz
  1  'x, y, z'
loop_
 _atom_site_type_symbol
 _atom_site_label
 _atom_site_symmetry_multiplicity
 _atom_site_fract_x
 _atom_site_fract_y
 _atom_site_fract_z
 _atom_site_occupancy
  Tb  Tb0  1  0.16957000  0.74414000  0.93477000  1.0
  Tb  Tb1  1  0.83043000  0.25585000  0.06522000  1.0
  H  H2  1  0.43216000  0.79806000  0.51116000  1.0
  H  H3  1  0.56786000  0.20195000  0.48883000  1.0
  H  H4  1  0.02736000  0.13232000  0.64251000  1.0
  H  H5  1  0.97263000  0.86768000  0.35748000  1.0
  H  H6  1  0.28293000  0.11120000  0.26029000  1.0
  H  H7  1  0.71708000  0.88880000  0.73970000  1.0
  H  H8  1  0.31271000  0.66758000  0.35923000  1.0
  H  H9  1  0.68732000  0.33241000  0.64075000  1.0
  H  H10  1  0.33558000  0.53514000  0.55138000  1.0
  H  H11  1  0.66445000  0.46484000  0.44861000  1.0
  H  H12  1  0.22239000  0.33209000  0.57466000  1.0
  H  H13  1  0.77761000  0.66790000  0.42533000  1.0
  H  H14  1  0.66826000  0.73314000  0.20719000  1.0
  H  H15  1  0.33176000  0.26687000  0.79281000  1.0
  H  H16  1  0.62097000  0.66404000  0.91115000  1.0
  H  H17  1  0.37903000  0.33598000  0.08883000  1.0
  H  H18  1  0.52889000  0.54788000  0.89768000  1.0
  H  H19  1  0.47110000  0.45208000  0.10249000  1.0
  H  H20  1  0.42778000  0.94033000  0.90828000  1.0
  H  H21  1  0.57222000  0.05967000  0.09171000  1.0
  H  H22  1  0.39439000  0.89141000  0.04721000  1.0
  H  H23  1  0.60563000  0.10858000  0.95278000  1.0
  H  H24  1  0.82546000  0.93533000  0.02543000  1.0
  H  H25  1  0.17454000  0.06467000  0.97456000  1.0
  H  H26  1  0.95052000  0.92372000  0.12462000  1.0
  H  H27  1  0.04948000  0.07628000  0.87538000  1.0
  C  C28  1  0.49099000  0.87970000  0.26566000  1.0
  C  C29  1  0.50901000  0.12031000  0.73434000  1.0
  C  C30  1  0.37374000  0.94648000  0.37352000  1.0
  C  C31  1  0.62625000  0.05352000  0.62648000  1.0
  C  C32  1  0.35520000  0.89245000  0.49220000  1.0
  C  C33  1  0.64480000  0.10755000  0.50780000  1.0
  C  C34  1  0.12809000  0.08120000  0.56778000  1.0
  C  C35  1  0.87191000  0.91880000  0.43221000  1.0
  C  C36  1  0.15238000  0.13468000  0.44919000  1.0
  C  C37  1  0.84761000  0.86532000  0.55081000  1.0
  C  C38  1  0.27330000  0.06851000  0.35213000  1.0
  C  C39  1  0.72670000  0.93149000  0.64786000  1.0
  C  C40  1  0.21057000  0.89715000  0.71390000  1.0
  C  C41  1  0.78945000  0.10284000  0.28609000  1.0
  C  C42  1  0.12926000  0.35439000  0.40137000  1.0
  C  C43  1  0.87073000  0.64561000  0.59863000  1.0
  C  C44  1  0.11333000  0.42735000  0.29371000  1.0
  C  C45  1  0.88665000  0.57266000  0.70629000  1.0
  C  C46  1  0.18193000  0.54124000  0.27972000  1.0
  C  C47  1  0.81806000  0.45876000  0.72027000  1.0
  C  C48  1  0.26334000  0.57870000  0.37180000  1.0
  C  C49  1  0.73667000  0.42130000  0.62819000  1.0
  C  C50  1  0.27926000  0.50388000  0.47753000  1.0
  C  C51  1  0.72075000  0.49611000  0.52247000  1.0
  C  C52  1  0.21411000  0.39066000  0.49173000  1.0
  C  C53  1  0.78588000  0.60934000  0.50826000  1.0
  C  C54  1  0.17089000  0.62168000  0.16566000  1.0
  C  C55  1  0.82909000  0.37832000  0.83434000  1.0
  C  C56  1  0.02348000  0.37984000  0.19941000  1.0
  C  C57  1  0.97651000  0.62016000  0.80059000  1.0
  C  C58  1  0.23175000  0.95979000  0.58895000  1.0
  C  C59  1  0.76824000  0.04021000  0.41105000  1.0
  O  O60  1  0.33753000  0.80180000  0.73373000  1.0
  O  O61  1  0.66248000  0.19821000  0.26625000  1.0
  O  O62  1  0.06519000  0.93853000  0.79818000  1.0
  O  O63  1  0.93483000  0.06145000  0.20183000  1.0
  O  O64  1  0.59475000  0.76586000  0.28644000  1.0
  O  O65  1  0.40525000  0.23413000  0.71356000  1.0
  O  O66  1  0.49590000  0.92563000  0.16002000  1.0
  O  O67  1  0.50412000  0.07437000  0.83999000  1.0
  O  O68  1  0.04057000  0.24988000  0.42238000  1.0
  O  O69  1  0.95942000  0.75012000  0.57761000  1.0
  O  O70  1  0.13142000  0.29723000  0.12528000  1.0
  O  O71  1  0.86858000  0.70276000  0.87473000  1.0
  O  O72  1  0.84268000  0.41238000  0.20251000  1.0
  O  O73  1  0.15731000  0.58762000  0.79747000  1.0
  O  O74  1  0.11456000  0.57851000  0.07764000  1.0
  O  O75  1  0.88541000  0.42150000  0.92236000  1.0
  O  O76  1  0.22169000  0.72841000  0.15488000  1.0
  O  O77  1  0.77830000  0.27159000  0.84511000  1.0
  O  O78  1  0.49831000  0.63121000  0.93172000  1.0
  O  O79  1  0.50167000  0.36883000  0.06828000  1.0
  O  O80  1  0.33930000  0.90092000  0.97153000  1.0
  O  O81  1  0.66071000  0.09909000  0.02847000  1.0
  O  O82  1  0.91687000  0.87269000  0.06427000  1.0
  O  O83  1  0.08314000  0.12731000  0.93572000  1.0
