# generated using pymatgen
data_LiH5(C2O3)2
_symmetry_space_group_name_H-M   'P 1'
_cell_length_a   5.07337000
_cell_length_b   7.52715000
_cell_length_c   8.33121000
_cell_angle_alpha   90.00040000
_cell_angle_beta   90.00040000
_cell_angle_gamma   72.02100000
_symmetry_Int_Tables_number   1
_chemical_formula_structural   LiH5(C2O3)2
_chemical_formula_sum   'Li2 H10 C8 O12'
_cell_volume   302.61691661
_cell_formula_units_Z   2
loop_
 _symmetry_equiv_pos_site_id
 _symmetry_equiv_pos_as_xyz
  1  'x, y, z'
loop_
 _atom_site_type_symbol
 _atom_site_label
 _atom_site_symmetry_multiplicity
 _atom_site_fract_x
 _atom_site_fract_y
 _atom_site_fract_z
 _atom_site_occupancy
  Li  Li0  1  0.56832000  0.82558000  0.75186000  1.0
  Li  Li1  1  0.43167000  0.17443000  0.25186000  1.0
  H  H2  1  0.15540000  0.70505000  0.98702000  1.0
  H  H3  1  0.84459000  0.29495000  0.48704000  1.0
  H  H4  1  0.06776000  0.75122000  0.27665000  1.0
  H  H5  1  0.93225000  0.24878000  0.77666000  1.0
  H  H6  1  0.87639000  0.36130000  0.12534000  1.0
  H  H7  1  0.12360000  0.63870000  0.62536000  1.0
  H  H8  1  0.58841000  0.87004000  0.04788000  1.0
  H  H9  1  0.41159000  0.12996000  0.54788000  1.0
  H  H10  1  0.34829000  0.87479000  0.42468000  1.0
  H  H11  1  0.65171000  0.12521000  0.92468000  1.0
  C  C12  1  0.50205000  0.53066000  0.11582000  1.0
  C  C13  1  0.49793000  0.46933000  0.61582000  1.0
  C  C14  1  0.32019000  0.72477000  0.06408000  1.0
  C  C15  1  0.67981000  0.27523000  0.56409000  1.0
  C  C16  1  0.18914000  0.83108000  0.21701000  1.0
  C  C17  1  0.81087000  0.16892000  0.71701000  1.0
  C  C18  1  0.99041000  0.02219000  0.16862000  1.0
  C  C19  1  0.00961000  0.97781000  0.66862000  1.0
  O  O20  1  0.76739000  0.49174000  0.08206000  1.0
  O  O21  1  0.23260000  0.50827000  0.58208000  1.0
  O  O22  1  0.39528000  0.42535000  0.18540000  1.0
  O  O23  1  0.60476000  0.57466000  0.68542000  1.0
  O  O24  1  0.46209000  0.82804000  0.97616000  1.0
  O  O25  1  0.53790000  0.17197000  0.47616000  1.0
  O  O26  1  0.41278000  0.84612000  0.31236000  1.0
  O  O27  1  0.58721000  0.15389000  0.81236000  1.0
  O  O28  1  0.75768000  0.02632000  0.10792000  1.0
  O  O29  1  0.24231000  0.97368000  0.60792000  1.0
  O  O30  1  0.06580000  0.16613000  0.19028000  1.0
  O  O31  1  0.93420000  0.83385000  0.69029000  1.0
