# generated using pymatgen
data_NdH13(C4O3)4
_symmetry_space_group_name_H-M   'P 1'
_cell_length_a   8.93060000
_cell_length_b   9.82724000
_cell_length_c   12.06940000
_cell_angle_alpha   100.25300000
_cell_angle_beta   103.64400000
_cell_angle_gamma   108.39600000
_symmetry_Int_Tables_number   1
_chemical_formula_structural   NdH13(C4O3)4
_chemical_formula_sum   'Nd2 H26 C32 O24'
_cell_volume   939.44130174
_cell_formula_units_Z   2
loop_
 _symmetry_equiv_pos_site_id
 _symmetry_equiv_pos_as_xyz
  1  'x, y, z'
loop_
 _atom_site_type_symbol
 _atom_site_label
 _atom_site_symmetry_multiplicity
 _atom_site_fract_x
 _atom_site_fract_y
 _atom_site_fract_z
 _atom_site_occupancy
  Nd  Nd0  1  0.26955000  0.53766000  0.95894000  1.0
  Nd  Nd1  1  0.73046000  0.46234000  0.04107000  1.0
  H  H2  1  0.43041000  0.76924000  0.70534000  1.0
  H  H3  1  0.56959000  0.23076000  0.29467000  1.0
  H  H4  1  0.68109000  0.92242000  0.32458000  1.0
  H  H5  1  0.31892000  0.07758000  0.67543000  1.0
  H  H6  1  0.67430000  0.96201000  0.68519000  1.0
  H  H7  1  0.32570000  0.03800000  0.31482000  1.0
  H  H8  1  0.27422000  0.61755000  0.39699000  1.0
  H  H9  1  0.72578000  0.38245000  0.60302000  1.0
  H  H10  1  0.65803000  0.00112000  0.95041000  1.0
  H  H11  1  0.34196000  0.99888000  0.04959000  1.0
  H  H12  1  0.09464000  0.09102000  0.84006000  1.0
  H  H13  1  0.90536000  0.90898000  0.15994000  1.0
  H  H14  1  0.77549000  0.63573000  0.78892000  1.0
  H  H15  1  0.22449000  0.36427000  0.21107000  1.0
  H  H16  1  0.14004000  0.28589000  0.73564000  1.0
  H  H17  1  0.85998000  0.71411000  0.26436000  1.0
  H  H18  1  0.92771000  0.47051000  0.78940000  1.0
  H  H19  1  0.07230000  0.52949000  0.21061000  1.0
  H  H20  1  0.04710000  0.61350000  0.76817000  1.0
  H  H21  1  0.95290000  0.38649000  0.23183000  1.0
  H  H22  1  0.33027000  0.30335000  0.79615000  1.0
  H  H23  1  0.66975000  0.69665000  0.20387000  1.0
  H  H24  1  0.12015000  0.87499000  0.73285000  1.0
  H  H25  1  0.87986000  0.12502000  0.26716000  1.0
  H  H26  1  0.01508000  0.21358000  0.50161000  1.0
  H  H27  1  0.98492000  0.78642000  0.49838000  1.0
  C  C28  1  0.39979000  0.68595000  0.21795000  1.0
  C  C29  1  0.60022000  0.31404000  0.78206000  1.0
  C  C30  1  0.47212000  0.76124000  0.34771000  1.0
  C  C31  1  0.52788000  0.23876000  0.65229000  1.0
  C  C32  1  0.62291000  0.88321000  0.38836000  1.0
  C  C33  1  0.37708000  0.11679000  0.61165000  1.0
  C  C34  1  0.69520000  0.95417000  0.50963000  1.0
  C  C35  1  0.30480000  0.04584000  0.49037000  1.0
  C  C36  1  0.61697000  0.90408000  0.59112000  1.0
  C  C37  1  0.38302000  0.09593000  0.40889000  1.0
  C  C38  1  0.46450000  0.78253000  0.54987000  1.0
  C  C39  1  0.53551000  0.21747000  0.45014000  1.0
  C  C40  1  0.39304000  0.71134000  0.42785000  1.0
  C  C41  1  0.60696000  0.28866000  0.57216000  1.0
  C  C42  1  0.85342000  0.08530000  0.55322000  1.0
  C  C43  1  0.14659000  0.91472000  0.44680000  1.0
  C  C44  1  0.55443000  0.70309000  0.89048000  1.0
  C  C45  1  0.44557000  0.29691000  0.10952000  1.0
  C  C46  1  0.70234000  0.80723000  0.87184000  1.0
  C  C47  1  0.29765000  0.19277000  0.12816000  1.0
  C  C48  1  0.73784000  0.95998000  0.91003000  1.0
  C  C49  1  0.26216000  0.04002000  0.08996000  1.0
  C  C50  1  0.88093000  0.06163000  0.90025000  1.0
  C  C51  1  0.11907000  0.93837000  0.09975000  1.0
  C  C52  1  0.98349000  0.01031000  0.84702000  1.0
  C  C53  1  0.01650000  0.98969000  0.15298000  1.0
  C  C54  1  0.94118000  0.85705000  0.80325000  1.0
  C  C55  1  0.05881000  0.14295000  0.19674000  1.0
  C  C56  1  0.80317000  0.75484000  0.81817000  1.0
  C  C57  1  0.19681000  0.24516000  0.18182000  1.0
  C  C58  1  0.92029000  0.22509000  0.94820000  1.0
  C  C59  1  0.07971000  0.77491000  0.05180000  1.0
  O  O60  1  0.25541000  0.58299000  0.17525000  1.0
  O  O61  1  0.74460000  0.41701000  0.82476000  1.0
  O  O62  1  0.48737000  0.72517000  0.15054000  1.0
  O  O63  1  0.51264000  0.27482000  0.84947000  1.0
  O  O64  1  0.37475000  0.72740000  0.61931000  1.0
  O  O65  1  0.62525000  0.27260000  0.38070000  1.0
  O  O66  1  0.92531000  0.15661000  0.65750000  1.0
  O  O67  1  0.07468000  0.84340000  0.34248000  1.0
  O  O68  1  0.91549000  0.12224000  0.46515000  1.0
  O  O69  1  0.08451000  0.87776000  0.53484000  1.0
  O  O70  1  0.56611000  0.59909000  0.93885000  1.0
  O  O71  1  0.43390000  0.40091000  0.06115000  1.0
  O  O72  1  0.41796000  0.72286000  0.86027000  1.0
  O  O73  1  0.58203000  0.27713000  0.13973000  1.0
  O  O74  1  0.03170000  0.79745000  0.74585000  1.0
  O  O75  1  0.96829000  0.20255000  0.25415000  1.0
  O  O76  1  0.04904000  0.31830000  0.93839000  1.0
  O  O77  1  0.95095000  0.68170000  0.06160000  1.0
  O  O78  1  0.82080000  0.25990000  0.99623000  1.0
  O  O79  1  0.17921000  0.74010000  0.00377000  1.0
  O  O80  1  0.25434000  0.35726000  0.77870000  1.0
  O  O81  1  0.74568000  0.64274000  0.22131000  1.0
  O  O82  1  0.03862000  0.51499000  0.77929000  1.0
  O  O83  1  0.96138000  0.48500000  0.22071000  1.0
