# generated using pymatgen
data_Zn2H13C7S2(NO4)2
_symmetry_space_group_name_H-M   'P 1'
_cell_length_a   7.93900000
_cell_length_b   8.60455000
_cell_length_c   23.50300000
_cell_angle_alpha   90.00000000
_cell_angle_beta   90.00000000
_cell_angle_gamma   113.83300000
_symmetry_Int_Tables_number   1
_chemical_formula_structural   Zn2H13C7S2(NO4)2
_chemical_formula_sum   'Zn8 H52 C28 S8 N8 O32'
_cell_volume   1468.61786371
_cell_formula_units_Z   4
loop_
 _symmetry_equiv_pos_site_id
 _symmetry_equiv_pos_as_xyz
  1  'x, y, z'
loop_
 _atom_site_type_symbol
 _atom_site_label
 _atom_site_symmetry_multiplicity
 _atom_site_fract_x
 _atom_site_fract_y
 _atom_site_fract_z
 _atom_site_occupancy
  Zn  Zn0  1  0.87564000  0.34140000  0.10367000  1.0
  Zn  Zn1  1  0.62436000  0.65861000  0.60367000  1.0
  Zn  Zn2  1  0.12436000  0.65861000  0.89633000  1.0
  Zn  Zn3  1  0.37564000  0.34140000  0.39633000  1.0
  Zn  Zn4  1  0.52034000  0.51734000  0.24287000  1.0
  Zn  Zn5  1  0.97966000  0.48266000  0.74287000  1.0
  Zn  Zn6  1  0.47966000  0.48265000  0.75713000  1.0
  Zn  Zn7  1  0.02034000  0.51734000  0.25713000  1.0
  H  H8  1  0.23298000  0.73167000  0.14196000  1.0
  H  H9  1  0.26702000  0.26833000  0.64196000  1.0
  H  H10  1  0.76702000  0.26833000  0.85804000  1.0
  H  H11  1  0.73298000  0.73168000  0.35804000  1.0
  H  H12  1  0.41025000  0.73803000  0.05941000  1.0
  H  H13  1  0.08975000  0.26197000  0.55941000  1.0
  H  H14  1  0.58975000  0.26197000  0.94059000  1.0
  H  H15  1  0.91025000  0.73803000  0.44059000  1.0
  H  H16  1  0.51534000  0.70223000  0.12250000  1.0
  H  H17  1  0.98466000  0.29777000  0.62250000  1.0
  H  H18  1  0.48466000  0.29777000  0.87750000  1.0
  H  H19  1  0.01534000  0.70223000  0.37750000  1.0
  H  H20  1  0.19543000  0.98634000  0.12987000  1.0
  H  H21  1  0.30457000  0.01366000  0.62987000  1.0
  H  H22  1  0.80457000  0.01366000  0.87013000  1.0
  H  H23  1  0.69543000  0.98634000  0.37013000  1.0
  H  H24  1  0.23373000  0.90520000  0.06344000  1.0
  H  H25  1  0.26627000  0.09480000  0.56344000  1.0
  H  H26  1  0.76627000  0.09480000  0.93656000  1.0
  H  H27  1  0.73373000  0.90520000  0.43656000  1.0
  H  H28  1  0.78011000  0.95137000  0.10308000  1.0
  H  H29  1  0.71989000  0.04863000  0.60308000  1.0
  H  H30  1  0.21989000  0.04863000  0.89692000  1.0
  H  H31  1  0.28011000  0.95137000  0.39692000  1.0
  H  H32  1  0.67314000  0.99141000  0.04166000  1.0
  H  H33  1  0.82686000  0.00859000  0.54166000  1.0
  H  H34  1  0.32686000  0.00859000  0.95834000  1.0
  H  H35  1  0.17314000  0.99141000  0.45834000  1.0
  H  H36  1  0.60922000  0.18153000  0.19956000  1.0
  H  H37  1  0.89078000  0.81847000  0.69956000  1.0
  H  H38  1  0.39078000  0.81847000  0.80044000  1.0
  H  H39  1  0.10922000  0.18153000  0.30044000  1.0
  H  H40  1  0.73635000  0.05343000  0.19361000  1.0
  H  H41  1  0.76365000  0.94658000  0.69361000  1.0
  H  H42  1  0.26365000  0.94657000  0.80639000  1.0
  H  H43  1  0.23635000  0.05343000  0.30639000  1.0
  H  H44  1  0.49611000  0.16245000  0.04959000  1.0
  H  H45  1  0.00389000  0.83755000  0.54959000  1.0
  H  H46  1  0.50389000  0.83755000  0.95041000  1.0
  H  H47  1  0.99611000  0.16245000  0.45041000  1.0
  H  H48  1  0.46363000  0.23656000  0.11744000  1.0
  H  H49  1  0.03637000  0.76344000  0.61744000  1.0
  H  H50  1  0.53637000  0.76344000  0.88256000  1.0
  H  H51  1  0.96363000  0.23656000  0.38256000  1.0
  H  H52  1  0.46406000  0.81292000  0.21277000  1.0
  H  H53  1  0.03594000  0.18708000  0.71277000  1.0
  H  H54  1  0.53594000  0.18708000  0.78723000  1.0
  H  H55  1  0.96406000  0.81292000  0.28723000  1.0
  H  H56  1  0.33506000  0.93999000  0.21404000  1.0
  H  H57  1  0.16494000  0.06001000  0.71404000  1.0
  H  H58  1  0.66494000  0.06001000  0.78596000  1.0
  H  H59  1  0.83506000  0.93999000  0.28596000  1.0
  C  C60  1  0.07199000  0.57838000  0.01528000  1.0
  C  C61  1  0.42801000  0.42162000  0.51528000  1.0
  C  C62  1  0.92801000  0.42162000  0.98472000  1.0
  C  C63  1  0.57199000  0.57838000  0.48472000  1.0
  C  C64  1  0.48359000  0.79595000  0.09847000  1.0
  C  C65  1  0.01641000  0.20405000  0.59847000  1.0
  C  C66  1  0.51641000  0.20405000  0.90153000  1.0
  C  C67  1  0.98359000  0.79595000  0.40153000  1.0
  C  C68  1  0.29785000  0.96506000  0.10348000  1.0
  C  C69  1  0.20215000  0.03494000  0.60349000  1.0
  C  C70  1  0.70215000  0.03494000  0.89651000  1.0
  C  C71  1  0.79785000  0.96506000  0.39651000  1.0
  C  C72  1  0.65507000  0.96150000  0.08718000  1.0
  C  C73  1  0.84493000  0.03850000  0.58718000  1.0
  C  C74  1  0.34493000  0.03850000  0.91282000  1.0
  C  C75  1  0.15507000  0.96150000  0.41282000  1.0
  C  C76  1  0.61456000  0.07040000  0.17845000  1.0
  C  C77  1  0.88544000  0.92960000  0.67845000  1.0
  C  C78  1  0.38544000  0.92960000  0.82155000  1.0
  C  C79  1  0.11456000  0.07040000  0.32155000  1.0
  C  C80  1  0.47283000  0.12898000  0.09478000  1.0
  C  C81  1  0.02717000  0.87102000  0.59478000  1.0
  C  C82  1  0.52717000  0.87102000  0.90522000  1.0
  C  C83  1  0.97283000  0.12898000  0.40522000  1.0
  C  C84  1  0.43768000  0.91173000  0.19014000  1.0
  C  C85  1  0.06233000  0.08827000  0.69014000  1.0
  C  C86  1  0.56233000  0.08827000  0.80986000  1.0
  C  C87  1  0.93767000  0.91173000  0.30986000  1.0
  S  S88  1  0.84987000  0.66035000  0.15791000  1.0
  S  S89  1  0.65013000  0.33965000  0.65791000  1.0
  S  S90  1  0.15013000  0.33965000  0.84209000  1.0
  S  S91  1  0.34987000  0.66035000  0.34209000  1.0
  S  S92  1  0.15372000  0.28370000  0.18810000  1.0
  S  S93  1  0.34628000  0.71630000  0.68810000  1.0
  S  S94  1  0.84628000  0.71630000  0.81190000  1.0
  S  S95  1  0.65372000  0.28370000  0.31190000  1.0
  N  N96  1  0.35205000  0.83943000  0.13407000  1.0
  N  N97  1  0.14795000  0.16057000  0.63407000  1.0
  N  N98  1  0.64795000  0.16057000  0.86593000  1.0
  N  N99  1  0.85205000  0.83943000  0.36593000  1.0
  N  N100  1  0.63782000  0.10713000  0.11650000  1.0
  N  N101  1  0.86218000  0.89287000  0.61650000  1.0
  N  N102  1  0.36218000  0.89287000  0.88350000  1.0
  N  N103  1  0.13782000  0.10713000  0.38350000  1.0
  O  O104  1  0.06590000  0.26092000  0.12865000  1.0
  O  O105  1  0.43409000  0.73908000  0.62865000  1.0
  O  O106  1  0.93409000  0.73908000  0.87135000  1.0
  O  O107  1  0.56591000  0.26092000  0.37135000  1.0
  O  O108  1  0.74846000  0.46830000  0.14478000  1.0
  O  O109  1  0.75153000  0.53170000  0.64478000  1.0
  O  O110  1  0.25154000  0.53170000  0.85522000  1.0
  O  O111  1  0.24847000  0.46830000  0.35522000  1.0
  O  O112  1  0.07598000  0.57400000  0.06892000  1.0
  O  O113  1  0.42402000  0.42600000  0.56892000  1.0
  O  O114  1  0.92402000  0.42600000  0.93108000  1.0
  O  O115  1  0.57598000  0.57400000  0.43108000  1.0
  O  O116  1  0.71818000  0.69504000  0.19903000  1.0
  O  O117  1  0.78182000  0.30496000  0.69903000  1.0
  O  O118  1  0.28181000  0.30496000  0.80097000  1.0
  O  O119  1  0.21818000  0.69504000  0.30097000  1.0
  O  O120  1  0.30961000  0.46586000  0.18863000  1.0
  O  O121  1  0.19039000  0.53414000  0.68863000  1.0
  O  O122  1  0.69039000  0.53414000  0.81137000  1.0
  O  O123  1  0.80961000  0.46586000  0.31137000  1.0
  O  O124  1  0.02001000  0.67506000  0.19391000  1.0
  O  O125  1  0.47999000  0.32493000  0.69391000  1.0
  O  O126  1  0.97999000  0.32494000  0.80609000  1.0
  O  O127  1  0.52001000  0.67507000  0.30609000  1.0
  O  O128  1  0.00739000  0.29703000  0.22964000  1.0
  O  O129  1  0.49261000  0.70297000  0.72964000  1.0
  O  O130  1  0.99261000  0.70298000  0.77036000  1.0
  O  O131  1  0.50739000  0.29703000  0.27036000  1.0
  O  O132  1  0.17647000  0.70016000  0.98424000  1.0
  O  O133  1  0.32353000  0.29984000  0.48424000  1.0
  O  O134  1  0.82353000  0.29984000  0.01576000  1.0
  O  O135  1  0.67647000  0.70017000  0.51576000  1.0
