# generated using pymatgen
data_Zr6H16C52S15Cl4O47
_symmetry_space_group_name_H-M   'P 1'
_cell_length_a   16.39890000
_cell_length_b   16.45513366
_cell_length_c   16.48840000
_cell_angle_alpha   88.41868456
_cell_angle_beta   60.20720000
_cell_angle_gamma   60.27047460
_symmetry_Int_Tables_number   1
_chemical_formula_structural   Zr6H16C52S15Cl4O47
_chemical_formula_sum   'Zr6 H16 C52 S15 Cl4 O47'
_cell_volume   3208.58051991
_cell_formula_units_Z   1
loop_
 _symmetry_equiv_pos_site_id
 _symmetry_equiv_pos_as_xyz
  1  'x, y, z'
loop_
 _atom_site_type_symbol
 _atom_site_label
 _atom_site_symmetry_multiplicity
 _atom_site_fract_x
 _atom_site_fract_y
 _atom_site_fract_z
 _atom_site_occupancy
  Zr  Zr0  1  0.21171000  0.90002000  0.39117000  1.0
  Zr  Zr1  1  0.78912000  0.10664000  0.60315000  1.0
  Zr  Zr2  1  0.99325000  0.90000000  0.39801000  1.0
  Zr  Zr3  1  0.00450000  0.10952000  0.59846000  1.0
  Zr  Zr4  1  0.00431000  0.89327000  0.60652000  1.0
  Zr  Zr5  1  0.99996000  0.11165000  0.38580000  1.0
  H  H6  1  0.16266000  0.75424000  0.42161000  1.0
  H  H7  1  0.84250000  0.07850000  0.74541000  1.0
  H  H8  1  0.82677000  0.08845000  0.41480000  1.0
  H  H9  1  0.16848000  0.09072000  0.40744000  1.0
  H  H10  1  0.27330000  0.62490000  0.64096000  1.0
  H  H11  1  0.27100000  0.13148000  0.09338000  1.0
  H  H12  1  0.06942000  0.09912000  0.85265000  1.0
  H  H13  1  0.97490000  0.39892000  0.63243000  1.0
  H  H14  1  0.44836000  0.61065000  0.22581000  1.0
  H  H15  1  0.52411000  0.33170000  0.83920000  1.0
  H  H16  1  0.51547000  0.86157000  0.39190000  1.0
  H  H17  1  0.79568000  0.29210000  0.21213000  1.0
  H  H18  1  0.82648000  0.86040000  0.97943000  1.0
  H  H19  1  0.88915000  0.91918000  0.26910000  1.0
  H  H20  1  0.12092000  0.67462000  0.27340000  1.0
  H  H21  1  0.43244000  0.28423000  0.59457000  1.0
  C  C22  1  0.27360000  0.73591000  0.50283000  1.0
  C  C23  1  0.73929000  0.98949000  0.76799000  1.0
  C  C24  1  0.73382000  0.27678000  0.49318000  1.0
  C  C25  1  0.26698000  0.00621000  0.22090000  1.0
  C  C26  1  0.26218000  0.73546000  0.23536000  1.0
  C  C27  1  0.27421000  0.99937000  0.49693000  1.0
  C  C28  1  0.73481000  0.26239000  0.76571000  1.0
  C  C29  1  0.72241000  0.00031000  0.50996000  1.0
  C  C30  1  0.99215000  0.73422000  0.50528000  1.0
  C  C31  1  0.99837000  0.99907000  0.22278000  1.0
  C  C32  1  0.99334000  0.27914000  0.49460000  1.0
  C  C33  1  0.02265000  0.99723000  0.75699000  1.0
  C  C34  1  0.65654000  0.41935000  0.42335000  1.0
  C  C35  1  0.35411000  0.60050000  0.57376000  1.0
  C  C36  1  0.64695000  0.36913000  0.49370000  1.0
  C  C37  1  0.36464000  0.64861000  0.50268000  1.0
  C  C38  1  0.46099000  0.51773000  0.54501000  1.0
  C  C39  1  0.55023000  0.50437000  0.45239000  1.0
  C  C40  1  0.65705000  0.92448000  0.91509000  1.0
  C  C41  1  0.35099000  0.06801000  0.07640000  1.0
  C  C42  1  0.65062000  0.98823000  0.85726000  1.0
  C  C43  1  0.35871000  0.00347000  0.13211000  1.0
  C  C44  1  0.46008000  0.03909000  0.99736000  1.0
  C  C45  1  0.54802000  0.95338000  0.99511000  1.0
  C  C46  1  0.98254000  0.94480000  0.08692000  1.0
  C  C47  1  0.04759000  0.04870000  0.88509000  1.0
  C  C48  1  0.00376000  0.99635000  0.13103000  1.0
  C  C49  1  0.02670000  0.99502000  0.84406000  1.0
  C  C50  1  0.03489000  0.02838000  0.97308000  1.0
  C  C51  1  0.00195000  0.96185000  0.99673000  1.0
  C  C52  1  0.99918000  0.59359000  0.42990000  1.0
  C  C53  1  0.98184000  0.42117000  0.56782000  1.0
  C  C54  1  0.99026000  0.64614000  0.50246000  1.0
  C  C55  1  0.99036000  0.36968000  0.49579000  1.0
  C  C56  1  0.98437000  0.50314000  0.54388000  1.0
  C  C57  1  0.99565000  0.51156000  0.45368000  1.0
  C  C58  1  0.35236000  0.59872000  0.08880000  1.0
  C  C59  1  0.44890000  0.58173000  0.16684000  1.0
  C  C60  1  0.54339000  0.49397000  0.09816000  1.0
  C  C61  1  0.54852000  0.45393000  0.01802000  1.0
  C  C62  1  0.64801000  0.37478000  0.93150000  1.0
  C  C63  1  0.53042000  0.37018000  0.88609000  1.0
  C  C64  1  0.43452000  0.44893000  0.96439000  1.0
  C  C65  1  0.44243000  0.50186000  0.02462000  1.0
  C  C66  1  0.35436000  0.63756000  0.16101000  1.0
  C  C67  1  0.63909000  0.33757000  0.86317000  1.0
  C  C68  1  0.51434000  0.06684000  0.57445000  1.0
  C  C69  1  0.47610000  0.92553000  0.44872000  1.0
  C  C70  1  0.63123000  0.99799000  0.51597000  1.0
  C  C71  1  0.36124000  0.99578000  0.50424000  1.0
  C  C72  1  0.53150000  0.95103000  0.47580000  1.0
  C  C73  1  0.45701000  0.04026000  0.55110000  1.0
  S  S74  1  0.50892000  0.42601000  0.59480000  1.0
  S  S75  1  0.50267000  0.59487000  0.40140000  1.0
  S  S76  1  0.51240000  0.08248000  0.90109000  1.0
  S  S77  1  0.49662000  0.90814000  0.09002000  1.0
  S  S78  1  0.04380000  0.06777000  0.06247000  1.0
  S  S79  1  0.99123000  0.92123000  0.91020000  1.0
  S  S80  1  0.97802000  0.59566000  0.59835000  1.0
  S  S81  1  0.00170000  0.41931000  0.39904000  1.0
  S  S82  1  0.66981000  0.90117000  0.43518000  1.0
  S  S83  1  0.31867000  0.09212000  0.58957000  1.0
  S  S84  1  0.78008000  0.38941000  0.30909000  1.0
  S  S85  1  0.77794000  0.81631000  0.89841000  1.0
  S  S86  1  0.93083000  0.86919000  0.12976000  1.0
  S  S87  1  0.01748000  0.61504000  0.31704000  1.0
  S  S88  1  0.43598000  0.17565000  0.66804000  1.0
  Cl  Cl89  1  0.30722000  0.47281000  0.99198000  1.0
  Cl  Cl90  1  0.25072000  0.67260000  0.06728000  1.0
  Cl  Cl91  1  0.64771000  0.43697000  0.12175000  1.0
  Cl  Cl92  1  0.77971000  0.32930000  0.90811000  1.0
  O  O93  1  0.30511000  0.77067000  0.43099000  1.0
  O  O94  1  0.70391000  0.05824000  0.73143000  1.0
  O  O95  1  0.69890000  0.24305000  0.56454000  1.0
  O  O96  1  0.29869000  0.93795000  0.25959000  1.0
  O  O97  1  0.15865000  0.76833000  0.26891000  1.0
  O  O98  1  0.17245000  0.07105000  0.55911000  1.0
  O  O99  1  0.83609000  0.23575000  0.72881000  1.0
  O  O100  1  0.82368000  0.93390000  0.44048000  1.0
  O  O101  1  0.99505000  0.76549000  0.57318000  1.0
  O  O102  1  0.00656000  0.06339000  0.25226000  1.0
  O  O103  1  0.99657000  0.24290000  0.42453000  1.0
  O  O104  1  0.01794000  0.92960000  0.72705000  1.0
  O  O105  1  0.98595000  0.93550000  0.26667000  1.0
  O  O106  1  0.99420000  0.24214000  0.56392000  1.0
  O  O107  1  0.02000000  0.06745000  0.72110000  1.0
  O  O108  1  0.99234000  0.77256000  0.43642000  1.0
  O  O109  1  0.29435000  0.77729000  0.26458000  1.0
  O  O110  1  0.69381000  0.06910000  0.57255000  1.0
  O  O111  1  0.70413000  0.22936000  0.72416000  1.0
  O  O112  1  0.30608000  0.93285000  0.42941000  1.0
  O  O113  1  0.16456000  0.07478000  0.25386000  1.0
  O  O114  1  0.17171000  0.76873000  0.57229000  1.0
  O  O115  1  0.84260000  0.92458000  0.73524000  1.0
  O  O116  1  0.83583000  0.23818000  0.42097000  1.0
  O  O117  1  0.12081000  0.06568000  0.43239000  1.0
  O  O118  1  0.87686000  0.06407000  0.43724000  1.0
  O  O119  1  0.88768000  0.05782000  0.67460000  1.0
  O  O120  1  0.11737000  0.82511000  0.44271000  1.0
  O  O121  1  0.91106000  0.95700000  0.54499000  1.0
  O  O122  1  0.09113000  0.95909000  0.53985000  1.0
  O  O123  1  0.91489000  0.13342000  0.53590000  1.0
  O  O124  1  0.08467000  0.96148000  0.36460000  1.0
  O  O125  1  0.82594000  0.28227000  0.25258000  1.0
  O  O126  1  0.86511000  0.37786000  0.32127000  1.0
  O  O127  1  0.74030000  0.45655000  0.25936000  1.0
  O  O128  1  0.84326000  0.85582000  0.91280000  1.0
  O  O129  1  0.85070000  0.75547000  0.79988000  1.0
  O  O130  1  0.73544000  0.77983000  0.97968000  1.0
  O  O131  1  0.84422000  0.92179000  0.24289000  1.0
  O  O132  1  0.02314000  0.77322000  0.10981000  1.0
  O  O133  1  0.86389000  0.88161000  0.09204000  1.0
  O  O134  1  0.13274000  0.60942000  0.26255000  1.0
  O  O135  1  0.92591000  0.70996000  0.33333333  1.0
  O  O136  1  0.04357000  0.52852000  0.26411000  1.0
  O  O137  1  0.48395000  0.23950000  0.61239000  1.0
  O  O138  1  0.46246000  0.15657000  0.73975000  1.0
  O  O139  1  0.32076000  0.22491000  0.69519000  1.0
