# generated using pymatgen
data_Mn2H26C16O9
_symmetry_space_group_name_H-M   'P 1'
_cell_length_a   7.53917000
_cell_length_b   9.06692000
_cell_length_c   13.81940000
_cell_angle_alpha   104.64900000
_cell_angle_beta   105.81200000
_cell_angle_gamma   90.00490000
_symmetry_Int_Tables_number   1
_chemical_formula_structural   Mn2H26C16O9
_chemical_formula_sum   'Mn4 H52 C32 O18'
_cell_volume   876.94426169
_cell_formula_units_Z   2
loop_
 _symmetry_equiv_pos_site_id
 _symmetry_equiv_pos_as_xyz
  1  'x, y, z'
loop_
 _atom_site_type_symbol
 _atom_site_label
 _atom_site_symmetry_multiplicity
 _atom_site_fract_x
 _atom_site_fract_y
 _atom_site_fract_z
 _atom_site_occupancy
  Mn  Mn0  1  0.22309000  0.45757000  0.03612000  1.0
  Mn  Mn1  1  0.81299000  0.95757000  0.03611000  1.0
  Mn  Mn2  1  0.77692000  0.54243000  0.96388000  1.0
  Mn  Mn3  1  0.18701000  0.04243000  0.96389000  1.0
  H  H4  1  0.31611000  0.70048000  0.24565000  1.0
  H  H5  1  0.92941000  0.20073000  0.24572000  1.0
  H  H6  1  0.68389000  0.29953000  0.75435000  1.0
  H  H7  1  0.07058000  0.79927000  0.75428000  1.0
  H  H8  1  0.12220000  0.61621000  0.26140000  1.0
  H  H9  1  0.13896000  0.11639000  0.26156000  1.0
  H  H10  1  0.87780000  0.38379000  0.73860000  1.0
  H  H11  1  0.86103000  0.88361000  0.73844000  1.0
  H  H12  1  0.26424000  0.95523000  0.35069000  1.0
  H  H13  1  0.08631000  0.45546000  0.35076000  1.0
  H  H14  1  0.73576000  0.04478000  0.64931000  1.0
  H  H15  1  0.91368000  0.54454000  0.64924000  1.0
  H  H16  1  0.04705000  0.88735000  0.35195000  1.0
  H  H17  1  0.30473000  0.38754000  0.35199000  1.0
  H  H18  1  0.95295000  0.11266000  0.64805000  1.0
  H  H19  1  0.69526000  0.61246000  0.64801000  1.0
  H  H20  1  0.19755000  0.70665000  0.45452000  1.0
  H  H21  1  0.25671000  0.20687000  0.45459000  1.0
  H  H22  1  0.80245000  0.29335000  0.54548000  1.0
  H  H23  1  0.74329000  0.79313000  0.54541000  1.0
  H  H24  1  0.41640000  0.76979000  0.45273000  1.0
  H  H25  1  0.03615000  0.27010000  0.45291000  1.0
  H  H26  1  0.58360000  0.23022000  0.54727000  1.0
  H  H27  1  0.96385000  0.72990000  0.54710000  1.0
  H  H28  1  0.37541000  0.03422000  0.55122000  1.0
  H  H29  1  0.17570000  0.53446000  0.55141000  1.0
  H  H30  1  0.62458000  0.96578000  0.44878000  1.0
  H  H31  1  0.82430000  0.46555000  0.44859000  1.0
  H  H32  1  0.15283000  0.97525000  0.55077000  1.0
  H  H33  1  0.39776000  0.47551000  0.55077000  1.0
  H  H34  1  0.84717000  0.02475000  0.44923000  1.0
  H  H35  1  0.60223000  0.52449000  0.44923000  1.0
  H  H36  1  0.28512000  0.79254000  0.65455000  1.0
  H  H37  1  0.36941000  0.29276000  0.65461000  1.0
  H  H38  1  0.71488000  0.20746000  0.34545000  1.0
  H  H39  1  0.63059000  0.70724000  0.34539000  1.0
  H  H40  1  0.50917000  0.84124000  0.65117000  1.0
  H  H41  1  0.14209000  0.34151000  0.65143000  1.0
  H  H42  1  0.49083000  0.15876000  0.34883000  1.0
  H  H43  1  0.85791000  0.65849000  0.34857000  1.0
  H  H44  1  0.48984000  0.11198000  0.74966000  1.0
  H  H45  1  0.26012000  0.61228000  0.74984000  1.0
  H  H46  1  0.51016000  0.88802000  0.25034000  1.0
  H  H47  1  0.73988000  0.38772000  0.25016000  1.0
  H  H48  1  0.26126000  0.06408000  0.75114000  1.0
  H  H49  1  0.49008000  0.56418000  0.75123000  1.0
  H  H50  1  0.73874000  0.93592000  0.24886000  1.0
  H  H51  1  0.50993000  0.43582000  0.24877000  1.0
  H  H52  1  0.50956000  0.20743000  0.04686000  1.0
  H  H53  1  0.53737000  0.70753000  0.04694000  1.0
  H  H54  1  0.49044000  0.79256000  0.95314000  1.0
  H  H55  1  0.46264000  0.29246000  0.95306000  1.0
  C  C56  1  0.05865000  0.74757000  0.15396000  1.0
  C  C57  1  0.09540000  0.24757000  0.15403000  1.0
  C  C58  1  0.94135000  0.25244000  0.84604000  1.0
  C  C59  1  0.90460000  0.75243000  0.84597000  1.0
  C  C60  1  0.17807000  0.72481000  0.25542000  1.0
  C  C61  1  0.07724000  0.22501000  0.25552000  1.0
  C  C62  1  0.82193000  0.27519000  0.74458000  1.0
  C  C63  1  0.92276000  0.77499000  0.74448000  1.0
  C  C64  1  0.18742000  0.85312000  0.35251000  1.0
  C  C65  1  0.16493000  0.35334000  0.35258000  1.0
  C  C66  1  0.81258000  0.14688000  0.64748000  1.0
  C  C67  1  0.83507000  0.64666000  0.64742000  1.0
  C  C68  1  0.27727000  0.80750000  0.45291000  1.0
  C  C69  1  0.17543000  0.30774000  0.45300000  1.0
  C  C70  1  0.72273000  0.19250000  0.54709000  1.0
  C  C71  1  0.82456000  0.69226000  0.54700000  1.0
  C  C72  1  0.29125000  0.93501000  0.55154000  1.0
  C  C73  1  0.26017000  0.43524000  0.55163000  1.0
  C  C74  1  0.70875000  0.06499000  0.44846000  1.0
  C  C75  1  0.73983000  0.56476000  0.44837000  1.0
  C  C76  1  0.37385000  0.88696000  0.65176000  1.0
  C  C77  1  0.27793000  0.38718000  0.65188000  1.0
  C  C78  1  0.62615000  0.11304000  0.34824000  1.0
  C  C79  1  0.72207000  0.61282000  0.34812000  1.0
  C  C80  1  0.39640000  0.01936000  0.74979000  1.0
  C  C81  1  0.35354000  0.51957000  0.74989000  1.0
  C  C82  1  0.60360000  0.98064000  0.25021000  1.0
  C  C83  1  0.64646000  0.48043000  0.25011000  1.0
  C  C84  1  0.47515000  0.96796000  0.84775000  1.0
  C  C85  1  0.37261000  0.46809000  0.84783000  1.0
  C  C86  1  0.52485000  0.03204000  0.15225000  1.0
  C  C87  1  0.62740000  0.53190000  0.15217000  1.0
  O  O88  1  0.05501000  0.64469000  0.06942000  1.0
  O  O89  1  0.01457000  0.14465000  0.06952000  1.0
  O  O90  1  0.94500000  0.35531000  0.93058000  1.0
  O  O91  1  0.98543000  0.85535000  0.93048000  1.0
  O  O92  1  0.96088000  0.86097000  0.15518000  1.0
  O  O93  1  0.19448000  0.36089000  0.15518000  1.0
  O  O94  1  0.03912000  0.13903000  0.84482000  1.0
  O  O95  1  0.80552000  0.63911000  0.84482000  1.0
  O  O96  1  0.36222000  0.90139000  0.88197000  1.0
  O  O97  1  0.51967000  0.40146000  0.88203000  1.0
  O  O98  1  0.63778000  0.09862000  0.11803000  1.0
  O  O99  1  0.48034000  0.59854000  0.11796000  1.0
  O  O100  1  0.64760000  0.98813000  0.89049000  1.0
  O  O101  1  0.24286000  0.48824000  0.89057000  1.0
  O  O102  1  0.35240000  0.01187000  0.10951000  1.0
  O  O103  1  0.75715000  0.51175000  0.10943000  1.0
  O  O104  1  0.40748000  0.24989000  0.99995000  1.0
  O  O105  1  0.59252000  0.75011000  0.00004000  1.0
