# generated using pymatgen
data_Zn2H7C22Br7(NO4)2
_symmetry_space_group_name_H-M   'P 1'
_cell_length_a   9.96977000
_cell_length_b   11.19300000
_cell_length_c   16.14500000
_cell_angle_alpha   89.29650000
_cell_angle_beta   88.55520000
_cell_angle_gamma   89.19400000
_symmetry_Int_Tables_number   1
_chemical_formula_structural   Zn2H7C22Br7(NO4)2
_chemical_formula_sum   'Zn2 H7 C22 Br7 N2 O8'
_cell_volume   1800.76784764
_cell_formula_units_Z   1
loop_
 _symmetry_equiv_pos_site_id
 _symmetry_equiv_pos_as_xyz
  1  'x, y, z'
loop_
 _atom_site_type_symbol
 _atom_site_label
 _atom_site_symmetry_multiplicity
 _atom_site_fract_x
 _atom_site_fract_y
 _atom_site_fract_z
 _atom_site_occupancy
  Zn  Zn0  1  0.63540000  0.50760000  0.49791000  1.0
  Zn  Zn1  1  0.35654000  0.49324000  0.50553000  1.0
  H  H2  1  0.85968000  0.44711000  0.60478000  1.0
  H  H3  1  0.11477000  0.49410000  0.44375000  1.0
  H  H4  1  0.29135000  0.60845000  0.05626000  1.0
  H  H5  1  0.10248000  0.47299000  0.62476000  1.0
  H  H6  1  0.29103000  0.40448000  0.95276000  1.0
  H  H7  1  0.69339000  0.39872000  0.94878000  1.0
  H  H8  1  0.63612000  0.09866000  0.50453000  1.0
  C  C9  1  0.48807000  0.73246000  0.49465000  1.0
  C  C10  1  0.54219000  0.13988000  0.52653000  1.0
  C  C11  1  0.46867000  0.93612000  0.56001000  1.0
  C  C12  1  0.48405000  0.49202000  0.34063000  1.0
  C  C13  1  0.47226000  0.86658000  0.49280000  1.0
  C  C14  1  0.91949000  0.48399000  0.55258000  1.0
  C  C15  1  0.06623000  0.48155000  0.56139000  1.0
  C  C16  1  0.53446000  0.27156000  0.51653000  1.0
  C  C17  1  0.48895000  0.51134000  0.66411000  1.0
  C  C18  1  0.49155000  0.61783000  0.97568000  1.0
  C  C19  1  0.37971000  0.56072000  0.03177000  1.0
  C  C20  1  0.48981000  0.50087000  0.08835000  1.0
  C  C21  1  0.48644000  0.49301000  0.25105000  1.0
  C  C22  1  0.49282000  0.51234000  0.75359000  1.0
  C  C23  1  0.60307000  0.55659000  0.02933000  1.0
  C  C24  1  0.60365000  0.44510000  0.97252000  1.0
  C  C25  1  0.49269000  0.50488000  0.91654000  1.0
  C  C26  1  0.49096000  0.38881000  0.02836000  1.0
  C  C27  1  0.37973000  0.44878000  0.97505000  1.0
  C  C28  1  0.48769000  0.49685000  0.17566000  1.0
  C  C29  1  0.49386000  0.50882000  0.82899000  1.0
  C  C30  1  0.44971000  0.06588000  0.55971000  1.0
  Br  Br31  1  0.44828000  0.92819000  0.38408000  1.0
  Br  Br32  1  0.91820000  0.59781000  0.39786000  1.0
  Br  Br33  1  0.49148000  0.77944000  0.93800000  1.0
  Br  Br34  1  0.49126000  0.22623000  0.06520000  1.0
  Br  Br35  1  0.75984000  0.63200000  0.06695000  1.0
  Br  Br36  1  0.28267000  0.11645000  0.60865000  1.0
  Br  Br37  1  0.48670000  0.86117000  0.66644000  1.0
  N  N38  1  0.84535000  0.52441000  0.49430000  1.0
  N  N39  1  0.15345000  0.48639000  0.50205000  1.0
  O  O40  1  0.60676000  0.69077000  0.49168000  1.0
  O  O41  1  0.37934000  0.67523000  0.49760000  1.0
  O  O42  1  0.59790000  0.49583000  0.37475000  1.0
  O  O43  1  0.36948000  0.48818000  0.37690000  1.0
  O  O44  1  0.64698000  0.32493000  0.51099000  1.0
  O  O45  1  0.41913000  0.32091000  0.51290000  1.0
  O  O46  1  0.60174000  0.51540000  0.62506000  1.0
  O  O47  1  0.37338000  0.50537000  0.63276000  1.0
