# generated using pymatgen
data_ZnH22C28(N4O3)2
_symmetry_space_group_name_H-M   'P 1'
_cell_length_a   7.98295000
_cell_length_b   13.82070000
_cell_length_c   14.29500000
_cell_angle_alpha   113.22300000
_cell_angle_beta   90.00000000
_cell_angle_gamma   106.78600000
_symmetry_Int_Tables_number   1
_chemical_formula_structural   ZnH22C28(N4O3)2
_chemical_formula_sum   'Zn2 H44 C56 N16 O12'
_cell_volume   1375.95008014
_cell_formula_units_Z   2
loop_
 _symmetry_equiv_pos_site_id
 _symmetry_equiv_pos_as_xyz
  1  'x, y, z'
loop_
 _atom_site_type_symbol
 _atom_site_label
 _atom_site_symmetry_multiplicity
 _atom_site_fract_x
 _atom_site_fract_y
 _atom_site_fract_z
 _atom_site_occupancy
  Zn  Zn0  1  0.44368000  0.00000000  0.75012000  1.0
  Zn  Zn1  1  0.55632000  0.00000000  0.24988000  1.0
  H  H2  1  0.82341000  0.96060000  0.44511000  1.0
  H  H3  1  0.86277000  0.03982000  0.05545000  1.0
  H  H4  1  0.17659000  0.03939000  0.55489000  1.0
  H  H5  1  0.13724000  0.96018000  0.94455000  1.0
  H  H6  1  0.63435000  0.04385000  0.57489000  1.0
  H  H7  1  0.59077000  0.95645000  0.92553000  1.0
  H  H8  1  0.36565000  0.95615000  0.42511000  1.0
  H  H9  1  0.40924000  0.04355000  0.07447000  1.0
  H  H10  1  0.57530000  0.79521000  0.67727000  1.0
  H  H11  1  0.78060000  0.20462000  0.82265000  1.0
  H  H12  1  0.42469000  0.20479000  0.32273000  1.0
  H  H13  1  0.21941000  0.79538000  0.17735000  1.0
  H  H14  1  0.88556000  0.62621000  0.39430000  1.0
  H  H15  1  0.25905000  0.37399000  0.10606000  1.0
  H  H16  1  0.11443000  0.37379000  0.60570000  1.0
  H  H17  1  0.74096000  0.62602000  0.89394000  1.0
  H  H18  1  0.83531000  0.43953000  0.43259000  1.0
  H  H19  1  0.39568000  0.56056000  0.06757000  1.0
  H  H20  1  0.16468000  0.56047000  0.56741000  1.0
  H  H21  1  0.60432000  0.43944000  0.93243000  1.0
  H  H22  1  0.80453000  0.34442000  0.51755000  1.0
  H  H23  1  0.46048000  0.65529000  0.98224000  1.0
  H  H24  1  0.19547000  0.65558000  0.48245000  1.0
  H  H25  1  0.53951000  0.34470000  0.01776000  1.0
  H  H26  1  0.70880000  0.21602000  0.60121000  1.0
  H  H27  1  0.49304000  0.78370000  0.89860000  1.0
  H  H28  1  0.29121000  0.78398000  0.39879000  1.0
  H  H29  1  0.50696000  0.21629000  0.10140000  1.0
  H  H30  1  0.41485000  0.41815000  0.79075000  1.0
  H  H31  1  0.99698000  0.58155000  0.70912000  1.0
  H  H32  1  0.58515000  0.58185000  0.20925000  1.0
  H  H33  1  0.00302000  0.41845000  0.29088000  1.0
  H  H34  1  0.51277000  0.55016000  0.70774000  1.0
  H  H35  1  0.96305000  0.44944000  0.79201000  1.0
  H  H36  1  0.48723000  0.44984000  0.29226000  1.0
  H  H37  1  0.03694000  0.55056000  0.20798000  1.0
  H  H38  1  0.10927000  0.93097000  0.64077000  1.0
  H  H39  1  0.17849000  0.06915000  0.85926000  1.0
  H  H40  1  0.89072000  0.06903000  0.35923000  1.0
  H  H41  1  0.82152000  0.93085000  0.14075000  1.0
  H  H42  1  0.18503000  0.83415000  0.63653000  1.0
  H  H43  1  0.35124000  0.16597000  0.86366000  1.0
  H  H44  1  0.81497000  0.16585000  0.36347000  1.0
  H  H45  1  0.64877000  0.83403000  0.13634000  1.0
  C  C46  1  0.76790000  0.92212000  0.49631000  1.0
  C  C47  1  0.84591000  0.07813000  0.00408000  1.0
  C  C48  1  0.23209000  0.07788000  0.50369000  1.0
  C  C49  1  0.15409000  0.92187000  0.99592000  1.0
  C  C50  1  0.66475000  0.96970000  0.56792000  1.0
  C  C51  1  0.69528000  0.03058000  0.93245000  1.0
  C  C52  1  0.33525000  0.03030000  0.43208000  1.0
  C  C53  1  0.30473000  0.96942000  0.06755000  1.0
  C  C54  1  0.62976000  0.83177000  0.62458000  1.0
  C  C55  1  0.79837000  0.16817000  0.87546000  1.0
  C  C56  1  0.37024000  0.16823000  0.37542000  1.0
  C  C57  1  0.20163000  0.83183000  0.12454000  1.0
  C  C58  1  0.72893000  0.78216000  0.54944000  1.0
  C  C59  1  0.94695000  0.21790000  0.95074000  1.0
  C  C60  1  0.27107000  0.21784000  0.45056000  1.0
  C  C61  1  0.05305000  0.78210000  0.04926000  1.0
  C  C62  1  0.75042000  0.67646000  0.53545000  1.0
  C  C63  1  0.07419000  0.32353000  0.96464000  1.0
  C  C64  1  0.24958000  0.32354000  0.46455000  1.0
  C  C65  1  0.92581000  0.67647000  0.03536000  1.0
  C  C66  1  0.82709000  0.60896000  0.45663000  1.0
  C  C67  1  0.21802000  0.39112000  0.04359000  1.0
  C  C68  1  0.17291000  0.39104000  0.54337000  1.0
  C  C69  1  0.78198000  0.60888000  0.95641000  1.0
  C  C70  1  0.80357000  0.51533000  0.47446000  1.0
  C  C71  1  0.28828000  0.48470000  0.02565000  1.0
  C  C72  1  0.19643000  0.48467000  0.52553000  1.0
  C  C73  1  0.71172000  0.51530000  0.97435000  1.0
  C  C74  1  0.66451000  0.45578000  0.60812000  1.0
  C  C75  1  0.20913000  0.54395000  0.89170000  1.0
  C  C76  1  0.33549000  0.54422000  0.39188000  1.0
  C  C77  1  0.79086000  0.45605000  0.10829000  1.0
  C  C78  1  0.71957000  0.36141000  0.57755000  1.0
  C  C79  1  0.35855000  0.63826000  0.92222000  1.0
  C  C80  1  0.28044000  0.63859000  0.42245000  1.0
  C  C81  1  0.64144000  0.36174000  0.07778000  1.0
  C  C82  1  0.66494000  0.28883000  0.62480000  1.0
  C  C83  1  0.37634000  0.71091000  0.87505000  1.0
  C  C84  1  0.33507000  0.71118000  0.37520000  1.0
  C  C85  1  0.62365000  0.28909000  0.12495000  1.0
  C  C86  1  0.55571000  0.30890000  0.70240000  1.0
  C  C87  1  0.24702000  0.69086000  0.79750000  1.0
  C  C88  1  0.44430000  0.69110000  0.29760000  1.0
  C  C89  1  0.75298000  0.30914000  0.20251000  1.0
  C  C90  1  0.50229000  0.40373000  0.73188000  1.0
  C  C91  1  0.09886000  0.59599000  0.76798000  1.0
  C  C92  1  0.49772000  0.59627000  0.26812000  1.0
  C  C93  1  0.90114000  0.40401000  0.23202000  1.0
  C  C94  1  0.55580000  0.47725000  0.68580000  1.0
  C  C95  1  0.07894000  0.52240000  0.81400000  1.0
  C  C96  1  0.44420000  0.52275000  0.31420000  1.0
  C  C97  1  0.92105000  0.47760000  0.18599000  1.0
  C  C98  1  0.49367000  0.23053000  0.75253000  1.0
  C  C99  1  0.26307000  0.76939000  0.74754000  1.0
  C  C100  1  0.50634000  0.76947000  0.24747000  1.0
  C  C101  1  0.73693000  0.23061000  0.25246000  1.0
  N  N102  1  0.80196000  0.82959000  0.48654000  1.0
  N  N103  1  0.97246000  0.17063000  0.01379000  1.0
  N  N104  1  0.19804000  0.17041000  0.51346000  1.0
  N  N105  1  0.02754000  0.82937000  0.98621000  1.0
  N  N106  1  0.59823000  0.92455000  0.63337000  1.0
  N  N107  1  0.67396000  0.07548000  0.86679000  1.0
  N  N108  1  0.40177000  0.07545000  0.36662000  1.0
  N  N109  1  0.32604000  0.92452000  0.13321000  1.0
  N  N110  1  0.68420000  0.62771000  0.59822000  1.0
  N  N111  1  0.05692000  0.37212000  0.90171000  1.0
  N  N112  1  0.31580000  0.37229000  0.40178000  1.0
  N  N113  1  0.94307000  0.62788000  0.09830000  1.0
  N  N114  1  0.71812000  0.52999000  0.56039000  1.0
  N  N115  1  0.18856000  0.46985000  0.93953000  1.0
  N  N116  1  0.28188000  0.47001000  0.43961000  1.0
  N  N117  1  0.81144000  0.53015000  0.06047000  1.0
  O  O118  1  0.43023000  0.26439000  0.83694000  1.0
  O  O119  1  0.16557000  0.73561000  0.66323000  1.0
  O  O120  1  0.56978000  0.73561000  0.16306000  1.0
  O  O121  1  0.83444000  0.26439000  0.33677000  1.0
  O  O122  1  0.50888000  0.13349000  0.70670000  1.0
  O  O123  1  0.37520000  0.86646000  0.79341000  1.0
  O  O124  1  0.49112000  0.86651000  0.29330000  1.0
  O  O125  1  0.62480000  0.13354000  0.20660000  1.0
  O  O126  1  0.21582000  0.90950000  0.63043000  1.0
  O  O127  1  0.30649000  0.09061000  0.86977000  1.0
  O  O128  1  0.78418000  0.09051000  0.36957000  1.0
  O  O129  1  0.69351000  0.90939000  0.13023000  1.0
