# generated using pymatgen
data_Zr3H35C63O16
_symmetry_space_group_name_H-M   'P 1'
_cell_length_a   19.25560000
_cell_length_b   19.30550000
_cell_length_c   19.32160000
_cell_angle_alpha   92.84720000
_cell_angle_beta   93.24280000
_cell_angle_gamma   93.05160000
_symmetry_Int_Tables_number   1
_chemical_formula_structural   Zr3H35C63O16
_chemical_formula_sum   'Zr6 H70 C126 O32'
_cell_volume   7150.91734882
_cell_formula_units_Z   2
loop_
 _symmetry_equiv_pos_site_id
 _symmetry_equiv_pos_as_xyz
  1  'x, y, z'
loop_
 _atom_site_type_symbol
 _atom_site_label
 _atom_site_symmetry_multiplicity
 _atom_site_fract_x
 _atom_site_fract_y
 _atom_site_fract_z
 _atom_site_occupancy
  Zr  Zr0  1  0.85971000  0.81288000  0.94174000  1.0
  Zr  Zr1  1  0.00169000  0.76858000  0.84353000  1.0
  Zr  Zr2  1  0.93219000  0.98371000  0.96995000  1.0
  Zr  Zr3  1  0.90278000  0.91002000  0.79840000  1.0
  Zr  Zr4  1  0.03244000  0.84214000  0.01387000  1.0
  Zr  Zr5  1  0.07431000  0.94096000  0.87137000  1.0
  H  H6  1  0.50434000  0.95799000  0.11856000  1.0
  H  H7  1  0.37162000  0.90616000  0.28335000  1.0
  H  H8  1  0.59418000  0.89824000  0.31374000  1.0
  H  H9  1  0.42704000  0.80379000  0.69489000  1.0
  H  H10  1  0.56185000  0.85747000  0.53234000  1.0
  H  H11  1  0.33925000  0.86017000  0.49752000  1.0
  H  H12  1  0.98741000  0.28073000  0.53110000  1.0
  H  H13  1  0.99369000  0.25287000  0.30917000  1.0
  H  H14  1  0.04674000  0.08667000  0.44043000  1.0
  H  H15  1  0.94914000  0.46882000  0.28036000  1.0
  H  H16  1  0.94859000  0.50027000  0.50249000  1.0
  H  H17  1  0.89668000  0.66588000  0.37008000  1.0
  H  H18  1  0.37317000  0.50137000  0.92839000  1.0
  H  H19  1  0.34146000  0.27929000  0.93310000  1.0
  H  H20  1  0.17807000  0.41221000  0.98909000  1.0
  H  H21  1  0.55718000  0.24732000  0.88297000  1.0
  H  H22  1  0.59076000  0.47023000  0.88664000  1.0
  H  H23  1  0.75828000  0.33893000  0.84139000  1.0
  H  H24  1  0.85925000  0.76670000  0.80040000  1.0
  H  H25  1  0.90949000  0.88242000  0.07013000  1.0
  H  H26  1  0.97218000  0.03985000  0.84683000  1.0
  H  H27  1  0.13189000  0.81878000  0.91233000  1.0
  H  H28  1  0.72000000  0.22731000  0.74836000  1.0
  H  H29  1  0.67332000  0.19390000  0.95990000  1.0
  H  H30  1  0.75164000  0.09472000  0.96072000  1.0
  H  H31  1  0.79185000  0.12298000  0.74721000  1.0
  H  H32  1  0.68739000  0.51996000  0.95632000  1.0
  H  H33  1  0.78526000  0.44053000  0.77593000  1.0
  H  H34  1  0.86930000  0.54390000  0.78476000  1.0
  H  H35  1  0.76882000  0.62449000  0.96221000  1.0
  H  H36  1  0.28638000  0.20434000  0.98787000  1.0
  H  H37  1  0.11107000  0.33085000  0.95068000  1.0
  H  H38  1  0.03103000  0.22638000  0.95046000  1.0
  H  H39  1  0.20646000  0.09923000  0.97661000  1.0
  H  H40  1  0.21663000  0.52737000  0.07056000  1.0
  H  H41  1  0.25142000  0.54854000  0.85422000  1.0
  H  H42  1  0.17053000  0.64537000  0.85123000  1.0
  H  H43  1  0.14170000  0.62936000  0.06888000  1.0
  H  H44  1  0.02522000  0.58693000  0.22978000  1.0
  H  H45  1  0.81094000  0.62926000  0.25766000  1.0
  H  H46  1  0.81046000  0.70200000  0.15390000  1.0
  H  H47  1  0.02628000  0.66570000  0.13084000  1.0
  H  H48  1  0.89697000  0.55727000  0.57773000  1.0
  H  H49  1  0.93603000  0.73162000  0.45103000  1.0
  H  H50  1  0.93443000  0.81181000  0.55466000  1.0
  H  H51  1  0.90625000  0.63735000  0.68210000  1.0
  H  H52  1  0.03375000  0.11758000  0.12797000  1.0
  H  H53  1  0.01464000  0.94198000  0.25544000  1.0
  H  H54  1  0.01294000  0.02127000  0.35952000  1.0
  H  H55  1  0.04307000  0.19719000  0.23265000  1.0
  H  H56  1  0.12904000  0.12454000  0.55681000  1.0
  H  H57  1  0.91133000  0.15750000  0.57558000  1.0
  H  H58  1  0.90882000  0.07650000  0.67245000  1.0
  H  H59  1  0.12779000  0.04963000  0.65893000  1.0
  H  H60  1  0.28951000  0.93547000  0.61872000  1.0
  H  H61  1  0.31245000  0.71898000  0.65319000  1.0
  H  H62  1  0.20893000  0.71837000  0.72601000  1.0
  H  H63  1  0.19100000  0.93609000  0.69761000  1.0
  H  H64  1  0.50881000  0.84134000  0.76241000  1.0
  H  H65  1  0.63646000  0.80502000  0.58895000  1.0
  H  H66  1  0.74111000  0.81475000  0.66932000  1.0
  H  H67  1  0.61306000  0.84036000  0.84310000  1.0
  H  H68  1  0.19046000  0.94636000  0.14634000  1.0
  H  H69  1  0.31859000  0.92383000  0.97224000  1.0
  H  H70  1  0.42298000  0.92334000  0.05247000  1.0
  H  H71  1  0.29547000  0.95687000  0.22662000  1.0
  H  H72  1  0.62089000  0.03969000  0.15762000  1.0
  H  H73  1  0.63946000  0.82229000  0.19058000  1.0
  H  H74  1  0.73560000  0.81938000  0.10908000  1.0
  H  H75  1  0.72223000  0.03792000  0.08201000  1.0
  C  C76  1  0.55603000  0.92857000  0.21267000  1.0
  C  C77  1  0.49685000  0.94240000  0.17118000  1.0
  C  C78  1  0.42941000  0.93342000  0.19437000  1.0
  C  C79  1  0.42282000  0.91455000  0.26299000  1.0
  C  C80  1  0.48170000  0.90364000  0.30705000  1.0
  C  C81  1  0.54861000  0.90889000  0.28067000  1.0
  C  C82  1  0.37627000  0.83147000  0.59952000  1.0
  C  C83  1  0.43509000  0.81927000  0.64231000  1.0
  C  C84  1  0.50287000  0.82935000  0.62022000  1.0
  C  C85  1  0.51032000  0.84813000  0.55168000  1.0
  C  C86  1  0.45193000  0.85759000  0.50648000  1.0
  C  C87  1  0.38454000  0.85088000  0.53157000  1.0
  C  C88  1  0.01746000  0.18012000  0.49245000  1.0
  C  C89  1  0.99771000  0.24819000  0.48548000  1.0
  C  C90  1  0.99195000  0.27537000  0.41900000  1.0
  C  C91  1  0.00244000  0.23198000  0.36006000  1.0
  C  C92  1  0.02150000  0.16329000  0.36623000  1.0
  C  C93  1  0.03098000  0.13933000  0.43328000  1.0
  C  C94  1  0.92249000  0.57077000  0.31839000  1.0
  C  C95  1  0.94084000  0.50233000  0.32590000  1.0
  C  C96  1  0.94759000  0.47607000  0.39274000  1.0
  C  C97  1  0.93926000  0.52059000  0.45140000  1.0
  C  C98  1  0.92159000  0.58962000  0.44468000  1.0
  C  C99  1  0.91140000  0.61290000  0.37744000  1.0
  C  C100  1  0.27221000  0.46365000  0.95937000  1.0
  C  C101  1  0.33998000  0.45599000  0.93879000  1.0
  C  C102  1  0.36589000  0.38906000  0.93205000  1.0
  C  C103  1  0.32169000  0.33048000  0.94272000  1.0
  C  C104  1  0.25342000  0.33737000  0.96276000  1.0
  C  C105  1  0.23057000  0.40469000  0.97293000  1.0
  C  C106  1  0.66027000  0.28578000  0.85924000  1.0
  C  C107  1  0.59135000  0.29313000  0.87647000  1.0
  C  C108  1  0.56546000  0.35994000  0.88497000  1.0
  C  C109  1  0.61076000  0.41883000  0.87889000  1.0
  C  C110  1  0.68032000  0.41203000  0.86323000  1.0
  C  C111  1  0.70376000  0.34521000  0.85155000  1.0
  C  C112  1  0.78688000  0.92307000  0.03699000  1.0
  C  C113  1  0.86724000  0.65774000  0.87797000  1.0
  C  C114  1  0.74957000  0.84102000  0.80610000  1.0
  C  C115  1  0.92324000  0.74166000  0.08369000  1.0
  C  C116  1  0.14223000  0.83179000  0.77047000  1.0
  C  C117  1  0.06890000  0.09138000  0.94715000  1.0
  C  C118  1  0.93269000  0.77429000  0.69037000  1.0
  C  C119  1  0.09812000  0.69616000  0.95425000  1.0
  C  C120  1  0.00941000  0.97967000  0.12044000  1.0
  C  C121  1  0.82999000  0.05056000  0.85956000  1.0
  C  C122  1  0.01306000  0.00566000  0.72495000  1.0
  C  C123  1  0.18290000  0.91922000  0.00899000  1.0
  C  C124  1  0.72549000  0.19692000  0.79427000  1.0
  C  C125  1  0.69273000  0.21787000  0.85438000  1.0
  C  C126  1  0.69891000  0.17808000  0.91314000  1.0
  C  C127  1  0.74218000  0.12267000  0.91373000  1.0
  C  C128  1  0.77681000  0.10366000  0.85430000  1.0
  C  C129  1  0.76591000  0.13914000  0.79357000  1.0
  C  C130  1  0.72609000  0.52577000  0.91761000  1.0
  C  C131  1  0.72972000  0.47346000  0.86491000  1.0
  C  C132  1  0.78224000  0.48038000  0.81755000  1.0
  C  C133  1  0.82916000  0.53832000  0.82205000  1.0
  C  C134  1  0.82379000  0.59099000  0.87369000  1.0
  C  C135  1  0.77205000  0.58374000  0.92171000  1.0
  C  C136  1  0.23066000  0.20971000  0.97807000  1.0
  C  C137  1  0.20521000  0.27577000  0.96834000  1.0
  C  C138  1  0.13255000  0.28074000  0.95967000  1.0
  C  C139  1  0.08713000  0.22198000  0.95850000  1.0
  C  C140  1  0.11380000  0.15624000  0.96259000  1.0
  C  C141  1  0.18596000  0.15062000  0.97328000  1.0
  C  C142  1  0.20784000  0.55452000  0.02293000  1.0
  C  C143  1  0.23830000  0.53087000  0.96237000  1.0
  C  C144  1  0.22777000  0.56658000  0.90139000  1.0
  C  C145  1  0.18284000  0.62060000  0.89957000  1.0
  C  C146  1  0.15064000  0.64241000  0.95968000  1.0
  C  C147  1  0.16560000  0.61091000  0.02209000  1.0
  C  C148  1  0.43539000  0.37952000  0.91422000  1.0
  C  C149  1  0.49522000  0.36901000  0.90049000  1.0
  C  C150  1  0.97800000  0.61173000  0.21278000  1.0
  C  C151  1  0.91825000  0.60397000  0.25081000  1.0
  C  C152  1  0.85758000  0.63587000  0.22858000  1.0
  C  C153  1  0.85723000  0.67675000  0.17115000  1.0
  C  C154  1  0.91866000  0.68890000  0.13721000  1.0
  C  C155  1  0.97877000  0.65533000  0.15762000  1.0
  C  C156  1  0.90673000  0.61281000  0.57209000  1.0
  C  C157  1  0.91710000  0.63793000  0.50609000  1.0
  C  C158  1  0.92621000  0.71038000  0.50099000  1.0
  C  C159  1  0.92636000  0.75593000  0.55929000  1.0
  C  C160  1  0.92069000  0.72966000  0.62499000  1.0
  C  C161  1  0.91036000  0.65765000  0.63072000  1.0
  C  C162  1  0.03163000  0.09694000  0.17938000  1.0
  C  C163  1  0.02362000  0.02477000  0.18513000  1.0
  C  C164  1  0.02076000  0.99803000  0.25091000  1.0
  C  C165  1  0.02086000  0.04314000  0.30947000  1.0
  C  C166  1  0.02727000  0.11574000  0.30447000  1.0
  C  C167  1  0.03536000  0.14146000  0.23831000  1.0
  C  C168  1  0.08121000  0.11529000  0.58346000  1.0
  C  C169  1  0.02019000  0.14539000  0.55925000  1.0
  C  C170  1  0.95885000  0.13417000  0.59412000  1.0
  C  C171  1  0.95731000  0.08927000  0.64818000  1.0
  C  C172  1  0.01799000  0.05770000  0.67073000  1.0
  C  C173  1  0.08060000  0.07306000  0.63985000  1.0
  C  C174  1  0.97550000  0.34542000  0.41053000  1.0
  C  C175  1  0.96316000  0.40585000  0.40157000  1.0
  C  C176  1  0.27150000  0.88775000  0.64178000  1.0
  C  C177  1  0.30818000  0.82739000  0.63189000  1.0
  C  C178  1  0.28451000  0.76610000  0.66148000  1.0
  C  C179  1  0.22724000  0.76564000  0.70246000  1.0
  C  C180  1  0.19488000  0.82747000  0.71700000  1.0
  C  C181  1  0.21650000  0.88827000  0.68543000  1.0
  C  C182  1  0.55913000  0.83238000  0.74142000  1.0
  C  C183  1  0.56432000  0.82411000  0.66906000  1.0
  C  C184  1  0.63065000  0.81436000  0.64437000  1.0
  C  C185  1  0.68958000  0.81830000  0.68947000  1.0
  C  C186  1  0.68383000  0.82829000  0.76140000  1.0
  C  C187  1  0.61778000  0.83285000  0.78727000  1.0
  C  C188  1  0.24207000  0.94377000  0.12616000  1.0
  C  C189  1  0.24787000  0.93436000  0.05422000  1.0
  C  C190  1  0.31395000  0.93098000  0.02811000  1.0
  C  C191  1  0.37271000  0.93173000  0.07373000  1.0
  C  C192  1  0.36760000  0.93923000  0.14615000  1.0
  C  C193  1  0.30119000  0.94811000  0.17110000  1.0
  C  C194  1  0.64731000  0.99179000  0.14825000  1.0
  C  C195  1  0.62311000  0.93098000  0.17841000  1.0
  C  C196  1  0.65790000  0.86965000  0.16714000  1.0
  C  C197  1  0.71152000  0.86789000  0.12187000  1.0
  C  C198  1  0.73377000  0.92827000  0.08994000  1.0
  C  C199  1  0.70328000  0.99093000  0.10561000  1.0
  C  C200  1  0.46195000  0.87416000  0.43679000  1.0
  C  C201  1  0.47238000  0.88702000  0.37685000  1.0
  O  O202  1  0.82780000  0.97498000  0.02708000  1.0
  O  O203  1  0.92429000  0.66496000  0.84873000  1.0
  O  O204  1  0.75697000  0.81834000  0.86636000  1.0
  O  O205  1  0.87037000  0.75232000  0.04420000  1.0
  O  O206  1  0.98326000  0.77438000  0.08376000  1.0
  O  O207  1  0.79639000  0.87662000  0.77573000  1.0
  O  O208  1  0.83902000  0.70642000  0.91285000  1.0
  O  O209  1  0.78684000  0.86303000  0.00489000  1.0
  O  O210  1  0.96420000  0.79041000  0.93955000  1.0
  O  O211  1  0.88108000  0.90849000  0.90250000  1.0
  O  O212  1  0.88973000  0.79846000  0.83016000  1.0
  O  O213  1  0.92455000  0.88124000  0.02306000  1.0
  O  O214  1  0.10226000  0.77945000  0.78112000  1.0
  O  O215  1  0.00823000  0.08430000  0.96930000  1.0
  O  O216  1  0.90929000  0.83425000  0.69690000  1.0
  O  O217  1  0.08921000  0.73745000  0.00579000  1.0
  O  O218  1  0.03257000  0.91949000  0.11405000  1.0
  O  O219  1  0.84072000  0.01051000  0.80762000  1.0
  O  O220  1  0.06517000  0.99696000  0.76628000  1.0
  O  O221  1  0.17578000  0.94185000  0.94858000  1.0
  O  O222  1  0.95299000  0.97310000  0.72534000  1.0
  O  O223  1  0.13765000  0.88039000  0.03774000  1.0
  O  O224  1  0.96820000  0.74430000  0.73762000  1.0
  O  O225  1  0.86309000  0.05173000  0.91943000  1.0
  O  O226  1  0.97069000  0.00815000  0.07473000  1.0
  O  O227  1  0.06534000  0.69623000  0.89424000  1.0
  O  O228  1  0.14357000  0.89127000  0.80392000  1.0
  O  O229  1  0.09796000  0.04629000  0.90880000  1.0
  O  O230  1  0.02465000  0.93391000  0.96326000  1.0
  O  O231  1  0.99936000  0.87241000  0.82063000  1.0
  O  O232  1  0.97114000  0.99281000  0.86234000  1.0
  O  O233  1  0.08452000  0.83359000  0.91124000  1.0
