# generated using pymatgen
data_SnP2H14C6(NO3)2
_symmetry_space_group_name_H-M   'P 1'
_cell_length_a   7.06574000
_cell_length_b   8.03859000
_cell_length_c   10.33860000
_cell_angle_alpha   90.00010000
_cell_angle_beta   90.00040000
_cell_angle_gamma   110.83500000
_symmetry_Int_Tables_number   1
_chemical_formula_structural   SnP2H14C6(NO3)2
_chemical_formula_sum   'Sn2 P4 H28 C12 N4 O12'
_cell_volume   548.81885987
_cell_formula_units_Z   2
loop_
 _symmetry_equiv_pos_site_id
 _symmetry_equiv_pos_as_xyz
  1  'x, y, z'
loop_
 _atom_site_type_symbol
 _atom_site_label
 _atom_site_symmetry_multiplicity
 _atom_site_fract_x
 _atom_site_fract_y
 _atom_site_fract_z
 _atom_site_occupancy
  Sn  Sn0  1  0.61684000  0.19425000  0.95662000  1.0
  Sn  Sn1  1  0.38326000  0.80576000  0.45660000  1.0
  P  P2  1  0.13887000  0.19339000  0.04169000  1.0
  P  P3  1  0.86114000  0.80661000  0.54170000  1.0
  P  P4  1  0.63739000  0.17698000  0.29117000  1.0
  P  P5  1  0.36261000  0.82302000  0.79117000  1.0
  H  H6  1  0.09583000  0.86082000  0.97049000  1.0
  H  H7  1  0.90417000  0.13919000  0.47049000  1.0
  H  H8  1  0.73210000  0.43733000  0.10725000  1.0
  H  H9  1  0.26789000  0.56267000  0.60725000  1.0
  H  H10  1  0.21853000  0.00555000  0.19988000  1.0
  H  H11  1  0.78147000  0.99446000  0.69989000  1.0
  H  H12  1  0.96104000  0.98839000  0.21519000  1.0
  H  H13  1  0.03895000  0.01160000  0.71519000  1.0
  H  H14  1  0.24901000  0.74629000  0.14255000  1.0
  H  H15  1  0.75098000  0.25370000  0.64254000  1.0
  H  H16  1  0.08055000  0.59530000  0.03358000  1.0
  H  H17  1  0.91945000  0.40470000  0.53358000  1.0
  H  H18  1  0.00946000  0.47512000  0.25199000  1.0
  H  H19  1  0.99054000  0.52488000  0.75199000  1.0
  H  H20  1  0.97564000  0.67420000  0.31197000  1.0
  H  H21  1  0.02436000  0.32580000  0.81197000  1.0
  H  H22  1  0.68984000  0.75050000  0.23126000  1.0
  H  H23  1  0.31015000  0.24950000  0.73126000  1.0
  H  H24  1  0.51536000  0.60112000  0.11900000  1.0
  H  H25  1  0.48464000  0.39888000  0.61901000  1.0
  H  H26  1  0.78621000  0.66398000  0.95105000  1.0
  H  H27  1  0.21379000  0.33602000  0.45105000  1.0
  H  H28  1  0.75607000  0.86519000  0.99801000  1.0
  H  H29  1  0.24393000  0.13481000  0.49801000  1.0
  H  H30  1  0.45259000  0.37847000  0.26275000  1.0
  H  H31  1  0.54740000  0.62153000  0.76275000  1.0
  H  H32  1  0.64848000  0.46374000  0.38466000  1.0
  H  H33  1  0.35152000  0.53625000  0.88466000  1.0
  C  C34  1  0.08164000  0.99618000  0.14623000  1.0
  C  C35  1  0.91836000  0.00382000  0.64624000  1.0
  C  C36  1  0.08945000  0.68638000  0.11432000  1.0
  C  C37  1  0.91054000  0.31362000  0.61432000  1.0
  C  C38  1  0.96375000  0.58823000  0.22724000  1.0
  C  C39  1  0.03624000  0.41177000  0.72724000  1.0
  C  C40  1  0.67538000  0.66370000  0.14686000  1.0
  C  C41  1  0.32462000  0.33630000  0.64686000  1.0
  C  C42  1  0.80202000  0.75654000  0.03225000  1.0
  C  C43  1  0.19798000  0.24346000  0.53225000  1.0
  C  C44  1  0.60928000  0.39658000  0.29067000  1.0
  C  C45  1  0.39072000  0.60342000  0.79067000  1.0
  N  N46  1  0.02348000  0.83153000  0.06319000  1.0
  N  N47  1  0.97652000  0.16847000  0.56318000  1.0
  N  N48  1  0.74377000  0.51518000  0.18988000  1.0
  N  N49  1  0.25622000  0.48482000  0.68988000  1.0
  O  O50  1  0.28805000  0.16437000  0.94042000  1.0
  O  O51  1  0.71195000  0.83563000  0.44042000  1.0
  O  O52  1  0.23194000  0.36055000  0.12156000  1.0
  O  O53  1  0.76805000  0.63945000  0.62156000  1.0
  O  O54  1  0.93759000  0.17164000  0.97307000  1.0
  O  O55  1  0.06240000  0.82836000  0.47306000  1.0
  O  O56  1  0.56927000  0.09756000  0.15460000  1.0
  O  O57  1  0.43072000  0.90244000  0.65460000  1.0
  O  O58  1  0.85270000  0.20146000  0.32604000  1.0
  O  O59  1  0.14729000  0.79854000  0.82604000  1.0
  O  O60  1  0.47582000  0.07312000  0.39249000  1.0
  O  O61  1  0.52418000  0.92688000  0.89250000  1.0
