# generated using pymatgen
data_H12RhC16(NO3)2
_symmetry_space_group_name_H-M   'P 1'
_cell_length_a   9.54955000
_cell_length_b   10.12019921
_cell_length_c   20.16010000
_cell_angle_alpha   79.21547272
_cell_angle_beta   89.99540000
_cell_angle_gamma   61.84906642
_symmetry_Int_Tables_number   1
_chemical_formula_structural   H12RhC16(NO3)2
_chemical_formula_sum   'H48 Rh4 C64 N8 O24'
_cell_volume   1678.75252035
_cell_formula_units_Z   4
loop_
 _symmetry_equiv_pos_site_id
 _symmetry_equiv_pos_as_xyz
  1  'x, y, z'
loop_
 _atom_site_type_symbol
 _atom_site_label
 _atom_site_symmetry_multiplicity
 _atom_site_fract_x
 _atom_site_fract_y
 _atom_site_fract_z
 _atom_site_occupancy
  H  H0  1  0.27098000  0.30761000  0.05057000  1.0
  H  H1  1  0.57832000  0.69244000  0.44946000  1.0
  H  H2  1  0.72902000  0.69239000  0.94943000  1.0
  H  H3  1  0.42169000  0.30755000  0.55054000  1.0
  H  H4  1  0.20841000  0.43280000  0.92806000  1.0
  H  H5  1  0.64085000  0.56729000  0.57197000  1.0
  H  H6  1  0.79159000  0.56720000  0.07194000  1.0
  H  H7  1  0.35915000  0.43271000  0.42803000  1.0
  H  H8  1  0.01247000  0.40860000  0.85637000  1.0
  H  H9  1  0.42073000  0.59150000  0.64365000  1.0
  H  H10  1  0.98754000  0.59140000  0.14362000  1.0
  H  H11  1  0.57926000  0.40850000  0.35636000  1.0
  H  H12  1  0.87779000  0.26076000  0.90801000  1.0
  H  H13  1  0.13819000  0.73942000  0.59202000  1.0
  H  H14  1  0.12221000  0.73924000  0.09199000  1.0
  H  H15  1  0.86181000  0.26058000  0.40798000  1.0
  H  H16  1  0.93884000  0.13833000  0.03139000  1.0
  H  H17  1  0.07689000  0.86173000  0.46861000  1.0
  H  H18  1  0.06116000  0.86167000  0.96861000  1.0
  H  H19  1  0.92311000  0.13827000  0.53139000  1.0
  H  H20  1  0.64637000  0.59443000  0.17121000  1.0
  H  H21  1  0.24033000  0.40569000  0.32877000  1.0
  H  H22  1  0.35363000  0.40557000  0.82879000  1.0
  H  H23  1  0.75967000  0.59431000  0.67123000  1.0
  H  H24  1  0.76755000  0.35183000  0.12662000  1.0
  H  H25  1  0.11892000  0.64828000  0.37331000  1.0
  H  H26  1  0.23245000  0.64817000  0.87338000  1.0
  H  H27  1  0.88108000  0.35172000  0.62669000  1.0
  H  H28  1  0.61175000  0.21654000  0.11841000  1.0
  H  H29  1  0.82791000  0.78355000  0.38153000  1.0
  H  H30  1  0.38825000  0.78346000  0.88159000  1.0
  H  H31  1  0.17209000  0.21645000  0.61847000  1.0
  H  H32  1  0.34563000  0.30762000  0.16241000  1.0
  H  H33  1  0.65278000  0.69246000  0.33758000  1.0
  H  H34  1  0.65437000  0.69238000  0.83758000  1.0
  H  H35  1  0.34722000  0.30754000  0.66242000  1.0
  H  H36  1  0.22801000  0.54676000  0.20812000  1.0
  H  H37  1  0.77440000  0.45320000  0.29187000  1.0
  H  H38  1  0.77199000  0.45324000  0.79188000  1.0
  H  H39  1  0.22560000  0.54680000  0.70813000  1.0
  H  H40  1  0.52559000  0.12300000  0.32685000  1.0
  H  H41  1  0.64856000  0.87701000  0.17319000  1.0
  H  H42  1  0.47441000  0.87700000  0.67315000  1.0
  H  H43  1  0.35144000  0.12299000  0.82681000  1.0
  H  H44  1  0.79052000  0.12277000  0.32686000  1.0
  H  H45  1  0.91324000  0.87725000  0.17316000  1.0
  H  H46  1  0.20948000  0.87723000  0.67314000  1.0
  H  H47  1  0.08676000  0.12275000  0.82684000  1.0
  Rh  Rh48  1  0.34573000  0.00002000  0.25002000  1.0
  Rh  Rh49  1  0.65426000  0.99998000  0.74998000  1.0
  Rh  Rh50  1  0.09213000  0.99999000  0.25000000  1.0
  Rh  Rh51  1  0.90787000  0.00001000  0.75000000  1.0
  C  C52  1  0.14845000  0.13809000  0.12132000  1.0
  C  C53  1  0.28633000  0.86185000  0.37870000  1.0
  C  C54  1  0.85155000  0.86191000  0.87868000  1.0
  C  C55  1  0.71367000  0.13815000  0.62130000  1.0
  C  C56  1  0.10951000  0.21459000  0.04820000  1.0
  C  C57  1  0.32384000  0.78536000  0.45182000  1.0
  C  C58  1  0.89048000  0.78541000  0.95180000  1.0
  C  C59  1  0.67616000  0.21464000  0.54818000  1.0
  C  C60  1  0.18575000  0.29726000  0.01887000  1.0
  C  C61  1  0.48273000  0.70272000  0.48115000  1.0
  C  C62  1  0.81425000  0.70274000  0.98113000  1.0
  C  C63  1  0.51728000  0.29727000  0.51885000  1.0
  C  C64  1  0.14997000  0.36742000  0.95019000  1.0
  C  C65  1  0.51703000  0.63262000  0.54984000  1.0
  C  C66  1  0.85003000  0.63258000  0.04981000  1.0
  C  C67  1  0.48297000  0.36738000  0.45016000  1.0
  C  C68  1  0.03976000  0.35397000  0.91021000  1.0
  C  C69  1  0.39334000  0.64613000  0.58981000  1.0
  C  C70  1  0.96024000  0.64603000  0.08979000  1.0
  C  C71  1  0.60666000  0.35387000  0.41019000  1.0
  C  C72  1  0.96388000  0.27121000  0.93919000  1.0
  C  C73  1  0.23472000  0.72891000  0.56083000  1.0
  C  C74  1  0.03611000  0.72880000  0.06081000  1.0
  C  C75  1  0.76528000  0.27109000  0.43917000  1.0
  C  C76  1  0.99752000  0.20267000  0.00810000  1.0
  C  C77  1  0.19989000  0.79732000  0.49191000  1.0
  C  C78  1  0.00248000  0.79733000  0.99190000  1.0
  C  C79  1  0.80012000  0.20267000  0.50809000  1.0
  C  C80  1  0.35391000  0.73363000  0.21400000  1.0
  C  C81  1  0.08726000  0.26643000  0.28599000  1.0
  C  C82  1  0.64609000  0.26637000  0.78600000  1.0
  C  C83  1  0.91275000  0.73356000  0.71401000  1.0
  C  C84  1  0.42878000  0.58628000  0.19080000  1.0
  C  C85  1  0.01461000  0.41379000  0.30918000  1.0
  C  C86  1  0.57122000  0.41372000  0.80920000  1.0
  C  C87  1  0.98538000  0.58621000  0.69082000  1.0
  C  C88  1  0.58187000  0.53071000  0.16855000  1.0
  C  C89  1  0.11210000  0.46939000  0.33141000  1.0
  C  C90  1  0.41813000  0.46929000  0.83144000  1.0
  C  C91  1  0.88789000  0.53062000  0.66859000  1.0
  C  C92  1  0.64774000  0.39743000  0.14297000  1.0
  C  C93  1  0.04467000  0.60271000  0.35696000  1.0
  C  C94  1  0.35226000  0.60257000  0.85703000  1.0
  C  C95  1  0.95533000  0.39729000  0.64304000  1.0
  C  C96  1  0.56077000  0.31971000  0.13916000  1.0
  C  C97  1  0.88000000  0.68039000  0.36077000  1.0
  C  C98  1  0.43923000  0.68029000  0.86084000  1.0
  C  C99  1  0.12000000  0.31961000  0.63923000  1.0
  C  C100  1  0.41047000  0.37175000  0.16311000  1.0
  C  C101  1  0.78173000  0.62831000  0.33686000  1.0
  C  C102  1  0.58953000  0.62825000  0.83689000  1.0
  C  C103  1  0.21827000  0.37169000  0.66314000  1.0
  C  C104  1  0.34477000  0.50455000  0.18903000  1.0
  C  C105  1  0.84886000  0.49549000  0.31096000  1.0
  C  C106  1  0.65523000  0.49545000  0.81097000  1.0
  C  C107  1  0.15114000  0.50451000  0.68904000  1.0
  C  C108  1  0.61274000  0.06825000  0.29249000  1.0
  C  C109  1  0.68094000  0.93177000  0.20754000  1.0
  C  C110  1  0.38727000  0.93175000  0.70751000  1.0
  C  C111  1  0.31907000  0.06823000  0.79246000  1.0
  C  C112  1  0.75817000  0.06792000  0.29255000  1.0
  C  C113  1  0.82604000  0.93210000  0.20748000  1.0
  C  C114  1  0.24184000  0.93208000  0.70745000  1.0
  C  C115  1  0.17396000  0.06791000  0.79252000  1.0
  N  N116  1  0.57357000  0.00002000  0.25002000  1.0
  N  N117  1  0.42643000  0.99998000  0.74998000  1.0
  N  N118  1  0.86539000  0.00001000  0.25000000  1.0
  N  N119  1  0.13461000  0.99999000  0.75000000  1.0
  N  N120  1  0.44500000  0.94388000  0.00707000  1.0
  N  N121  1  0.38888000  0.05610000  0.49293000  1.0
  N  N122  1  0.55500000  0.05612000  0.99293000  1.0
  N  N123  1  0.61112000  0.94389000  0.50707000  1.0
  O  O124  1  0.27987000  0.11445000  0.15069000  1.0
  O  O125  1  0.39418000  0.88543000  0.34933000  1.0
  O  O126  1  0.72013000  0.88555000  0.84931000  1.0
  O  O127  1  0.60582000  0.11457000  0.65067000  1.0
  O  O128  1  0.04788000  0.10087000  0.14927000  1.0
  O  O129  1  0.14852000  0.89920000  0.35074000  1.0
  O  O130  1  0.95212000  0.89913000  0.85073000  1.0
  O  O131  1  0.85147000  0.10081000  0.64926000  1.0
  O  O132  1  0.44244000  0.79477000  0.22117000  1.0
  O  O133  1  0.23693000  0.20538000  0.27882000  1.0
  O  O134  1  0.55756000  0.20523000  0.77882000  1.0
  O  O135  1  0.76307000  0.79462000  0.72118000  1.0
  O  O136  1  0.20573000  0.79002000  0.22416000  1.0
  O  O137  1  0.99559000  0.20990000  0.27587000  1.0
  O  O138  1  0.79427000  0.20998000  0.77584000  1.0
  O  O139  1  0.00441000  0.79010000  0.72413000  1.0
  O  O140  1  0.46725000  0.87322000  0.06465000  1.0
  O  O141  1  0.34048000  0.12678000  0.43536000  1.0
  O  O142  1  0.53274000  0.12678000  0.93535000  1.0
  O  O143  1  0.65952000  0.87322000  0.56464000  1.0
  O  O144  1  0.36747000  0.95829000  0.95639000  1.0
  O  O145  1  0.32577000  0.04163000  0.54361000  1.0
  O  O146  1  0.63252000  0.04172000  0.04360000  1.0
  O  O147  1  0.67423000  0.95837000  0.45639000  1.0
