# generated using pymatgen
data_AlH6C9SO6
_symmetry_space_group_name_H-M   'P 1'
_cell_length_a   6.69428000
_cell_length_b   11.10060000
_cell_length_c   12.63041565
_cell_angle_alpha   96.34544541
_cell_angle_beta   102.15861264
_cell_angle_gamma   106.87810000
_symmetry_Int_Tables_number   1
_chemical_formula_structural   AlH6C9SO6
_chemical_formula_sum   'Al2 H12 C18 S2 O12'
_cell_volume   863.08507326
_cell_formula_units_Z   2
loop_
 _symmetry_equiv_pos_site_id
 _symmetry_equiv_pos_as_xyz
  1  'x, y, z'
loop_
 _atom_site_type_symbol
 _atom_site_label
 _atom_site_symmetry_multiplicity
 _atom_site_fract_x
 _atom_site_fract_y
 _atom_site_fract_z
 _atom_site_occupancy
  Al  Al0  1  0.00000000  0.50000000  0.50000000  1.0
  Al  Al1  1  0.50000000  0.50000000  0.50000000  1.0
  H  H2  1  0.34364000  0.58213000  0.63377000  1.0
  H  H3  1  0.65634000  0.41788000  0.36622000  1.0
  H  H4  1  0.74699000  0.11042000  0.42496000  1.0
  H  H5  1  0.25300000  0.88958000  0.57505000  1.0
  H  H6  1  0.45883000  0.92698000  0.37305000  1.0
  H  H7  1  0.51122000  0.78094000  0.33826000  1.0
  H  H8  1  0.45612000  0.81639000  0.46549000  1.0
  H  H9  1  0.54387000  0.18360000  0.53451000  1.0
  H  H10  1  0.48878000  0.21906000  0.66174000  1.0
  H  H11  1  0.54116000  0.07302000  0.62695000  1.0
  H  H12  1  0.66263000  0.56695000  0.12631000  1.0
  H  H13  1  0.33736000  0.43304000  0.87368000  1.0
  C  C14  1  0.83047000  0.50066000  0.69638000  1.0
  C  C15  1  0.86119000  0.72901000  0.50522000  1.0
  C  C16  1  0.16952000  0.49934000  0.30362000  1.0
  C  C17  1  0.13881000  0.27098000  0.49478000  1.0
  C  C18  1  0.92467000  0.86835000  0.49985000  1.0
  C  C19  1  0.07534000  0.13164000  0.50016000  1.0
  C  C20  1  0.77440000  0.92847000  0.45592000  1.0
  C  C21  1  0.22560000  0.07153000  0.54408000  1.0
  C  C22  1  0.85655000  0.05981000  0.45784000  1.0
  C  C23  1  0.14344000  0.94018000  0.54216000  1.0
  C  C24  1  0.92755000  0.52839000  0.12887000  1.0
  C  C25  1  0.07247000  0.47162000  0.87113000  1.0
  C  C26  1  0.10933000  0.50317000  0.18588000  1.0
  C  C27  1  0.89069000  0.49683000  0.81413000  1.0
  C  C28  1  0.08484000  0.48296000  0.98583000  1.0
  C  C29  1  0.91518000  0.51705000  0.01417000  1.0
  C  C30  1  0.53752000  0.85998000  0.40572000  1.0
  C  C31  1  0.46247000  0.14001000  0.59428000  1.0
  S  S32  1  0.26147000  0.46447000  0.09887000  1.0
  S  S33  1  0.73855000  0.53554000  0.90113000  1.0
  O  O34  1  0.97647000  0.50061000  0.64640000  1.0
  O  O35  1  0.66681000  0.67351000  0.50754000  1.0
  O  O36  1  0.35761000  0.49492000  0.34599000  1.0
  O  O37  1  0.99234000  0.32380000  0.49021000  1.0
  O  O38  1  0.02352000  0.49939000  0.35360000  1.0
  O  O39  1  0.33318000  0.32648000  0.49246000  1.0
  O  O40  1  0.64238000  0.50509000  0.65400000  1.0
  O  O41  1  0.00765000  0.67620000  0.50978000  1.0
  O  O42  1  0.30017000  0.55868000  0.55405000  1.0
  O  O43  1  0.69982000  0.44132000  0.44594000  1.0
  O  O44  1  0.78669000  0.56023000  0.17943000  1.0
  O  O45  1  0.21329000  0.43974000  0.82056000  1.0
