# generated using pymatgen
data_AlH9C27(N5O6)2
_symmetry_space_group_name_H-M   'P 1'
_cell_length_a   4.02368000
_cell_length_b   17.04478158
_cell_length_c   17.59068706
_cell_angle_alpha   63.05177097
_cell_angle_beta   89.42392996
_cell_angle_gamma   88.12364651
_symmetry_Int_Tables_number   1
_chemical_formula_structural   AlH9C27(N5O6)2
_chemical_formula_sum   'Al1 H9 C27 N10 O12'
_cell_volume   1074.82831229
_cell_formula_units_Z   1
loop_
 _symmetry_equiv_pos_site_id
 _symmetry_equiv_pos_as_xyz
  1  'x, y, z'
loop_
 _atom_site_type_symbol
 _atom_site_label
 _atom_site_symmetry_multiplicity
 _atom_site_fract_x
 _atom_site_fract_y
 _atom_site_fract_z
 _atom_site_occupancy
  Al  Al0  1  0.54832000  0.99369000  0.50593000  1.0
  H  H1  1  0.88407000  0.70817000  0.89717000  1.0
  H  H2  1  0.74407000  0.91771000  0.19259000  1.0
  H  H3  1  0.23117000  0.39814000  0.41415000  1.0
  H  H4  1  0.75606000  0.66663000  0.41755000  1.0
  H  H5  1  0.95716000  0.98868000  0.27911000  1.0
  H  H6  1  0.18779000  0.23426000  0.48944000  1.0
  H  H7  1  0.93973000  0.39898000  0.17865000  1.0
  H  H8  1  0.34670000  0.93052000  0.90180000  1.0
  H  H9  1  0.83988000  0.79058000  0.73840000  1.0
  C  C10  1  0.05502000  0.94842000  0.63517000  1.0
  C  C11  1  0.04975000  0.91377000  0.44871000  1.0
  C  C12  1  0.03595000  0.12656000  0.42752000  1.0
  C  C13  1  0.97134000  0.77513000  0.86320000  1.0
  C  C14  1  0.11602000  0.81404000  0.90981000  1.0
  C  C15  1  0.79555000  0.87875000  0.26048000  1.0
  C  C16  1  0.73029000  0.78842000  0.29953000  1.0
  C  C17  1  0.08801000  0.40893000  0.29205000  1.0
  C  C18  1  0.15635000  0.36207000  0.37985000  1.0
  C  C19  1  0.79816000  0.73702000  0.38675000  1.0
  C  C20  1  0.92168000  0.77703000  0.43318000  1.0
  C  C21  1  0.97726000  0.86764000  0.39604000  1.0
  C  C22  1  0.91716000  0.91801000  0.30849000  1.0
  C  C23  1  0.13431000  0.27119000  0.42141000  1.0
  C  C24  1  0.04679000  0.22446000  0.37669000  1.0
  C  C25  1  0.97470000  0.27245000  0.28935000  1.0
  C  C26  1  0.98989000  0.36367000  0.24686000  1.0
  C  C27  1  0.23232000  0.89972000  0.86675000  1.0
  C  C28  1  0.20542000  0.94472000  0.77860000  1.0
  C  C29  1  0.06399000  0.90687000  0.73099000  1.0
  C  C30  1  0.94654000  0.82114000  0.77486000  1.0
  C  C31  1  0.12086000  0.63362000  0.12378000  1.0
  C  C32  1  0.38382000  0.76065000  0.12381000  1.0
  C  C33  1  0.16316000  0.76440000  0.00285000  1.0
  C  C34  1  0.14150000  0.50447000  0.24756000  1.0
  C  C35  1  0.36986000  0.62235000  0.25424000  1.0
  C  C36  1  0.58500000  0.74665000  0.25085000  1.0
  N  N37  1  0.29099000  0.67224000  0.16729000  1.0
  N  N38  1  0.32456000  0.80548000  0.04049000  1.0
  N  N39  1  0.04824000  0.68202000  0.04131000  1.0
  N  N40  1  0.03779000  0.54933000  0.16597000  1.0
  N  N41  1  0.29914000  0.53746000  0.29324000  1.0
  N  N42  1  0.53268000  0.79735000  0.16683000  1.0
  N  N43  1  0.51689000  0.66083000  0.29557000  1.0
  N  N44  1  0.34018000  0.03397000  0.73531000  1.0
  N  N45  1  0.90601000  0.22692000  0.23715000  1.0
  N  N46  1  0.00683000  0.72123000  0.52394000  1.0
  O  O47  1  0.79719000  0.08547000  0.41725000  1.0
  O  O48  1  0.80760000  0.99718000  0.59585000  1.0
  O  O49  1  0.83196000  0.90508000  0.50493000  1.0
  O  O50  1  0.26840000  0.09264000  0.48236000  1.0
  O  O51  1  0.29802000  0.96269000  0.42994000  1.0
  O  O52  1  0.29352000  0.92280000  0.60291000  1.0
  O  O53  1  0.26925000  0.07868000  0.65892000  1.0
  O  O54  1  0.51636000  0.05793000  0.77777000  1.0
  O  O55  1  0.06414000  0.15735000  0.25454000  1.0
  O  O56  1  0.70035000  0.26304000  0.17864000  1.0
  O  O57  1  0.21168000  0.75071000  0.55598000  1.0
  O  O58  1  0.87488000  0.64921000  0.56097000  1.0
