# generated using pymatgen
data_CdH4C6(N3O2)2
_symmetry_space_group_name_H-M   'P 1'
_cell_length_a   15.65530000
_cell_length_b   15.83783538
_cell_length_c   15.83780000
_cell_angle_alpha   109.70411113
_cell_angle_beta   109.23800000
_cell_angle_gamma   109.23809917
_symmetry_Int_Tables_number   1
_chemical_formula_structural   CdH4C6(N3O2)2
_chemical_formula_sum   'Cd6 H24 C36 N36 O24'
_cell_volume   3031.57244618
_cell_formula_units_Z   6
loop_
 _symmetry_equiv_pos_site_id
 _symmetry_equiv_pos_as_xyz
  1  'x, y, z'
loop_
 _atom_site_type_symbol
 _atom_site_label
 _atom_site_symmetry_multiplicity
 _atom_site_fract_x
 _atom_site_fract_y
 _atom_site_fract_z
 _atom_site_occupancy
  Cd  Cd0  1  0.25111000  0.75054000  0.50134000  1.0
  Cd  Cd1  1  0.74977000  0.24920000  0.49865000  1.0
  Cd  Cd2  1  0.50057000  0.75080000  0.24945000  1.0
  Cd  Cd3  1  0.50057000  0.24946000  0.75080000  1.0
  Cd  Cd4  1  0.25112000  0.50135000  0.75055000  1.0
  Cd  Cd5  1  0.74976000  0.49865000  0.24919000  1.0
  H  H6  1  0.32726000  0.89210000  0.76129000  1.0
  H  H7  1  0.67279000  0.43364000  0.56456000  1.0
  H  H8  1  0.12948000  0.56539000  0.23895000  1.0
  H  H9  1  0.87109000  0.10783000  0.43534000  1.0
  H  H10  1  0.56408000  0.67356000  0.43460000  1.0
  H  H11  1  0.76326000  0.32751000  0.89216000  1.0
  H  H12  1  0.43515000  0.86919000  0.10790000  1.0
  H  H13  1  0.23914000  0.13092000  0.56635000  1.0
  H  H14  1  0.10822000  0.43544000  0.86907000  1.0
  H  H15  1  0.56597000  0.23871000  0.13081000  1.0
  H  H16  1  0.43575000  0.56466000  0.67248000  1.0
  H  H17  1  0.89052000  0.76104000  0.32643000  1.0
  H  H18  1  0.67278000  0.56456000  0.43363000  1.0
  H  H19  1  0.32726000  0.76129000  0.89210000  1.0
  H  H20  1  0.87109000  0.43534000  0.10783000  1.0
  H  H21  1  0.12948000  0.23896000  0.56539000  1.0
  H  H22  1  0.43516000  0.10790000  0.86919000  1.0
  H  H23  1  0.23915000  0.56636000  0.13092000  1.0
  H  H24  1  0.56410000  0.43461000  0.67357000  1.0
  H  H25  1  0.76326000  0.89217000  0.32751000  1.0
  H  H26  1  0.89052000  0.32644000  0.76104000  1.0
  H  H27  1  0.43575000  0.67249000  0.56466000  1.0
  H  H28  1  0.56596000  0.13081000  0.23871000  1.0
  H  H29  1  0.10823000  0.86908000  0.43543000  1.0
  C  C30  1  0.36226000  1.00000000  0.63011000  1.0
  C  C31  1  0.63773000  0.26779000  0.63762000  1.0
  C  C32  1  0.36995000  0.73221000  0.36984000  1.0
  C  C33  1  0.62972000  0.00000000  0.36211000  1.0
  C  C34  1  0.63774000  0.63763000  0.26779000  1.0
  C  C35  1  0.62971000  0.36210000  0.99999000  1.0
  C  C36  1  0.36225000  0.63011000  0.00000000  1.0
  C  C37  1  0.36994000  0.36983000  0.73220000  1.0
  C  C38  1  0.00011000  0.36237000  0.63016000  1.0
  C  C39  1  0.73215000  0.36989000  0.36989000  1.0
  C  C40  1  0.26761000  0.63790000  0.63790000  1.0
  C  C41  1  0.00011000  0.63017000  0.36237000  1.0
  C  C42  1  0.34917000  0.94589000  0.73426000  1.0
  C  C43  1  0.65062000  0.38483000  0.59651000  1.0
  C  C44  1  0.21089000  0.61461000  0.26593000  1.0
  C  C45  1  0.78960000  0.05409000  0.40338000  1.0
  C  C46  1  0.59627000  0.65132000  0.38538000  1.0
  C  C47  1  0.73551000  0.34929000  0.94591000  1.0
  C  C48  1  0.40328000  0.78837000  0.05410000  1.0
  C  C49  1  0.26579000  0.21168000  0.61516000  1.0
  C  C50  1  0.05411000  0.40349000  0.78832000  1.0
  C  C51  1  0.61492000  0.26574000  0.21164000  1.0
  C  C52  1  0.38622000  0.59662000  0.65070000  1.0
  C  C53  1  0.94495000  0.73406000  0.34867000  1.0
  C  C54  1  0.65062000  0.59651000  0.38483000  1.0
  C  C55  1  0.34917000  0.73426000  0.94589000  1.0
  C  C56  1  0.78960000  0.40338000  0.05409000  1.0
  C  C57  1  0.21089000  0.26594000  0.61461000  1.0
  C  C58  1  0.40328000  0.05410000  0.78836000  1.0
  C  C59  1  0.26579000  0.61517000  0.21168000  1.0
  C  C60  1  0.59628000  0.38539000  0.65133000  1.0
  C  C61  1  0.73551000  0.94591000  0.34929000  1.0
  C  C62  1  0.94495000  0.34868000  0.73406000  1.0
  C  C63  1  0.38622000  0.65071000  0.59662000  1.0
  C  C64  1  0.61491000  0.21163000  0.26573000  1.0
  C  C65  1  0.05411000  0.78832000  0.40348000  1.0
  N  N66  1  0.32348000  0.91256000  0.63387000  1.0
  N  N67  1  0.67649000  0.30984000  0.58844000  1.0
  N  N68  1  0.27802000  0.68917000  0.36626000  1.0
  N  N69  1  0.72148000  0.08741000  0.41082000  1.0
  N  N70  1  0.58885000  0.67709000  0.31083000  1.0
  N  N71  1  0.63407000  0.32341000  0.91258000  1.0
  N  N72  1  0.41091000  0.72131000  0.08743000  1.0
  N  N73  1  0.36665000  0.27859000  0.69015000  1.0
  N  N74  1  0.08805000  0.41156000  0.72140000  1.0
  N  N75  1  0.68961000  0.36613000  0.27869000  1.0
  N  N76  1  0.31067000  0.58918000  0.67659000  1.0
  N  N77  1  0.91176000  0.63374000  0.32291000  1.0
  N  N78  1  0.67650000  0.58844000  0.30984000  1.0
  N  N79  1  0.32348000  0.63388000  0.91257000  1.0
  N  N80  1  0.72149000  0.41082000  0.08741000  1.0
  N  N81  1  0.27802000  0.36626000  0.68917000  1.0
  N  N82  1  0.41092000  0.08744000  0.72131000  1.0
  N  N83  1  0.36665000  0.69016000  0.27860000  1.0
  N  N84  1  0.58885000  0.31083000  0.67709000  1.0
  N  N85  1  0.63408000  0.91259000  0.32341000  1.0
  N  N86  1  0.91175000  0.32291000  0.63373000  1.0
  N  N87  1  0.31066000  0.67659000  0.58917000  1.0
  N  N88  1  0.68961000  0.27869000  0.36613000  1.0
  N  N89  1  0.08805000  0.72140000  0.41155000  1.0
  N  N90  1  0.35046000  0.00000000  0.53731000  1.0
  N  N91  1  0.64973000  0.18678000  0.64938000  1.0
  N  N92  1  0.46295000  0.81322000  0.46260000  1.0
  N  N93  1  0.53575000  0.00000000  0.35023000  1.0
  N  N94  1  0.64973000  0.64938000  0.18678000  1.0
  N  N95  1  0.53576000  0.35023000  1.00000000  1.0
  N  N96  1  0.35046000  0.53731000  0.00000000  1.0
  N  N97  1  0.46295000  0.46260000  0.81322000  1.0
  N  N98  1  0.00035000  0.35062000  0.53740000  1.0
  N  N99  1  0.81315000  0.46269000  0.46269000  1.0
  N  N100  1  0.18552000  0.64977000  0.64977000  1.0
  N  N101  1  0.00035000  0.53740000  0.35062000  1.0
  O  O102  1  0.38743000  0.08528000  0.54122000  1.0
  O  O103  1  0.61273000  0.15430000  0.69836000  1.0
  O  O104  1  0.54521000  0.84704000  0.45884000  1.0
  O  O105  1  0.45393000  0.91472000  0.30191000  1.0
  O  O106  1  0.69817000  0.61180000  0.15297000  1.0
  O  O107  1  0.53921000  0.38719000  0.08528000  1.0
  O  O108  1  0.30215000  0.45594000  0.91472000  1.0
  O  O109  1  0.45843000  0.54406000  0.84570000  1.0
  O  O110  1  0.91437000  0.30164000  0.45594000  1.0
  O  O111  1  0.84621000  0.45878000  0.54406000  1.0
  O  O112  1  0.15201000  0.69809000  0.61281000  1.0
  O  O113  1  0.08637000  0.54117000  0.38820000  1.0
  O  O114  1  0.61273000  0.69836000  0.15430000  1.0
  O  O115  1  0.38743000  0.54122000  0.08528000  1.0
  O  O116  1  0.45393000  0.30191000  0.91472000  1.0
  O  O117  1  0.54520000  0.45883000  0.84703000  1.0
  O  O118  1  0.30215000  0.91472000  0.45594000  1.0
  O  O119  1  0.45843000  0.84570000  0.54406000  1.0
  O  O120  1  0.69817000  0.15296000  0.61179000  1.0
  O  O121  1  0.53921000  0.08528000  0.38719000  1.0
  O  O122  1  0.08637000  0.38820000  0.54117000  1.0
  O  O123  1  0.15202000  0.61281000  0.69809000  1.0
  O  O124  1  0.84621000  0.54406000  0.45878000  1.0
  O  O125  1  0.91437000  0.45594000  0.30164000  1.0
