# generated using pymatgen
data_CuH13C13(NO)4
_symmetry_space_group_name_H-M   'P 1'
_cell_length_a   8.77349000
_cell_length_b   8.82277000
_cell_length_c   10.23250000
_cell_angle_alpha   69.63220000
_cell_angle_beta   84.41410000
_cell_angle_gamma   77.58830000
_symmetry_Int_Tables_number   1
_chemical_formula_structural   CuH13C13(NO)4
_chemical_formula_sum   'Cu2 H26 C26 N8 O8'
_cell_volume   724.96638645
_cell_formula_units_Z   2
loop_
 _symmetry_equiv_pos_site_id
 _symmetry_equiv_pos_as_xyz
  1  'x, y, z'
loop_
 _atom_site_type_symbol
 _atom_site_label
 _atom_site_symmetry_multiplicity
 _atom_site_fract_x
 _atom_site_fract_y
 _atom_site_fract_z
 _atom_site_occupancy
  Cu  Cu0  1  0.00000000  0.50000000  0.00000000  1.0
  Cu  Cu1  1  0.50000000  0.50000000  0.50000000  1.0
  H  H2  1  0.36436000  0.47942000  0.90854000  1.0
  H  H3  1  0.63564000  0.52058000  0.09146000  1.0
  H  H4  1  0.55992000  0.60206000  0.73685000  1.0
  H  H5  1  0.44008000  0.39795000  0.26314000  1.0
  H  H6  1  0.59330000  0.75929000  0.79662000  1.0
  H  H7  1  0.40669000  0.24071000  0.20338000  1.0
  H  H8  1  0.51049000  0.81294000  0.62883000  1.0
  H  H9  1  0.48952000  0.18706000  0.37117000  1.0
  H  H10  1  0.26821000  0.99554000  0.71830000  1.0
  H  H11  1  0.73179000  0.00446000  0.28169000  1.0
  H  H12  1  0.99780000  0.89203000  0.85926000  1.0
  H  H13  1  0.00220000  0.10797000  0.14073000  1.0
  H  H14  1  0.31794000  0.01449000  0.19802000  1.0
  H  H15  1  0.68206000  0.98551000  0.80199000  1.0
  H  H16  1  0.18632000  0.55346000  0.68102000  1.0
  H  H17  1  0.81368000  0.44655000  0.31898000  1.0
  H  H18  1  0.89082000  0.64047000  0.69448000  1.0
  H  H19  1  0.10917000  0.35953000  0.30552000  1.0
  H  H20  1  0.78567000  0.71259000  0.53513000  1.0
  H  H21  1  0.21433000  0.28741000  0.46486000  1.0
  H  H22  1  0.86724000  0.85179000  0.58616000  1.0
  H  H23  1  0.13276000  0.14821000  0.41384000  1.0
  H  H24  1  0.94964000  0.77904000  0.29929000  1.0
  H  H25  1  0.05036000  0.22097000  0.70071000  1.0
  H  H26  1  0.26422000  0.68033000  0.24546000  1.0
  H  H27  1  0.73578000  0.31966000  0.75454000  1.0
  C  C28  1  0.29837000  0.60415000  0.88048000  1.0
  C  C29  1  0.70163000  0.39584000  0.11952000  1.0
  C  C30  1  0.51556000  0.72796000  0.73659000  1.0
  C  C31  1  0.48444000  0.27204000  0.26341000  1.0
  C  C32  1  0.24321000  0.87483000  0.77864000  1.0
  C  C33  1  0.75678000  0.12518000  0.22136000  1.0
  C  C34  1  0.11297000  0.82146000  0.84992000  1.0
  C  C35  1  0.88702000  0.17854000  0.15007000  1.0
  C  C36  1  0.21824000  0.25252000  0.95668000  1.0
  C  C37  1  0.78176000  0.74748000  0.04332000  1.0
  C  C38  1  0.36362000  0.12215000  0.97797000  1.0
  C  C39  1  0.63638000  0.87784000  0.02204000  1.0
  C  C40  1  0.46585000  0.11326000  0.86504000  1.0
  C  C41  1  0.53415000  0.88674000  0.13496000  1.0
  C  C42  1  0.39891000  0.00872000  0.11122000  1.0
  C  C43  1  0.60109000  0.99127000  0.88879000  1.0
  C  C44  1  0.44193000  0.23243000  0.71818000  1.0
  C  C45  1  0.55807000  0.76757000  0.28182000  1.0
  C  C46  1  0.16885000  0.60728000  0.56972000  1.0
  C  C47  1  0.83115000  0.39272000  0.43029000  1.0
  C  C48  1  0.88411000  0.72457000  0.58661000  1.0
  C  C49  1  0.11589000  0.27544000  0.41339000  1.0
  C  C50  1  0.04734000  0.72657000  0.36886000  1.0
  C  C51  1  0.95266000  0.27344000  0.63114000  1.0
  C  C52  1  0.20248000  0.67301000  0.34365000  1.0
  C  C53  1  0.79752000  0.32699000  0.65635000  1.0
  N  N54  1  0.14843000  0.65171000  0.91282000  1.0
  N  N55  1  0.85158000  0.34829000  0.08717000  1.0
  N  N56  1  0.35849000  0.73543000  0.79859000  1.0
  N  N57  1  0.64151000  0.26456000  0.20141000  1.0
  N  N58  1  0.27725000  0.59887000  0.46990000  1.0
  N  N59  1  0.72275000  0.40113000  0.53011000  1.0
  N  N60  1  0.02855000  0.68475000  0.51187000  1.0
  N  N61  1  0.97145000  0.31525000  0.48813000  1.0
  O  O62  1  0.17947000  0.30962000  0.05900000  1.0
  O  O63  1  0.82053000  0.69038000  0.94101000  1.0
  O  O64  1  0.14546000  0.30258000  0.84571000  1.0
  O  O65  1  0.85454000  0.69741000  0.15429000  1.0
  O  O66  1  0.45901000  0.38028000  0.70177000  1.0
  O  O67  1  0.54100000  0.61972000  0.29823000  1.0
  O  O68  1  0.42128000  0.18170000  0.62271000  1.0
  O  O69  1  0.57872000  0.81831000  0.37730000  1.0
