# generated using pymatgen
data_CuH8C14(SN3)2
_symmetry_space_group_name_H-M   'P 1'
_cell_length_a   7.88247000
_cell_length_b   10.37620000
_cell_length_c   11.40800000
_cell_angle_alpha   112.27100000
_cell_angle_beta   95.83530000
_cell_angle_gamma   99.37050000
_symmetry_Int_Tables_number   1
_chemical_formula_structural   CuH8C14(SN3)2
_chemical_formula_sum   'Cu2 H16 C28 S4 N12'
_cell_volume   838.18547722
_cell_formula_units_Z   2
loop_
 _symmetry_equiv_pos_site_id
 _symmetry_equiv_pos_as_xyz
  1  'x, y, z'
loop_
 _atom_site_type_symbol
 _atom_site_label
 _atom_site_symmetry_multiplicity
 _atom_site_fract_x
 _atom_site_fract_y
 _atom_site_fract_z
 _atom_site_occupancy
  Cu  Cu0  1  0.51358000  0.48750000  0.24741000  1.0
  Cu  Cu1  1  0.48642000  0.51250000  0.75259000  1.0
  H  H2  1  0.49476000  0.17131000  0.18723000  1.0
  H  H3  1  0.50524000  0.82868000  0.81277000  1.0
  H  H4  1  0.70473000  0.00726000  0.14772000  1.0
  H  H5  1  0.29526000  0.99273000  0.85228000  1.0
  H  H6  1  0.11539000  0.37257000  0.21598000  1.0
  H  H7  1  0.88461000  0.62742000  0.78402000  1.0
  H  H8  1  0.88773000  0.52081000  0.25087000  1.0
  H  H9  1  0.11228000  0.47919000  0.74913000  1.0
  H  H10  1  0.30463000  0.59430000  0.07937000  1.0
  H  H11  1  0.69536000  0.40569000  0.92063000  1.0
  H  H12  1  0.08989000  0.75329000  0.10517000  1.0
  H  H13  1  0.91011000  0.24670000  0.89482000  1.0
  H  H14  1  0.15345000  0.82479000  0.50771000  1.0
  H  H15  1  0.84656000  0.17523000  0.49229000  1.0
  H  H16  1  0.36050000  0.65812000  0.46400000  1.0
  H  H17  1  0.63952000  0.34191000  0.53600000  1.0
  C  C18  1  0.33466000  0.35433000  0.41570000  1.0
  C  C19  1  0.66534000  0.64567000  0.58430000  1.0
  C  C20  1  0.66479000  0.64647000  0.09068000  1.0
  C  C21  1  0.33522000  0.35352000  0.90933000  1.0
  C  C22  1  0.63335000  0.21107000  0.19222000  1.0
  C  C23  1  0.36665000  0.78892000  0.80778000  1.0
  C  C24  1  0.74982000  0.12052000  0.17089000  1.0
  C  C25  1  0.25017000  0.87947000  0.82910000  1.0
  C  C26  1  0.92638000  0.17875000  0.17920000  1.0
  C  C27  1  0.07361000  0.82124000  0.82079000  1.0
  C  C28  1  0.97934000  0.32486000  0.20844000  1.0
  C  C29  1  0.02066000  0.67513000  0.79156000  1.0
  C  C30  1  0.85432000  0.40700000  0.22827000  1.0
  C  C31  1  0.14568000  0.59299000  0.77173000  1.0
  C  C32  1  0.05439000  0.09323000  0.15743000  1.0
  C  C33  1  0.94561000  0.90676000  0.84256000  1.0
  C  C34  1  0.26612000  0.64628000  0.17198000  1.0
  C  C35  1  0.73388000  0.35372000  0.82802000  1.0
  C  C36  1  0.14770000  0.73456000  0.18641000  1.0
  C  C37  1  0.85230000  0.26545000  0.81359000  1.0
  C  C38  1  0.10503000  0.79953000  0.30868000  1.0
  C  C39  1  0.89497000  0.20048000  0.69131000  1.0
  C  C40  1  0.18256000  0.77382000  0.41169000  1.0
  C  C41  1  0.81744000  0.22620000  0.58831000  1.0
  C  C42  1  0.29820000  0.68300000  0.38798000  1.0
  C  C43  1  0.70181000  0.31702000  0.61202000  1.0
  C  C44  1  0.98222000  0.88942000  0.32864000  1.0
  C  C45  1  0.01777000  0.11058000  0.67135000  1.0
  S  S46  1  0.25496000  0.29779000  0.51631000  1.0
  S  S47  1  0.74503000  0.70221000  0.48370000  1.0
  S  S48  1  0.70677000  0.73100000  0.00040000  1.0
  S  S49  1  0.29323000  0.26899000  0.99960000  1.0
  N  N50  1  0.39132000  0.39126000  0.33806000  1.0
  N  N51  1  0.60868000  0.60875000  0.66194000  1.0
  N  N52  1  0.64024000  0.58258000  0.15678000  1.0
  N  N53  1  0.35977000  0.41741000  0.84322000  1.0
  N  N54  1  0.68519000  0.35114000  0.21993000  1.0
  N  N55  1  0.31482000  0.64886000  0.78007000  1.0
  N  N56  1  0.16384000  0.02822000  0.13908000  1.0
  N  N57  1  0.83616000  0.97177000  0.86092000  1.0
  N  N58  1  0.33892000  0.62062000  0.27065000  1.0
  N  N59  1  0.66108000  0.37939000  0.72935000  1.0
  N  N60  1  0.87958000  0.96079000  0.34521000  1.0
  N  N61  1  0.12041000  0.03921000  0.65479000  1.0
