# generated using pymatgen
data_Zn4H8C24S4N2O13F2
_symmetry_space_group_name_H-M   'P 1'
_cell_length_a   19.68700000
_cell_length_b   19.69840000
_cell_length_c   33.40320000
_cell_angle_alpha   79.08310000
_cell_angle_beta   79.11720000
_cell_angle_gamma   63.81710000
_symmetry_Int_Tables_number   1
_chemical_formula_structural   Zn4H8C24S4N2O13F2
_chemical_formula_sum   'Zn16 H32 C96 S16 N8 O52 F8'
_cell_volume   11332.57842350
_cell_formula_units_Z   4
loop_
 _symmetry_equiv_pos_site_id
 _symmetry_equiv_pos_as_xyz
  1  'x, y, z'
loop_
 _atom_site_type_symbol
 _atom_site_label
 _atom_site_symmetry_multiplicity
 _atom_site_fract_x
 _atom_site_fract_y
 _atom_site_fract_z
 _atom_site_occupancy
  Zn  Zn0  1  0.59939000  0.94406000  0.52169000  1.0
  Zn  Zn1  1  0.51628000  0.01606000  0.43985000  1.0
  Zn  Zn2  1  0.43920000  0.94112000  0.51761000  1.0
  Zn  Zn3  1  0.44407000  0.09910000  0.52048000  1.0
  Zn  Zn4  1  0.65048000  0.30521000  0.72835000  1.0
  Zn  Zn5  1  0.80984000  0.31151000  0.73334000  1.0
  Zn  Zn6  1  0.73357000  0.23154000  0.80951000  1.0
  Zn  Zn7  1  0.80689000  0.15175000  0.72845000  1.0
  Zn  Zn8  1  0.23323000  0.73316000  0.31054000  1.0
  Zn  Zn9  1  0.30435000  0.65174000  0.22795000  1.0
  Zn  Zn10  1  0.15100000  0.80746000  0.22839000  1.0
  Zn  Zn11  1  0.31071000  0.80856000  0.23212000  1.0
  Zn  Zn12  1  0.94008000  0.43931000  0.01649000  1.0
  Zn  Zn13  1  0.94457000  0.59894000  0.02181000  1.0
  Zn  Zn14  1  0.09892000  0.44365000  0.02127000  1.0
  Zn  Zn15  1  0.01811000  0.51713000  0.93979000  1.0
  H  H16  1  0.54880000  0.25075000  0.64995000  1.0
  H  H17  1  0.70134000  0.99871000  0.59993000  1.0
  H  H18  1  0.29961000  0.79913000  0.40052000  1.0
  H  H19  1  0.45018000  0.95031000  0.34928000  1.0
  H  H20  1  0.75885000  0.53711000  0.65924000  1.0
  H  H21  1  0.29905000  0.51987000  0.39811000  1.0
  H  H22  1  0.01999000  0.79608000  0.39853000  1.0
  H  H23  1  0.03056000  0.05258000  0.65262000  1.0
  H  H24  1  0.84894000  0.34975000  0.95055000  1.0
  H  H25  1  0.90093000  0.40035000  0.79951000  1.0
  H  H26  1  0.23019000  0.45170000  0.85175000  1.0
  H  H27  1  0.85711000  0.83750000  0.95923000  1.0
  H  H28  1  0.99838000  0.70166000  0.09991000  1.0
  H  H29  1  0.25044000  0.54908000  0.15010000  1.0
  H  H30  1  0.72007000  0.69780000  0.09834000  1.0
  H  H31  1  0.98976000  0.21346000  0.09188000  1.0
  H  H32  1  0.44269000  0.68672000  0.60398000  1.0
  H  H33  1  0.44702000  0.76674000  0.57268000  1.0
  H  H34  1  0.47785000  0.23242000  0.31434000  1.0
  H  H35  1  0.48178000  0.16384000  0.35635000  1.0
  H  H36  1  0.73183000  0.95416000  0.31426000  1.0
  H  H37  1  0.66387000  0.97945000  0.35684000  1.0
  H  H38  1  0.19776000  0.25758000  0.61462000  1.0
  H  H39  1  0.27495000  0.20575000  0.58092000  1.0
  H  H40  1  0.51815000  0.27390000  0.93540000  1.0
  H  H41  1  0.58722000  0.26735000  0.89318000  1.0
  H  H42  1  0.91475000  0.85493000  0.77298000  1.0
  H  H43  1  0.88419000  0.95299000  0.76012000  1.0
  H  H44  1  0.56400000  0.48271000  0.14526000  1.0
  H  H45  1  0.47691000  0.54302000  0.16937000  1.0
  H  H46  1  0.29840000  0.07385000  0.15588000  1.0
  H  H47  1  0.30251000  0.98464000  0.17768000  1.0
  C  C48  1  0.68377000  0.94132000  0.43727000  1.0
  C  C49  1  0.43022000  0.93032000  0.43131000  1.0
  C  C50  1  0.56079000  0.81446000  0.56066000  1.0
  C  C51  1  0.31433000  0.06446000  0.56103000  1.0
  C  C52  1  0.56779000  0.07003000  0.56895000  1.0
  C  C53  1  0.43704000  0.18372000  0.43663000  1.0
  C  C54  1  0.68750000  0.43504000  0.68909000  1.0
  C  C55  1  0.81933000  0.31785000  0.81957000  1.0
  C  C56  1  0.56622000  0.31183000  0.81238000  1.0
  C  C57  1  0.81391000  0.06372000  0.81065000  1.0
  C  C58  1  0.68228000  0.17933000  0.68102000  1.0
  C  C59  1  0.93503000  0.18957000  0.68906000  1.0
  C  C60  1  0.31302000  0.56594000  0.31130000  1.0
  C  C61  1  0.17900000  0.68213000  0.18117000  1.0
  C  C62  1  0.06598000  0.81066000  0.31170000  1.0
  C  C63  1  0.19125000  0.93443000  0.18750000  1.0
  C  C64  1  0.31926000  0.81961000  0.31839000  1.0
  C  C65  1  0.43433000  0.68607000  0.18722000  1.0
  C  C66  1  0.81656000  0.56071000  0.06184000  1.0
  C  C67  1  0.06992000  0.56845000  0.06886000  1.0
  C  C68  1  0.06066000  0.31598000  0.06178000  1.0
  C  C69  1  0.18485000  0.43706000  0.93847000  1.0
  C  C70  1  0.93162000  0.43127000  0.93041000  1.0
  C  C71  1  0.93774000  0.68435000  0.93877000  1.0
  C  C72  1  0.59562000  0.09954000  0.59770000  1.0
  C  C73  1  0.65440000  0.14976000  0.65234000  1.0
  C  C74  1  0.55409000  0.17072000  0.61259000  1.0
  C  C75  1  0.69591000  0.07857000  0.63746000  1.0
  C  C76  1  0.58256000  0.19526000  0.63911000  1.0
  C  C77  1  0.66752000  0.05408000  0.61087000  1.0
  C  C78  1  0.40116000  0.90094000  0.40318000  1.0
  C  C79  1  0.34841000  0.84878000  0.34659000  1.0
  C  C80  1  0.35828000  0.85784000  0.41658000  1.0
  C  C81  1  0.39132000  0.89185000  0.33320000  1.0
  C  C82  1  0.33260000  0.83242000  0.38910000  1.0
  C  C83  1  0.41706000  0.91717000  0.36067000  1.0
  C  C84  1  0.54416000  0.69607000  0.59781000  1.0
  C  C85  1  0.70194000  0.55442000  0.65132000  1.0
  C  C86  1  0.58571000  0.74063000  0.58490000  1.0
  C  C87  1  0.66188000  0.50990000  0.66416000  1.0
  C  C88  1  0.65942000  0.62238000  0.62733000  1.0
  C  C89  1  0.58760000  0.62820000  0.62235000  1.0
  C  C90  1  0.42316000  0.27245000  0.36930000  1.0
  C  C91  1  0.32801000  0.47517000  0.37812000  1.0
  C  C92  1  0.41207000  0.25751000  0.41231000  1.0
  C  C93  1  0.33831000  0.49076000  0.33582000  1.0
  C  C94  1  0.35915000  0.39590000  0.39055000  1.0
  C  C95  1  0.39245000  0.35257000  0.35733000  1.0
  C  C96  1  0.77256000  0.92702000  0.36994000  1.0
  C  C97  1  0.97525000  0.82550000  0.37854000  1.0
  C  C98  1  0.75768000  0.91702000  0.41300000  1.0
  C  C99  1  0.99076000  0.83549000  0.33622000  1.0
  C  C100  1  0.89601000  0.85840000  0.39104000  1.0
  C  C101  1  0.85264000  0.89285000  0.35784000  1.0
  C  C102  1  0.19958000  0.15899000  0.60161000  1.0
  C  C103  1  0.05107000  0.09680000  0.64802000  1.0
  C  C104  1  0.24060000  0.08917000  0.58525000  1.0
  C  C105  1  0.00991000  0.16525000  0.66425000  1.0
  C  C106  1  0.12034000  0.09386000  0.62544000  1.0
  C  C107  1  0.13044000  0.16045000  0.62482000  1.0
  C  C108  1  0.84705000  0.34645000  0.84878000  1.0
  C  C109  1  0.90323000  0.40328000  0.90128000  1.0
  C  C110  1  0.83327000  0.33343000  0.89181000  1.0
  C  C111  1  0.91670000  0.41663000  0.85824000  1.0
  C  C112  1  0.86059000  0.36099000  0.91739000  1.0
  C  C113  1  0.88942000  0.38901000  0.83267000  1.0
  C  C114  1  0.47821000  0.32622000  0.87997000  1.0
  C  C115  1  0.27514000  0.42254000  0.87161000  1.0
  C  C116  1  0.49268000  0.33740000  0.83688000  1.0
  C  C117  1  0.25995000  0.41184000  0.91393000  1.0
  C  C118  1  0.35435000  0.39122000  0.85903000  1.0
  C  C119  1  0.39802000  0.35743000  0.89212000  1.0
  C  C120  1  0.87788000  0.91846000  0.82124000  1.0
  C  C121  1  0.87391000  0.82990000  0.92688000  1.0
  C  C122  1  0.83875000  0.99043000  0.83540000  1.0
  C  C123  1  0.91273000  0.75872000  0.91345000  1.0
  C  C124  1  0.86063000  0.88829000  0.89353000  1.0
  C  C125  1  0.88980000  0.86025000  0.85526000  1.0
  C  C126  1  0.14945000  0.65457000  0.15237000  1.0
  C  C127  1  0.09936000  0.59613000  0.09765000  1.0
  C  C128  1  0.07826000  0.69627000  0.13746000  1.0
  C  C129  1  0.17060000  0.55446000  0.11253000  1.0
  C  C130  1  0.05381000  0.66790000  0.11084000  1.0
  C  C131  1  0.19501000  0.58282000  0.13915000  1.0
  C  C132  1  0.54964000  0.59212000  0.14648000  1.0
  C  C133  1  0.69992000  0.65332000  0.10285000  1.0
  C  C134  1  0.50771000  0.66210000  0.16255000  1.0
  C  C135  1  0.74176000  0.58481000  0.08678000  1.0
  C  C136  1  0.63016000  0.65626000  0.12479000  1.0
  C  C137  1  0.62021000  0.58975000  0.12490000  1.0
  C  C138  1  0.20741000  0.05299000  0.15034000  1.0
  C  C139  1  0.04673000  0.19642000  0.09962000  1.0
  C  C140  1  0.16661000  0.00770000  0.16279000  1.0
  C  C141  1  0.08621000  0.24149000  0.08693000  1.0
  C  C142  1  0.09026000  0.12797000  0.12288000  1.0
  C  C143  1  0.16229000  0.12226000  0.12740000  1.0
  S  S144  1  0.67561000  0.69966000  0.60214000  1.0
  S  S145  1  0.57246000  0.55014000  0.64710000  1.0
  S  S146  1  0.36480000  0.33962000  0.43715000  1.0
  S  S147  1  0.38550000  0.40934000  0.31086000  1.0
  S  S148  1  0.83985000  0.86736000  0.43775000  1.0
  S  S149  1  0.90932000  0.88502000  0.31133000  1.0
  S  S150  1  0.19514000  0.02779000  0.59777000  1.0
  S  S151  1  0.05482000  0.22657000  0.65203000  1.0
  S  S152  1  0.41018000  0.38559000  0.81229000  1.0
  S  S153  1  0.34164000  0.36402000  0.93870000  1.0
  S  S154  1  0.81791000  0.98642000  0.88885000  1.0
  S  S155  1  0.93361000  0.76219000  0.86030000  1.0
  S  S156  1  0.55353000  0.72320000  0.15108000  1.0
  S  S157  1  0.69662000  0.52367000  0.09805000  1.0
  S  S158  1  0.07596000  0.04890000  0.14651000  1.0
  S  S159  1  0.17646000  0.20102000  0.10301000  1.0
  N  N160  1  0.47421000  0.71364000  0.58741000  1.0
  N  N161  1  0.45596000  0.21836000  0.34291000  1.0
  N  N162  1  0.71854000  0.96601000  0.34368000  1.0
  N  N163  1  0.22132000  0.21725000  0.59523000  1.0
  N  N164  1  0.53237000  0.29285000  0.90617000  1.0
  N  N165  1  0.90278000  0.90621000  0.78124000  1.0
  N  N166  1  0.52530000  0.53615000  0.14991000  1.0
  N  N167  1  0.27986000  0.03278000  0.15793000  1.0
  O  O168  1  0.50048000  0.99985000  0.49968000  1.0
  O  O169  1  0.68239000  0.92526000  0.47637000  1.0
  O  O170  1  0.47175000  0.96504000  0.41399000  1.0
  O  O171  1  0.49365000  0.84246000  0.54889000  1.0
  O  O172  1  0.62461000  0.97725000  0.41752000  1.0
  O  O173  1  0.60672000  0.84685000  0.55276000  1.0
  O  O174  1  0.41123000  0.91870000  0.46958000  1.0
  O  O175  1  0.34374000  0.99691000  0.55053000  1.0
  O  O176  1  0.50212000  0.11241000  0.55787000  1.0
  O  O177  1  0.34527000  0.11216000  0.55191000  1.0
  O  O178  1  0.61290000  0.00446000  0.55814000  1.0
  O  O179  1  0.47137000  0.12432000  0.41708000  1.0
  O  O180  1  0.42348000  0.18280000  0.47577000  1.0
  O  O181  1  0.75023000  0.25075000  0.74939000  1.0
  O  O182  1  0.64096000  0.40361000  0.69697000  1.0
  O  O183  1  0.83474000  0.33704000  0.78141000  1.0
  O  O184  1  0.62567000  0.27606000  0.83184000  1.0
  O  O185  1  0.75391000  0.40812000  0.70048000  1.0
  O  O186  1  0.56706000  0.32615000  0.77320000  1.0
  O  O187  1  0.78334000  0.27723000  0.83498000  1.0
  O  O188  1  0.77585000  0.12291000  0.82952000  1.0
  O  O189  1  0.74738000  0.13642000  0.69271000  1.0
  O  O190  1  0.83166000  0.06413000  0.77131000  1.0
  O  O191  1  0.63780000  0.24551000  0.69120000  1.0
  O  O192  1  0.90718000  0.25590000  0.70077000  1.0
  O  O193  1  0.90453000  0.14245000  0.69657000  1.0
  O  O194  1  0.24972000  0.74945000  0.25033000  1.0
  O  O195  1  0.27708000  0.62389000  0.33098000  1.0
  O  O196  1  0.24426000  0.63633000  0.19233000  1.0
  O  O197  1  0.06612000  0.82774000  0.27276000  1.0
  O  O198  1  0.32930000  0.56620000  0.27228000  1.0
  O  O199  1  0.12415000  0.77472000  0.33134000  1.0
  O  O200  1  0.13731000  0.74798000  0.19198000  1.0
  O  O201  1  0.14403000  0.90356000  0.19665000  1.0
  O  O202  1  0.33436000  0.83541000  0.28003000  1.0
  O  O203  1  0.25887000  0.90558000  0.19868000  1.0
  O  O204  1  0.28151000  0.78106000  0.33570000  1.0
  O  O205  1  0.40215000  0.63937000  0.19496000  1.0
  O  O206  1  0.40668000  0.75184000  0.19973000  1.0
  O  O207  1  0.99962000  0.50023000  0.00004000  1.0
  O  O208  1  0.84415000  0.49441000  0.05017000  1.0
  O  O209  1  0.00390000  0.61324000  0.05840000  1.0
  O  O210  1  0.10776000  0.34676000  0.05353000  1.0
  O  O211  1  0.84702000  0.60791000  0.05403000  1.0
  O  O212  1  0.99431000  0.34315000  0.05031000  1.0
  O  O213  1  0.11268000  0.50333000  0.05735000  1.0
  O  O214  1  0.18451000  0.41974000  0.97743000  1.0
  O  O215  1  0.97026000  0.46924000  0.91487000  1.0
  O  O216  1  0.12677000  0.47410000  0.91888000  1.0
  O  O217  1  0.91434000  0.41418000  0.96863000  1.0
  O  O218  1  0.92094000  0.68462000  0.97765000  1.0
  O  O219  1  0.97447000  0.62590000  0.91937000  1.0
  F  F220  1  0.48409000  0.21871000  0.60157000  1.0
  F  F221  1  0.76589000  0.03052000  0.64853000  1.0
  F  F222  1  0.34049000  0.83892000  0.45706000  1.0
  F  F223  1  0.40948000  0.91060000  0.29270000  1.0
  F  F224  1  0.79239000  0.29341000  0.91019000  1.0
  F  F225  1  0.95707000  0.45713000  0.83984000  1.0
  F  F226  1  0.03030000  0.76607000  0.14854000  1.0
  F  F227  1  0.21858000  0.48460000  0.10150000  1.0
