# generated using pymatgen
data_Al3H21C45IO14
_symmetry_space_group_name_H-M   'P 1'
_cell_length_a   12.49220000
_cell_length_b   12.51274925
_cell_length_c   30.54190000
_cell_angle_alpha   98.72066948
_cell_angle_beta   90.75010000
_cell_angle_gamma   119.83423267
_symmetry_Int_Tables_number   1
_chemical_formula_structural   Al3H21C45IO14
_chemical_formula_sum   'Al6 H42 C90 I2 O28'
_cell_volume   4071.59513434
_cell_formula_units_Z   2
loop_
 _symmetry_equiv_pos_site_id
 _symmetry_equiv_pos_as_xyz
  1  'x, y, z'
loop_
 _atom_site_type_symbol
 _atom_site_label
 _atom_site_symmetry_multiplicity
 _atom_site_fract_x
 _atom_site_fract_y
 _atom_site_fract_z
 _atom_site_occupancy
  Al  Al0  1  0.59429000  0.18557000  0.51317000  1.0
  Al  Al1  1  0.59094000  0.92439000  0.49437000  1.0
  Al  Al2  1  0.34628000  0.91539000  0.49434000  1.0
  Al  Al3  1  0.07204000  0.15520000  0.97863000  1.0
  Al  Al4  1  0.32839000  0.41679000  0.99550000  1.0
  Al  Al5  1  0.09211000  0.42460000  0.99494000  1.0
  H  H6  1  0.16757000  0.65665000  0.89907000  1.0
  H  H7  1  0.73257000  0.94890000  0.77080000  1.0
  H  H8  1  0.93214000  0.05661000  0.71772000  1.0
  H  H9  1  0.19932000  0.71652000  0.82409000  1.0
  H  H10  1  0.12471000  0.58510000  0.21572000  1.0
  H  H11  1  0.21131000  0.46981000  0.26803000  1.0
  H  H12  1  0.27330000  0.81818000  0.27451000  1.0
  H  H13  1  0.47121000  0.87246000  0.22122000  1.0
  H  H14  1  0.55822000  0.75732000  0.27355000  1.0
  H  H15  1  0.40954000  0.52402000  0.21479000  1.0
  H  H16  1  0.13125000  0.04273000  0.08281000  1.0
  H  H17  1  0.19725000  0.21528000  0.70652000  1.0
  H  H18  1  0.14637000  0.01098000  0.16134000  1.0
  H  H19  1  0.17818000  0.95664000  0.29918000  1.0
  H  H20  1  0.23330000  0.77543000  0.68107000  1.0
  H  H21  1  0.20054000  0.92956000  0.37783000  1.0
  H  H22  1  0.52629000  0.29495000  0.40721000  1.0
  H  H23  1  0.49110000  0.36349000  0.19054000  1.0
  H  H24  1  0.47334000  0.39437000  0.11212000  1.0
  H  H25  1  0.50639000  0.32327000  0.32853000  1.0
  H  H26  1  0.95272000  0.42353000  0.11407000  1.0
  H  H27  1  0.90922000  0.40035000  0.19302000  1.0
  H  H28  1  0.26234000  0.93917000  0.72048000  1.0
  H  H29  1  0.82345000  0.34438000  0.33235000  1.0
  H  H30  1  0.77381000  0.30748000  0.40990000  1.0
  H  H31  1  0.74914000  0.94937000  0.37804000  1.0
  H  H32  1  0.25820000  0.80610000  0.60257000  1.0
  H  H33  1  0.85194000  0.02631000  0.16445000  1.0
  H  H34  1  0.89554000  0.05119000  0.08560000  1.0
  H  H35  1  0.79877000  0.98447000  0.30043000  1.0
  H  H36  1  0.48048000  0.61231000  0.81118000  1.0
  H  H37  1  0.44998000  0.55607000  0.88686000  1.0
  H  H38  1  0.49810000  0.64940000  0.67399000  1.0
  H  H39  1  0.46742000  0.10776000  0.78340000  1.0
  H  H40  1  0.11921000  0.03538000  0.76349000  1.0
  H  H41  1  0.54516000  0.28809000  0.72639000  1.0
  H  H42  1  0.40188000  0.38398000  0.76972000  1.0
  H  H43  1  0.69178000  0.24873000  0.77751000  1.0
  H  H44  1  0.89075000  0.35572000  0.72432000  1.0
  H  H45  1  0.59326000  0.01475000  0.71810000  1.0
  H  H46  1  0.69778000  0.38689000  0.55553000  1.0
  H  H47  1  0.94509000  0.95098000  0.93986000  1.0
  C  C48  1  0.72670000  0.09994000  0.56954000  1.0
  C  C49  1  0.35311000  0.69071000  0.76812000  1.0
  C  C50  1  0.35998000  0.70233000  0.72904000  1.0
  C  C51  1  0.40810000  0.78262000  0.54884000  1.0
  C  C52  1  0.30815000  0.60467000  0.89774000  1.0
  C  C53  1  0.25674000  0.19139000  0.72418000  1.0
  C  C54  1  0.21361000  0.09086000  0.75470000  1.0
  C  C55  1  0.31480000  0.22046000  0.87654000  1.0
  C  C56  1  0.34545000  0.10261000  0.61318000  1.0
  C  C57  1  0.37149000  0.28508000  0.75834000  1.0
  C  C58  1  0.32827000  0.18505000  0.79016000  1.0
  C  C59  1  0.36793000  0.71484000  0.68367000  1.0
  C  C60  1  0.45078000  0.23223000  0.73519000  1.0
  C  C61  1  0.33613000  0.13779000  0.69981000  1.0
  C  C62  1  0.40775000  0.13167000  0.76576000  1.0
  C  C63  1  0.37474000  0.08630000  0.56829000  1.0
  C  C64  1  0.29284000  0.03802000  0.73164000  1.0
  C  C65  1  0.32383000  0.20673000  0.83665000  1.0
  C  C66  1  0.33927000  0.11641000  0.65327000  1.0
  C  C67  1  0.85484000  0.26554000  0.73501000  1.0
  C  C68  1  0.74445000  0.20549000  0.76379000  1.0
  C  C69  1  0.87497000  0.21546000  0.88001000  1.0
  C  C70  1  0.29731000  0.75579000  0.66257000  1.0
  C  C71  1  0.77076000  0.11337000  0.61486000  1.0
  C  C72  1  0.93123000  0.22721000  0.76299000  1.0
  C  C73  1  0.82058000  0.16792000  0.79342000  1.0
  C  C74  1  0.87782000  0.09820000  0.73116000  1.0
  C  C75  1  0.71936000  0.10289000  0.44308000  1.0
  C  C76  1  0.80128000  0.13615000  0.70181000  1.0
  C  C77  1  0.76735000  0.03890000  0.76005000  1.0
  C  C78  1  0.69018000  0.07622000  0.73176000  1.0
  C  C79  1  0.84237000  0.19046000  0.84023000  1.0
  C  C80  1  0.78705000  0.12151000  0.65493000  1.0
  C  C81  1  0.30979000  0.77097000  0.61860000  1.0
  C  C82  1  0.26898000  0.55907000  0.25717000  1.0
  C  C83  1  0.22105000  0.62382000  0.22896000  1.0
  C  C84  1  0.31397000  0.61981000  0.11107000  1.0
  C  C85  1  0.36922000  0.72248000  0.37816000  1.0
  C  C86  1  0.37995000  0.58994000  0.22850000  1.0
  C  C87  1  0.39328000  0.77033000  0.42510000  1.0
  C  C88  1  0.33139000  0.65387000  0.19876000  1.0
  C  C89  1  0.46182000  0.71850000  0.26032000  1.0
  C  C90  1  0.35151000  0.68834000  0.29050000  1.0
  C  C91  1  0.41382000  0.78320000  0.23212000  1.0
  C  C92  1  0.25541000  0.68315000  0.83812000  1.0
  C  C93  1  0.30289000  0.75229000  0.26078000  1.0
  C  C94  1  0.32257000  0.63679000  0.15172000  1.0
  C  C95  1  0.36038000  0.70545000  0.33751000  1.0
  C  C96  1  0.36416000  0.11135000  0.39686000  1.0
  C  C97  1  0.45038000  0.22253000  0.38310000  1.0
  C  C98  1  0.43934000  0.23769000  0.33957000  1.0
  C  C99  1  0.38557000  0.09269000  0.44230000  1.0
  C  C100  1  0.34144000  0.14132000  0.30870000  1.0
  C  C101  1  0.25409000  0.03041000  0.32300000  1.0
  C  C102  1  0.26571000  0.01569000  0.36665000  1.0
  C  C103  1  0.23780000  0.65015000  0.87997000  1.0
  C  C104  1  0.21808000  0.09418000  0.15029000  1.0
  C  C105  1  0.20961000  0.11124000  0.10685000  1.0
  C  C106  1  0.40348000  0.31038000  0.12329000  1.0
  C  C107  1  0.41259000  0.29365000  0.16680000  1.0
  C  C108  1  0.31951000  0.18554000  0.18103000  1.0
  C  C109  1  0.32694000  0.16947000  0.22552000  1.0
  C  C110  1  0.33249000  0.15576000  0.26407000  1.0
  C  C111  1  0.39093000  0.74534000  0.59346000  1.0
  C  C112  1  0.30185000  0.21951000  0.09314000  1.0
  C  C113  1  0.75962000  0.12703000  0.39830000  1.0
  C  C114  1  0.39701000  0.59301000  0.87300000  1.0
  C  C115  1  0.76678000  0.03574000  0.36764000  1.0
  C  C116  1  0.79357000  0.05501000  0.32458000  1.0
  C  C117  1  0.81374000  0.16646000  0.31126000  1.0
  C  C118  1  0.80780000  0.25842000  0.34257000  1.0
  C  C119  1  0.78077000  0.23854000  0.38552000  1.0
  C  C120  1  0.90606000  0.32411000  0.16931000  1.0
  C  C121  1  0.92926000  0.33675000  0.12548000  1.0
  C  C122  1  0.89711000  0.12608000  0.10955000  1.0
  C  C123  1  0.45753000  0.69874000  0.61388000  1.0
  C  C124  1  0.87361000  0.11285000  0.15322000  1.0
  C  C125  1  0.41362000  0.62400000  0.83084000  1.0
  C  C126  1  0.87852000  0.21214000  0.18397000  1.0
  C  C127  1  0.85681000  0.19880000  0.22866000  1.0
  C  C128  1  0.83785000  0.18466000  0.26708000  1.0
  C  C129  1  0.92561000  0.23815000  0.09539000  1.0
  C  C130  1  0.28478000  0.23890000  0.92121000  1.0
  C  C131  1  0.28229000  0.55801000  0.94054000  1.0
  C  C132  1  0.93646000  0.24322000  0.92383000  1.0
  C  C133  1  0.28413000  0.24108000  0.04783000  1.0
  C  C134  1  0.28942000  0.57232000  0.06406000  1.0
  C  C135  1  0.44640000  0.68501000  0.65840000  1.0
  C  C136  1  0.34223000  0.66869000  0.81245000  1.0
  C  C137  1  0.96201000  0.25370000  0.04961000  1.0
  I  I138  1  0.11808000  0.34556000  0.78968000  1.0
  I  I139  1  0.56751000  0.63507000  0.58058000  1.0
  O  O140  1  0.47810000  0.16943000  0.55907000  1.0
  O  O141  1  0.18143000  0.53929000  0.95657000  1.0
  O  O142  1  0.96521000  0.34896000  0.94853000  1.0
  O  O143  1  0.69649000  0.17808000  0.56151000  1.0
  O  O144  1  0.97683000  0.16940000  0.02722000  1.0
  O  O145  1  0.18587000  0.16019000  0.02354000  1.0
  O  O146  1  0.36809000  0.34436000  0.03696000  1.0
  O  O147  1  0.36676000  0.54617000  0.04539000  1.0
  O  O148  1  0.18827000  0.55294000  0.04454000  1.0
  O  O149  1  0.98111000  0.35478000  0.03651000  1.0
  O  O150  1  0.16500000  0.33450000  0.98976000  1.0
  O  O151  1  0.49689000  0.79585000  0.44446000  1.0
  O  O152  1  0.71629000  0.00653000  0.54134000  1.0
  O  O153  1  0.50922000  0.80672000  0.53214000  1.0
  O  O154  1  0.32399000  0.79761000  0.53132000  1.0
  O  O155  1  0.29504000  0.98493000  0.54152000  1.0
  O  O156  1  0.48453000  0.17620000  0.46566000  1.0
  O  O157  1  0.70126000  0.18231000  0.46739000  1.0
  O  O158  1  0.70030000  0.99863000  0.45336000  1.0
  O  O159  1  0.31231000  0.79066000  0.44383000  1.0
  O  O160  1  0.30437000  0.98980000  0.45415000  1.0
  O  O161  1  0.50947000  0.00622000  0.50063000  1.0
  O  O162  1  0.96197000  0.16339000  0.93362000  1.0
  O  O163  1  0.17667000  0.16296000  0.92939000  1.0
  O  O164  1  0.36933000  0.33446000  0.94891000  1.0
  O  O165  1  0.35991000  0.53343000  0.95762000  1.0
  O  O166  1  0.67132000  0.35018000  0.52436000  1.0
  O  O167  1  0.98864000  0.99079000  0.96929000  1.0
