# generated using pymatgen
data_FeH12C14(NO3)2
_symmetry_space_group_name_H-M   'P 1'
_cell_length_a   4.87797000
_cell_length_b   10.98348569
_cell_length_c   12.62100000
_cell_angle_alpha   90.49760248
_cell_angle_beta   90.01790000
_cell_angle_gamma   102.79008469
_symmetry_Int_Tables_number   1
_chemical_formula_structural   FeH12C14(NO3)2
_chemical_formula_sum   'Fe2 H24 C28 N4 O12'
_cell_volume   659.39214117
_cell_formula_units_Z   2
loop_
 _symmetry_equiv_pos_site_id
 _symmetry_equiv_pos_as_xyz
  1  'x, y, z'
loop_
 _atom_site_type_symbol
 _atom_site_label
 _atom_site_symmetry_multiplicity
 _atom_site_fract_x
 _atom_site_fract_y
 _atom_site_fract_z
 _atom_site_occupancy
  Fe  Fe0  1  0.50000000  0.00000000  0.00000000  1.0
  Fe  Fe1  1  0.50000000  0.00000000  0.50000000  1.0
  H  H2  1  0.21341000  0.09581000  0.67661000  1.0
  H  H3  1  0.11867000  0.90439000  0.82320000  1.0
  H  H4  1  0.78660000  0.90420000  0.32338000  1.0
  H  H5  1  0.88134000  0.09561000  0.17680000  1.0
  H  H6  1  0.58804000  0.48695000  0.72018000  1.0
  H  H7  1  0.10035000  0.51280000  0.78043000  1.0
  H  H8  1  0.41195000  0.51305000  0.27982000  1.0
  H  H9  1  0.89965000  0.48720000  0.21957000  1.0
  H  H10  1  0.90037000  0.46729000  0.56717000  1.0
  H  H11  1  0.43231000  0.53251000  0.93351000  1.0
  H  H12  1  0.09963000  0.53271000  0.43284000  1.0
  H  H13  1  0.56768000  0.46749000  0.06649000  1.0
  H  H14  1  0.84312000  0.26357000  0.47146000  1.0
  H  H15  1  0.57985000  0.73637000  0.02876000  1.0
  H  H16  1  0.15688000  0.73643000  0.52855000  1.0
  H  H17  1  0.42015000  0.26363000  0.97124000  1.0
  H  H18  1  0.82791000  0.24185000  0.86422000  1.0
  H  H19  1  0.58632000  0.75834000  0.63582000  1.0
  H  H20  1  0.17208000  0.75814000  0.13578000  1.0
  H  H21  1  0.41367000  0.24166000  0.36418000  1.0
  H  H22  1  0.86316000  0.16365000  0.74326000  1.0
  H  H23  1  0.70008000  0.83659000  0.75673000  1.0
  H  H24  1  0.13684000  0.83635000  0.25673000  1.0
  H  H25  1  0.29993000  0.16341000  0.24327000  1.0
  C  C26  1  0.35810000  0.18010000  0.65308000  1.0
  C  C27  1  0.17873000  0.81998000  0.84682000  1.0
  C  C28  1  0.64190000  0.81990000  0.34691000  1.0
  C  C29  1  0.82126000  0.18001000  0.15318000  1.0
  C  C30  1  0.37290000  0.29194000  0.70865000  1.0
  C  C31  1  0.08131000  0.70804000  0.79138000  1.0
  C  C32  1  0.62710000  0.70806000  0.29135000  1.0
  C  C33  1  0.91869000  0.29195000  0.20862000  1.0
  C  C34  1  0.57012000  0.39848000  0.67832000  1.0
  C  C35  1  0.17142000  0.60141000  0.82202000  1.0
  C  C36  1  0.42988000  0.60152000  0.32169000  1.0
  C  C37  1  0.82858000  0.39859000  0.17798000  1.0
  C  C38  1  0.74204000  0.38692000  0.59275000  1.0
  C  C39  1  0.35490000  0.61302000  0.90763000  1.0
  C  C40  1  0.25796000  0.61308000  0.40725000  1.0
  C  C41  1  0.64510000  0.38698000  0.09237000  1.0
  C  C42  1  0.71449000  0.27332000  0.53972000  1.0
  C  C43  1  0.44150000  0.72667000  0.96046000  1.0
  C  C44  1  0.28552000  0.72669000  0.46028000  1.0
  C  C45  1  0.55851000  0.27333000  0.03954000  1.0
  C  C46  1  0.97402000  0.20187000  0.81633000  1.0
  C  C47  1  0.77251000  0.79824000  0.68365000  1.0
  C  C48  1  0.02597000  0.79812000  0.18367000  1.0
  C  C49  1  0.22749000  0.20176000  0.31635000  1.0
  C  C50  1  0.04906000  0.09471000  0.87777000  1.0
  C  C51  1  0.95436000  0.90532000  0.62218000  1.0
  C  C52  1  0.95094000  0.90529000  0.12222000  1.0
  C  C53  1  0.04564000  0.09468000  0.37782000  1.0
  N  N54  1  0.52369000  0.16935000  0.56911000  1.0
  N  N55  1  0.35494000  0.83068000  0.93086000  1.0
  N  N56  1  0.47631000  0.83065000  0.43089000  1.0
  N  N57  1  0.64507000  0.16932000  0.06914000  1.0
  O  O58  1  0.84547000  0.01074000  0.91017000  1.0
  O  O59  1  0.83471000  0.98945000  0.58993000  1.0
  O  O60  1  0.15453000  0.98926000  0.08983000  1.0
  O  O61  1  0.16529000  0.01055000  0.41007000  1.0
  O  O62  1  0.30803000  0.09223000  0.88728000  1.0
  O  O63  1  0.21569000  0.90769000  0.61257000  1.0
  O  O64  1  0.69197000  0.90777000  0.11272000  1.0
  O  O65  1  0.78431000  0.09231000  0.38743000  1.0
  O  O66  1  0.20572000  0.30364000  0.79321000  1.0
  O  O67  1  0.90236000  0.69638000  0.70683000  1.0
  O  O68  1  0.79427000  0.69635000  0.20679000  1.0
  O  O69  1  0.09764000  0.30362000  0.29317000  1.0
