# generated using pymatgen
data_DyH11C10N2O9
_symmetry_space_group_name_H-M   'P 1'
_cell_length_a   6.49080000
_cell_length_b   9.43691000
_cell_length_c   10.89546154
_cell_angle_alpha   104.37310330
_cell_angle_beta   105.24624814
_cell_angle_gamma   103.26400000
_symmetry_Int_Tables_number   1
_chemical_formula_structural   DyH11C10N2O9
_chemical_formula_sum   'Dy2 H22 C20 N4 O18'
_cell_volume   591.91469523
_cell_formula_units_Z   2
loop_
 _symmetry_equiv_pos_site_id
 _symmetry_equiv_pos_as_xyz
  1  'x, y, z'
loop_
 _atom_site_type_symbol
 _atom_site_label
 _atom_site_symmetry_multiplicity
 _atom_site_fract_x
 _atom_site_fract_y
 _atom_site_fract_z
 _atom_site_occupancy
  Dy  Dy0  1  0.32117000  0.39316000  0.68387000  1.0
  Dy  Dy1  1  0.67884000  0.60684000  0.31614000  1.0
  H  H2  1  0.94685000  0.13983000  0.53760000  1.0
  H  H3  1  0.05314000  0.86016000  0.46239000  1.0
  H  H4  1  0.37090000  0.06356000  0.61860000  1.0
  H  H5  1  0.62910000  0.93644000  0.38140000  1.0
  H  H6  1  0.58688000  0.20245000  0.64310000  1.0
  H  H7  1  0.41311000  0.79754000  0.35689000  1.0
  H  H8  1  0.88035000  0.14460000  0.74674000  1.0
  H  H9  1  0.11966000  0.85540000  0.25326000  1.0
  H  H10  1  0.07253000  0.07442000  0.64547000  1.0
  H  H11  1  0.92746000  0.92557000  0.35452000  1.0
  H  H12  1  0.55524000  0.79639000  0.86072000  1.0
  H  H13  1  0.44476000  0.20361000  0.13928000  1.0
  H  H14  1  0.60365000  0.87667000  0.65540000  1.0
  H  H15  1  0.39635000  0.12334000  0.34460000  1.0
  H  H16  1  0.71753000  0.94441000  0.14482000  1.0
  H  H17  1  0.28246000  0.05558000  0.85517000  1.0
  H  H18  1  0.05948000  0.39340000  0.01040000  1.0
  H  H19  1  0.94053000  0.60660000  0.98960000  1.0
  H  H20  1  0.31486000  0.60669000  0.53156000  1.0
  H  H21  1  0.68514000  0.39331000  0.46845000  1.0
  H  H22  1  0.57961000  0.63419000  0.58792000  1.0
  H  H23  1  0.42037000  0.36581000  0.41208000  1.0
  C  C24  1  0.51279000  0.58439000  0.00351000  1.0
  C  C25  1  0.48722000  0.41561000  0.99648000  1.0
  C  C26  1  0.10955000  0.47488000  0.26898000  1.0
  C  C27  1  0.89045000  0.52512000  0.73102000  1.0
  C  C28  1  0.67723000  0.94629000  0.76040000  1.0
  C  C29  1  0.32277000  0.05371000  0.23960000  1.0
  C  C30  1  0.76421000  0.02739000  0.98435000  1.0
  C  C31  1  0.23578000  0.97262000  0.01565000  1.0
  C  C32  1  0.79407000  0.04110000  0.11699000  1.0
  C  C33  1  0.20593000  0.95890000  0.88301000  1.0
  C  C34  1  0.93649000  0.18572000  0.21712000  1.0
  C  C35  1  0.06351000  0.81428000  0.78288000  1.0
  C  C36  1  0.99641000  0.19972000  0.35687000  1.0
  C  C37  1  0.00357000  0.80027000  0.64313000  1.0
  C  C38  1  0.02178000  0.31294000  0.17474000  1.0
  C  C39  1  0.97824000  0.68706000  0.82527000  1.0
  C  C40  1  0.99559000  0.29504000  0.04046000  1.0
  C  C41  1  0.00441000  0.70495000  0.95954000  1.0
  C  C42  1  0.86945000  0.14953000  0.94505000  1.0
  C  C43  1  0.13055000  0.85047000  0.05495000  1.0
  N  N44  1  0.64573000  0.90376000  0.86542000  1.0
  N  N45  1  0.35427000  0.09625000  0.13458000  1.0
  N  N46  1  0.80562000  0.09506000  0.80664000  1.0
  N  N47  1  0.19438000  0.90494000  0.19336000  1.0
  O  O48  1  0.16669000  0.31418000  0.44928000  1.0
  O  O49  1  0.83330000  0.68582000  0.55072000  1.0
  O  O50  1  0.45345000  0.60786000  0.89118000  1.0
  O  O51  1  0.54657000  0.39215000  0.10882000  1.0
  O  O52  1  0.59127000  0.68427000  0.12025000  1.0
  O  O53  1  0.40875000  0.31574000  0.87976000  1.0
  O  O54  1  0.98692000  0.52589000  0.33124000  1.0
  O  O55  1  0.01309000  0.47411000  0.66877000  1.0
  O  O56  1  0.87555000  0.09520000  0.39324000  1.0
  O  O57  1  0.12445000  0.90480000  0.60676000  1.0
  O  O58  1  0.42516000  0.15607000  0.59477000  1.0
  O  O59  1  0.57483000  0.84393000  0.40522000  1.0
  O  O60  1  0.30129000  0.56269000  0.28077000  1.0
  O  O61  1  0.69872000  0.43730000  0.71922000  1.0
  O  O62  1  0.43665000  0.61029000  0.60880000  1.0
  O  O63  1  0.56335000  0.38971000  0.39120000  1.0
  O  O64  1  0.02311000  0.16737000  0.64296000  1.0
  O  O65  1  0.97689000  0.83263000  0.35704000  1.0
