# generated using pymatgen
data_Gd2MnH28(C8O9)2
_symmetry_space_group_name_H-M   'P 1'
_cell_length_a   8.87251000
_cell_length_b   9.11818000
_cell_length_c   10.64840000
_cell_angle_alpha   81.92710000
_cell_angle_beta   72.24700000
_cell_angle_gamma   76.23040000
_symmetry_Int_Tables_number   1
_chemical_formula_structural   Gd2MnH28(C8O9)2
_chemical_formula_sum   'Gd2 Mn1 H28 C16 O18'
_cell_volume   794.71841979
_cell_formula_units_Z   1
loop_
 _symmetry_equiv_pos_site_id
 _symmetry_equiv_pos_as_xyz
  1  'x, y, z'
loop_
 _atom_site_type_symbol
 _atom_site_label
 _atom_site_symmetry_multiplicity
 _atom_site_fract_x
 _atom_site_fract_y
 _atom_site_fract_z
 _atom_site_occupancy
  Gd  Gd0  1  0.91560000  0.07953000  0.68208000  1.0
  Gd  Gd1  1  0.08441000  0.92048000  0.31792000  1.0
  Mn  Mn2  1  0.00000000  0.00001000  0.00000000  1.0
  H  H3  1  0.82759000  0.36909000  0.05565000  1.0
  H  H4  1  0.17236000  0.63093000  0.94435000  1.0
  H  H5  1  0.63178000  0.42668000  0.02588000  1.0
  H  H6  1  0.36818000  0.57332000  0.97411000  1.0
  H  H7  1  0.79307000  0.51326000  0.92996000  1.0
  H  H8  1  0.20687000  0.48675000  0.07003000  1.0
  H  H9  1  0.73656000  0.73725000  0.06490000  1.0
  H  H10  1  0.26347000  0.26274000  0.93510000  1.0
  H  H11  1  0.57730000  0.75615000  0.98714000  1.0
  H  H12  1  0.42272000  0.24384000  0.01287000  1.0
  H  H13  1  0.57294000  0.89855000  0.08429000  1.0
  H  H14  1  0.42710000  0.10144000  0.91571000  1.0
  H  H15  1  0.49519000  0.83499000  0.58357000  1.0
  H  H16  1  0.50481000  0.16499000  0.41644000  1.0
  H  H17  1  0.45900000  0.70666000  0.72690000  1.0
  H  H18  1  0.54099000  0.29333000  0.27311000  1.0
  H  H19  1  0.53069000  0.87021000  0.73308000  1.0
  H  H20  1  0.46932000  0.12978000  0.26692000  1.0
  H  H21  1  0.17003000  0.31965000  0.25510000  1.0
  H  H22  1  0.82998000  0.68035000  0.74490000  1.0
  H  H23  1  0.24812000  0.39617000  0.36292000  1.0
  H  H24  1  0.75188000  0.60384000  0.63708000  1.0
  H  H25  1  0.04974000  0.47230000  0.35653000  1.0
  H  H26  1  0.95027000  0.52770000  0.64347000  1.0
  H  H27  1  0.60715000  0.18235000  0.61375000  1.0
  H  H28  1  0.39285000  0.81765000  0.38625000  1.0
  H  H29  1  0.73867000  0.12762000  0.47769000  1.0
  H  H30  1  0.26134000  0.87238000  0.52231000  1.0
  C  C31  1  0.27943000  0.91060000  0.74361000  1.0
  C  C32  1  0.72058000  0.08941000  0.25639000  1.0
  C  C33  1  0.76296000  0.40584000  0.98028000  1.0
  C  C34  1  0.23699000  0.59416000  0.01972000  1.0
  C  C35  1  0.65483000  0.81557000  0.01511000  1.0
  C  C36  1  0.34520000  0.18443000  0.98490000  1.0
  C  C37  1  0.81239000  0.29155000  0.87876000  1.0
  C  C38  1  0.18759000  0.70845000  0.12123000  1.0
  C  C39  1  0.74669000  0.89965000  0.89684000  1.0
  C  C40  1  0.25334000  0.10034000  0.10316000  1.0
  C  C41  1  0.45193000  0.82679000  0.69180000  1.0
  C  C42  1  0.54806000  0.17319000  0.30821000  1.0
  C  C43  1  0.14107000  0.36614000  0.35073000  1.0
  C  C44  1  0.85893000  0.63386000  0.64927000  1.0
  C  C45  1  0.07841000  0.25705000  0.46226000  1.0
  C  C46  1  0.92160000  0.74295000  0.53774000  1.0
  O  O47  1  0.19268000  0.95432000  0.66247000  1.0
  O  O48  1  0.80733000  0.04569000  0.33753000  1.0
  O  O49  1  0.04364000  0.28973000  0.58087000  1.0
  O  O50  1  0.95637000  0.71027000  0.41912000  1.0
  O  O51  1  0.89851000  0.89720000  0.87994000  1.0
  O  O52  1  0.10151000  0.10280000  0.12005000  1.0
  O  O53  1  0.94774000  0.19307000  0.86697000  1.0
  O  O54  1  0.05224000  0.80694000  0.13303000  1.0
  O  O55  1  0.67863000  0.97528000  0.81206000  1.0
  O  O56  1  0.32139000  0.02471000  0.18794000  1.0
  O  O57  1  0.72719000  0.29200000  0.80259000  1.0
  O  O58  1  0.27281000  0.70800000  0.19740000  1.0
  O  O59  1  0.05489000  0.12940000  0.43948000  1.0
  O  O60  1  0.94512000  0.87060000  0.56052000  1.0
  O  O61  1  0.71854000  0.17874000  0.56130000  1.0
  O  O62  1  0.28147000  0.82127000  0.43870000  1.0
  O  O63  1  0.22944000  0.93177000  0.86558000  1.0
  O  O64  1  0.77056000  0.06824000  0.13442000  1.0
