# generated using pymatgen
data_NiH6(C2O3)2
_symmetry_space_group_name_H-M   'P 1'
_cell_length_a   7.47453000
_cell_length_b   7.59986000
_cell_length_c   8.05733349
_cell_angle_alpha   77.16299614
_cell_angle_beta   62.37963527
_cell_angle_gamma   60.54310000
_symmetry_Int_Tables_number   1
_chemical_formula_structural   NiH6(C2O3)2
_chemical_formula_sum   'Ni2 H12 C8 O12'
_cell_volume   353.10406218
_cell_formula_units_Z   2
loop_
 _symmetry_equiv_pos_site_id
 _symmetry_equiv_pos_as_xyz
  1  'x, y, z'
loop_
 _atom_site_type_symbol
 _atom_site_label
 _atom_site_symmetry_multiplicity
 _atom_site_fract_x
 _atom_site_fract_y
 _atom_site_fract_z
 _atom_site_occupancy
  Ni  Ni0  1  0.91091000  0.24559000  0.20268000  1.0
  Ni  Ni1  1  0.14078000  0.74563000  0.70267000  1.0
  H  H2  1  0.84128000  0.24204000  0.53667000  1.0
  H  H3  1  0.87993000  0.74227000  0.03672000  1.0
  H  H4  1  0.65533000  0.45315000  0.49165000  1.0
  H  H5  1  0.90002000  0.95327000  0.99161000  1.0
  H  H6  1  0.30809000  0.10260000  0.24066000  1.0
  H  H7  1  0.84868000  0.60268000  0.74055000  1.0
  H  H8  1  0.52804000  0.16446000  0.96055000  1.0
  H  H9  1  0.84713000  0.66420000  0.46031000  1.0
  H  H10  1  0.57328000  0.90618000  0.80747000  1.0
  H  H11  1  0.21327000  0.40614000  0.30738000  1.0
  H  H12  1  0.48316000  0.12718000  0.67867000  1.0
  H  H13  1  0.21117000  0.62709000  0.17859000  1.0
  C  C14  1  0.21619000  0.39846000  0.95337000  1.0
  C  C15  1  0.93191000  0.89834000  0.45326000  1.0
  C  C16  1  0.37089000  0.17623000  0.97120000  1.0
  C  C17  1  0.98174000  0.67611000  0.47105000  1.0
  C  C18  1  0.42845000  0.05244000  0.81318000  1.0
  C  C19  1  0.20600000  0.55242000  0.31315000  1.0
  C  C20  1  0.24387000  0.00909000  0.82624000  1.0
  C  C21  1  0.42072000  0.50915000  0.32638000  1.0
  O  O22  1  0.00396000  0.46962000  0.05764000  1.0
  O  O23  1  0.96865000  0.96959000  0.55751000  1.0
  O  O24  1  0.82032000  0.36481000  0.45805000  1.0
  O  O25  1  0.85690000  0.86498000  0.95803000  1.0
  O  O26  1  0.31283000  0.49580000  0.82917000  1.0
  O  O27  1  0.86217000  0.99568000  0.32899000  1.0
  O  O28  1  0.26738000  0.08982000  0.14672000  1.0
  O  O29  1  0.99611000  0.58977000  0.64664000  1.0
  O  O30  1  0.04075000  0.09295000  0.95017000  1.0
  O  O31  1  0.41615000  0.59296000  0.45026000  1.0
  O  O32  1  0.31213000  0.88300000  0.70449000  1.0
  O  O33  1  0.60030000  0.38297000  0.20460000  1.0
