# generated using pymatgen
data_Cu2H21C23(NO)6
_symmetry_space_group_name_H-M   'P 1'
_cell_length_a   8.67998000
_cell_length_b   9.97432000
_cell_length_c   16.67190000
_cell_angle_alpha   89.60000000
_cell_angle_beta   77.55880000
_cell_angle_gamma   77.42530000
_symmetry_Int_Tables_number   1
_chemical_formula_structural   Cu2H21C23(NO)6
_chemical_formula_sum   'Cu4 H42 C46 N12 O12'
_cell_volume   1374.48965906
_cell_formula_units_Z   2
loop_
 _symmetry_equiv_pos_site_id
 _symmetry_equiv_pos_as_xyz
  1  'x, y, z'
loop_
 _atom_site_type_symbol
 _atom_site_label
 _atom_site_symmetry_multiplicity
 _atom_site_fract_x
 _atom_site_fract_y
 _atom_site_fract_z
 _atom_site_occupancy
  Cu  Cu0  1  0.31517000  0.00494000  0.34537000  1.0
  Cu  Cu1  1  0.68483000  0.99506000  0.65463000  1.0
  Cu  Cu2  1  0.30765000  0.98976000  0.70199000  1.0
  Cu  Cu3  1  0.69235000  0.01023000  0.29801000  1.0
  H  H4  1  0.96728000  0.72770000  0.50137000  1.0
  H  H5  1  0.03273000  0.27230000  0.49863000  1.0
  H  H6  1  0.95686000  0.72759000  0.61291000  1.0
  H  H7  1  0.04314000  0.27241000  0.38709000  1.0
  H  H8  1  0.37340000  0.12972000  0.52036000  1.0
  H  H9  1  0.62660000  0.87028000  0.47964000  1.0
  H  H10  1  0.23374000  0.81438000  0.22987000  1.0
  H  H11  1  0.76626000  0.18562000  0.77013000  1.0
  H  H12  1  0.02547000  0.87750000  0.27268000  1.0
  H  H13  1  0.97453000  0.12250000  0.72732000  1.0
  H  H14  1  0.23161000  0.59496000  0.29654000  1.0
  H  H15  1  0.76839000  0.40504000  0.70346000  1.0
  H  H16  1  0.06372000  0.63238000  0.24787000  1.0
  H  H17  1  0.93628000  0.36762000  0.75213000  1.0
  H  H18  1  0.87302000  0.70564000  0.37471000  1.0
  H  H19  1  0.12698000  0.29437000  0.62529000  1.0
  H  H20  1  0.00147000  0.55250000  0.39786000  1.0
  H  H21  1  0.99853000  0.44750000  0.60214000  1.0
  H  H22  1  0.08500000  0.89905000  0.84550000  1.0
  H  H23  1  0.91500000  0.10095000  0.15450000  1.0
  H  H24  1  0.19857000  0.73113000  0.81732000  1.0
  H  H25  1  0.80142000  0.26887000  0.18268000  1.0
  H  H26  1  0.91997000  0.71030000  0.86414000  1.0
  H  H27  1  0.08003000  0.28971000  0.13586000  1.0
  H  H28  1  0.84706000  0.84936000  0.80516000  1.0
  H  H29  1  0.15294000  0.15065000  0.19484000  1.0
  H  H30  1  0.05980000  0.56878000  0.73709000  1.0
  H  H31  1  0.94020000  0.43123000  0.26291000  1.0
  H  H32  1  0.85632000  0.63576000  0.73005000  1.0
  H  H33  1  0.14367000  0.36424000  0.26995000  1.0
  H  H34  1  0.32982000  0.51100000  0.47749000  1.0
  H  H35  1  0.67017000  0.48900000  0.52251000  1.0
  H  H36  1  0.46254000  0.70710000  0.43693000  1.0
  H  H37  1  0.53747000  0.29290000  0.56307000  1.0
  H  H38  1  0.66930000  0.51692000  0.19647000  1.0
  H  H39  1  0.33070000  0.48308000  0.80353000  1.0
  H  H40  1  0.53992000  0.31612000  0.23824000  1.0
  H  H41  1  0.46007000  0.68388000  0.76176000  1.0
  H  H42  1  0.26967000  0.94954000  0.10394000  1.0
  H  H43  1  0.73032000  0.05047000  0.89606000  1.0
  H  H44  1  0.73010000  0.06218000  0.04662000  1.0
  H  H45  1  0.26990000  0.93782000  0.95338000  1.0
  C  C46  1  0.30607000  0.04951000  0.52555000  1.0
  C  C47  1  0.69393000  0.95049000  0.47445000  1.0
  C  C48  1  0.17228000  0.89320000  0.57930000  1.0
  C  C49  1  0.82773000  0.10680000  0.42070000  1.0
  C  C50  1  0.17531000  0.89649000  0.49477000  1.0
  C  C51  1  0.82469000  0.10351000  0.50523000  1.0
  C  C52  1  0.12632000  0.82855000  0.42885000  1.0
  C  C53  1  0.87368000  0.17145000  0.57115000  1.0
  C  C54  1  0.13744000  0.81076000  0.28409000  1.0
  C  C55  1  0.86256000  0.18923000  0.71591000  1.0
  C  C56  1  0.11414000  0.66447000  0.29764000  1.0
  C  C57  1  0.88585000  0.33553000  0.70236000  1.0
  C  C58  1  0.99765000  0.65894000  0.37943000  1.0
  C  C59  1  0.00235000  0.34106000  0.62057000  1.0
  C  C60  1  0.11555000  0.82326000  0.65483000  1.0
  C  C61  1  0.88445000  0.17674000  0.34516000  1.0
  C  C62  1  0.10392000  0.81276000  0.80114000  1.0
  C  C63  1  0.89608000  0.18724000  0.19886000  1.0
  C  C64  1  0.94855000  0.76215000  0.80624000  1.0
  C  C65  1  0.05144000  0.23785000  0.19376000  1.0
  C  C66  1  0.97027000  0.66414000  0.73295000  1.0
  C  C67  1  0.02973000  0.33586000  0.26705000  1.0
  C  C68  1  0.33826000  0.28950000  0.38163000  1.0
  C  C69  1  0.66174000  0.71050000  0.61837000  1.0
  C  C70  1  0.42793000  0.40183000  0.36014000  1.0
  C  C71  1  0.57207000  0.59817000  0.63986000  1.0
  C  C72  1  0.40628000  0.51156000  0.41646000  1.0
  C  C73  1  0.59372000  0.48844000  0.58355000  1.0
  C  C74  1  0.47979000  0.62107000  0.39362000  1.0
  C  C75  1  0.52021000  0.37893000  0.60638000  1.0
  C  C76  1  0.57372000  0.62360000  0.31408000  1.0
  C  C77  1  0.42628000  0.37640000  0.68593000  1.0
  C  C78  1  0.59589000  0.51315000  0.25808000  1.0
  C  C79  1  0.40411000  0.48684000  0.74192000  1.0
  C  C80  1  0.52439000  0.40259000  0.28107000  1.0
  C  C81  1  0.47561000  0.59741000  0.71893000  1.0
  C  C82  1  0.65333000  0.74127000  0.28748000  1.0
  C  C83  1  0.34666000  0.25873000  0.71253000  1.0
  C  C84  1  0.50067000  0.01341000  0.17351000  1.0
  C  C85  1  0.49933000  0.98659000  0.82649000  1.0
  C  C86  1  0.49977000  0.00722000  0.08381000  1.0
  C  C87  1  0.50023000  0.99277000  0.91619000  1.0
  C  C88  1  0.36968000  0.97190000  0.05792000  1.0
  C  C89  1  0.63032000  0.02810000  0.94208000  1.0
  C  C90  1  0.63010000  0.03521000  0.02533000  1.0
  C  C91  1  0.36991000  0.96479000  0.97467000  1.0
  N  N92  1  0.25934000  0.99594000  0.46406000  1.0
  N  N93  1  0.74066000  0.00406000  0.53593000  1.0
  N  N94  1  0.25490000  0.99077000  0.59539000  1.0
  N  N95  1  0.74510000  0.00923000  0.40461000  1.0
  N  N96  1  0.17974000  0.86831000  0.35443000  1.0
  N  N97  1  0.82026000  0.13169000  0.64557000  1.0
  N  N98  1  0.03979000  0.73137000  0.44465000  1.0
  N  N99  1  0.96021000  0.26863000  0.55535000  1.0
  N  N100  1  0.16435000  0.85923000  0.71960000  1.0
  N  N101  1  0.83565000  0.14077000  0.28040000  1.0
  N  N102  1  0.02370000  0.73028000  0.65653000  1.0
  N  N103  1  0.97631000  0.26972000  0.34347000  1.0
  O  O104  1  0.40783000  0.17072000  0.34664000  1.0
  O  O105  1  0.59217000  0.82927000  0.65336000  1.0
  O  O106  1  0.20041000  0.32018000  0.42968000  1.0
  O  O107  1  0.79959000  0.67982000  0.57032000  1.0
  O  O108  1  0.58554000  0.85672000  0.33042000  1.0
  O  O109  1  0.41445000  0.14328000  0.66958000  1.0
  O  O110  1  0.77486000  0.72467000  0.23007000  1.0
  O  O111  1  0.22515000  0.27533000  0.76993000  1.0
  O  O112  1  0.37238000  0.99701000  0.22308000  1.0
  O  O113  1  0.62762000  0.00299000  0.77692000  1.0
  O  O114  1  0.62922000  0.03435000  0.19155000  1.0
  O  O115  1  0.37079000  0.96565000  0.80845000  1.0
