# generated using pymatgen
data_ZnH10C12(NO)2
_symmetry_space_group_name_H-M   'P 1'
_cell_length_a   13.86140000
_cell_length_b   18.13240000
_cell_length_c   18.13157381
_cell_angle_alpha   81.68631508
_cell_angle_beta   67.53044749
_cell_angle_gamma   67.52530000
_symmetry_Int_Tables_number   1
_chemical_formula_structural   ZnH10C12(NO)2
_chemical_formula_sum   'Zn8 H80 C96 N16 O16'
_cell_volume   3891.37254237
_cell_formula_units_Z   8
loop_
 _symmetry_equiv_pos_site_id
 _symmetry_equiv_pos_as_xyz
  1  'x, y, z'
loop_
 _atom_site_type_symbol
 _atom_site_label
 _atom_site_symmetry_multiplicity
 _atom_site_fract_x
 _atom_site_fract_y
 _atom_site_fract_z
 _atom_site_occupancy
  Zn  Zn0  1  0.60434000  0.28279000  0.26536000  1.0
  Zn  Zn1  1  0.89602000  0.23457000  0.21708000  1.0
  Zn  Zn2  1  0.34752000  0.26537000  0.28278000  1.0
  Zn  Zn3  1  0.15233000  0.21707000  0.23457000  1.0
  Zn  Zn4  1  0.39567000  0.71722000  0.73463000  1.0
  Zn  Zn5  1  0.10398000  0.76543000  0.78293000  1.0
  Zn  Zn6  1  0.65248000  0.73463000  0.71722000  1.0
  Zn  Zn7  1  0.84766000  0.78293000  0.76543000  1.0
  H  H8  1  0.57133000  0.47686000  0.12700000  1.0
  H  H9  1  0.57032000  0.58144000  0.02142000  1.0
  H  H10  1  0.60380000  0.58726000  0.79181000  1.0
  H  H11  1  0.51128000  0.63490000  0.88427000  1.0
  H  H12  1  0.60754000  0.53583000  0.88269000  1.0
  H  H13  1  0.75613000  0.16926000  0.04775000  1.0
  H  H14  1  0.86190000  0.06425000  0.94232000  1.0
  H  H15  1  0.09427000  0.84771000  0.91088000  1.0
  H  H16  1  0.99307000  0.92545000  0.97972000  1.0
  H  H17  1  0.05674000  0.94841000  0.87856000  1.0
  H  H18  1  0.92890000  0.37289000  0.02277000  1.0
  H  H19  1  0.92959000  0.47883000  0.91858000  1.0
  H  H20  1  0.89681000  0.70829000  0.91286000  1.0
  H  H21  1  0.98891000  0.61588000  0.86506000  1.0
  H  H22  1  0.89294000  0.61743000  0.96419000  1.0
  H  H23  1  0.74376000  0.45255000  0.33087000  1.0
  H  H24  1  0.63799000  0.55795000  0.43589000  1.0
  H  H25  1  0.40556000  0.58916000  0.65283000  1.0
  H  H26  1  0.50671000  0.52022000  0.57516000  1.0
  H  H27  1  0.44295000  0.62130000  0.55206000  1.0
  H  H28  1  0.32477000  0.12702000  0.47687000  1.0
  H  H29  1  0.32681000  0.02144000  0.58144000  1.0
  H  H30  1  0.51713000  0.79182000  0.58725000  1.0
  H  H31  1  0.46956000  0.88429000  0.63489000  1.0
  H  H32  1  0.47393000  0.88270000  0.53583000  1.0
  H  H33  1  0.52690000  0.04774000  0.16926000  1.0
  H  H34  1  0.63153000  0.94233000  0.06425000  1.0
  H  H35  1  0.64712000  0.91086000  0.84772000  1.0
  H  H36  1  0.60173000  0.97970000  0.92547000  1.0
  H  H37  1  0.61633000  0.87853000  0.94842000  1.0
  H  H38  1  0.17542000  0.02278000  0.37290000  1.0
  H  H39  1  0.17298000  0.91859000  0.47884000  1.0
  H  H40  1  0.98206000  0.91285000  0.70831000  1.0
  H  H41  1  0.03016000  0.86505000  0.61589000  1.0
  H  H42  1  0.02543000  0.96419000  0.61744000  1.0
  H  H43  1  0.97286000  0.33088000  0.45253000  1.0
  H  H44  1  0.86818000  0.43588000  0.55796000  1.0
  H  H45  1  0.85246000  0.65282000  0.58913000  1.0
  H  H46  1  0.89789000  0.57516000  0.52020000  1.0
  H  H47  1  0.88371000  0.55205000  0.62128000  1.0
  H  H48  1  0.42869000  0.52313000  0.87299000  1.0
  H  H49  1  0.42969000  0.41854000  0.97857000  1.0
  H  H50  1  0.39618000  0.41275000  0.20818000  1.0
  H  H51  1  0.48872000  0.36512000  0.11572000  1.0
  H  H52  1  0.39244000  0.46418000  0.11730000  1.0
  H  H53  1  0.24386000  0.83074000  0.95227000  1.0
  H  H54  1  0.13810000  0.93576000  0.05768000  1.0
  H  H55  1  0.90570000  0.15226000  0.08915000  1.0
  H  H56  1  0.00690000  0.07452000  0.02030000  1.0
  H  H57  1  0.94330000  0.05156000  0.12146000  1.0
  H  H58  1  0.07112000  0.62711000  0.97722000  1.0
  H  H59  1  0.07042000  0.52115000  0.08140000  1.0
  H  H60  1  0.10319000  0.29169000  0.08715000  1.0
  H  H61  1  0.01110000  0.38411000  0.13494000  1.0
  H  H62  1  0.10704000  0.38255000  0.03581000  1.0
  H  H63  1  0.25625000  0.54747000  0.66913000  1.0
  H  H64  1  0.36202000  0.44205000  0.56412000  1.0
  H  H65  1  0.59442000  0.41087000  0.34716000  1.0
  H  H66  1  0.49327000  0.47980000  0.42483000  1.0
  H  H67  1  0.55707000  0.37872000  0.44793000  1.0
  H  H68  1  0.67521000  0.87300000  0.52313000  1.0
  H  H69  1  0.67317000  0.97857000  0.41856000  1.0
  H  H70  1  0.48285000  0.20817000  0.41276000  1.0
  H  H71  1  0.53044000  0.11570000  0.36512000  1.0
  H  H72  1  0.52607000  0.11729000  0.46418000  1.0
  H  H73  1  0.47312000  0.95224000  0.83075000  1.0
  H  H74  1  0.36847000  0.05767000  0.93575000  1.0
  H  H75  1  0.35286000  0.08913000  0.15229000  1.0
  H  H76  1  0.39825000  0.02028000  0.07455000  1.0
  H  H77  1  0.38370000  0.12144000  0.05160000  1.0
  H  H78  1  0.82455000  0.97724000  0.62710000  1.0
  H  H79  1  0.82699000  0.08143000  0.52116000  1.0
  H  H80  1  0.01794000  0.08716000  0.29171000  1.0
  H  H81  1  0.96982000  0.13495000  0.38413000  1.0
  H  H82  1  0.97456000  0.03582000  0.38257000  1.0
  H  H83  1  0.02715000  0.66912000  0.54746000  1.0
  H  H84  1  0.13183000  0.56411000  0.44205000  1.0
  H  H85  1  0.14755000  0.34718000  0.41085000  1.0
  H  H86  1  0.10211000  0.42484000  0.47978000  1.0
  H  H87  1  0.11630000  0.44795000  0.37871000  1.0
  C  C88  1  0.64915000  0.47752000  0.08048000  1.0
  C  C89  1  0.64910000  0.53568000  0.02143000  1.0
  C  C90  1  0.68251000  0.62449000  0.85368000  1.0
  C  C91  1  0.59681000  0.59411000  0.85305000  1.0
  C  C92  1  0.73022000  0.11890000  0.05088000  1.0
  C  C93  1  0.78906000  0.06002000  0.99239000  1.0
  C  C94  1  0.93309000  0.89514000  0.90000000  1.0
  C  C95  1  0.02397000  0.90463000  0.91814000  1.0
  C  C96  1  0.85099000  0.41942000  0.02230000  1.0
  C  C97  1  0.85088000  0.47869000  0.96438000  1.0
  C  C98  1  0.81748000  0.64670000  0.87584000  1.0
  C  C99  1  0.90348000  0.64716000  0.90598000  1.0
  C  C100  1  0.76963000  0.44934000  0.38127000  1.0
  C  C101  1  0.71077000  0.50782000  0.44017000  1.0
  C  C102  1  0.56674000  0.60011000  0.60514000  1.0
  C  C103  1  0.47581000  0.58185000  0.59583000  1.0
  C  C104  1  0.29284000  0.08049000  0.47751000  1.0
  C  C105  1  0.29378000  0.02144000  0.53567000  1.0
  C  C106  1  0.33934000  0.85368000  0.62448000  1.0
  C  C107  1  0.45603000  0.85306000  0.59411000  1.0
  C  C108  1  0.60004000  0.05087000  0.11889000  1.0
  C  C109  1  0.65857000  0.99239000  0.06000000  1.0
  C  C110  1  0.77178000  0.90000000  0.89513000  1.0
  C  C111  1  0.65326000  0.91813000  0.90464000  1.0
  C  C112  1  0.20727000  0.02230000  0.41942000  1.0
  C  C113  1  0.20604000  0.96438000  0.47869000  1.0
  C  C114  1  0.15999000  0.87584000  0.64671000  1.0
  C  C115  1  0.04338000  0.90598000  0.64717000  1.0
  C  C116  1  0.89980000  0.38128000  0.44933000  1.0
  C  C117  1  0.84126000  0.44016000  0.50782000  1.0
  C  C118  1  0.72801000  0.60513000  0.60011000  1.0
  C  C119  1  0.84651000  0.59583000  0.58183000  1.0
  C  C120  1  0.35086000  0.52248000  0.91951000  1.0
  C  C121  1  0.35091000  0.46431000  0.97855000  1.0
  C  C122  1  0.31750000  0.37551000  0.14631000  1.0
  C  C123  1  0.40319000  0.40589000  0.14694000  1.0
  C  C124  1  0.26977000  0.88111000  0.94914000  1.0
  C  C125  1  0.21096000  0.94000000  0.00761000  1.0
  C  C126  1  0.06691000  0.10486000  0.10000000  1.0
  C  C127  1  0.97602000  0.09535000  0.08188000  1.0
  C  C128  1  0.14902000  0.58058000  0.97769000  1.0
  C  C129  1  0.14913000  0.52130000  0.03561000  1.0
  C  C130  1  0.18253000  0.35329000  0.12415000  1.0
  C  C131  1  0.09652000  0.35282000  0.09402000  1.0
  C  C132  1  0.23038000  0.55067000  0.61873000  1.0
  C  C133  1  0.28924000  0.49218000  0.55984000  1.0
  C  C134  1  0.43327000  0.39989000  0.39485000  1.0
  C  C135  1  0.52419000  0.41817000  0.40416000  1.0
  C  C136  1  0.70714000  0.91952000  0.52249000  1.0
  C  C137  1  0.70622000  0.97857000  0.46432000  1.0
  C  C138  1  0.66067000  0.14632000  0.37551000  1.0
  C  C139  1  0.54396000  0.14693000  0.40590000  1.0
  C  C140  1  0.39996000  0.94913000  0.88110000  1.0
  C  C141  1  0.34146000  0.00761000  0.93998000  1.0
  C  C142  1  0.22823000  0.10000000  0.10486000  1.0
  C  C143  1  0.34675000  0.08186000  0.09537000  1.0
  C  C144  1  0.79270000  0.97771000  0.58059000  1.0
  C  C145  1  0.79394000  0.03563000  0.52131000  1.0
  C  C146  1  0.84000000  0.12417000  0.35331000  1.0
  C  C147  1  0.95661000  0.09403000  0.35285000  1.0
  C  C148  1  0.10022000  0.61872000  0.55066000  1.0
  C  C149  1  0.15876000  0.55983000  0.49218000  1.0
  C  C150  1  0.27199000  0.39487000  0.39989000  1.0
  C  C151  1  0.15349000  0.40418000  0.41816000  1.0
  C  C152  1  0.75016000  0.35585000  0.14391000  1.0
  C  C153  1  0.75008000  0.41852000  0.08125000  1.0
  C  C154  1  0.74998000  0.53775000  0.96246000  1.0
  C  C155  1  0.74996000  0.59952000  0.90090000  1.0
  C  C156  1  0.25006000  0.14391000  0.35585000  1.0
  C  C157  1  0.25011000  0.08126000  0.41853000  1.0
  C  C158  1  0.24979000  0.96248000  0.53776000  1.0
  C  C159  1  0.24962000  0.90090000  0.59952000  1.0
  C  C160  1  0.24984000  0.64416000  0.85609000  1.0
  C  C161  1  0.24993000  0.58147000  0.91874000  1.0
  C  C162  1  0.25003000  0.46224000  0.03752000  1.0
  C  C163  1  0.25005000  0.40046000  0.09909000  1.0
  C  C164  1  0.74992000  0.85610000  0.64415000  1.0
  C  C165  1  0.74986000  0.91875000  0.58147000  1.0
  C  C166  1  0.75019000  0.03753000  0.46225000  1.0
  C  C167  1  0.75038000  0.09910000  0.40048000  1.0
  C  C168  1  0.57247000  0.17754000  0.17755000  1.0
  C  C169  1  0.63516000  0.11485000  0.11486000  1.0
  C  C170  1  0.75441000  0.99560000  0.99559000  1.0
  C  C171  1  0.81615000  0.93387000  0.93385000  1.0
  C  C172  1  0.92742000  0.32261000  0.32260000  1.0
  C  C173  1  0.86469000  0.38533000  0.38532000  1.0
  C  C174  1  0.74540000  0.50459000  0.50461000  1.0
  C  C175  1  0.68366000  0.56632000  0.56634000  1.0
  C  C176  1  0.42755000  0.82244000  0.82247000  1.0
  C  C177  1  0.36484000  0.88514000  0.88516000  1.0
  C  C178  1  0.24561000  0.00441000  0.00440000  1.0
  C  C179  1  0.18386000  0.06615000  0.06613000  1.0
  C  C180  1  0.07261000  0.67740000  0.67739000  1.0
  C  C181  1  0.13533000  0.61467000  0.61467000  1.0
  C  C182  1  0.25461000  0.49540000  0.49540000  1.0
  C  C183  1  0.31634000  0.43367000  0.43367000  1.0
  N  N184  1  0.70925000  0.68233000  0.80363000  1.0
  N  N185  1  0.95562000  0.84176000  0.84546000  1.0
  N  N186  1  0.79081000  0.69663000  0.81790000  1.0
  N  N187  1  0.54419000  0.65469000  0.65849000  1.0
  N  N188  1  0.30480000  0.80364000  0.68233000  1.0
  N  N189  1  0.85716000  0.84546000  0.84176000  1.0
  N  N190  1  0.19467000  0.81791000  0.69664000  1.0
  N  N191  1  0.64264000  0.65849000  0.65468000  1.0
  N  N192  1  0.29076000  0.31766000  0.19636000  1.0
  N  N193  1  0.04437000  0.15824000  0.15454000  1.0
  N  N194  1  0.20921000  0.30336000  0.18209000  1.0
  N  N195  1  0.45581000  0.34531000  0.34151000  1.0
  N  N196  1  0.69520000  0.19637000  0.31767000  1.0
  N  N197  1  0.14282000  0.15455000  0.15824000  1.0
  N  N198  1  0.80532000  0.18210000  0.30337000  1.0
  N  N199  1  0.35737000  0.34151000  0.34531000  1.0
  O  O200  1  0.66069000  0.36728000  0.20533000  1.0
  O  O201  1  0.60868000  0.23418000  0.17161000  1.0
  O  O202  1  0.83968000  0.29449000  0.13257000  1.0
  O  O203  1  0.89096000  0.32835000  0.26614000  1.0
  O  O204  1  0.26670000  0.20533000  0.36726000  1.0
  O  O205  1  0.48555000  0.17161000  0.23417000  1.0
  O  O206  1  0.23326000  0.13256000  0.29448000  1.0
  O  O207  1  0.01458000  0.26615000  0.32836000  1.0
  O  O208  1  0.33932000  0.63272000  0.79466000  1.0
  O  O209  1  0.39131000  0.76583000  0.82840000  1.0
  O  O210  1  0.16032000  0.70551000  0.86743000  1.0
  O  O211  1  0.10906000  0.67166000  0.73385000  1.0
  O  O212  1  0.73328000  0.79468000  0.63273000  1.0
  O  O213  1  0.51445000  0.82838000  0.76582000  1.0
  O  O214  1  0.76673000  0.86743000  0.70552000  1.0
  O  O215  1  0.98543000  0.73385000  0.67164000  1.0
