# generated using pymatgen
data_BaH12C8S2N4O7
_symmetry_space_group_name_H-M   'P 1'
_cell_length_a   9.08904000
_cell_length_b   9.24405000
_cell_length_c   10.18590000
_cell_angle_alpha   105.47600000
_cell_angle_beta   97.88060000
_cell_angle_gamma   104.25800000
_symmetry_Int_Tables_number   1
_chemical_formula_structural   BaH12C8S2N4O7
_chemical_formula_sum   'Ba2 H24 C16 S4 N8 O14'
_cell_volume   780.30447807
_cell_formula_units_Z   2
loop_
 _symmetry_equiv_pos_site_id
 _symmetry_equiv_pos_as_xyz
  1  'x, y, z'
loop_
 _atom_site_type_symbol
 _atom_site_label
 _atom_site_symmetry_multiplicity
 _atom_site_fract_x
 _atom_site_fract_y
 _atom_site_fract_z
 _atom_site_occupancy
  Ba  Ba0  1  0.19347000  0.48788000  0.63620000  1.0
  Ba  Ba1  1  0.80653000  0.51212000  0.36380000  1.0
  H  H2  1  0.40389000  0.56366000  0.98378000  1.0
  H  H3  1  0.59612000  0.43634000  0.01622000  1.0
  H  H4  1  0.07055000  0.68384000  0.19083000  1.0
  H  H5  1  0.92947000  0.31617000  0.80917000  1.0
  H  H6  1  0.37974000  0.48053000  0.36998000  1.0
  H  H7  1  0.62026000  0.51948000  0.63002000  1.0
  H  H8  1  0.05552000  0.23562000  0.99602000  1.0
  H  H9  1  0.94448000  0.76438000  0.00398000  1.0
  H  H10  1  0.40033000  0.03089000  0.05725000  1.0
  H  H11  1  0.59968000  0.96911000  0.94275000  1.0
  H  H12  1  0.30910000  0.14241000  0.68176000  1.0
  H  H13  1  0.69087000  0.85757000  0.31823000  1.0
  H  H14  1  0.90969000  0.17131000  0.37734000  1.0
  H  H15  1  0.09032000  0.82869000  0.62267000  1.0
  H  H16  1  0.02578000  0.23134000  0.29199000  1.0
  H  H17  1  0.97423000  0.76865000  0.70802000  1.0
  H  H18  1  0.44541000  0.27797000  0.48357000  1.0
  H  H19  1  0.55459000  0.72203000  0.51643000  1.0
  H  H20  1  0.28207000  0.22887000  0.39415000  1.0
  H  H21  1  0.71793000  0.77113000  0.60586000  1.0
  H  H22  1  0.43214000  0.86437000  0.68416000  1.0
  H  H23  1  0.56786000  0.13563000  0.31583000  1.0
  H  H24  1  0.31550000  0.76415000  0.53555000  1.0
  H  H25  1  0.68450000  0.23585000  0.46445000  1.0
  C  C26  1  0.23194000  0.63459000  0.07348000  1.0
  C  C27  1  0.76807000  0.36541000  0.92652000  1.0
  C  C28  1  0.21418000  0.58778000  0.29514000  1.0
  C  C29  1  0.78582000  0.41222000  0.70486000  1.0
  C  C30  1  0.34131000  0.52847000  0.28981000  1.0
  C  C31  1  0.65869000  0.47153000  0.71020000  1.0
  C  C32  1  0.41750000  0.52518000  0.17889000  1.0
  C  C33  1  0.58252000  0.47481000  0.82110000  1.0
  C  C34  1  0.22040000  0.12911000  0.04212000  1.0
  C  C35  1  0.77959000  0.87090000  0.95788000  1.0
  C  C36  1  0.36964000  0.07317000  0.86414000  1.0
  C  C37  1  0.63033000  0.92684000  0.13585000  1.0
  C  C38  1  0.28315000  0.13644000  0.78170000  1.0
  C  C39  1  0.71685000  0.86355000  0.21830000  1.0
  C  C40  1  0.17364000  0.20658000  0.83344000  1.0
  C  C41  1  0.82634000  0.79342000  0.16655000  1.0
  S  S42  1  0.15975000  0.69336000  0.94145000  1.0
  S  S43  1  0.84026000  0.30664000  0.05854000  1.0
  S  S44  1  0.16234000  0.09486000  0.18441000  1.0
  S  S45  1  0.83767000  0.90515000  0.81559000  1.0
  N  N46  1  0.35584000  0.57743000  0.07285000  1.0
  N  N47  1  0.64417000  0.42257000  0.92715000  1.0
  N  N48  1  0.16823000  0.64351000  0.18682000  1.0
  N  N49  1  0.83177000  0.35651000  0.81318000  1.0
  N  N50  1  0.14854000  0.20056000  0.96456000  1.0
  N  N51  1  0.85147000  0.79944000  0.03544000  1.0
  N  N52  1  0.33554000  0.07690000  0.99446000  1.0
  N  N53  1  0.66446000  0.92310000  0.00554000  1.0
  O  O54  1  0.13728000  0.59720000  0.39228000  1.0
  O  O55  1  0.86272000  0.40281000  0.60772000  1.0
  O  O56  1  0.53647000  0.47684000  0.16722000  1.0
  O  O57  1  0.46353000  0.52315000  0.83278000  1.0
  O  O58  1  0.47545000  0.01191000  0.82936000  1.0
  O  O59  1  0.52455000  0.98809000  0.17064000  1.0
  O  O60  1  0.09525000  0.27485000  0.77096000  1.0
  O  O61  1  0.90474000  0.72514000  0.22904000  1.0
  O  O62  1  0.97464000  0.26873000  0.36987000  1.0
  O  O63  1  0.02537000  0.73127000  0.63013000  1.0
  O  O64  1  0.34023000  0.28670000  0.49142000  1.0
  O  O65  1  0.65977000  0.71329000  0.50859000  1.0
  O  O66  1  0.39885000  0.76164000  0.60604000  1.0
  O  O67  1  0.60116000  0.23836000  0.39397000  1.0
