# generated using pymatgen
data_Zn4H22C29O15F2
_symmetry_space_group_name_H-M   'P 1'
_cell_length_a   18.36940000
_cell_length_b   18.40580000
_cell_length_c   18.42080000
_cell_angle_alpha   90.24630000
_cell_angle_beta   119.74500000
_cell_angle_gamma   119.58200000
_symmetry_Int_Tables_number   1
_chemical_formula_structural   Zn4H22C29O15F2
_chemical_formula_sum   'Zn8 H44 C58 O30 F4'
_cell_volume   4439.09935779
_cell_formula_units_Z   2
loop_
 _symmetry_equiv_pos_site_id
 _symmetry_equiv_pos_as_xyz
  1  'x, y, z'
loop_
 _atom_site_type_symbol
 _atom_site_label
 _atom_site_symmetry_multiplicity
 _atom_site_fract_x
 _atom_site_fract_y
 _atom_site_fract_z
 _atom_site_occupancy
  Zn  Zn0  1  0.08867000  0.37840000  0.79732000  1.0
  Zn  Zn1  1  0.90906000  0.79128000  0.20195000  1.0
  Zn  Zn2  1  0.08779000  0.20420000  0.79621000  1.0
  Zn  Zn3  1  0.09040000  0.79633000  0.20810000  1.0
  Zn  Zn4  1  0.91439000  0.20682000  0.62395000  1.0
  Zn  Zn5  1  0.91371000  0.62270000  0.20658000  1.0
  Zn  Zn6  1  0.08978000  0.79756000  0.37953000  1.0
  Zn  Zn7  1  0.91205000  0.20295000  0.79551000  1.0
  H  H8  1  0.10371000  0.65824000  0.56430000  1.0
  H  H9  1  0.60081000  0.04893000  0.43481000  1.0
  H  H10  1  0.86880000  0.43660000  0.03439000  1.0
  H  H11  1  0.86842000  0.03532000  0.43528000  1.0
  H  H12  1  0.59836000  0.43044000  0.04868000  1.0
  H  H13  1  0.59168000  0.66122000  0.04860000  1.0
  H  H14  1  0.59435000  0.04989000  0.66550000  1.0
  H  H15  1  0.13101000  0.66202000  0.06103000  1.0
  H  H16  1  0.11886000  0.56390000  0.65863000  1.0
  H  H17  1  0.12677000  0.05632000  0.66125000  1.0
  H  H18  1  0.40015000  0.56240000  0.95166000  1.0
  H  H19  1  0.40276000  0.95259000  0.56625000  1.0
  H  H20  1  0.12732000  0.56045000  0.96571000  1.0
  H  H21  1  0.12286000  0.96134000  0.55936000  1.0
  H  H22  1  0.90610000  0.97615000  0.75892000  1.0
  H  H23  1  0.85887000  0.86719000  0.76574000  1.0
  H  H24  1  0.01547000  0.96860000  0.72187000  1.0
  H  H25  1  0.97382000  0.86202000  0.73182000  1.0
  H  H26  1  0.79279000  0.80258000  0.60394000  1.0
  H  H27  1  0.87794000  0.85166000  0.57157000  1.0
  H  H28  1  0.83386000  0.90954000  0.59398000  1.0
  H  H29  1  0.93953000  0.78203000  0.84364000  1.0
  H  H30  1  0.85960000  0.77589000  0.87551000  1.0
  H  H31  1  0.99921000  0.71156000  0.95577000  1.0
  H  H32  1  0.91913000  0.70528000  0.98529000  1.0
  H  H33  1  0.76328000  0.60127000  0.83182000  1.0
  H  H34  1  0.83797000  0.55884000  0.88128000  1.0
  H  H35  1  0.84246000  0.60790000  0.79965000  1.0
  H  H36  1  0.09354000  0.24080000  0.02258000  1.0
  H  H37  1  0.14249000  0.23375000  0.13161000  1.0
  H  H38  1  0.98538000  0.27808000  0.03272000  1.0
  H  H39  1  0.96401000  0.48749000  0.40584000  1.0
  H  H40  1  0.02929000  0.26836000  0.13955000  1.0
  H  H41  1  0.20961000  0.39554000  0.19714000  1.0
  H  H42  1  0.12475000  0.42852000  0.14974000  1.0
  H  H43  1  0.16661000  0.40545000  0.08999000  1.0
  H  H44  1  0.06205000  0.15601000  0.21809000  1.0
  H  H45  1  0.14152000  0.12337000  0.22430000  1.0
  H  H46  1  0.00181000  0.04420000  0.28824000  1.0
  H  H47  1  0.08065000  0.01319000  0.29396000  1.0
  H  H48  1  0.23796000  0.16584000  0.39819000  1.0
  H  H49  1  0.16402000  0.11733000  0.44118000  1.0
  H  H50  1  0.93018000  0.40575000  0.48814000  1.0
  H  H51  1  0.16031000  0.19955000  0.39272000  1.0
  C  C52  1  0.72364000  0.11237000  0.61433000  1.0
  C  C53  1  0.55357000  0.02828000  0.59376000  1.0
  C  C54  1  0.05185000  0.28780000  0.09381000  1.0
  C  C55  1  0.14315000  0.38451000  0.13489000  1.0
  C  C56  1  0.07116000  0.10096000  0.21996000  1.0
  C  C57  1  0.07508000  0.06980000  0.29735000  1.0
  C  C58  1  0.16419000  0.14221000  0.38713000  1.0
  C  C59  1  0.92518000  0.92739000  0.77362000  1.0
  C  C60  1  0.94975000  0.90687000  0.71211000  1.0
  C  C61  1  0.85861000  0.86539000  0.61519000  1.0
  C  C62  1  0.92999000  0.77999000  0.89838000  1.0
  C  C63  1  0.92569000  0.70238000  0.92929000  1.0
  C  C64  1  0.07351000  0.59088000  0.03431000  1.0
  C  C65  1  0.83751000  0.61283000  0.85638000  1.0
  C  C66  1  0.07570000  0.22615000  0.07202000  1.0
  C  C67  1  0.06977000  0.03067000  0.58999000  1.0
  C  C68  1  0.55091000  0.58950000  0.02720000  1.0
  C  C69  1  0.44497000  0.53472000  0.97348000  1.0
  C  C70  1  0.44761000  0.97448000  0.53875000  1.0
  C  C71  1  0.07142000  0.53464000  0.98169000  1.0
  C  C72  1  0.72109000  0.61005000  0.11283000  1.0
  C  C73  1  0.06749000  0.97807000  0.53359000  1.0
  C  C74  1  0.39143000  0.44190000  0.94524000  1.0
  C  C75  1  0.39404000  0.94604000  0.44592000  1.0
  C  C76  1  0.99774000  0.44256000  0.94721000  1.0
  C  C77  1  0.99424000  0.94437000  0.44129000  1.0
  C  C78  1  0.99865000  0.10843000  0.61372000  1.0
  C  C79  1  0.00538000  0.98037000  0.93006000  1.0
  C  C80  1  0.00625000  0.92701000  0.98456000  1.0
  C  C81  1  0.99578000  0.06980000  0.01937000  1.0
  C  C82  1  0.99487000  0.01523000  0.07270000  1.0
  C  C83  1  0.00037000  0.61440000  0.11000000  1.0
  C  C84  1  0.00055000  0.94456000  0.05514000  1.0
  C  C85  1  0.00063000  0.05205000  0.94779000  1.0
  C  C86  1  0.27728000  0.38627000  0.88805000  1.0
  C  C87  1  0.27987000  0.88812000  0.39003000  1.0
  C  C88  1  0.00035000  0.38548000  0.89189000  1.0
  C  C89  1  0.99663000  0.88846000  0.38441000  1.0
  C  C90  1  0.00019000  0.10914000  0.89008000  1.0
  C  C91  1  0.00026000  0.88699000  0.11221000  1.0
  C  C92  1  0.99891000  0.38818000  0.61618000  1.0
  C  C93  1  0.00666000  0.61575000  0.38847000  1.0
  C  C94  1  0.05895000  0.58698000  0.53182000  1.0
  C  C95  1  0.06005000  0.53143000  0.58741000  1.0
  C  C96  1  0.00803000  0.55726000  0.44294000  1.0
  C  C97  1  0.99302000  0.44268000  0.55778000  1.0
  C  C98  1  0.44980000  0.40661000  0.97371000  1.0
  C  C99  1  0.45235000  0.97460000  0.41070000  1.0
  C  C100  1  0.92536000  0.40946000  0.96753000  1.0
  C  C101  1  0.92302000  0.96627000  0.40818000  1.0
  C  C102  1  0.55580000  0.46019000  0.02768000  1.0
  C  C103  1  0.55834000  0.02825000  0.46451000  1.0
  C  C104  1  0.92603000  0.46441000  0.01998000  1.0
  C  C105  1  0.92447000  0.01938000  0.46332000  1.0
  C  C106  1  0.60678000  0.55211000  0.05467000  1.0
  C  C107  1  0.60938000  0.05522000  0.55651000  1.0
  C  C108  1  0.00047000  0.55562000  0.05368000  1.0
  C  C109  1  0.99796000  0.05165000  0.55470000  1.0
  O  O110  1  0.00098000  0.24855000  0.75358000  1.0
  O  O111  1  0.76661000  0.57120000  0.13435000  1.0
  O  O112  1  0.94193000  0.13571000  0.57544000  1.0
  O  O113  1  0.93472000  0.57565000  0.12806000  1.0
  O  O114  1  0.23492000  0.42736000  0.87604000  1.0
  O  O115  1  0.23700000  0.87369000  0.43085000  1.0
  O  O116  1  0.05613000  0.42581000  0.86425000  1.0
  O  O117  1  0.06200000  0.87014000  0.42580000  1.0
  O  O118  1  0.00101000  0.75206000  0.24980000  1.0
  O  O119  1  0.94853000  0.30248000  0.87778000  1.0
  O  O120  1  0.93504000  0.86461000  0.30083000  1.0
  O  O121  1  0.23132000  0.30331000  0.85579000  1.0
  O  O122  1  0.23446000  0.85756000  0.30702000  1.0
  O  O123  1  0.05540000  0.12441000  0.69689000  1.0
  O  O124  1  0.06518000  0.69756000  0.13454000  1.0
  O  O125  1  0.76667000  0.13964000  0.69758000  1.0
  O  O126  1  0.76336000  0.69323000  0.13599000  1.0
  O  O127  1  0.92709000  0.11873000  0.85578000  1.0
  O  O128  1  0.92136000  0.84462000  0.11338000  1.0
  O  O129  1  0.07275000  0.14318000  0.87991000  1.0
  O  O130  1  0.07881000  0.88512000  0.15464000  1.0
  O  O131  1  0.93341000  0.30450000  0.57624000  1.0
  O  O132  1  0.94640000  0.57551000  0.30467000  1.0
  O  O133  1  0.06693000  0.42709000  0.69948000  1.0
  O  O134  1  0.76840000  0.12879000  0.57527000  1.0
  O  O135  1  0.06357000  0.69926000  0.42773000  1.0
  O  O136  1  0.01356000  0.96163000  0.86330000  1.0
  O  O137  1  0.01680000  0.86010000  0.97300000  1.0
  O  O138  1  0.98749000  0.13652000  0.03807000  1.0
  O  O139  1  0.98420000  0.02674000  0.13944000  1.0
  F  F140  1  0.40479000  0.31810000  0.95028000  1.0
  F  F141  1  0.40748000  0.95133000  0.32219000  1.0
  F  F142  1  0.85036000  0.32184000  0.93528000  1.0
  F  F143  1  0.84914000  0.93599000  0.32040000  1.0
