# generated using pymatgen
data_Zr3H22C44NO16F5
_symmetry_space_group_name_H-M   'P 1'
_cell_length_a   19.03176102
_cell_length_b   19.19260145
_cell_length_c   19.19270000
_cell_angle_alpha   90.37365706
_cell_angle_beta   119.72646442
_cell_angle_gamma   119.72757992
_symmetry_Int_Tables_number   1
_chemical_formula_structural   Zr3H22C44NO16F5
_chemical_formula_sum   'Zr6 H44 C88 N2 O32 F10'
_cell_volume   4981.79493732
_cell_formula_units_Z   2
loop_
 _symmetry_equiv_pos_site_id
 _symmetry_equiv_pos_as_xyz
  1  'x, y, z'
loop_
 _atom_site_type_symbol
 _atom_site_label
 _atom_site_symmetry_multiplicity
 _atom_site_fract_x
 _atom_site_fract_y
 _atom_site_fract_z
 _atom_site_occupancy
  Zr  Zr0  1  0.68530000  0.09218000  0.09215000  1.0
  Zr  Zr1  1  0.31522000  0.90783000  0.90778000  1.0
  Zr  Zr2  1  0.50192000  0.90835000  0.90837000  1.0
  Zr  Zr3  1  0.49865000  0.09165000  0.09165000  1.0
  Zr  Zr4  1  0.50023000  0.09170000  0.90827000  1.0
  Zr  Zr5  1  0.50026000  0.90826000  0.09176000  1.0
  H  H6  1  0.64713000  0.07252000  0.92837000  1.0
  H  H7  1  0.35341000  0.07163000  0.92748000  1.0
  H  H8  1  0.35585000  0.78293000  0.92752000  1.0
  H  H9  1  0.64465000  0.07247000  0.21705000  1.0
  H  H10  1  0.06635000  0.68038000  0.88968000  1.0
  H  H11  1  0.93387000  0.32320000  0.11374000  1.0
  H  H12  1  0.70852000  0.32207000  0.88995000  1.0
  H  H13  1  0.83613000  0.44763000  0.88863000  1.0
  H  H14  1  0.29167000  0.68145000  0.11345000  1.0
  H  H15  1  0.16408000  0.55255000  0.11139000  1.0
  H  H16  1  0.06662000  0.88635000  0.67699000  1.0
  H  H17  1  0.93409000  0.11037000  0.31983000  1.0
  H  H18  1  0.70874000  0.88663000  0.31875000  1.0
  H  H19  1  0.83632000  0.88881000  0.44780000  1.0
  H  H20  1  0.29191000  0.11017000  0.67810000  1.0
  H  H21  1  0.16426000  0.11161000  0.55270000  1.0
  H  H22  1  0.50331000  0.68141000  0.11357000  1.0
  H  H23  1  0.50273000  0.32129000  0.88923000  1.0
  H  H24  1  0.50370000  0.32345000  0.11364000  1.0
  H  H25  1  0.50054000  0.44925000  0.11165000  1.0
  H  H26  1  0.50480000  0.68044000  0.89031000  1.0
  H  H27  1  0.50069000  0.55117000  0.88868000  1.0
  H  H28  1  0.49739000  0.11063000  0.67856000  1.0
  H  H29  1  0.49680000  0.88633000  0.31841000  1.0
  H  H30  1  0.49531000  0.10958000  0.31936000  1.0
  H  H31  1  0.49914000  0.11108000  0.44850000  1.0
  H  H32  1  0.49639000  0.88620000  0.67633000  1.0
  H  H33  1  0.49931000  0.88810000  0.55041000  1.0
  H  H34  1  0.06596000  0.88663000  0.88916000  1.0
  H  H35  1  0.88941000  0.82253000  0.82442000  1.0
  H  H36  1  0.29093000  0.10648000  0.11384000  1.0
  H  H37  1  0.93468000  0.11089000  0.11338000  1.0
  H  H38  1  0.11125000  0.17563000  0.17751000  1.0
  H  H39  1  0.70973000  0.88622000  0.89351000  1.0
  H  H40  1  0.29257000  0.68027000  0.67710000  1.0
  H  H41  1  0.70796000  0.32292000  0.31970000  1.0
  H  H42  1  0.93336000  0.32254000  0.31921000  1.0
  H  H43  1  0.06033000  0.44788000  0.44782000  1.0
  H  H44  1  0.06724000  0.68085000  0.67753000  1.0
  H  H45  1  0.94021000  0.55224000  0.55217000  1.0
  H  H46  1  0.68535000  0.81648000  0.79689000  1.0
  H  H47  1  0.72099000  0.76785000  0.76152000  1.0
  H  H48  1  0.31533000  0.20296000  0.18365000  1.0
  H  H49  1  0.27974000  0.23856000  0.23215000  1.0
  C  C50  1  0.73434000  0.23635000  0.00250000  1.0
  C  C51  1  0.26615000  0.99750000  0.76370000  1.0
  C  C52  1  0.26591000  0.76853000  0.00226000  1.0
  C  C53  1  0.73457000  0.99772000  0.23155000  1.0
  C  C54  1  0.73744000  0.99863000  0.00270000  1.0
  C  C55  1  0.73365000  0.23622000  0.23175000  1.0
  C  C56  1  0.26316000  0.99730000  0.00140000  1.0
  C  C57  1  0.26692000  0.76825000  0.76382000  1.0
  C  C58  1  0.49641000  0.99774000  0.76409000  1.0
  C  C59  1  0.50624000  0.76892000  0.00265000  1.0
  C  C60  1  0.49415000  0.99737000  0.23102000  1.0
  C  C61  1  0.50396000  0.23585000  0.00221000  1.0
  C  C62  1  0.18859000  0.69053000  0.00215000  1.0
  C  C63  1  0.81162000  0.31365000  0.00188000  1.0
  C  C64  1  0.08870000  0.65279000  0.93889000  1.0
  C  C65  1  0.01732000  0.57962000  0.93845000  1.0
  C  C66  1  0.91153000  0.35021000  0.06394000  1.0
  C  C67  1  0.98293000  0.42117000  0.06216000  1.0
  C  C68  1  0.78627000  0.35023000  0.93889000  1.0
  C  C69  1  0.85925000  0.42156000  0.93862000  1.0
  C  C70  1  0.21393000  0.65274000  0.06393000  1.0
  C  C71  1  0.14097000  0.57949000  0.06225000  1.0
  C  C72  1  0.03834000  0.53876000  0.99962000  1.0
  C  C73  1  0.96190000  0.46148000  0.00043000  1.0
  C  C74  1  0.18884000  0.99818000  0.68649000  1.0
  C  C75  1  0.81184000  0.99791000  0.30966000  1.0
  C  C76  1  0.08894000  0.93617000  0.65002000  1.0
  C  C77  1  0.01751000  0.93802000  0.57914000  1.0
  C  C78  1  0.91173000  0.06121000  0.34746000  1.0
  C  C79  1  0.98311000  0.06174000  0.42071000  1.0
  C  C80  1  0.78649000  0.93618000  0.34750000  1.0
  C  C81  1  0.85943000  0.93791000  0.42081000  1.0
  C  C82  1  0.21416000  0.06123000  0.64998000  1.0
  C  C83  1  0.14117000  0.06157000  0.57875000  1.0
  C  C84  1  0.03852000  0.99977000  0.53886000  1.0
  C  C85  1  0.96207000  0.00057000  0.46158000  1.0
  C  C86  1  0.50480000  0.69060000  0.00192000  1.0
  C  C87  1  0.50359000  0.31327000  0.00201000  1.0
  C  C88  1  0.50287000  0.65337000  0.06374000  1.0
  C  C89  1  0.50018000  0.57997000  0.06179000  1.0
  C  C90  1  0.50229000  0.34891000  0.93860000  1.0
  C  C91  1  0.50014000  0.41993000  0.93812000  1.0
  C  C92  1  0.50282000  0.35092000  0.06399000  1.0
  C  C93  1  0.50102000  0.42228000  0.06235000  1.0
  C  C94  1  0.50368000  0.65204000  0.93900000  1.0
  C  C95  1  0.50133000  0.57863000  0.93857000  1.0
  C  C96  1  0.49996000  0.53849000  0.00020000  1.0
  C  C97  1  0.49987000  0.46118000  0.99947000  1.0
  C  C98  1  0.49655000  0.99784000  0.68656000  1.0
  C  C99  1  0.49534000  0.99799000  0.30921000  1.0
  C  C100  1  0.49776000  0.06122000  0.65089000  1.0
  C  C101  1  0.49978000  0.06166000  0.57981000  1.0
  C  C102  1  0.49718000  0.93613000  0.34641000  1.0
  C  C103  1  0.49971000  0.93800000  0.41973000  1.0
  C  C104  1  0.49635000  0.06085000  0.34772000  1.0
  C  C105  1  0.49855000  0.06121000  0.42105000  1.0
  C  C106  1  0.49722000  0.93583000  0.64885000  1.0
  C  C107  1  0.49888000  0.93743000  0.57741000  1.0
  C  C108  1  0.50000000  0.00030000  0.53851000  1.0
  C  C109  1  0.49990000  0.99957000  0.46120000  1.0
  C  C110  1  0.08525000  0.93520000  0.93789000  1.0
  C  C111  1  0.01062000  0.93454000  0.93691000  1.0
  C  C112  1  0.90859000  0.87110000  0.87328000  1.0
  C  C113  1  0.21218000  0.06067000  0.06515000  1.0
  C  C114  1  0.14043000  0.06318000  0.06626000  1.0
  C  C115  1  0.16619000  0.12807000  0.13112000  1.0
  C  C116  1  0.91537000  0.06217000  0.06478000  1.0
  C  C117  1  0.99003000  0.06315000  0.06548000  1.0
  C  C118  1  0.09208000  0.12678000  0.12894000  1.0
  C  C119  1  0.78846000  0.93492000  0.93932000  1.0
  C  C120  1  0.86023000  0.93379000  0.93685000  1.0
  C  C121  1  0.83447000  0.86893000  0.87196000  1.0
  C  C122  1  0.18489000  0.99748000  0.00132000  1.0
  C  C123  1  0.03811000  0.99939000  0.00160000  1.0
  C  C124  1  0.81573000  0.99875000  0.00251000  1.0
  C  C125  1  0.96254000  0.99844000  0.00063000  1.0
  C  C126  1  0.18905000  0.69034000  0.68647000  1.0
  C  C127  1  0.81149000  0.31356000  0.30966000  1.0
  C  C128  1  0.21517000  0.65276000  0.65007000  1.0
  C  C129  1  0.14229000  0.57971000  0.57911000  1.0
  C  C130  1  0.78537000  0.34996000  0.34722000  1.0
  C  C131  1  0.85821000  0.42091000  0.42026000  1.0
  C  C132  1  0.91195000  0.35048000  0.34768000  1.0
  C  C133  1  0.98363000  0.42173000  0.42080000  1.0
  C  C134  1  0.08861000  0.65235000  0.64957000  1.0
  C  C135  1  0.01692000  0.57925000  0.57832000  1.0
  C  C136  1  0.03939000  0.53869000  0.53856000  1.0
  C  C137  1  0.96111000  0.46146000  0.46131000  1.0
  N  N138  1  0.73595000  0.80380000  0.81224000  1.0
  N  N139  1  0.26470000  0.18776000  0.19624000  1.0
  O  O140  1  0.76369000  0.20618000  0.06157000  1.0
  O  O141  1  0.23682000  0.93840000  0.79384000  1.0
  O  O142  1  0.23657000  0.79829000  0.94277000  1.0
  O  O143  1  0.76392000  0.05714000  0.20173000  1.0
  O  O144  1  0.64721000  0.93979000  0.94329000  1.0
  O  O145  1  0.64355000  0.20558000  0.20180000  1.0
  O  O146  1  0.35339000  0.05672000  0.06022000  1.0
  O  O147  1  0.35702000  0.79819000  0.79446000  1.0
  O  O148  1  0.49711000  0.05742000  0.79505000  1.0
  O  O149  1  0.50536000  0.79912000  0.06154000  1.0
  O  O150  1  0.49509000  0.93850000  0.20085000  1.0
  O  O151  1  0.50334000  0.20494000  0.94257000  1.0
  O  O152  1  0.50645000  0.79905000  0.94351000  1.0
  O  O153  1  0.49408000  0.05655000  0.20094000  1.0
  O  O154  1  0.50313000  0.20542000  0.06103000  1.0
  O  O155  1  0.49736000  0.93898000  0.79457000  1.0
  O  O156  1  0.76523000  0.05798000  0.06137000  1.0
  O  O157  1  0.23741000  0.79825000  0.79437000  1.0
  O  O158  1  0.23537000  0.93865000  0.94204000  1.0
  O  O159  1  0.76315000  0.20565000  0.20177000  1.0
  O  O160  1  0.64454000  0.93879000  0.20115000  1.0
  O  O161  1  0.64435000  0.20520000  0.94280000  1.0
  O  O162  1  0.35613000  0.05716000  0.79478000  1.0
  O  O163  1  0.35591000  0.79887000  0.06116000  1.0
  O  O164  1  0.60362000  0.05192000  0.15536000  1.0
  O  O165  1  0.39692000  0.84463000  0.94809000  1.0
  O  O166  1  0.39540000  0.05151000  0.94788000  1.0
  O  O167  1  0.60514000  0.05211000  0.94850000  1.0
  O  O168  1  0.42413000  0.96162000  0.88567000  1.0
  O  O169  1  0.57642000  0.11433000  0.03837000  1.0
  O  O170  1  0.42290000  0.96171000  0.03783000  1.0
  O  O171  1  0.57766000  0.96218000  0.03832000  1.0
  F  F172  1  0.92212000  0.54849000  0.87277000  1.0
  F  F173  1  0.07818000  0.45053000  0.12608000  1.0
  F  F174  1  0.92228000  0.87414000  0.54986000  1.0
  F  F175  1  0.07830000  0.12747000  0.45187000  1.0
  F  F176  1  0.49760000  0.54922000  0.12543000  1.0
  F  F177  1  0.49810000  0.44837000  0.87223000  1.0
  F  F178  1  0.50175000  0.12751000  0.55134000  1.0
  F  F179  1  0.50220000  0.87431000  0.45044000  1.0
  F  F180  1  0.17761000  0.54880000  0.54995000  1.0
  F  F181  1  0.82287000  0.45008000  0.45114000  1.0
