# generated using pymatgen
data_CdH16C12S(NO)4
_symmetry_space_group_name_H-M   'P 1'
_cell_length_a   5.82182000
_cell_length_b   11.02820000
_cell_length_c   13.06637329
_cell_angle_alpha   114.67921311
_cell_angle_beta   102.78822055
_cell_angle_gamma   90.02970000
_symmetry_Int_Tables_number   1
_chemical_formula_structural   CdH16C12S(NO)4
_chemical_formula_sum   'Cd2 H32 C24 S2 N8 O8'
_cell_volume   739.28038164
_cell_formula_units_Z   2
loop_
 _symmetry_equiv_pos_site_id
 _symmetry_equiv_pos_as_xyz
  1  'x, y, z'
loop_
 _atom_site_type_symbol
 _atom_site_label
 _atom_site_symmetry_multiplicity
 _atom_site_fract_x
 _atom_site_fract_y
 _atom_site_fract_z
 _atom_site_occupancy
  Cd  Cd0  1  0.00000000  0.00001000  0.50000000  1.0
  Cd  Cd1  1  0.99999000  0.50000000  0.49999000  1.0
  H  H2  1  0.71096000  0.99551000  0.01632000  1.0
  H  H3  1  0.19494000  0.50442000  0.98370000  1.0
  H  H4  1  0.28912000  0.00444000  0.98368000  1.0
  H  H5  1  0.80502000  0.49558000  0.01630000  1.0
  H  H6  1  0.03916000  0.84695000  0.99875000  1.0
  H  H7  1  0.53968000  0.65341000  0.00098000  1.0
  H  H8  1  0.96090000  0.15302000  0.00127000  1.0
  H  H9  1  0.46024000  0.34660000  0.99898000  1.0
  H  H10  1  0.16279000  0.75329000  0.14286000  1.0
  H  H11  1  0.51916000  0.74741000  0.85717000  1.0
  H  H12  1  0.83725000  0.24668000  0.85716000  1.0
  H  H13  1  0.48080000  0.25258000  0.14282000  1.0
  H  H14  1  0.50189000  0.04179000  0.17384000  1.0
  H  H15  1  0.82819000  0.45808000  0.82638000  1.0
  H  H16  1  0.49817000  0.95819000  0.82615000  1.0
  H  H17  1  0.17174000  0.54192000  0.17360000  1.0
  H  H18  1  0.14648000  0.76988000  0.33344000  1.0
  H  H19  1  0.31227000  0.73052000  0.66641000  1.0
  H  H20  1  0.85354000  0.23013000  0.66659000  1.0
  H  H21  1  0.68772000  0.26949000  0.33358000  1.0
  H  H22  1  0.86916000  0.73523000  0.33359000  1.0
  H  H23  1  0.03477000  0.76494000  0.66651000  1.0
  H  H24  1  0.13086000  0.26478000  0.66643000  1.0
  H  H25  1  0.96517000  0.23507000  0.33347000  1.0
  H  H26  1  0.55602000  0.89013000  0.36159000  1.0
  H  H27  1  0.69439000  0.60961000  0.63867000  1.0
  H  H28  1  0.44398000  0.10988000  0.63840000  1.0
  H  H29  1  0.30562000  0.39039000  0.36132000  1.0
  H  H30  1  0.51097000  0.03640000  0.35395000  1.0
  H  H31  1  0.65785000  0.46321000  0.64626000  1.0
  H  H32  1  0.48906000  0.96362000  0.64605000  1.0
  H  H33  1  0.34214000  0.53681000  0.35373000  1.0
  C  C34  1  0.76389000  0.95149000  0.07759000  1.0
  C  C35  1  0.18622000  0.54849000  0.92241000  1.0
  C  C36  1  0.23615000  0.04847000  0.92241000  1.0
  C  C37  1  0.81374000  0.45152000  0.07757000  1.0
  C  C38  1  0.90076000  0.84184000  0.23718000  1.0
  C  C39  1  0.16309000  0.65859000  0.76299000  1.0
  C  C40  1  0.09929000  0.15815000  0.76285000  1.0
  C  C41  1  0.83687000  0.34144000  0.23702000  1.0
  C  C42  1  0.94846000  0.86962000  0.06824000  1.0
  C  C43  1  0.37973000  0.63056000  0.93157000  1.0
  C  C44  1  0.05158000  0.13033000  0.93177000  1.0
  C  C45  1  0.62022000  0.36945000  0.06841000  1.0
  C  C46  1  0.01591000  0.81510000  0.14822000  1.0
  C  C47  1  0.36708000  0.68540000  0.85177000  1.0
  C  C48  1  0.98413000  0.18487000  0.85180000  1.0
  C  C49  1  0.63288000  0.31462000  0.14823000  1.0
  C  C50  1  0.71492000  0.92522000  0.24703000  1.0
  C  C51  1  0.96776000  0.57502000  0.75333000  1.0
  C  C52  1  0.28513000  0.07477000  0.75298000  1.0
  C  C53  1  0.03217000  0.42501000  0.24666000  1.0
  C  C54  1  0.64646000  0.97800000  0.16577000  1.0
  C  C55  1  0.98064000  0.52206000  0.83451000  1.0
  C  C56  1  0.35360000  0.02198000  0.83423000  1.0
  C  C57  1  0.01930000  0.47796000  0.16548000  1.0
  S  S58  1  0.35680000  0.25021000  0.50023000  1.0
  S  S59  1  0.64318000  0.74980000  0.49976000  1.0
  N  N60  1  0.98232000  0.80383000  0.32956000  1.0
  N  N61  1  0.15215000  0.69649000  0.67049000  1.0
  N  N62  1  0.01771000  0.19617000  0.67047000  1.0
  N  N63  1  0.84781000  0.30351000  0.32949000  1.0
  N  N64  1  0.62769000  0.96603000  0.34756000  1.0
  N  N65  1  0.78042000  0.53397000  0.65282000  1.0
  N  N66  1  0.37235000  0.03398000  0.65245000  1.0
  N  N67  1  0.21955000  0.46604000  0.34717000  1.0
  O  O68  1  0.54134000  0.21901000  0.58169000  1.0
  O  O69  1  0.46062000  0.28228000  0.41927000  1.0
  O  O70  1  0.45864000  0.78099000  0.41829000  1.0
  O  O71  1  0.53933000  0.71771000  0.58071000  1.0
  O  O72  1  0.17424000  0.13176000  0.42762000  1.0
  O  O73  1  0.24415000  0.36774000  0.57239000  1.0
  O  O74  1  0.82573000  0.86827000  0.57239000  1.0
  O  O75  1  0.75586000  0.63227000  0.42760000  1.0
