# generated using pymatgen
data_CuH5C5N6O
_symmetry_space_group_name_H-M   'P 1'
_cell_length_a   5.34570000
_cell_length_b   5.41566000
_cell_length_c   25.69370000
_cell_angle_alpha   87.65700000
_cell_angle_beta   89.99940000
_cell_angle_gamma   89.99940000
_symmetry_Int_Tables_number   1
_chemical_formula_structural   CuH5C5N6O
_chemical_formula_sum   'Cu4 H20 C20 N24 O4'
_cell_volume   743.22344065
_cell_formula_units_Z   4
loop_
 _symmetry_equiv_pos_site_id
 _symmetry_equiv_pos_as_xyz
  1  'x, y, z'
loop_
 _atom_site_type_symbol
 _atom_site_label
 _atom_site_symmetry_multiplicity
 _atom_site_fract_x
 _atom_site_fract_y
 _atom_site_fract_z
 _atom_site_occupancy
  Cu  Cu0  1  0.19754000  0.85609000  0.71045000  1.0
  Cu  Cu1  1  0.30246000  0.35607000  0.21045000  1.0
  Cu  Cu2  1  0.80246000  0.14394000  0.28955000  1.0
  Cu  Cu3  1  0.69754000  0.64395000  0.78955000  1.0
  H  H4  1  0.20889000  0.44951000  0.62704000  1.0
  H  H5  1  0.29112000  0.94950000  0.12704000  1.0
  H  H6  1  0.79111000  0.55050000  0.37296000  1.0
  H  H7  1  0.70888000  0.05049000  0.87296000  1.0
  H  H8  1  0.72465000  0.01548000  0.66773000  1.0
  H  H9  1  0.77533000  0.51547000  0.16773000  1.0
  H  H10  1  0.27535000  0.98454000  0.33227000  1.0
  H  H11  1  0.22464000  0.48453000  0.83227000  1.0
  H  H12  1  0.44255000  0.91398000  0.59448000  1.0
  H  H13  1  0.05744000  0.41398000  0.09448000  1.0
  H  H14  1  0.55744000  0.08602000  0.40552000  1.0
  H  H15  1  0.94254000  0.58601000  0.90552000  1.0
  H  H16  1  0.79489000  0.07707000  0.48824000  1.0
  H  H17  1  0.70512000  0.57706000  0.98824000  1.0
  H  H18  1  0.20511000  0.92294000  0.51176000  1.0
  H  H19  1  0.29488000  0.42293000  0.01176000  1.0
  H  H20  1  0.60164000  0.31958000  0.51009000  1.0
  H  H21  1  0.89838000  0.81957000  0.01009000  1.0
  H  H22  1  0.39835000  0.68042000  0.48991000  1.0
  H  H23  1  0.10163000  0.18042000  0.98991000  1.0
  C  C24  1  0.87405000  0.49298000  0.58087000  1.0
  C  C25  1  0.62597000  0.99297000  0.08087000  1.0
  C  C26  1  0.12595000  0.50702000  0.41913000  1.0
  C  C27  1  0.37404000  0.00701000  0.91913000  1.0
  C  C28  1  0.03708000  0.55395000  0.62074000  1.0
  C  C29  1  0.46293000  0.05392000  0.12075000  1.0
  C  C30  1  0.96293000  0.44606000  0.37925000  1.0
  C  C31  1  0.53707000  0.94605000  0.87926000  1.0
  C  C32  1  0.77118000  0.86615000  0.64233000  1.0
  C  C33  1  0.72882000  0.36613000  0.14233000  1.0
  C  C34  1  0.22883000  0.13386000  0.35767000  1.0
  C  C35  1  0.27116000  0.63386000  0.85767000  1.0
  C  C36  1  0.61199000  0.80561000  0.60185000  1.0
  C  C37  1  0.88801000  0.30562000  0.10185000  1.0
  C  C38  1  0.38801000  0.19438000  0.39815000  1.0
  C  C39  1  0.11198000  0.69437000  0.89815000  1.0
  C  C40  1  0.93719000  0.28049000  0.54746000  1.0
  C  C41  1  0.56283000  0.78049000  0.04746000  1.0
  C  C42  1  0.06282000  0.71950000  0.45254000  1.0
  C  C43  1  0.43717000  0.21950000  0.95254000  1.0
  N  N44  1  0.42819000  0.57695000  0.73368000  1.0
  N  N45  1  0.07180000  0.07693000  0.23369000  1.0
  N  N46  1  0.57180000  0.42308000  0.26631000  1.0
  N  N47  1  0.92819000  0.92308000  0.76631000  1.0
  N  N48  1  0.39609000  0.37093000  0.71946000  1.0
  N  N49  1  0.10391000  0.87090000  0.21947000  1.0
  N  N50  1  0.60393000  0.62910000  0.28053000  1.0
  N  N51  1  0.89607000  0.12910000  0.78054000  1.0
  N  N52  1  0.37346000  0.17023000  0.70394000  1.0
  N  N53  1  0.12653000  0.67021000  0.20394000  1.0
  N  N54  1  0.62655000  0.82980000  0.29606000  1.0
  N  N55  1  0.87345000  0.32980000  0.79607000  1.0
  N  N56  1  0.66146000  0.61910000  0.57073000  1.0
  N  N57  1  0.83857000  0.11909000  0.07073000  1.0
  N  N58  1  0.33855000  0.38089000  0.42927000  1.0
  N  N59  1  0.16144000  0.88089000  0.92927000  1.0
  N  N60  1  0.98705000  0.74312000  0.65175000  1.0
  N  N61  1  0.51296000  0.24309000  0.15175000  1.0
  N  N62  1  0.01296000  0.25689000  0.34825000  1.0
  N  N63  1  0.48704000  0.75689000  0.84824000  1.0
  N  N64  1  0.76438000  0.22229000  0.51258000  1.0
  N  N65  1  0.73565000  0.72227000  0.01258000  1.0
  N  N66  1  0.23563000  0.77772000  0.48742000  1.0
  N  N67  1  0.26436000  0.27771000  0.98742000  1.0
  O  O68  1  0.14217000  0.16936000  0.55357000  1.0
  O  O69  1  0.35788000  0.66934000  0.05357000  1.0
  O  O70  1  0.85785000  0.83065000  0.44643000  1.0
  O  O71  1  0.64214000  0.33062000  0.94643000  1.0
