# generated using pymatgen
data_Zn2H12C11(NO2)4
_symmetry_space_group_name_H-M   'P 1'
_cell_length_a   7.65877000
_cell_length_b   8.78404000
_cell_length_c   11.45470000
_cell_angle_alpha   82.24270000
_cell_angle_beta   81.24900000
_cell_angle_gamma   72.91900000
_symmetry_Int_Tables_number   1
_chemical_formula_structural   Zn2H12C11(NO2)4
_chemical_formula_sum   'Zn4 H24 C22 N8 O16'
_cell_volume   724.71530609
_cell_formula_units_Z   2
loop_
 _symmetry_equiv_pos_site_id
 _symmetry_equiv_pos_as_xyz
  1  'x, y, z'
loop_
 _atom_site_type_symbol
 _atom_site_label
 _atom_site_symmetry_multiplicity
 _atom_site_fract_x
 _atom_site_fract_y
 _atom_site_fract_z
 _atom_site_occupancy
  Zn  Zn0  1  0.03894000  0.27911000  0.31343000  1.0
  Zn  Zn1  1  0.96106000  0.72089000  0.68657000  1.0
  Zn  Zn2  1  0.10369000  0.03797000  0.60070000  1.0
  Zn  Zn3  1  0.89631000  0.96203000  0.39929000  1.0
  H  H4  1  0.39585000  0.37386000  0.54486000  1.0
  H  H5  1  0.60415000  0.62614000  0.45514000  1.0
  H  H6  1  0.12208000  0.39705000  0.58153000  1.0
  H  H7  1  0.87792000  0.60295000  0.41847000  1.0
  H  H8  1  0.01627000  0.16599000  0.94421000  1.0
  H  H9  1  0.98373000  0.83400000  0.05579000  1.0
  H  H10  1  0.65928000  0.74186000  0.86964000  1.0
  H  H11  1  0.34072000  0.25814000  0.13036000  1.0
  H  H12  1  0.41723000  0.77450000  0.86753000  1.0
  H  H13  1  0.58277000  0.22550000  0.13247000  1.0
  H  H14  1  0.56001000  0.79742000  0.73252000  1.0
  H  H15  1  0.44000000  0.20258000  0.26748000  1.0
  H  H16  1  0.23070000  0.27155000  0.80461000  1.0
  H  H17  1  0.76930000  0.72845000  0.19539000  1.0
  H  H18  1  0.23474000  0.32685000  0.94816000  1.0
  H  H19  1  0.76526000  0.67315000  0.05185000  1.0
  H  H20  1  0.37272000  0.13450000  0.90439000  1.0
  H  H21  1  0.62728000  0.86550000  0.09562000  1.0
  H  H22  1  0.21552000  0.00529000  0.37230000  1.0
  H  H23  1  0.78448000  0.99471000  0.62770000  1.0
  H  H24  1  0.41554000  0.10763000  0.66449000  1.0
  H  H25  1  0.58446000  0.89236000  0.33551000  1.0
  H  H26  1  0.44383000  0.12823000  0.52776000  1.0
  H  H27  1  0.55617000  0.87177000  0.47224000  1.0
  C  C28  1  0.76086000  0.31459000  0.72052000  1.0
  C  C29  1  0.23914000  0.68541000  0.27948000  1.0
  C  C30  1  0.50327000  0.42387000  0.49698000  1.0
  C  C31  1  0.49673000  0.57613000  0.50301000  1.0
  C  C32  1  0.73333000  0.47365000  0.74146000  1.0
  C  C33  1  0.26667000  0.52635000  0.25854000  1.0
  C  C34  1  0.61887000  0.23899000  0.75967000  1.0
  C  C35  1  0.38113000  0.76101000  0.24034000  1.0
  C  C36  1  0.97908000  0.10896000  0.13828000  1.0
  C  C37  1  0.02092000  0.89104000  0.86173000  1.0
  C  C38  1  0.99073000  0.39501000  0.63096000  1.0
  C  C39  1  0.00927000  0.60499000  0.36903000  1.0
  C  C40  1  0.44519000  0.48779000  0.85855000  1.0
  C  C41  1  0.55481000  0.51222000  0.14145000  1.0
  C  C42  1  0.99795000  0.07230000  0.01362000  1.0
  C  C43  1  0.00205000  0.92770000  0.98638000  1.0
  C  C44  1  0.66041000  0.31559000  0.43057000  1.0
  C  C45  1  0.33959000  0.68441000  0.56943000  1.0
  C  C46  1  0.55385000  0.72902000  0.81989000  1.0
  C  C47  1  0.44615000  0.27098000  0.18011000  1.0
  C  C48  1  0.31751000  0.26115000  0.87495000  1.0
  C  C49  1  0.68250000  0.73885000  0.12505000  1.0
  N  N50  1  0.87795000  0.52555000  0.68462000  1.0
  N  N51  1  0.12205000  0.47445000  0.31538000  1.0
  N  N52  1  0.92755000  0.26668000  0.64858000  1.0
  N  N53  1  0.07245000  0.73331000  0.35142000  1.0
  N  N54  1  0.46943000  0.33077000  0.83027000  1.0
  N  N55  1  0.53057000  0.66923000  0.16973000  1.0
  N  N56  1  0.57961000  0.56094000  0.80494000  1.0
  N  N57  1  0.42039000  0.43907000  0.19506000  1.0
  O  O58  1  0.66502000  0.16841000  0.44163000  1.0
  O  O59  1  0.33498000  0.83159000  0.55837000  1.0
  O  O60  1  0.89212000  0.03504000  0.21785000  1.0
  O  O61  1  0.10788000  0.96496000  0.78215000  1.0
  O  O62  1  0.05843000  0.21372000  0.15355000  1.0
  O  O63  1  0.94157000  0.78628000  0.84645000  1.0
  O  O64  1  0.10703000  0.07746000  0.41550000  1.0
  O  O65  1  0.89297000  0.92254000  0.58450000  1.0
  O  O66  1  0.61479000  0.10439000  0.73498000  1.0
  O  O67  1  0.38521000  0.89561000  0.26502000  1.0
  O  O68  1  0.77901000  0.37880000  0.36902000  1.0
  O  O69  1  0.22099000  0.62120000  0.63098000  1.0
  O  O70  1  0.34580000  0.13049000  0.59516000  1.0
  O  O71  1  0.65420000  0.86951000  0.40485000  1.0
  O  O72  1  0.31141000  0.55674000  0.92482000  1.0
  O  O73  1  0.68859000  0.44327000  0.07518000  1.0
