# generated using pymatgen
data_HgH4C4(BrN)2
_symmetry_space_group_name_H-M   'P 1'
_cell_length_a   7.37317000
_cell_length_b   7.64345000
_cell_length_c   8.37761059
_cell_angle_alpha   115.22218951
_cell_angle_beta   114.17178961
_cell_angle_gamma   93.81640000
_symmetry_Int_Tables_number   1
_chemical_formula_structural   HgH4C4(BrN)2
_chemical_formula_sum   'Hg2 H8 C8 Br4 N4'
_cell_volume   372.68170477
_cell_formula_units_Z   2
loop_
 _symmetry_equiv_pos_site_id
 _symmetry_equiv_pos_as_xyz
  1  'x, y, z'
loop_
 _atom_site_type_symbol
 _atom_site_label
 _atom_site_symmetry_multiplicity
 _atom_site_fract_x
 _atom_site_fract_y
 _atom_site_fract_z
 _atom_site_occupancy
  Hg  Hg0  1  0.50000000  0.00000000  0.00000000  1.0
  Hg  Hg1  1  0.00000000  0.00000000  0.00000000  1.0
  H  H2  1  0.18279000  0.80348000  0.50898000  1.0
  H  H3  1  0.17321000  0.29386000  0.49060000  1.0
  H  H4  1  0.81721000  0.19654000  0.49102000  1.0
  H  H5  1  0.82679000  0.70614000  0.50941000  1.0
  H  H6  1  0.16729000  0.61165000  0.16888000  1.0
  H  H7  1  0.49748667  0.44281000  0.83082000  1.0
  H  H8  1  0.83271000  0.38834000  0.83112000  1.0
  H  H9  1  0.50250333  0.55717000  0.16917000  1.0
  C  C10  1  0.31986000  0.77420000  0.49509000  1.0
  C  C11  1  0.32419000  0.27850000  0.50463000  1.0
  C  C12  1  0.68013000  0.22579000  0.50490000  1.0
  C  C13  1  0.67582000  0.72150000  0.49537000  1.0
  C  C14  1  0.31273000  0.66851000  0.30834000  1.0
  C  C15  1  0.50368000  0.35984000  0.69152000  1.0
  C  C16  1  0.68727000  0.33147000  0.69165000  1.0
  C  C17  1  0.49633000  0.64016000  0.30848000  1.0
  Br  Br18  1  0.82890000  0.83056000  0.15592000  1.0
  Br  Br19  1  0.17289000  0.67494000  0.84400000  1.0
  Br  Br20  1  0.17111000  0.16946000  0.84409000  1.0
  Br  Br21  1  0.82713000  0.32508000  0.15603000  1.0
  N  N22  1  0.49667000  0.84703000  0.66862000  1.0
  N  N23  1  0.32762000  0.17777000  0.33123000  1.0
  N  N24  1  0.50333000  0.15297000  0.33138000  1.0
  N  N25  1  0.67239000  0.82225000  0.66878000  1.0
