# generated using pymatgen
data_CoPH6C6NO3
_symmetry_space_group_name_H-M   'P 1'
_cell_length_a   8.66977000
_cell_length_b   8.77091000
_cell_length_c   10.14830000
_cell_angle_alpha   90.00000000
_cell_angle_beta   111.57600000
_cell_angle_gamma   89.99990000
_symmetry_Int_Tables_number   1
_chemical_formula_structural   CoPH6C6NO3
_chemical_formula_sum   'Co4 P4 H24 C24 N4 O12'
_cell_volume   717.62253589
_cell_formula_units_Z   4
loop_
 _symmetry_equiv_pos_site_id
 _symmetry_equiv_pos_as_xyz
  1  'x, y, z'
loop_
 _atom_site_type_symbol
 _atom_site_label
 _atom_site_symmetry_multiplicity
 _atom_site_fract_x
 _atom_site_fract_y
 _atom_site_fract_z
 _atom_site_occupancy
  Co  Co0  1  0.37954000  0.18063000  0.05088000  1.0
  Co  Co1  1  0.62047000  0.68064000  0.44912000  1.0
  Co  Co2  1  0.62046000  0.81936000  0.94912000  1.0
  Co  Co3  1  0.37954000  0.31937000  0.55088000  1.0
  P  P4  1  0.58947000  0.15375000  0.84211000  1.0
  P  P5  1  0.41053000  0.65375000  0.65789000  1.0
  P  P6  1  0.41053000  0.84625000  0.15789000  1.0
  P  P7  1  0.58946000  0.34625000  0.34210000  1.0
  H  H8  1  0.03911000  0.18088000  0.06704000  1.0
  H  H9  1  0.96089000  0.68089000  0.43296000  1.0
  H  H10  1  0.96089000  0.81911000  0.93296000  1.0
  H  H11  1  0.03911000  0.31911000  0.56704000  1.0
  H  H12  1  0.75846000  0.27274000  0.05785000  1.0
  H  H13  1  0.24154000  0.77274000  0.44215000  1.0
  H  H14  1  0.24154000  0.72726000  0.94215000  1.0
  H  H15  1  0.75846000  0.22726000  0.55785000  1.0
  H  H16  1  0.64770000  0.40739000  0.92769000  1.0
  H  H17  1  0.35230000  0.90740000  0.57231000  1.0
  H  H18  1  0.35230000  0.59260000  0.07231000  1.0
  H  H19  1  0.64770000  0.09261000  0.42769000  1.0
  H  H20  1  0.26978000  0.40438000  0.82873000  1.0
  H  H21  1  0.73023000  0.90438000  0.67127000  1.0
  H  H22  1  0.73023000  0.59562000  0.17127000  1.0
  H  H23  1  0.26977000  0.09562000  0.32873000  1.0
  H  H24  1  0.01172000  0.54374000  0.69126000  1.0
  H  H25  1  0.98828000  0.04375000  0.80874000  1.0
  H  H26  1  0.98828000  0.45626000  0.30874000  1.0
  H  H27  1  0.01172000  0.95625000  0.19126000  1.0
  H  H28  1  0.75484000  0.49927000  0.74450000  1.0
  H  H29  1  0.24516000  0.99927000  0.75550000  1.0
  H  H30  1  0.24516000  0.50073000  0.25550000  1.0
  H  H31  1  0.75484000  0.00073000  0.24450000  1.0
  C  C32  1  0.87499000  0.33453000  0.90996000  1.0
  C  C33  1  0.12501000  0.83453000  0.59004000  1.0
  C  C34  1  0.12501000  0.66547000  0.09004000  1.0
  C  C35  1  0.87499000  0.16547000  0.40996000  1.0
  C  C36  1  0.72522000  0.30444000  0.94610000  1.0
  C  C37  1  0.27478000  0.80445000  0.55390000  1.0
  C  C38  1  0.27478000  0.69555000  0.05389000  1.0
  C  C39  1  0.72522000  0.19555000  0.44610000  1.0
  C  C40  1  0.02631000  0.26236000  0.98267000  1.0
  C  C41  1  0.97369000  0.76237000  0.51733000  1.0
  C  C42  1  0.97369000  0.73763000  0.01733000  1.0
  C  C43  1  0.02631000  0.23763000  0.48267000  1.0
  C  C44  1  0.15696000  0.38743000  0.85025000  1.0
  C  C45  1  0.84304000  0.88744000  0.64975000  1.0
  C  C46  1  0.84304000  0.61256000  0.14975000  1.0
  C  C47  1  0.15696000  0.11256000  0.35025000  1.0
  C  C48  1  0.86903000  0.43770000  0.80273000  1.0
  C  C49  1  0.13097000  0.93770000  0.69727000  1.0
  C  C50  1  0.13096000  0.56230000  0.19727000  1.0
  C  C51  1  0.86903000  0.06230000  0.30272000  1.0
  C  C52  1  0.01147000  0.46388000  0.77323000  1.0
  C  C53  1  0.98853000  0.96388000  0.72677000  1.0
  C  C54  1  0.98853000  0.53612000  0.22677000  1.0
  C  C55  1  0.01147000  0.03612000  0.27323000  1.0
  N  N56  1  0.16436000  0.28798000  0.95396000  1.0
  N  N57  1  0.83564000  0.78799000  0.54604000  1.0
  N  N58  1  0.83564000  0.71201000  0.04604000  1.0
  N  N59  1  0.16436000  0.21201000  0.45396000  1.0
  O  O60  1  0.43474000  0.15335000  0.88244000  1.0
  O  O61  1  0.56526000  0.65335000  0.61756000  1.0
  O  O62  1  0.56526000  0.84665000  0.11756000  1.0
  O  O63  1  0.43474000  0.34665000  0.38244000  1.0
  O  O64  1  0.68861000  0.00292000  0.88029000  1.0
  O  O65  1  0.31139000  0.50292000  0.61971000  1.0
  O  O66  1  0.31139000  0.99708000  0.11971000  1.0
  O  O67  1  0.68861000  0.49708000  0.38029000  1.0
  O  O68  1  0.54460000  0.19041000  0.68376000  1.0
  O  O69  1  0.45540000  0.69041000  0.81624000  1.0
  O  O70  1  0.45540000  0.80960000  0.31624000  1.0
  O  O71  1  0.54460000  0.30959000  0.18376000  1.0
