# generated using pymatgen
data_Nd2H18(C3O8)3
_symmetry_space_group_name_H-M   'P 1'
_cell_length_a   8.92372000
_cell_length_b   8.92374000
_cell_length_c   8.92374000
_cell_angle_alpha   65.86620000
_cell_angle_beta   65.86630000
_cell_angle_gamma   65.86620000
_symmetry_Int_Tables_number   1
_chemical_formula_structural   Nd2H18(C3O8)3
_chemical_formula_sum   'Nd2 H18 C9 O24'
_cell_volume   566.35592431
_cell_formula_units_Z   1
loop_
 _symmetry_equiv_pos_site_id
 _symmetry_equiv_pos_as_xyz
  1  'x, y, z'
loop_
 _atom_site_type_symbol
 _atom_site_label
 _atom_site_symmetry_multiplicity
 _atom_site_fract_x
 _atom_site_fract_y
 _atom_site_fract_z
 _atom_site_occupancy
  Nd  Nd0  1  0.23012000  0.23012000  0.23012000  1.0
  Nd  Nd1  1  0.76988000  0.76988000  0.76988000  1.0
  H  H2  1  0.54793000  0.32705000  0.18711000  1.0
  H  H3  1  0.32705000  0.18711000  0.54793000  1.0
  H  H4  1  0.18712000  0.54793000  0.32704000  1.0
  H  H5  1  0.45207000  0.81289000  0.67295000  1.0
  H  H6  1  0.67295000  0.45207000  0.81288000  1.0
  H  H7  1  0.81289000  0.67296000  0.45207000  1.0
  H  H8  1  0.28462000  0.21853000  0.85694000  1.0
  H  H9  1  0.21853000  0.85694000  0.28462000  1.0
  H  H10  1  0.85694000  0.28462000  0.21853000  1.0
  H  H11  1  0.71538000  0.14306000  0.78147000  1.0
  H  H12  1  0.78147000  0.71538000  0.14306000  1.0
  H  H13  1  0.14306000  0.78147000  0.71538000  1.0
  H  H14  1  0.37346000  0.03690000  0.97134000  1.0
  H  H15  1  0.03690000  0.97134000  0.37346000  1.0
  H  H16  1  0.97134000  0.37346000  0.03689000  1.0
  H  H17  1  0.62654000  0.02866000  0.96310000  1.0
  H  H18  1  0.96310000  0.62654000  0.02866000  1.0
  H  H19  1  0.02865000  0.96310000  0.62654000  1.0
  C  C20  1  0.46237000  0.53763000  0.00000000  1.0
  C  C21  1  0.53763000  0.00000000  0.46237000  1.0
  C  C22  1  0.00000000  0.46237000  0.53763000  1.0
  C  C23  1  0.31754000  0.58833000  0.91675000  1.0
  C  C24  1  0.58833000  0.91675000  0.31754000  1.0
  C  C25  1  0.91675000  0.31754000  0.58832000  1.0
  C  C26  1  0.68246000  0.08325000  0.41167000  1.0
  C  C27  1  0.41167000  0.68246000  0.08325000  1.0
  C  C28  1  0.08326000  0.41167000  0.68246000  1.0
  O  O29  1  0.46110000  0.37586000  0.11970000  1.0
  O  O30  1  0.37586000  0.11970000  0.46110000  1.0
  O  O31  1  0.11970000  0.46110000  0.37586000  1.0
  O  O32  1  0.53890000  0.88030000  0.62413000  1.0
  O  O33  1  0.62414000  0.53889000  0.88030000  1.0
  O  O34  1  0.88030000  0.62414000  0.53890000  1.0
  O  O35  1  0.20068000  0.51444000  0.00271000  1.0
  O  O36  1  0.51444000  0.00271000  0.20068000  1.0
  O  O37  1  0.00271000  0.20069000  0.51444000  1.0
  O  O38  1  0.79932000  0.99729000  0.48556000  1.0
  O  O39  1  0.48556000  0.79931000  0.99729000  1.0
  O  O40  1  0.99729000  0.48556000  0.79932000  1.0
  O  O41  1  0.32171000  0.70414000  0.77454000  1.0
  O  O42  1  0.70414000  0.77454000  0.32171000  1.0
  O  O43  1  0.77454000  0.32171000  0.70414000  1.0
  O  O44  1  0.67829000  0.22545000  0.29586000  1.0
  O  O45  1  0.29586000  0.67829000  0.22546000  1.0
  O  O46  1  0.22546000  0.29586000  0.67829000  1.0
  O  O47  1  0.31871000  0.15914000  0.96523000  1.0
  O  O48  1  0.15914000  0.96523000  0.31871000  1.0
  O  O49  1  0.96523000  0.31871000  0.15914000  1.0
  O  O50  1  0.68129000  0.03477000  0.84086000  1.0
  O  O51  1  0.84086000  0.68129000  0.03477000  1.0
  O  O52  1  0.03477000  0.84086000  0.68129000  1.0
