# generated using pymatgen
data_CdH8C12(NO2)2
_symmetry_space_group_name_H-M   'P 1'
_cell_length_a   9.79059000
_cell_length_b   9.84402000
_cell_length_c   15.55321838
_cell_angle_alpha   104.16587228
_cell_angle_beta   107.55153887
_cell_angle_gamma   97.32760000
_symmetry_Int_Tables_number   1
_chemical_formula_structural   CdH8C12(NO2)2
_chemical_formula_sum   'Cd4 H32 C48 N8 O16'
_cell_volume   1352.48840748
_cell_formula_units_Z   4
loop_
 _symmetry_equiv_pos_site_id
 _symmetry_equiv_pos_as_xyz
  1  'x, y, z'
loop_
 _atom_site_type_symbol
 _atom_site_label
 _atom_site_symmetry_multiplicity
 _atom_site_fract_x
 _atom_site_fract_y
 _atom_site_fract_z
 _atom_site_occupancy
  Cd  Cd0  1  0.25244000  0.15419000  0.97265000  1.0
  Cd  Cd1  1  0.31956000  0.72022000  0.47229000  1.0
  Cd  Cd2  1  0.74756000  0.84581000  0.02735000  1.0
  Cd  Cd3  1  0.68044000  0.27978000  0.52770000  1.0
  H  H4  1  0.15318000  0.37652000  0.12012000  1.0
  H  H5  1  0.24318000  0.96469000  0.61951000  1.0
  H  H6  1  0.84681000  0.62347000  0.87988000  1.0
  H  H7  1  0.75682000  0.03531000  0.38049000  1.0
  H  H8  1  0.12831000  0.63476000  0.16378000  1.0
  H  H9  1  0.02720000  0.03309000  0.66331000  1.0
  H  H10  1  0.87169000  0.36523000  0.83622000  1.0
  H  H11  1  0.97280000  0.96690000  0.33669000  1.0
  H  H12  1  0.19395000  0.78955000  0.06912000  1.0
  H  H13  1  0.77723000  0.87411000  0.56905000  1.0
  H  H14  1  0.80606000  0.21046000  0.93089000  1.0
  H  H15  1  0.22278000  0.12589000  0.43096000  1.0
  H  H16  1  0.28355000  0.68512000  0.93912000  1.0
  H  H17  1  0.75237000  0.65619000  0.43910000  1.0
  H  H18  1  0.71646000  0.31489000  0.06089000  1.0
  H  H19  1  0.24763000  0.34381000  0.56090000  1.0
  H  H20  1  0.40460000  0.60327000  0.86029000  1.0
  H  H21  1  0.75633000  0.45697000  0.36088000  1.0
  H  H22  1  0.59538000  0.39672000  0.13970000  1.0
  H  H23  1  0.24368000  0.54303000  0.63912000  1.0
  H  H24  1  0.49686000  0.47536000  0.73693000  1.0
  H  H25  1  0.76179000  0.24248000  0.23803000  1.0
  H  H26  1  0.50311000  0.52463000  0.26306000  1.0
  H  H27  1  0.23820000  0.75752000  0.76196000  1.0
  H  H28  1  0.48494000  0.21179000  0.70584000  1.0
  H  H29  1  0.99580000  0.22314000  0.20665000  1.0
  H  H30  1  0.51505000  0.78821000  0.29416000  1.0
  H  H31  1  0.00420000  0.77687000  0.79335000  1.0
  H  H32  1  0.36688000  0.08285000  0.79584000  1.0
  H  H33  1  0.21492000  0.42965000  0.29593000  1.0
  H  H34  1  0.63311000  0.91715000  0.20416000  1.0
  H  H35  1  0.78507000  0.57035000  0.70406000  1.0
  C  C36  1  0.18148000  0.45041000  0.08295000  1.0
  C  C37  1  0.13185000  0.89986000  0.58249000  1.0
  C  C38  1  0.81852000  0.54959000  0.91706000  1.0
  C  C39  1  0.86816000  0.10014000  0.41751000  1.0
  C  C40  1  0.16705000  0.59247000  0.10600000  1.0
  C  C41  1  0.01207000  0.93724000  0.60560000  1.0
  C  C42  1  0.83295000  0.40753000  0.89400000  1.0
  C  C43  1  0.98793000  0.06275000  0.39440000  1.0
  C  C44  1  0.20427000  0.67790000  0.05341000  1.0
  C  C45  1  0.87377000  0.84820000  0.55323000  1.0
  C  C46  1  0.79573000  0.32210000  0.94660000  1.0
  C  C47  1  0.12623000  0.15180000  0.44677000  1.0
  C  C48  1  0.25506000  0.61955000  0.98083000  1.0
  C  C49  1  0.85996000  0.72561000  0.48072000  1.0
  C  C50  1  0.74494000  0.38045000  0.01917000  1.0
  C  C51  1  0.14004000  0.27439000  0.51928000  1.0
  C  C52  1  0.26990000  0.47638000  0.96309000  1.0
  C  C53  1  0.98617000  0.69300000  0.46295000  1.0
  C  C54  1  0.73009000  0.52361000  0.03691000  1.0
  C  C55  1  0.01384000  0.30701000  0.53705000  1.0
  C  C56  1  0.32859000  0.40772000  0.88920000  1.0
  C  C57  1  0.98156000  0.56110000  0.38929000  1.0
  C  C58  1  0.67140000  0.59228000  0.11080000  1.0
  C  C59  1  0.01844000  0.43891000  0.61070000  1.0
  C  C60  1  0.39302000  0.48719000  0.84261000  1.0
  C  C61  1  0.85529000  0.45087000  0.34302000  1.0
  C  C62  1  0.60697000  0.51280000  0.15739000  1.0
  C  C63  1  0.14471000  0.54914000  0.65698000  1.0
  C  C64  1  0.44774000  0.41675000  0.77521000  1.0
  C  C65  1  0.85887000  0.32931000  0.27589000  1.0
  C  C66  1  0.55225000  0.58325000  0.22479000  1.0
  C  C67  1  0.14113000  0.67070000  0.72411000  1.0
  C  C68  1  0.43924000  0.26924000  0.75616000  1.0
  C  C69  1  0.98816000  0.31861000  0.25679000  1.0
  C  C70  1  0.56074000  0.73076000  0.24384000  1.0
  C  C71  1  0.01185000  0.68140000  0.74321000  1.0
  C  C72  1  0.37470000  0.19771000  0.80593000  1.0
  C  C73  1  0.10961000  0.43218000  0.30620000  1.0
  C  C74  1  0.62529000  0.80229000  0.19407000  1.0
  C  C75  1  0.89039000  0.56783000  0.69380000  1.0
  C  C76  1  0.54870000  0.06535000  0.04394000  1.0
  C  C77  1  0.47807000  0.49554000  0.54397000  1.0
  C  C78  1  0.45131000  0.93465000  0.95606000  1.0
  C  C79  1  0.52193000  0.50447000  0.45603000  1.0
  C  C80  1  0.04128000  0.02726000  0.05551000  1.0
  C  C81  1  0.52817000  0.01363000  0.55545000  1.0
  C  C82  1  0.95872000  0.97272000  0.94449000  1.0
  C  C83  1  0.47182000  0.98637000  0.44454000  1.0
  N  N84  1  0.23192000  0.39487000  0.01396000  1.0
  N  N85  1  0.11879000  0.78118000  0.51363000  1.0
  N  N86  1  0.76807000  0.60512000  0.98604000  1.0
  N  N87  1  0.88123000  0.21884000  0.48638000  1.0
  N  N88  1  0.32019000  0.26477000  0.86994000  1.0
  N  N89  1  0.10602000  0.55015000  0.36992000  1.0
  N  N90  1  0.67980000  0.73523000  0.13006000  1.0
  N  N91  1  0.89398000  0.44985000  0.63007000  1.0
  O  O92  1  0.49320000  0.17246000  0.06609000  1.0
  O  O93  1  0.39373000  0.57404000  0.56641000  1.0
  O  O94  1  0.50681000  0.82754000  0.93391000  1.0
  O  O95  1  0.60627000  0.42597000  0.43359000  1.0
  O  O96  1  0.67813000  0.05741000  0.08760000  1.0
  O  O97  1  0.52826000  0.40932000  0.58745000  1.0
  O  O98  1  0.32187000  0.94257000  0.91239000  1.0
  O  O99  1  0.47175000  0.59069000  0.41255000  1.0
  O  O100  1  0.16209000  0.11826000  0.08754000  1.0
  O  O101  1  0.47075000  0.92360000  0.58738000  1.0
  O  O102  1  0.83792000  0.88172000  0.91246000  1.0
  O  O103  1  0.52925000  0.07639000  0.41260000  1.0
  O  O104  1  0.98225000  0.97765000  0.10684000  1.0
  O  O105  1  0.62746000  0.12446000  0.60683000  1.0
  O  O106  1  0.01776000  0.02234000  0.89317000  1.0
  O  O107  1  0.37254000  0.87555000  0.39317000  1.0
