# generated using pymatgen
data_CdH8C6(N5O)2
_symmetry_space_group_name_H-M   'P 1'
_cell_length_a   7.94370000
_cell_length_b   8.86236870
_cell_length_c   10.43634866
_cell_angle_alpha   80.18633664
_cell_angle_beta   67.63945890
_cell_angle_gamma   63.39028254
_symmetry_Int_Tables_number   1
_chemical_formula_structural   CdH8C6(N5O)2
_chemical_formula_sum   'Cd2 H16 C12 N20 O4'
_cell_volume   607.50306060
_cell_formula_units_Z   2
loop_
 _symmetry_equiv_pos_site_id
 _symmetry_equiv_pos_as_xyz
  1  'x, y, z'
loop_
 _atom_site_type_symbol
 _atom_site_label
 _atom_site_symmetry_multiplicity
 _atom_site_fract_x
 _atom_site_fract_y
 _atom_site_fract_z
 _atom_site_occupancy
  Cd  Cd0  1  0.56717000  0.50001000  0.50003000  1.0
  Cd  Cd1  1  0.81731000  0.99997000  0.99999000  1.0
  H  H2  1  0.11786000  0.57889000  0.95627000  1.0
  H  H3  1  0.65317000  0.42107000  0.04372000  1.0
  H  H4  1  0.44696000  0.92095000  0.45623000  1.0
  H  H5  1  0.82399000  0.07914000  0.54382000  1.0
  H  H6  1  0.08552000  0.33616000  0.98716000  1.0
  H  H7  1  0.40880000  0.66375000  0.01287000  1.0
  H  H8  1  0.17165000  0.16372000  0.48692000  1.0
  H  H9  1  0.82238000  0.83643000  0.51287000  1.0
  H  H10  1  0.34406000  0.20285000  0.91688000  1.0
  H  H11  1  0.46381000  0.79710000  0.08313000  1.0
  H  H12  1  0.29698000  0.29699000  0.41656000  1.0
  H  H13  1  0.01049000  0.70320000  0.58331000  1.0
  H  H14  1  0.17986000  0.20258000  0.83990000  1.0
  H  H15  1  0.22243000  0.79728000  0.16014000  1.0
  H  H16  1  0.13266000  0.29707000  0.33953000  1.0
  H  H17  1  0.76938000  0.70288000  0.66012000  1.0
  C  C18  1  0.22728000  0.70307000  0.78204000  1.0
  C  C19  1  0.71236000  0.29689000  0.21800000  1.0
  C  C20  1  0.68055000  0.79679000  0.28202000  1.0
  C  C21  1  0.75924000  0.20328000  0.71809000  1.0
  C  C22  1  0.25001000  0.41589000  0.78996000  1.0
  C  C23  1  0.45582000  0.58395000  0.21005000  1.0
  C  C24  1  0.41597000  0.08376000  0.28983000  1.0
  C  C25  1  0.78953000  0.91625000  0.71013000  1.0
  C  C26  1  0.20874000  0.28304000  0.89015000  1.0
  C  C27  1  0.38197000  0.71687000  0.10988000  1.0
  C  C28  1  0.24189000  0.21672000  0.38985000  1.0
  C  C29  1  0.84845000  0.78341000  0.60996000  1.0
  N  N30  1  0.32937000  0.87091000  0.63324000  1.0
  N  N31  1  0.83359000  0.12918000  0.36680000  1.0
  N  N32  1  0.95049000  0.62904000  0.13326000  1.0
  N  N33  1  0.71270000  0.37106000  0.86685000  1.0
  N  N34  1  0.34316000  0.71127000  0.65062000  1.0
  N  N35  1  0.70500000  0.28872000  0.34944000  1.0
  N  N36  1  0.80470000  0.78862000  0.15061000  1.0
  N  N37  1  0.74375000  0.21145000  0.84950000  1.0
  N  N38  1  0.14237000  0.85410000  0.84434000  1.0
  N  N39  1  0.84084000  0.14590000  0.15568000  1.0
  N  N40  1  0.74658000  0.64577000  0.34433000  1.0
  N  N41  1  0.73667000  0.35429000  0.65576000  1.0
  N  N42  1  0.20993000  0.95595000  0.74759000  1.0
  N  N43  1  0.91357000  0.04414000  0.25244000  1.0
  N  N44  1  0.91601000  0.54397000  0.24760000  1.0
  N  N45  1  0.70758000  0.45611000  0.75249000  1.0
  N  N46  1  0.19753000  0.56460000  0.84955000  1.0
  N  N47  1  0.61169000  0.43532000  0.15048000  1.0
  N  N48  1  0.51233000  0.93522000  0.34949000  1.0
  N  N49  1  0.79686000  0.06488000  0.65056000  1.0
  O  O50  1  0.33113000  0.38924000  0.66265000  1.0
  O  O51  1  0.38279000  0.61048000  0.33740000  1.0
  O  O52  1  0.47048000  0.11018000  0.16244000  1.0
  O  O53  1  0.74325000  0.88963000  0.83747000  1.0
