# generated using pymatgen
data_AlH8C4Cl3O2
_symmetry_space_group_name_H-M   'P 1'
_cell_length_a   6.35116000
_cell_length_b   6.39409000
_cell_length_c   13.85210000
_cell_angle_alpha   90.01840000
_cell_angle_beta   90.00740000
_cell_angle_gamma   61.03900000
_symmetry_Int_Tables_number   1
_chemical_formula_structural   AlH8C4Cl3O2
_chemical_formula_sum   'Al2 H16 C8 Cl6 O4'
_cell_volume   492.18727741
_cell_formula_units_Z   2
loop_
 _symmetry_equiv_pos_site_id
 _symmetry_equiv_pos_as_xyz
  1  'x, y, z'
loop_
 _atom_site_type_symbol
 _atom_site_label
 _atom_site_symmetry_multiplicity
 _atom_site_fract_x
 _atom_site_fract_y
 _atom_site_fract_z
 _atom_site_occupancy
  Al  Al0  1  0.55638000  0.95088000  0.74999000  1.0
  Al  Al1  1  0.44360000  0.04914000  0.25000000  1.0
  H  H2  1  0.40288000  0.31315000  0.55657000  1.0
  H  H3  1  0.59713000  0.68686000  0.05652000  1.0
  H  H4  1  0.59716000  0.68688000  0.44341000  1.0
  H  H5  1  0.40290000  0.31308000  0.94350000  1.0
  H  H6  1  0.71502000  0.16146000  0.58963000  1.0
  H  H7  1  0.28497000  0.83856000  0.08957000  1.0
  H  H8  1  0.28502000  0.83855000  0.41034000  1.0
  H  H9  1  0.71506000  0.16137000  0.91045000  1.0
  H  H10  1  0.18673000  0.09642000  0.55878000  1.0
  H  H11  1  0.81325000  0.90359000  0.05884000  1.0
  H  H12  1  0.81329000  0.90362000  0.44119000  1.0
  H  H13  1  0.18675000  0.09634000  0.94118000  1.0
  H  H14  1  0.34253000  0.78738000  0.59318000  1.0
  H  H15  1  0.65743000  0.21267000  0.09327000  1.0
  H  H16  1  0.65743000  0.21273000  0.40680000  1.0
  H  H17  1  0.34259000  0.78726000  0.90675000  1.0
  C  C18  1  0.57358000  0.14455000  0.55076000  1.0
  C  C19  1  0.42643000  0.85547000  0.05071000  1.0
  C  C20  1  0.42643000  0.85554000  0.44924000  1.0
  C  C21  1  0.57360000  0.14445000  0.94930000  1.0
  C  C22  1  0.35708000  0.92734000  0.55282000  1.0
  C  C23  1  0.64288000  0.07266000  0.05287000  1.0
  C  C24  1  0.64286000  0.07274000  0.44717000  1.0
  C  C25  1  0.35716000  0.92726000  0.94714000  1.0
  Cl  Cl26  1  0.57075000  0.60799000  0.74993000  1.0
  Cl  Cl27  1  0.42918000  0.39205000  0.25004000  1.0
  Cl  Cl28  1  0.89882000  0.94215000  0.75002000  1.0
  Cl  Cl29  1  0.10116000  0.05786000  0.24999000  1.0
  Cl  Cl30  1  0.22324000  0.28549000  0.75004000  1.0
  Cl  Cl31  1  0.77673000  0.71450000  0.24997000  1.0
  O  O32  1  0.54572000  0.95791000  0.60029000  1.0
  O  O33  1  0.45424000  0.04212000  0.10031000  1.0
  O  O34  1  0.45426000  0.04213000  0.39970000  1.0
  O  O35  1  0.54576000  0.95784000  0.89971000  1.0
