# generated using pymatgen
data_CdH42C50N8(O3F4)2
_symmetry_space_group_name_H-M   'P 1'
_cell_length_a   12.76700000
_cell_length_b   12.76710000
_cell_length_c   16.57380000
_cell_angle_alpha   108.62600000
_cell_angle_beta   108.62600000
_cell_angle_gamma   96.44350000
_symmetry_Int_Tables_number   1
_chemical_formula_structural   CdH42C50N8(O3F4)2
_chemical_formula_sum   'Cd2 H84 C100 N16 O12 F16'
_cell_volume   2355.86429906
_cell_formula_units_Z   2
loop_
 _symmetry_equiv_pos_site_id
 _symmetry_equiv_pos_as_xyz
  1  'x, y, z'
loop_
 _atom_site_type_symbol
 _atom_site_label
 _atom_site_symmetry_multiplicity
 _atom_site_fract_x
 _atom_site_fract_y
 _atom_site_fract_z
 _atom_site_occupancy
  Cd  Cd0  1  0.38068000  0.61933000  0.25000000  1.0
  Cd  Cd1  1  0.61933000  0.38068000  0.75000000  1.0
  H  H2  1  0.31501000  0.85543000  0.23958000  1.0
  H  H3  1  0.14458000  0.68499000  0.26042000  1.0
  H  H4  1  0.68499000  0.14458000  0.76042000  1.0
  H  H5  1  0.85542000  0.31502000  0.73958000  1.0
  H  H6  1  0.23364000  0.53396000  0.03760000  1.0
  H  H7  1  0.46604000  0.76636000  0.46240000  1.0
  H  H8  1  0.76636000  0.46605000  0.96241000  1.0
  H  H9  1  0.53396000  0.23364000  0.53760000  1.0
  H  H10  1  0.21655000  0.93526000  0.12708000  1.0
  H  H11  1  0.06474000  0.78345000  0.37292000  1.0
  H  H12  1  0.78346000  0.06474000  0.87292000  1.0
  H  H13  1  0.93526000  0.21655000  0.62708000  1.0
  H  H14  1  0.13297000  0.59997000  0.91561000  1.0
  H  H15  1  0.40003000  0.86703000  0.58439000  1.0
  H  H16  1  0.86703000  0.40003000  0.08440000  1.0
  H  H17  1  0.59997000  0.13297000  0.41561000  1.0
  H  H18  1  0.16695000  0.84289000  0.90829000  1.0
  H  H19  1  0.15711000  0.83305000  0.59171000  1.0
  H  H20  1  0.83305000  0.15711000  0.09171000  1.0
  H  H21  1  0.84289000  0.16695000  0.40829000  1.0
  H  H22  1  0.04116000  0.74183000  0.87779000  1.0
  H  H23  1  0.25817000  0.95884000  0.62221000  1.0
  H  H24  1  0.95884000  0.25817000  0.12221000  1.0
  H  H25  1  0.74183000  0.04116000  0.37779000  1.0
  H  H26  1  0.62899000  0.74083000  0.40556000  1.0
  H  H27  1  0.25917000  0.37101000  0.09444000  1.0
  H  H28  1  0.37101000  0.25917000  0.59444000  1.0
  H  H29  1  0.74083000  0.62899000  0.90556000  1.0
  H  H30  1  0.42432000  0.42368000  0.33148000  1.0
  H  H31  1  0.57632000  0.57568000  0.16852000  1.0
  H  H32  1  0.57568000  0.57631000  0.66852000  1.0
  H  H33  1  0.42369000  0.42432000  0.83148000  1.0
  H  H34  1  0.79107000  0.70297000  0.51506000  1.0
  H  H35  1  0.29702000  0.20893000  0.98494000  1.0
  H  H36  1  0.20893000  0.29703000  0.48494000  1.0
  H  H37  1  0.70298000  0.79107000  0.01506000  1.0
  H  H38  1  0.57975000  0.36974000  0.43497000  1.0
  H  H39  1  0.63026000  0.42024000  0.06503000  1.0
  H  H40  1  0.42024000  0.63026000  0.56503000  1.0
  H  H41  1  0.36974000  0.57976000  0.93497000  1.0
  H  H42  1  0.82058000  0.56577000  0.61849000  1.0
  H  H43  1  0.43423000  0.17942000  0.88151000  1.0
  H  H44  1  0.17942000  0.43423000  0.38151000  1.0
  H  H45  1  0.56577000  0.82058000  0.11849000  1.0
  H  H46  1  0.76714000  0.42022000  0.54817000  1.0
  H  H47  1  0.57979000  0.23285000  0.95183000  1.0
  H  H48  1  0.23285000  0.57978000  0.45183000  1.0
  H  H49  1  0.42022000  0.76715000  0.04817000  1.0
  H  H50  1  0.95534000  0.52059000  0.21435000  1.0
  H  H51  1  0.47941000  0.04466000  0.28565000  1.0
  H  H52  1  0.04465000  0.47941000  0.78565000  1.0
  H  H53  1  0.52059000  0.95534000  0.71435000  1.0
  H  H54  1  0.99561000  0.63194000  0.12932000  1.0
  H  H55  1  0.36806000  0.00439000  0.37068000  1.0
  H  H56  1  0.00439000  0.36806000  0.87067000  1.0
  H  H57  1  0.63194000  0.99561000  0.62933000  1.0
  H  H58  1  0.00163000  0.81858000  0.11408000  1.0
  H  H59  1  0.18142000  0.99837000  0.38592000  1.0
  H  H60  1  0.99836000  0.18142000  0.88592000  1.0
  H  H61  1  0.81858000  0.00163000  0.61408000  1.0
  H  H62  1  0.88706000  0.94710000  0.17450000  1.0
  H  H63  1  0.05290000  0.11293000  0.32550000  1.0
  H  H64  1  0.11293000  0.05289000  0.82550000  1.0
  H  H65  1  0.94710000  0.88706000  0.67450000  1.0
  H  H66  1  0.76589000  0.88372000  0.25044000  1.0
  H  H67  1  0.11627000  0.23411000  0.24956000  1.0
  H  H68  1  0.23411000  0.11628000  0.74956000  1.0
  H  H69  1  0.88372000  0.76589000  0.75044000  1.0
  H  H70  1  0.76766000  0.70394000  0.27422000  1.0
  H  H71  1  0.29606000  0.23234000  0.22578000  1.0
  H  H72  1  0.23234000  0.29605000  0.72578000  1.0
  H  H73  1  0.70395000  0.76766000  0.77422000  1.0
  H  H74  1  0.84616000  0.43606000  0.27174000  1.0
  H  H75  1  0.56394000  0.15384000  0.22826000  1.0
  H  H76  1  0.15384000  0.56394000  0.72826000  1.0
  H  H77  1  0.43606000  0.84616000  0.77174000  1.0
  H  H78  1  0.74347000  0.51620000  0.25045000  1.0
  H  H79  1  0.48380000  0.25653000  0.24955000  1.0
  H  H80  1  0.25653000  0.48380000  0.74955000  1.0
  H  H81  1  0.51620000  0.74347000  0.75045000  1.0
  H  H82  1  0.87362000  0.58075000  0.34760000  1.0
  H  H83  1  0.41925000  0.12638000  0.15240000  1.0
  H  H84  1  0.12638000  0.41925000  0.65240000  1.0
  H  H85  1  0.58075000  0.87362000  0.84760000  1.0
  C  C86  1  0.27475000  0.80174000  0.16676000  1.0
  C  C87  1  0.19826000  0.72525000  0.33325000  1.0
  C  C88  1  0.72525000  0.19826000  0.83325000  1.0
  C  C89  1  0.80174000  0.27475000  0.66676000  1.0
  C  C90  1  0.22978000  0.62281000  0.05434000  1.0
  C  C91  1  0.37719000  0.77022000  0.44566000  1.0
  C  C92  1  0.77022000  0.37719000  0.94566000  1.0
  C  C93  1  0.62281000  0.22978000  0.55434000  1.0
  C  C94  1  0.21905000  0.84585000  0.10277000  1.0
  C  C95  1  0.15415000  0.78095000  0.39723000  1.0
  C  C96  1  0.78095000  0.15415000  0.89723000  1.0
  C  C97  1  0.84586000  0.21905000  0.60277000  1.0
  C  C98  1  0.17269000  0.66025000  0.98644000  1.0
  C  C99  1  0.33976000  0.82731000  0.51356000  1.0
  C  C100  1  0.82731000  0.33976000  0.01356000  1.0
  C  C101  1  0.66025000  0.17269000  0.48644000  1.0
  C  C102  1  0.16665000  0.77425000  0.00992000  1.0
  C  C103  1  0.22575000  0.83335000  0.49008000  1.0
  C  C104  1  0.83335000  0.22575000  0.99008000  1.0
  C  C105  1  0.77425000  0.16665000  0.50992000  1.0
  C  C106  1  0.10546000  0.81457000  0.93521000  1.0
  C  C107  1  0.18543000  0.89454000  0.56480000  1.0
  C  C108  1  0.89454000  0.18543000  0.06480000  1.0
  C  C109  1  0.81457000  0.10546000  0.43520000  1.0
  C  C110  1  0.05118000  0.90965000  0.96732000  1.0
  C  C111  1  0.09035000  0.94882000  0.53268000  1.0
  C  C112  1  0.94882000  0.09035000  0.03268000  1.0
  C  C113  1  0.90965000  0.05118000  0.46732000  1.0
  C  C114  1  0.10992000  0.02351000  0.00502000  1.0
  C  C115  1  0.97649000  0.89008000  0.49498000  1.0
  C  C116  1  0.89008000  0.97649000  0.99498000  1.0
  C  C117  1  0.02351000  0.10992000  0.50502000  1.0
  C  C118  1  0.06021000  0.11143000  0.03655000  1.0
  C  C119  1  0.88857000  0.93979000  0.46345000  1.0
  C  C120  1  0.93980000  0.88857000  0.96345000  1.0
  C  C121  1  0.11143000  0.06021000  0.53655000  1.0
  C  C122  1  0.62208000  0.65967000  0.41419000  1.0
  C  C123  1  0.34033000  0.37792000  0.08581000  1.0
  C  C124  1  0.37792000  0.34033000  0.58581000  1.0
  C  C125  1  0.65967000  0.62208000  0.91419000  1.0
  C  C126  1  0.50775000  0.48230000  0.37237000  1.0
  C  C127  1  0.51770000  0.49224000  0.12763000  1.0
  C  C128  1  0.49225000  0.51770000  0.62763000  1.0
  C  C129  1  0.48230000  0.50775000  0.87237000  1.0
  C  C130  1  0.71228000  0.63740000  0.47461000  1.0
  C  C131  1  0.36260000  0.28772000  0.02539000  1.0
  C  C132  1  0.28772000  0.36260000  0.52539000  1.0
  C  C133  1  0.63740000  0.71228000  0.97461000  1.0
  C  C134  1  0.59457000  0.45335000  0.43085000  1.0
  C  C135  1  0.54665000  0.40543000  0.06915000  1.0
  C  C136  1  0.40543000  0.54665000  0.56915000  1.0
  C  C137  1  0.45335000  0.59457000  0.93085000  1.0
  C  C138  1  0.69993000  0.53158000  0.48324000  1.0
  C  C139  1  0.46841000  0.30007000  0.01676000  1.0
  C  C140  1  0.30007000  0.46841000  0.51676000  1.0
  C  C141  1  0.53159000  0.69993000  0.98324000  1.0
  C  C142  1  0.79643000  0.50435000  0.54798000  1.0
  C  C143  1  0.49565000  0.20357000  0.95202000  1.0
  C  C144  1  0.20357000  0.49565000  0.45202000  1.0
  C  C145  1  0.50435000  0.79643000  0.04798000  1.0
  C  C146  1  0.90065000  0.50453000  0.52345000  1.0
  C  C147  1  0.49547000  0.09935000  0.97655000  1.0
  C  C148  1  0.09935000  0.49546000  0.47655000  1.0
  C  C149  1  0.50453000  0.90065000  0.02345000  1.0
  C  C150  1  0.90219000  0.41678000  0.44790000  1.0
  C  C151  1  0.58322000  0.09781000  0.05210000  1.0
  C  C152  1  0.09781000  0.58322000  0.55210000  1.0
  C  C153  1  0.41678000  0.90219000  0.94790000  1.0
  C  C154  1  0.99816000  0.41114000  0.42533000  1.0
  C  C155  1  0.58886000  0.00184000  0.07466000  1.0
  C  C156  1  0.00184000  0.58885000  0.57467000  1.0
  C  C157  1  0.41114000  0.99816000  0.92533000  1.0
  C  C158  1  0.88385000  0.65484000  0.20524000  1.0
  C  C159  1  0.34516000  0.11615000  0.29476000  1.0
  C  C160  1  0.11614000  0.34516000  0.79476000  1.0
  C  C161  1  0.65484000  0.88386000  0.70524000  1.0
  C  C162  1  0.94727000  0.68860000  0.15777000  1.0
  C  C163  1  0.31140000  0.05273000  0.34223000  1.0
  C  C164  1  0.05272000  0.31140000  0.84222000  1.0
  C  C165  1  0.68860000  0.94727000  0.65777000  1.0
  C  C166  1  0.94902000  0.79303000  0.14817000  1.0
  C  C167  1  0.20697000  0.05097000  0.35183000  1.0
  C  C168  1  0.05097000  0.20697000  0.85183000  1.0
  C  C169  1  0.79303000  0.94903000  0.64817000  1.0
  C  C170  1  0.88513000  0.86526000  0.18201000  1.0
  C  C171  1  0.13473000  0.11487000  0.31798000  1.0
  C  C172  1  0.11487000  0.13473000  0.81798000  1.0
  C  C173  1  0.86527000  0.88513000  0.68201000  1.0
  C  C174  1  0.81880000  0.83046000  0.22561000  1.0
  C  C175  1  0.16953000  0.18120000  0.27439000  1.0
  C  C176  1  0.18120000  0.16953000  0.77439000  1.0
  C  C177  1  0.83047000  0.81880000  0.72561000  1.0
  C  C178  1  0.81849000  0.72733000  0.23815000  1.0
  C  C179  1  0.27267000  0.18151000  0.26185000  1.0
  C  C180  1  0.18151000  0.27266000  0.76184000  1.0
  C  C181  1  0.72733000  0.81849000  0.73816000  1.0
  C  C182  1  0.83537000  0.52107000  0.27505000  1.0
  C  C183  1  0.47893000  0.16463000  0.22495000  1.0
  C  C184  1  0.16463000  0.47893000  0.72495000  1.0
  C  C185  1  0.52107000  0.83537000  0.77505000  1.0
  N  N186  1  0.28084000  0.69226000  0.14344000  1.0
  N  N187  1  0.30774000  0.71917000  0.35657000  1.0
  N  N188  1  0.71917000  0.30775000  0.85657000  1.0
  N  N189  1  0.69226000  0.28084000  0.64343000  1.0
  N  N190  1  0.52129000  0.58342000  0.36323000  1.0
  N  N191  1  0.41658000  0.47871000  0.13677000  1.0
  N  N192  1  0.47871000  0.41657000  0.63677000  1.0
  N  N193  1  0.58343000  0.52129000  0.86323000  1.0
  N  N194  1  0.54261000  0.85017000  0.28907000  1.0
  N  N195  1  0.14983000  0.45739000  0.21093000  1.0
  N  N196  1  0.45739000  0.14983000  0.71092000  1.0
  N  N197  1  0.85017000  0.54261000  0.78907000  1.0
  N  N198  1  0.88602000  0.55250000  0.21691000  1.0
  N  N199  1  0.44750000  0.11398000  0.28309000  1.0
  N  N200  1  0.11398000  0.44750000  0.78309000  1.0
  N  N201  1  0.55250000  0.88602000  0.71691000  1.0
  O  O202  1  0.54386000  0.74831000  0.24403000  1.0
  O  O203  1  0.25169000  0.45614000  0.25597000  1.0
  O  O204  1  0.45615000  0.25169000  0.75597000  1.0
  O  O205  1  0.74832000  0.54386000  0.74403000  1.0
  O  O206  1  0.50608000  0.86890000  0.35344000  1.0
  O  O207  1  0.13110000  0.49392000  0.14656000  1.0
  O  O208  1  0.49392000  0.13109000  0.64656000  1.0
  O  O209  1  0.86891000  0.50609000  0.85344000  1.0
  O  O210  1  0.57694000  0.93045000  0.26756000  1.0
  O  O211  1  0.06955000  0.42306000  0.23244000  1.0
  O  O212  1  0.42306000  0.06955000  0.73244000  1.0
  O  O213  1  0.93045000  0.57694000  0.76756000  1.0
  F  F214  1  0.21968000  0.04949000  0.01203000  1.0
  F  F215  1  0.95051000  0.78032000  0.48798000  1.0
  F  F216  1  0.78032000  0.95051000  0.98798000  1.0
  F  F217  1  0.04949000  0.21968000  0.51202000  1.0
  F  F218  1  0.12195000  0.22043000  0.07207000  1.0
  F  F219  1  0.77957000  0.87805000  0.42793000  1.0
  F  F220  1  0.87805000  0.77958000  0.92793000  1.0
  F  F221  1  0.22043000  0.12195000  0.57207000  1.0
  F  F222  1  0.80535000  0.33333333  0.39286000  1.0
  F  F223  1  0.66663000  0.19465000  0.10714000  1.0
  F  F224  1  0.19465000  0.66663000  0.60714000  1.0
  F  F225  1  0.33333333  0.80536000  0.89286000  1.0
  F  F226  1  0.99055000  0.32144000  0.35083000  1.0
  F  F227  1  0.67856000  0.00945000  0.14917000  1.0
  F  F228  1  0.00944000  0.67856000  0.64917000  1.0
  F  F229  1  0.32144000  0.99055000  0.85083000  1.0
