# generated using pymatgen
data_CdH16C16S(NO)4
_symmetry_space_group_name_H-M   'P 1'
_cell_length_a   8.82413227
_cell_length_b   8.82420000
_cell_length_c   13.07860000
_cell_angle_alpha   78.93700000
_cell_angle_beta   78.93691401
_cell_angle_gamma   60.62924782
_symmetry_Int_Tables_number   1
_chemical_formula_structural   CdH16C16S(NO)4
_chemical_formula_sum   'Cd2 H32 C32 S2 N8 O8'
_cell_volume   865.27658510
_cell_formula_units_Z   2
loop_
 _symmetry_equiv_pos_site_id
 _symmetry_equiv_pos_as_xyz
  1  'x, y, z'
loop_
 _atom_site_type_symbol
 _atom_site_label
 _atom_site_symmetry_multiplicity
 _atom_site_fract_x
 _atom_site_fract_y
 _atom_site_fract_z
 _atom_site_occupancy
  Cd  Cd0  1  0.50000000  0.50000000  0.00000000  1.0
  Cd  Cd1  1  0.50000000  0.50000000  0.50000000  1.0
  H  H2  1  0.05546000  0.92636000  0.07891000  1.0
  H  H3  1  0.07363000  0.94454000  0.42110000  1.0
  H  H4  1  0.94454000  0.07363000  0.92109000  1.0
  H  H5  1  0.92637000  0.05546000  0.57891000  1.0
  H  H6  1  0.58065000  0.61451000  0.73765000  1.0
  H  H7  1  0.38550000  0.41934000  0.76235000  1.0
  H  H8  1  0.41934000  0.38550000  0.26235000  1.0
  H  H9  1  0.61450000  0.58066000  0.23765000  1.0
  H  H10  1  0.91196000  0.46109000  0.97315000  1.0
  H  H11  1  0.53891000  0.08805000  0.52685000  1.0
  H  H12  1  0.08804000  0.53891000  0.02685000  1.0
  H  H13  1  0.46109000  0.91196000  0.47315000  1.0
  H  H14  1  0.07299000  0.54960000  0.78262000  1.0
  H  H15  1  0.45040000  0.92702000  0.71737000  1.0
  H  H16  1  0.92701000  0.45040000  0.21738000  1.0
  H  H17  1  0.54960000  0.07299000  0.28262000  1.0
  H  H18  1  0.93021000  0.72404000  0.60321000  1.0
  H  H19  1  0.27596000  0.06979000  0.89679000  1.0
  H  H20  1  0.06979000  0.27595000  0.39679000  1.0
  H  H21  1  0.72405000  0.93020000  0.10321000  1.0
  H  H22  1  0.74052000  0.71261000  0.58557000  1.0
  H  H23  1  0.28739000  0.25948000  0.91443000  1.0
  H  H24  1  0.25948000  0.28739000  0.41443000  1.0
  H  H25  1  0.71261000  0.74052000  0.08557000  1.0
  H  H26  1  0.92656000  0.38811000  0.57459000  1.0
  H  H27  1  0.61190000  0.07343000  0.92541000  1.0
  H  H28  1  0.07343000  0.61190000  0.42541000  1.0
  H  H29  1  0.38810000  0.92657000  0.07459000  1.0
  H  H30  1  0.11290000  0.40375000  0.59100000  1.0
  H  H31  1  0.59625000  0.88710000  0.90900000  1.0
  H  H32  1  0.88710000  0.59625000  0.40900000  1.0
  H  H33  1  0.40375000  0.11290000  0.09100000  1.0
  C  C34  1  0.75381000  0.24764000  0.12521000  1.0
  C  C35  1  0.75236000  0.24620000  0.37479000  1.0
  C  C36  1  0.24620000  0.75236000  0.87479000  1.0
  C  C37  1  0.24764000  0.75380000  0.62521000  1.0
  C  C38  1  0.88164000  0.11067000  0.19605000  1.0
  C  C39  1  0.88933000  0.11837000  0.30395000  1.0
  C  C40  1  0.11837000  0.88933000  0.80395000  1.0
  C  C41  1  0.11067000  0.88163000  0.69605000  1.0
  C  C42  1  0.02191000  0.96298000  0.15804000  1.0
  C  C43  1  0.03702000  0.97809000  0.34196000  1.0
  C  C44  1  0.97809000  0.03702000  0.84196000  1.0
  C  C45  1  0.96298000  0.02191000  0.65804000  1.0
  C  C46  1  0.69159000  0.58355000  0.77767000  1.0
  C  C47  1  0.41645000  0.30841000  0.72233000  1.0
  C  C48  1  0.30841000  0.41645000  0.22233000  1.0
  C  C49  1  0.58355000  0.69159000  0.27767000  1.0
  C  C50  1  0.86799000  0.50594000  0.89595000  1.0
  C  C51  1  0.49405000  0.13202000  0.60406000  1.0
  C  C52  1  0.13201000  0.49405000  0.10406000  1.0
  C  C53  1  0.50595000  0.86798000  0.39594000  1.0
  C  C54  1  0.94946000  0.54670000  0.80226000  1.0
  C  C55  1  0.45330000  0.05054000  0.69774000  1.0
  C  C56  1  0.05054000  0.45330000  0.19774000  1.0
  C  C57  1  0.54670000  0.94946000  0.30226000  1.0
  C  C58  1  0.86880000  0.63882000  0.61541000  1.0
  C  C59  1  0.36118000  0.13120000  0.88460000  1.0
  C  C60  1  0.13120000  0.36118000  0.38460000  1.0
  C  C61  1  0.63882000  0.86880000  0.11540000  1.0
  C  C62  1  0.98592000  0.47572000  0.55904000  1.0
  C  C63  1  0.52427000  0.01409000  0.94096000  1.0
  C  C64  1  0.01408000  0.52427000  0.44096000  1.0
  C  C65  1  0.47573000  0.98591000  0.05904000  1.0
  S  S66  1  0.16195000  0.83804000  0.25000000  1.0
  S  S67  1  0.83805000  0.16195000  0.75000000  1.0
  N  N68  1  0.83591000  0.59524000  0.72845000  1.0
  N  N69  1  0.40476000  0.16409000  0.77155000  1.0
  N  N70  1  0.16409000  0.40476000  0.27155000  1.0
  N  N71  1  0.59524000  0.83591000  0.22845000  1.0
  N  N72  1  0.70709000  0.53044000  0.87949000  1.0
  N  N73  1  0.46956000  0.29291000  0.62051000  1.0
  N  N74  1  0.29291000  0.46956000  0.12051000  1.0
  N  N75  1  0.53044000  0.70709000  0.37949000  1.0
  O  O76  1  0.69352000  0.40908000  0.13624000  1.0
  O  O77  1  0.59092000  0.30649000  0.36376000  1.0
  O  O78  1  0.30648000  0.59092000  0.86376000  1.0
  O  O79  1  0.40908000  0.69352000  0.63624000  1.0
  O  O80  1  0.71260000  0.19867000  0.05380000  1.0
  O  O81  1  0.80133000  0.28741000  0.44620000  1.0
  O  O82  1  0.28740000  0.80133000  0.94620000  1.0
  O  O83  1  0.19866000  0.71260000  0.55380000  1.0
