# generated using pymatgen
data_Zn4H43C80N20Cl5O16
_symmetry_space_group_name_H-M   'P 1'
_cell_length_a   19.18060000
_cell_length_b   19.94240000
_cell_length_c   20.87110000
_cell_angle_alpha   107.10100000
_cell_angle_beta   102.81800000
_cell_angle_gamma   115.60800000
_symmetry_Int_Tables_number   1
_chemical_formula_structural   Zn4H43C80N20Cl5O16
_chemical_formula_sum   'Zn4 H43 C80 N20 Cl5 O16'
_cell_volume   6291.72130898
_cell_formula_units_Z   1
loop_
 _symmetry_equiv_pos_site_id
 _symmetry_equiv_pos_as_xyz
  1  'x, y, z'
loop_
 _atom_site_type_symbol
 _atom_site_label
 _atom_site_symmetry_multiplicity
 _atom_site_fract_x
 _atom_site_fract_y
 _atom_site_fract_z
 _atom_site_occupancy
  Zn  Zn0  1  0.87445000  0.90524000  0.50151000  1.0
  Zn  Zn1  1  0.15224000  0.13143000  0.51074000  1.0
  Zn  Zn2  1  0.10656000  0.99659000  0.59104000  1.0
  Zn  Zn3  1  0.93239000  0.03694000  0.42216000  1.0
  H  H4  1  0.83932000  0.90264000  0.63526000  1.0
  H  H5  1  0.22749000  0.14754000  0.76517000  1.0
  H  H6  1  0.75390000  0.05990000  0.40148000  1.0
  H  H7  1  0.18812000  0.28552000  0.65140000  1.0
  H  H8  1  0.92094000  0.18127000  0.52107000  1.0
  H  H9  1  0.11104000  0.02455000  0.74188000  1.0
  H  H10  1  0.77982000  0.73654000  0.36545000  1.0
  H  H11  1  0.29384000  0.07908000  0.46503000  1.0
  H  H12  1  0.91540000  0.93217000  0.26312000  1.0
  H  H13  1  0.18856000  0.06744000  0.36299000  1.0
  H  H14  1  0.75964000  0.89760000  0.27126000  1.0
  H  H15  1  0.09153000  0.85644000  0.45124000  1.0
  H  H16  1  0.48061000  0.00959000  0.36452000  1.0
  H  H17  1  0.62632000  0.04258000  0.39983000  1.0
  H  H18  1  0.53686000  0.78603000  0.34692000  1.0
  H  H19  1  0.39084000  0.75343000  0.31233000  1.0
  H  H20  1  0.33122000  0.79742000  0.40005000  1.0
  H  H21  1  0.23441000  0.82687000  0.44570000  1.0
  H  H22  1  0.23766000  0.96862000  0.32449000  1.0
  H  H23  1  0.33603000  0.94060000  0.27997000  1.0
  H  H24  1  0.11885000  0.41773000  0.51758000  1.0
  H  H25  1  0.97150000  0.32632000  0.63488000  1.0
  H  H26  1  0.94212000  0.43832000  0.65421000  1.0
  H  H27  1  0.89125000  0.59130000  0.46666000  1.0
  H  H28  1  0.03284000  0.74454000  0.69925000  1.0
  H  H29  1  0.05494000  0.63472000  0.71092000  1.0
  H  H30  1  0.54901000  0.51056000  0.12416000  1.0
  H  H31  1  0.68330000  0.62458000  0.23217000  1.0
  H  H32  1  0.35563000  0.39599000  0.79486000  1.0
  H  H33  1  0.42011000  0.50889000  0.92206000  1.0
  H  H34  1  0.60090000  0.79375000  0.22614000  1.0
  H  H35  1  0.92678000  0.79655000  0.03326000  1.0
  H  H36  1  0.18013000  0.04712000  0.24526000  1.0
  H  H37  1  0.17871000  0.00798000  0.12021000  1.0
  H  H38  1  0.07995000  0.92125000  0.77896000  1.0
  H  H39  1  0.21292000  0.86828000  0.67863000  1.0
  H  H40  1  0.72082000  0.58761000  0.50119000  1.0
  H  H41  1  0.15705000  0.56939000  0.46977000  1.0
  H  H42  1  0.83560000  0.40401000  0.35874000  1.0
  H  H43  1  0.06369000  0.12512000  0.82662000  1.0
  H  H44  1  0.80607000  0.71064000  0.11094000  1.0
  H  H45  1  0.73461000  0.77629000  0.86900000  1.0
  H  H46  1  0.73708000  0.76924000  0.48331000  1.0
  C  C47  1  0.90725000  0.93566000  0.65224000  1.0
  C  C48  1  0.11500000  0.27884000  0.53444000  1.0
  C  C49  1  0.21326000  0.16951000  0.72521000  1.0
  C  C50  1  0.75276000  0.01486000  0.42121000  1.0
  C  C51  1  0.19340000  0.24031000  0.66728000  1.0
  C  C52  1  0.72048000  0.90951000  0.44880000  1.0
  C  C53  1  0.98466000  0.20565000  0.52345000  1.0
  C  C54  1  0.04590000  0.99717000  0.70573000  1.0
  C  C55  1  0.97130000  0.95320000  0.71481000  1.0
  C  C56  1  0.04974000  0.28787000  0.54795000  1.0
  C  C57  1  0.21723000  0.24446000  0.73730000  1.0
  C  C58  1  0.68227000  0.94287000  0.41233000  1.0
  C  C59  1  0.78868000  0.78654000  0.35057000  1.0
  C  C60  1  0.23978000  0.03309000  0.46888000  1.0
  C  C61  1  0.03004000  0.82035000  0.57956000  1.0
  C  C62  1  0.98225000  0.97338000  0.29815000  1.0
  C  C63  1  0.12173000  0.04280000  0.34907000  1.0
  C  C64  1  0.89068000  0.74272000  0.52537000  1.0
  C  C65  1  0.77756000  0.86960000  0.30395000  1.0
  C  C66  1  0.13743000  0.91887000  0.46177000  1.0
  C  C67  1  0.73491000  0.78653000  0.29267000  1.0
  C  C68  1  0.20154000  0.94633000  0.43653000  1.0
  C  C69  1  0.96126000  0.74403000  0.56653000  1.0
  C  C70  1  0.05215000  0.98090000  0.28232000  1.0
  C  C71  1  0.49250000  0.95978000  0.35863000  1.0
  C  C72  1  0.57504000  0.97836000  0.37886000  1.0
  C  C73  1  0.59369000  0.91735000  0.37900000  1.0
  C  C74  1  0.52496000  0.83529000  0.35054000  1.0
  C  C75  1  0.44233000  0.81710000  0.33133000  1.0
  C  C76  1  0.42481000  0.87975000  0.33861000  1.0
  C  C77  1  0.30917000  0.83347000  0.38187000  1.0
  C  C78  1  0.25470000  0.85029000  0.40782000  1.0
  C  C79  1  0.23402000  0.90513000  0.39276000  1.0
  C  C80  1  0.25913000  0.93182000  0.34183000  1.0
  C  C81  1  0.31396000  0.91564000  0.31647000  1.0
  C  C82  1  0.34511000  0.87136000  0.34068000  1.0
  C  C83  1  0.06773000  0.48761000  0.56206000  1.0
  C  C84  1  0.08110000  0.42227000  0.54863000  1.0
  C  C85  1  0.04450000  0.36165000  0.57208000  1.0
  C  C86  1  0.99801000  0.37106000  0.61369000  1.0
  C  C87  1  0.98286000  0.43517000  0.62589000  1.0
  C  C88  1  0.01423000  0.49224000  0.59789000  1.0
  C  C89  1  0.93563000  0.53724000  0.52714000  1.0
  C  C90  1  0.92657000  0.60090000  0.52054000  1.0
  C  C91  1  0.96379000  0.67723000  0.58125000  1.0
  C  C92  1  0.00574000  0.68676000  0.65059000  1.0
  C  C93  1  0.01690000  0.62414000  0.65744000  1.0
  C  C94  1  0.98636000  0.55072000  0.59594000  1.0
  C  C95  1  0.65302000  0.71796000  0.23527000  1.0
  C  C96  1  0.59036000  0.73174000  0.20452000  1.0
  C  C97  1  0.51315000  0.66681000  0.14707000  1.0
  C  C98  1  0.49863000  0.58611000  0.11629000  1.0
  C  C99  1  0.56123000  0.57300000  0.14923000  1.0
  C  C100  1  0.63565000  0.63637000  0.20853000  1.0
  C  C101  1  0.23921000  0.37115000  0.92474000  1.0
  C  C102  1  0.20414000  0.30652000  0.85444000  1.0
  C  C103  1  0.31927000  0.44253000  0.95011000  1.0
  C  C104  1  0.24740000  0.31420000  0.80793000  1.0
  C  C105  1  0.32329000  0.38922000  0.83153000  1.0
  C  C106  1  0.35927000  0.45183000  0.90189000  1.0
  C  C107  1  0.96746000  0.92457000  0.77145000  1.0
  C  C108  1  0.03234000  0.91270000  0.80144000  1.0
  C  C109  1  0.03768000  0.88932000  0.85785000  1.0
  C  C110  1  0.97587000  0.87590000  0.88720000  1.0
  C  C111  1  0.90644000  0.87977000  0.85314000  1.0
  C  C112  1  0.90266000  0.90480000  0.79730000  1.0
  C  C113  1  0.98206000  0.85131000  0.08016000  1.0
  C  C114  1  0.98456000  0.86895000  0.15082000  1.0
  C  C115  1  0.05045000  0.90386000  0.06880000  1.0
  C  C116  1  0.05407000  0.94444000  0.21169000  1.0
  C  C117  1  0.12538000  0.99039000  0.19944000  1.0
  C  C118  1  0.12484000  0.96980000  0.12980000  1.0
  C  C119  1  0.12027000  0.86841000  0.62424000  1.0
  C  C120  1  0.80059000  0.68420000  0.50095000  1.0
  C  C121  1  0.11133000  0.55225000  0.53874000  1.0
  C  C122  1  0.88979000  0.45548000  0.46174000  1.0
  C  C123  1  0.11852000  0.22962000  0.82612000  1.0
  C  C124  1  0.91684000  0.80501000  0.16135000  1.0
  C  C125  1  0.83944000  0.86349000  0.88323000  1.0
  C  C126  1  0.68715000  0.83144000  0.45493000  1.0
  N  N127  1  0.94195000  0.96424000  0.60908000  1.0
  N  N128  1  0.09126000  0.19901000  0.50469000  1.0
  N  N129  1  0.18930000  0.12427000  0.65343000  1.0
  N  N130  1  0.82617000  0.02407000  0.45932000  1.0
  N  N131  1  0.17599000  0.16785000  0.61746000  1.0
  N  N132  1  0.80627000  0.96069000  0.47721000  1.0
  N  N133  1  0.00973000  0.15333000  0.49742000  1.0
  N  N134  1  0.02752000  0.00270000  0.64223000  1.0
  N  N135  1  0.85737000  0.86422000  0.39409000  1.0
  N  N136  1  0.20210000  0.05595000  0.50996000  1.0
  N  N137  1  0.00111000  0.85828000  0.54598000  1.0
  N  N138  1  0.00847000  0.02723000  0.36766000  1.0
  N  N139  1  0.09503000  0.06936000  0.39956000  1.0
  N  N140  1  0.91771000  0.81278000  0.51392000  1.0
  N  N141  1  0.84994000  0.91442000  0.36390000  1.0
  N  N142  1  0.13772000  0.98481000  0.50511000  1.0
  N  N143  1  0.43693000  0.51940000  0.04881000  1.0
  N  N144  1  0.36236000  0.50405000  0.02426000  1.0
  N  N145  1  0.97601000  0.86403000  0.95045000  1.0
  N  N146  1  0.04948000  0.90263000  0.00102000  1.0
  Cl  Cl147  1  0.21584000  0.35402000  0.55417000  1.0
  Cl  Cl148  1  0.18699000  0.36061000  0.98216000  1.0
  Cl  Cl149  1  0.44012000  0.68924000  0.11212000  1.0
  Cl  Cl150  1  0.81809000  0.91373000  0.76254000  1.0
  Cl  Cl151  1  0.11727000  0.87171000  0.88585000  1.0
  O  O152  1  0.16627000  0.94350000  0.64033000  1.0
  O  O153  1  0.15210000  0.82871000  0.64930000  1.0
  O  O154  1  0.74218000  0.68895000  0.46714000  1.0
  O  O155  1  0.78258000  0.62061000  0.51893000  1.0
  O  O156  1  0.13461000  0.62540000  0.56897000  1.0
  O  O157  1  0.12588000  0.52163000  0.47864000  1.0
  O  O158  1  0.86992000  0.38870000  0.46241000  1.0
  O  O159  1  0.86767000  0.46117000  0.39724000  1.0
  O  O160  1  0.05341000  0.21774000  0.78591000  1.0
  O  O161  1  0.12186000  0.17353000  0.84921000  1.0
  O  O162  1  0.92392000  0.79600000  0.21741000  1.0
  O  O163  1  0.84373000  0.75227000  0.09886000  1.0
  O  O164  1  0.84008000  0.91616000  0.93143000  1.0
  O  O165  1  0.77626000  0.78205000  0.84752000  1.0
  O  O166  1  0.61466000  0.77243000  0.42742000  1.0
  O  O167  1  0.75268000  0.82848000  0.49673000  1.0
