# generated using pymatgen
data_CuH14C14(NO2)4
_symmetry_space_group_name_H-M   'P 1'
_cell_length_a   7.21030000
_cell_length_b   7.71094000
_cell_length_c   8.43335000
_cell_angle_alpha   109.97500000
_cell_angle_beta   94.66700000
_cell_angle_gamma   117.63900000
_symmetry_Int_Tables_number   1
_chemical_formula_structural   CuH14C14(NO2)4
_chemical_formula_sum   'Cu1 H14 C14 N4 O8'
_cell_volume   373.83857276
_cell_formula_units_Z   1
loop_
 _symmetry_equiv_pos_site_id
 _symmetry_equiv_pos_as_xyz
  1  'x, y, z'
loop_
 _atom_site_type_symbol
 _atom_site_label
 _atom_site_symmetry_multiplicity
 _atom_site_fract_x
 _atom_site_fract_y
 _atom_site_fract_z
 _atom_site_occupancy
  Cu  Cu0  1  0.00000000  0.00000000  0.00000000  1.0
  H  H1  1  0.49091000  0.84260000  0.84095000  1.0
  H  H2  1  0.50910000  0.15740000  0.15905000  1.0
  H  H3  1  0.25992000  0.57679000  0.71695000  1.0
  H  H4  1  0.74009000  0.42322000  0.28305000  1.0
  H  H5  1  0.49913000  0.73516000  0.07705000  1.0
  H  H6  1  0.50087000  0.26483000  0.92294000  1.0
  H  H7  1  0.25865000  0.73751000  0.10695000  1.0
  H  H8  1  0.74134000  0.26248000  0.89305000  1.0
  H  H9  1  0.75706000  0.77807000  0.33300000  1.0
  H  H10  1  0.24294000  0.22193000  0.66700000  1.0
  H  H11  1  0.73594000  0.80117000  0.66553000  1.0
  H  H12  1  0.26407000  0.19885000  0.33447000  1.0
  H  H13  1  0.14070000  0.68689000  0.38782000  1.0
  H  H14  1  0.85930000  0.31310000  0.61218000  1.0
  C  C15  1  0.21453000  0.42042000  0.01053000  1.0
  C  C16  1  0.78546000  0.57958000  0.98947000  1.0
  C  C17  1  0.18640000  0.82433000  0.76429000  1.0
  C  C18  1  0.81360000  0.17567000  0.23571000  1.0
  C  C19  1  0.34341000  0.74373000  0.72872000  1.0
  C  C20  1  0.65659000  0.25627000  0.27128000  1.0
  C  C21  1  0.35588000  0.66690000  0.12389000  1.0
  C  C22  1  0.64411000  0.33310000  0.87611000  1.0
  C  C23  1  0.62762000  0.76207000  0.39523000  1.0
  C  C24  1  0.37238000  0.23794000  0.60477000  1.0
  C  C25  1  0.61745000  0.77635000  0.55975000  1.0
  C  C26  1  0.38255000  0.22365000  0.44025000  1.0
  C  C27  1  0.30258000  0.71263000  0.41805000  1.0
  C  C28  1  0.69742000  0.28737000  0.58195000  1.0
  N  N29  1  0.41480000  0.74622000  0.57166000  1.0
  N  N30  1  0.58520000  0.25379000  0.42835000  1.0
  N  N31  1  0.43089000  0.72341000  0.30994000  1.0
  N  N32  1  0.56911000  0.27659000  0.69006000  1.0
  O  O33  1  0.22986000  0.30504000  0.08505000  1.0
  O  O34  1  0.77013000  0.69496000  0.91495000  1.0
  O  O35  1  0.20847000  0.91273000  0.93140000  1.0
  O  O36  1  0.79152000  0.08726000  0.06860000  1.0
  O  O37  1  0.05211000  0.79741000  0.64227000  1.0
  O  O38  1  0.94790000  0.20259000  0.35773000  1.0
  O  O39  1  0.10143000  0.35359000  0.85878000  1.0
  O  O40  1  0.89857000  0.64640000  0.14122000  1.0
