# generated using pymatgen
data_CdH13C19(NO2)2
_symmetry_space_group_name_H-M   'P 1'
_cell_length_a   7.40598000
_cell_length_b   15.79000000
_cell_length_c   16.24850000
_cell_angle_alpha   73.96000000
_cell_angle_beta   89.99980000
_cell_angle_gamma   89.99970000
_symmetry_Int_Tables_number   1
_chemical_formula_structural   CdH13C19(NO2)2
_chemical_formula_sum   'Cd4 H52 C76 N8 O16'
_cell_volume   1826.13349511
_cell_formula_units_Z   4
loop_
 _symmetry_equiv_pos_site_id
 _symmetry_equiv_pos_as_xyz
  1  'x, y, z'
loop_
 _atom_site_type_symbol
 _atom_site_label
 _atom_site_symmetry_multiplicity
 _atom_site_fract_x
 _atom_site_fract_y
 _atom_site_fract_z
 _atom_site_occupancy
  Cd  Cd0  1  0.72584000  0.77949000  0.42503000  1.0
  Cd  Cd1  1  0.22584000  0.22050000  0.07497000  1.0
  Cd  Cd2  1  0.27415000  0.22051000  0.57497000  1.0
  Cd  Cd3  1  0.77415000  0.77950000  0.92503000  1.0
  H  H4  1  0.05600000  0.65542000  0.68824000  1.0
  H  H5  1  0.55598000  0.34459000  0.81175000  1.0
  H  H6  1  0.94400000  0.34458000  0.31175000  1.0
  H  H7  1  0.44402000  0.65541000  0.18825000  1.0
  H  H8  1  0.32894000  0.64978000  0.78247000  1.0
  H  H9  1  0.82895000  0.35023000  0.71753000  1.0
  H  H10  1  0.67105000  0.35022000  0.21753000  1.0
  H  H11  1  0.17106000  0.64978000  0.28247000  1.0
  H  H12  1  0.18086000  0.92322000  0.55673000  1.0
  H  H13  1  0.68086000  0.07679000  0.94327000  1.0
  H  H14  1  0.81912000  0.07678000  0.44327000  1.0
  H  H15  1  0.31913000  0.92321000  0.05672000  1.0
  H  H16  1  0.73805000  0.88433000  0.65528000  1.0
  H  H17  1  0.23805000  0.11567000  0.84472000  1.0
  H  H18  1  0.26195000  0.11567000  0.34472000  1.0
  H  H19  1  0.76195000  0.88432000  0.15528000  1.0
  H  H20  1  0.89887000  0.02944000  0.62917000  1.0
  H  H21  1  0.39887000  0.97056000  0.87084000  1.0
  H  H22  1  0.10112000  0.97055000  0.37084000  1.0
  H  H23  1  0.60113000  0.02944000  0.12917000  1.0
  H  H24  1  0.71941000  0.16660000  0.60240000  1.0
  H  H25  1  0.21940000  0.83341000  0.89760000  1.0
  H  H26  1  0.28058000  0.83340000  0.39761000  1.0
  H  H27  1  0.78059000  0.16659000  0.10240000  1.0
  H  H28  1  0.23653000  0.02832000  0.63078000  1.0
  H  H29  1  0.73653000  0.97170000  0.86922000  1.0
  H  H30  1  0.76346000  0.97169000  0.36922000  1.0
  H  H31  1  0.26346000  0.02831000  0.13077000  1.0
  H  H32  1  0.44170000  0.69870000  0.56801000  1.0
  H  H33  1  0.94171000  0.30131000  0.93198000  1.0
  H  H34  1  0.55830000  0.30130000  0.43199000  1.0
  H  H35  1  0.05827000  0.69870000  0.06802000  1.0
  H  H36  1  0.19728000  0.58631000  0.60350000  1.0
  H  H37  1  0.69728000  0.41370000  0.89650000  1.0
  H  H38  1  0.80273000  0.41369000  0.39650000  1.0
  H  H39  1  0.30271000  0.58631000  0.10351000  1.0
  H  H40  1  0.33357000  0.51409000  0.37390000  1.0
  H  H41  1  0.83356000  0.48590000  0.12610000  1.0
  H  H42  1  0.66646000  0.48590000  0.62610000  1.0
  H  H43  1  0.16646000  0.51410000  0.87390000  1.0
  H  H44  1  0.57388000  0.63161000  0.34649000  1.0
  H  H45  1  0.07387000  0.36838000  0.15350000  1.0
  H  H46  1  0.42615000  0.36839000  0.65350000  1.0
  H  H47  1  0.92614000  0.63162000  0.84650000  1.0
  H  H48  1  0.09592000  0.43603000  0.57638000  1.0
  H  H49  1  0.59591000  0.56397000  0.92362000  1.0
  H  H50  1  0.90410000  0.56397000  0.42361000  1.0
  H  H51  1  0.40409000  0.43604000  0.07639000  1.0
  H  H52  1  0.10480000  0.42927000  0.46990000  1.0
  H  H53  1  0.60479000  0.57073000  0.03010000  1.0
  H  H54  1  0.89522000  0.57073000  0.53009000  1.0
  H  H55  1  0.39521000  0.42927000  0.96991000  1.0
  C  C56  1  0.95199000  0.79210000  0.55497000  1.0
  C  C57  1  0.45200000  0.20790000  0.94502000  1.0
  C  C58  1  0.04800000  0.20790000  0.44503000  1.0
  C  C59  1  0.54800000  0.79210000  0.05497000  1.0
  C  C60  1  0.10321000  0.78979000  0.61701000  1.0
  C  C61  1  0.60320000  0.21021000  0.88298000  1.0
  C  C62  1  0.89679000  0.21021000  0.38299000  1.0
  C  C63  1  0.39680000  0.78979000  0.11701000  1.0
  C  C64  1  0.14384000  0.71239000  0.68089000  1.0
  C  C65  1  0.64383000  0.28762000  0.81910000  1.0
  C  C66  1  0.85616000  0.28761000  0.31911000  1.0
  C  C67  1  0.35618000  0.71238000  0.18089000  1.0
  C  C68  1  0.29424000  0.70943000  0.73277000  1.0
  C  C69  1  0.79424000  0.29057000  0.76723000  1.0
  C  C70  1  0.70575000  0.29056000  0.26723000  1.0
  C  C71  1  0.20576000  0.70943000  0.23277000  1.0
  C  C72  1  0.40354000  0.78380000  0.72438000  1.0
  C  C73  1  0.90354000  0.21620000  0.77562000  1.0
  C  C74  1  0.59645000  0.21620000  0.27562000  1.0
  C  C75  1  0.09646000  0.78380000  0.22438000  1.0
  C  C76  1  0.36297000  0.86269000  0.66079000  1.0
  C  C77  1  0.86297000  0.13732000  0.83920000  1.0
  C  C78  1  0.63702000  0.13731000  0.33921000  1.0
  C  C79  1  0.13703000  0.86268000  0.16079000  1.0
  C  C80  1  0.21273000  0.86399000  0.60777000  1.0
  C  C81  1  0.71273000  0.13601000  0.89223000  1.0
  C  C82  1  0.78726000  0.13600000  0.39223000  1.0
  C  C83  1  0.28727000  0.86399000  0.10777000  1.0
  C  C84  1  0.54834000  0.77730000  0.79056000  1.0
  C  C85  1  0.04834000  0.22270000  0.70943000  1.0
  C  C86  1  0.45166000  0.22269000  0.20944000  1.0
  C  C87  1  0.95166000  0.77730000  0.29056000  1.0
  C  C88  1  0.47227000  0.94384000  0.64684000  1.0
  C  C89  1  0.97227000  0.05616000  0.85316000  1.0
  C  C90  1  0.52772000  0.05616000  0.35316000  1.0
  C  C91  1  0.02772000  0.94384000  0.14684000  1.0
  C  C92  1  0.66176000  0.94522000  0.64584000  1.0
  C  C93  1  0.16176000  0.05478000  0.85417000  1.0
  C  C94  1  0.33823000  0.05478000  0.35417000  1.0
  C  C95  1  0.83823000  0.94521000  0.14583000  1.0
  C  C96  1  0.75227000  0.02530000  0.63065000  1.0
  C  C97  1  0.25227000  0.97470000  0.86935000  1.0
  C  C98  1  0.24772000  0.97470000  0.36935000  1.0
  C  C99  1  0.74773000  0.02530000  0.13065000  1.0
  C  C100  1  0.65229000  0.10282000  0.61512000  1.0
  C  C101  1  0.15228000  0.89719000  0.88488000  1.0
  C  C102  1  0.34770000  0.89718000  0.38488000  1.0
  C  C103  1  0.84771000  0.10281000  0.11512000  1.0
  C  C104  1  0.38348000  0.02485000  0.63075000  1.0
  C  C105  1  0.88347000  0.97515000  0.86925000  1.0
  C  C106  1  0.61651000  0.97515000  0.36925000  1.0
  C  C107  1  0.11652000  0.02485000  0.13074000  1.0
  C  C108  1  0.41257000  0.65684000  0.52622000  1.0
  C  C109  1  0.91257000  0.34316000  0.97377000  1.0
  C  C110  1  0.58744000  0.34316000  0.47377000  1.0
  C  C111  1  0.08742000  0.65685000  0.02623000  1.0
  C  C112  1  0.27755000  0.59370000  0.54586000  1.0
  C  C113  1  0.77754000  0.40630000  0.95414000  1.0
  C  C114  1  0.72247000  0.40630000  0.45414000  1.0
  C  C115  1  0.22246000  0.59371000  0.04587000  1.0
  C  C116  1  0.24347000  0.54093000  0.49095000  1.0
  C  C117  1  0.74346000  0.45908000  0.00905000  1.0
  C  C118  1  0.75655000  0.45907000  0.50905000  1.0
  C  C119  1  0.25654000  0.54093000  0.99095000  1.0
  C  C120  1  0.35198000  0.55436000  0.41808000  1.0
  C  C121  1  0.85196000  0.44563000  0.08192000  1.0
  C  C122  1  0.64805000  0.44564000  0.58192000  1.0
  C  C123  1  0.14804000  0.55437000  0.91809000  1.0
  C  C124  1  0.48548000  0.61889000  0.40232000  1.0
  C  C125  1  0.98547000  0.38110000  0.09768000  1.0
  C  C126  1  0.51454000  0.38110000  0.59768000  1.0
  C  C127  1  0.01453000  0.61890000  0.90232000  1.0
  C  C128  1  0.09184000  0.47570000  0.50900000  1.0
  C  C129  1  0.59183000  0.52430000  0.99100000  1.0
  C  C130  1  0.90819000  0.52429000  0.49100000  1.0
  C  C131  1  0.40818000  0.47571000  0.00901000  1.0
  N  N132  1  0.47059000  0.10239000  0.61449000  1.0
  N  N133  1  0.97058000  0.89762000  0.88551000  1.0
  N  N134  1  0.52941000  0.89761000  0.38551000  1.0
  N  N135  1  0.02941000  0.10238000  0.11449000  1.0
  N  N136  1  0.51461000  0.66971000  0.45512000  1.0
  N  N137  1  0.01462000  0.33030000  0.04487000  1.0
  N  N138  1  0.48539000  0.33030000  0.54487000  1.0
  N  N139  1  0.98538000  0.66971000  0.95513000  1.0
  O  O140  1  0.88933000  0.71778000  0.54947000  1.0
  O  O141  1  0.38932000  0.28222000  0.95052000  1.0
  O  O142  1  0.11067000  0.28222000  0.45052000  1.0
  O  O143  1  0.61067000  0.71778000  0.04948000  1.0
  O  O144  1  0.89645000  0.86573000  0.50858000  1.0
  O  O145  1  0.39646000  0.13427000  0.99142000  1.0
  O  O146  1  0.10353000  0.13427000  0.49142000  1.0
  O  O147  1  0.60352000  0.86573000  0.00858000  1.0
  O  O148  1  0.64279000  0.70776000  0.81450000  1.0
  O  O149  1  0.14279000  0.29224000  0.68549000  1.0
  O  O150  1  0.35721000  0.29224000  0.18549000  1.0
  O  O151  1  0.85720000  0.70776000  0.31450000  1.0
  O  O152  1  0.56257000  0.84211000  0.82327000  1.0
  O  O153  1  0.06257000  0.15789000  0.67674000  1.0
  O  O154  1  0.43742000  0.15788000  0.17674000  1.0
  O  O155  1  0.93743000  0.84211000  0.32326000  1.0
