# generated using pymatgen
data_Cd3H46C60(NO2)8
_symmetry_space_group_name_H-M   'P 1'
_cell_length_a   11.61740000
_cell_length_b   16.49940000
_cell_length_c   17.16130000
_cell_angle_alpha   107.10100000
_cell_angle_beta   90.00000000
_cell_angle_gamma   89.99970000
_symmetry_Int_Tables_number   1
_chemical_formula_structural   Cd3H46C60(NO2)8
_chemical_formula_sum   'Cd6 H92 C120 N16 O32'
_cell_volume   3144.04532252
_cell_formula_units_Z   2
loop_
 _symmetry_equiv_pos_site_id
 _symmetry_equiv_pos_as_xyz
  1  'x, y, z'
loop_
 _atom_site_type_symbol
 _atom_site_label
 _atom_site_symmetry_multiplicity
 _atom_site_fract_x
 _atom_site_fract_y
 _atom_site_fract_z
 _atom_site_occupancy
  Cd  Cd0  1  0.83322000  0.77709000  0.03263000  1.0
  Cd  Cd1  1  0.83322000  0.72291000  0.46737000  1.0
  Cd  Cd2  1  0.16678000  0.22291000  0.96737000  1.0
  Cd  Cd3  1  0.16678000  0.27710000  0.53263000  1.0
  Cd  Cd4  1  0.90721000  0.75000000  0.25001000  1.0
  Cd  Cd5  1  0.09278000  0.25000000  0.75000000  1.0
  H  H6  1  0.83273000  0.09898000  0.15943000  1.0
  H  H7  1  0.83272000  0.40103000  0.34057000  1.0
  H  H8  1  0.16728000  0.90102000  0.84056000  1.0
  H  H9  1  0.16728000  0.59897000  0.65944000  1.0
  H  H10  1  0.89548000  0.00639000  0.17117000  1.0
  H  H11  1  0.89548000  0.49362000  0.32883000  1.0
  H  H12  1  0.10452000  0.99361000  0.82882000  1.0
  H  H13  1  0.10452000  0.50638000  0.67117000  1.0
  H  H14  1  0.09934000  0.96349000  0.10555000  1.0
  H  H15  1  0.09933000  0.53652000  0.39444000  1.0
  H  H16  1  0.90066000  0.03651000  0.89445000  1.0
  H  H17  1  0.90067000  0.46349000  0.60555000  1.0
  H  H18  1  0.22768000  0.02972000  0.00091000  1.0
  H  H19  1  0.22768000  0.47028000  0.49908000  1.0
  H  H20  1  0.77232000  0.97028000  0.99908000  1.0
  H  H21  1  0.77232000  0.52972000  0.50091000  1.0
  H  H22  1  0.95090000  0.19422000  0.09318000  1.0
  H  H23  1  0.95089000  0.30578000  0.40681000  1.0
  H  H24  1  0.04911000  0.80577000  0.90681000  1.0
  H  H25  1  0.04911000  0.69423000  0.59319000  1.0
  H  H26  1  0.63692000  0.63281000  0.77869000  1.0
  H  H27  1  0.63692000  0.86719000  0.72130000  1.0
  H  H28  1  0.36308000  0.36719000  0.22130000  1.0
  H  H29  1  0.36308000  0.13281000  0.27870000  1.0
  H  H30  1  0.74101000  0.47947000  0.92946000  1.0
  H  H31  1  0.74101000  0.02052000  0.57054000  1.0
  H  H32  1  0.25900000  0.52052000  0.07054000  1.0
  H  H33  1  0.25899000  0.97948000  0.42946000  1.0
  H  H34  1  0.66989000  0.34914000  0.82379000  1.0
  H  H35  1  0.66990000  0.15086000  0.67620000  1.0
  H  H36  1  0.33010000  0.65086000  0.17620000  1.0
  H  H37  1  0.33010000  0.84914000  0.32380000  1.0
  H  H38  1  0.56472000  0.50175000  0.67227000  1.0
  H  H39  1  0.56472000  0.99825000  0.82773000  1.0
  H  H40  1  0.43527000  0.49825000  0.32773000  1.0
  H  H41  1  0.43528000  0.00175000  0.17227000  1.0
  H  H42  1  0.46815000  0.22367000  0.58255000  1.0
  H  H43  1  0.46814000  0.27634000  0.91745000  1.0
  H  H44  1  0.53186000  0.77633000  0.41745000  1.0
  H  H45  1  0.53186000  0.72367000  0.08255000  1.0
  H  H46  1  0.79037000  0.34745000  0.67095000  1.0
  H  H47  1  0.79036000  0.15256000  0.82904000  1.0
  H  H48  1  0.20963000  0.65256000  0.32904000  1.0
  H  H49  1  0.20964000  0.84744000  0.17096000  1.0
  H  H50  1  0.78745000  0.12471000  0.46249000  1.0
  H  H51  1  0.78745000  0.37529000  0.03751000  1.0
  H  H52  1  0.21255000  0.87529000  0.53751000  1.0
  H  H53  1  0.21255000  0.62471000  0.96249000  1.0
  H  H54  1  0.59771000  0.93927000  0.45069000  1.0
  H  H55  1  0.59772000  0.56073000  0.04931000  1.0
  H  H56  1  0.40228000  0.06072000  0.54931000  1.0
  H  H57  1  0.40228000  0.43927000  0.95069000  1.0
  H  H58  1  0.62048000  0.13993000  0.33894000  1.0
  H  H59  1  0.62048000  0.36007000  0.16107000  1.0
  H  H60  1  0.37952000  0.86007000  0.66106000  1.0
  H  H61  1  0.37952000  0.63993000  0.83894000  1.0
  H  H62  1  0.67341000  0.83598000  0.32333000  1.0
  H  H63  1  0.67341000  0.66402000  0.17667000  1.0
  H  H64  1  0.32659000  0.16402000  0.67667000  1.0
  H  H65  1  0.32659000  0.33598000  0.82333000  1.0
  H  H66  1  0.69138000  0.03532000  0.20965000  1.0
  H  H67  1  0.69137000  0.46468000  0.29035000  1.0
  H  H68  1  0.30863000  0.96468000  0.79035000  1.0
  H  H69  1  0.30863000  0.53532000  0.70965000  1.0
  H  H70  1  0.03521000  0.90942000  0.20923000  1.0
  H  H71  1  0.03521000  0.59058000  0.29077000  1.0
  H  H72  1  0.96479000  0.09057000  0.79077000  1.0
  H  H73  1  0.96478000  0.40942000  0.70923000  1.0
  H  H74  1  0.96634000  0.06956000  0.44710000  1.0
  H  H75  1  0.96633000  0.43045000  0.05290000  1.0
  H  H76  1  0.03366000  0.93044000  0.55290000  1.0
  H  H77  1  0.03366000  0.56956000  0.94710000  1.0
  H  H78  1  0.89934000  0.90344000  0.43573000  1.0
  H  H79  1  0.89933000  0.59657000  0.06428000  1.0
  H  H80  1  0.10067000  0.09657000  0.56428000  1.0
  H  H81  1  0.10067000  0.40343000  0.93573000  1.0
  H  H82  1  0.11928000  0.07082000  0.25815000  1.0
  H  H83  1  0.11927000  0.42918000  0.24185000  1.0
  H  H84  1  0.88072000  0.92918000  0.74185000  1.0
  H  H85  1  0.88072000  0.57082000  0.75815000  1.0
  H  H86  1  0.07549000  0.13353000  0.35608000  1.0
  H  H87  1  0.07549000  0.36647000  0.14392000  1.0
  H  H88  1  0.92451000  0.86647000  0.64392000  1.0
  H  H89  1  0.92451000  0.63353000  0.85608000  1.0
  H  H90  1  0.96970000  0.18850000  0.26513000  1.0
  H  H91  1  0.96969000  0.31149000  0.23487000  1.0
  H  H92  1  0.03030000  0.81150000  0.73487000  1.0
  H  H93  1  0.03030000  0.68850000  0.76513000  1.0
  H  H94  1  0.87017000  0.12891000  0.30410000  1.0
  H  H95  1  0.87017000  0.37109000  0.19590000  1.0
  H  H96  1  0.12983000  0.87108000  0.69589000  1.0
  H  H97  1  0.12983000  0.62891000  0.80411000  1.0
  C  C98  1  0.91248000  0.07339000  0.17724000  1.0
  C  C99  1  0.91248000  0.42661000  0.32276000  1.0
  C  C100  1  0.08752000  0.92661000  0.82276000  1.0
  C  C101  1  0.08752000  0.57339000  0.67724000  1.0
  C  C102  1  0.08972000  0.02147000  0.08871000  1.0
  C  C103  1  0.08972000  0.47853000  0.41128000  1.0
  C  C104  1  0.91028000  0.97852000  0.91128000  1.0
  C  C105  1  0.91028000  0.52148000  0.58872000  1.0
  C  C106  1  0.15139000  0.05413000  0.03642000  1.0
  C  C107  1  0.15139000  0.44587000  0.46358000  1.0
  C  C108  1  0.84861000  0.94587000  0.96358000  1.0
  C  C109  1  0.84861000  0.55413000  0.53642000  1.0
  C  C110  1  0.01028000  0.14135000  0.08291000  1.0
  C  C111  1  0.01028000  0.35865000  0.41709000  1.0
  C  C112  1  0.98972000  0.85864000  0.91709000  1.0
  C  C113  1  0.98972000  0.64136000  0.58291000  1.0
  C  C114  1  0.72853000  0.64246000  0.92486000  1.0
  C  C115  1  0.72853000  0.85754000  0.57514000  1.0
  C  C116  1  0.27147000  0.35754000  0.07513000  1.0
  C  C117  1  0.27147000  0.14246000  0.42487000  1.0
  C  C118  1  0.69011000  0.56399000  0.86108000  1.0
  C  C119  1  0.69011000  0.93601000  0.63891000  1.0
  C  C120  1  0.30989000  0.43601000  0.13891000  1.0
  C  C121  1  0.30989000  0.06399000  0.36109000  1.0
  C  C122  1  0.64352000  0.57029000  0.78773000  1.0
  C  C123  1  0.64352000  0.92971000  0.71227000  1.0
  C  C124  1  0.35648000  0.42971000  0.21227000  1.0
  C  C125  1  0.35648000  0.07029000  0.28773000  1.0
  C  C126  1  0.70209000  0.48398000  0.87314000  1.0
  C  C127  1  0.70209000  0.01603000  0.62686000  1.0
  C  C128  1  0.29791000  0.51602000  0.12686000  1.0
  C  C129  1  0.29791000  0.98398000  0.37314000  1.0
  C  C130  1  0.66327000  0.41144000  0.81445000  1.0
  C  C131  1  0.66327000  0.08856000  0.68555000  1.0
  C  C132  1  0.33673000  0.58856000  0.18555000  1.0
  C  C133  1  0.33673000  0.91144000  0.31445000  1.0
  C  C134  1  0.60448000  0.49816000  0.72869000  1.0
  C  C135  1  0.60448000  0.00184000  0.77131000  1.0
  C  C136  1  0.39552000  0.50184000  0.27131000  1.0
  C  C137  1  0.39552000  0.99816000  0.22869000  1.0
  C  C138  1  0.61196000  0.41969000  0.74364000  1.0
  C  C139  1  0.61196000  0.08031000  0.75636000  1.0
  C  C140  1  0.38803000  0.58031000  0.25636000  1.0
  C  C141  1  0.38803000  0.91969000  0.24364000  1.0
  C  C142  1  0.56135000  0.22725000  0.57768000  1.0
  C  C143  1  0.56135000  0.27275000  0.92232000  1.0
  C  C144  1  0.43865000  0.77275000  0.42232000  1.0
  C  C145  1  0.43865000  0.72725000  0.07768000  1.0
  C  C146  1  0.62302000  0.29266000  0.63194000  1.0
  C  C147  1  0.62302000  0.20734000  0.86806000  1.0
  C  C148  1  0.37698000  0.70734000  0.36806000  1.0
  C  C149  1  0.37698000  0.79266000  0.13194000  1.0
  C  C150  1  0.62180000  0.16616000  0.51807000  1.0
  C  C151  1  0.62180000  0.33384000  0.98193000  1.0
  C  C152  1  0.37820000  0.83384000  0.48193000  1.0
  C  C153  1  0.37820000  0.66616000  0.01807000  1.0
  C  C154  1  0.74288000  0.29758000  0.62725000  1.0
  C  C155  1  0.74288000  0.20242000  0.87274000  1.0
  C  C156  1  0.25712000  0.70242000  0.37274000  1.0
  C  C157  1  0.25712000  0.79758000  0.12726000  1.0
  C  C158  1  0.74111000  0.17143000  0.51010000  1.0
  C  C159  1  0.74111000  0.32857000  0.98990000  1.0
  C  C160  1  0.25889000  0.82857000  0.48990000  1.0
  C  C161  1  0.25889000  0.67143000  0.01010000  1.0
  C  C162  1  0.80112000  0.23732000  0.56518000  1.0
  C  C163  1  0.80112000  0.26268000  0.93482000  1.0
  C  C164  1  0.19888000  0.76268000  0.43482000  1.0
  C  C165  1  0.19888000  0.73732000  0.06518000  1.0
  C  C166  1  0.92891000  0.24447000  0.55543000  1.0
  C  C167  1  0.92891000  0.25553000  0.94457000  1.0
  C  C168  1  0.07109000  0.75553000  0.44457000  1.0
  C  C169  1  0.07109000  0.74447000  0.05543000  1.0
  C  C170  1  0.60681000  0.04462000  0.40132000  1.0
  C  C171  1  0.60681000  0.45538000  0.09868000  1.0
  C  C172  1  0.39318000  0.95538000  0.59868000  1.0
  C  C173  1  0.39319000  0.54462000  0.90132000  1.0
  C  C174  1  0.62012000  0.95971000  0.39786000  1.0
  C  C175  1  0.62012000  0.54029000  0.10215000  1.0
  C  C176  1  0.37988000  0.04029000  0.60214000  1.0
  C  C177  1  0.37988000  0.45971000  0.89786000  1.0
  C  C178  1  0.63448000  0.07348000  0.33484000  1.0
  C  C179  1  0.63447000  0.42652000  0.16516000  1.0
  C  C180  1  0.36552000  0.92651000  0.66516000  1.0
  C  C181  1  0.36552000  0.57348000  0.83484000  1.0
  C  C182  1  0.66244000  0.90256000  0.32671000  1.0
  C  C183  1  0.66244000  0.59744000  0.17329000  1.0
  C  C184  1  0.33756000  0.09744000  0.67329000  1.0
  C  C185  1  0.33756000  0.40256000  0.82672000  1.0
  C  C186  1  0.67444000  0.01567000  0.26378000  1.0
  C  C187  1  0.67444000  0.48433000  0.23622000  1.0
  C  C188  1  0.32556000  0.98432000  0.73622000  1.0
  C  C189  1  0.32556000  0.51567000  0.76378000  1.0
  C  C190  1  0.68973000  0.92989000  0.25899000  1.0
  C  C191  1  0.68973000  0.57011000  0.24102000  1.0
  C  C192  1  0.31027000  0.07010000  0.74101000  1.0
  C  C193  1  0.31027000  0.42989000  0.75899000  1.0
  C  C194  1  0.73258000  0.87022000  0.18140000  1.0
  C  C195  1  0.73258000  0.62978000  0.31860000  1.0
  C  C196  1  0.26742000  0.12978000  0.81860000  1.0
  C  C197  1  0.26742000  0.37022000  0.68140000  1.0
  C  C198  1  0.00814000  0.93046000  0.27244000  1.0
  C  C199  1  0.00814000  0.56954000  0.22756000  1.0
  C  C200  1  0.99186000  0.06954000  0.72756000  1.0
  C  C201  1  0.99186000  0.43046000  0.77244000  1.0
  C  C202  1  0.96984000  0.01104000  0.39755000  1.0
  C  C203  1  0.96982000  0.48896000  0.10246000  1.0
  C  C204  1  0.03018000  0.98896000  0.60246000  1.0
  C  C205  1  0.03017000  0.51104000  0.89755000  1.0
  C  C206  1  0.93974000  0.92885000  0.39089000  1.0
  C  C207  1  0.93973000  0.57116000  0.10912000  1.0
  C  C208  1  0.06028000  0.07116000  0.60912000  1.0
  C  C209  1  0.06027000  0.42884000  0.89089000  1.0
  C  C210  1  0.04599000  0.08674000  0.30028000  1.0
  C  C211  1  0.04598000  0.41326000  0.19972000  1.0
  C  C212  1  0.95401000  0.91326000  0.69972000  1.0
  C  C213  1  0.95401000  0.58674000  0.80028000  1.0
  C  C214  1  0.94572000  0.12374000  0.26429000  1.0
  C  C215  1  0.94572000  0.37626000  0.23571000  1.0
  C  C216  1  0.05428000  0.87626000  0.73571000  1.0
  C  C217  1  0.05428000  0.62374000  0.76429000  1.0
  N  N218  1  0.00039000  0.07767000  0.11777000  1.0
  N  N219  1  0.00038000  0.42233000  0.38223000  1.0
  N  N220  1  0.99961000  0.92233000  0.88223000  1.0
  N  N221  1  0.99961000  0.57767000  0.61778000  1.0
  N  N222  1  0.10052000  0.12855000  0.03325000  1.0
  N  N223  1  0.10052000  0.37145000  0.46675000  1.0
  N  N224  1  0.89948000  0.87145000  0.96675000  1.0
  N  N225  1  0.89949000  0.62856000  0.53326000  1.0
  N  N226  1  0.96450000  0.87923000  0.31246000  1.0
  N  N227  1  0.96449000  0.62077000  0.18754000  1.0
  N  N228  1  0.03551000  0.12077000  0.68754000  1.0
  N  N229  1  0.03550000  0.37923000  0.81246000  1.0
  N  N230  1  0.01260000  0.01094000  0.32232000  1.0
  N  N231  1  0.01259000  0.48907000  0.17768000  1.0
  N  N232  1  0.98741000  0.98906000  0.67768000  1.0
  N  N233  1  0.98740000  0.51094000  0.82232000  1.0
  O  O234  1  0.72215000  0.71352000  0.91011000  1.0
  O  O235  1  0.72215000  0.78648000  0.58989000  1.0
  O  O236  1  0.27785000  0.28648000  0.08989000  1.0
  O  O237  1  0.27785000  0.21352000  0.41011000  1.0
  O  O238  1  0.77034000  0.63525000  0.99184000  1.0
  O  O239  1  0.77035000  0.86475000  0.50816000  1.0
  O  O240  1  0.22966000  0.36475000  0.00816000  1.0
  O  O241  1  0.22965000  0.13525000  0.49184000  1.0
  O  O242  1  0.55826000  0.35045000  0.68911000  1.0
  O  O243  1  0.55826000  0.14955000  0.81089000  1.0
  O  O244  1  0.44173000  0.64955000  0.31089000  1.0
  O  O245  1  0.44174000  0.85045000  0.18911000  1.0
  O  O246  1  0.55754000  0.09952000  0.47078000  1.0
  O  O247  1  0.55755000  0.40048000  0.02923000  1.0
  O  O248  1  0.44246000  0.90048000  0.52922000  1.0
  O  O249  1  0.44246000  0.59952000  0.97078000  1.0
  O  O250  1  0.98844000  0.28905000  0.61596000  1.0
  O  O251  1  0.98844000  0.21094000  0.88404000  1.0
  O  O252  1  0.01156000  0.71095000  0.38404000  1.0
  O  O253  1  0.01156000  0.78905000  0.11596000  1.0
  O  O254  1  0.97316000  0.20793000  0.48629000  1.0
  O  O255  1  0.97316000  0.29207000  0.01370000  1.0
  O  O256  1  0.02684000  0.79207000  0.51370000  1.0
  O  O257  1  0.02685000  0.70793000  0.98629000  1.0
  O  O258  1  0.73953000  0.89609000  0.11864000  1.0
  O  O259  1  0.73954000  0.60390000  0.38136000  1.0
  O  O260  1  0.26047000  0.10390000  0.88136000  1.0
  O  O261  1  0.26047000  0.39609000  0.61865000  1.0
  O  O262  1  0.76275000  0.79395000  0.17814000  1.0
  O  O263  1  0.76275000  0.70605000  0.32186000  1.0
  O  O264  1  0.23726000  0.20605000  0.82186000  1.0
  O  O265  1  0.23725000  0.29395000  0.67814000  1.0
