# generated using pymatgen
data_Cu3H21(C5N2)4
_symmetry_space_group_name_H-M   'P 1'
_cell_length_a   11.32840000
_cell_length_b   11.42700000
_cell_length_c   13.11990000
_cell_angle_alpha   115.77700000
_cell_angle_beta   90.17820000
_cell_angle_gamma   110.33200000
_symmetry_Int_Tables_number   1
_chemical_formula_structural   Cu3H21(C5N2)4
_chemical_formula_sum   'Cu6 H42 C40 N16'
_cell_volume   1409.96183500
_cell_formula_units_Z   2
loop_
 _symmetry_equiv_pos_site_id
 _symmetry_equiv_pos_as_xyz
  1  'x, y, z'
loop_
 _atom_site_type_symbol
 _atom_site_label
 _atom_site_symmetry_multiplicity
 _atom_site_fract_x
 _atom_site_fract_y
 _atom_site_fract_z
 _atom_site_occupancy
  Cu  Cu0  1  0.87737000  0.82435000  0.59013000  1.0
  Cu  Cu1  1  0.12264000  0.17565000  0.40987000  1.0
  Cu  Cu2  1  0.04238000  0.13627000  0.00183000  1.0
  Cu  Cu3  1  0.95763000  0.86373000  0.99817000  1.0
  Cu  Cu4  1  0.81554000  0.35236000  0.29673000  1.0
  Cu  Cu5  1  0.18446000  0.64764000  0.70328000  1.0
  H  H6  1  0.33126000  0.56861000  0.40647000  1.0
  H  H7  1  0.66874000  0.43139000  0.59353000  1.0
  H  H8  1  0.49231000  0.59196000  0.38862000  1.0
  H  H9  1  0.50769000  0.40804000  0.61138000  1.0
  H  H10  1  0.40807000  0.48316000  0.45012000  1.0
  H  H11  1  0.59193000  0.51684000  0.54988000  1.0
  H  H12  1  0.16099000  0.37466000  0.22572000  1.0
  H  H13  1  0.83901000  0.62535000  0.77428000  1.0
  H  H14  1  0.90744000  0.11936000  0.71483000  1.0
  H  H15  1  0.09255000  0.88064000  0.28517000  1.0
  H  H16  1  0.28119000  0.98070000  0.00200000  1.0
  H  H17  1  0.71881000  0.01931000  0.99800000  1.0
  H  H18  1  0.43080000  0.09294000  0.99171000  1.0
  H  H19  1  0.56920000  0.90706000  0.00829000  1.0
  H  H20  1  0.28372000  0.06407000  0.91599000  1.0
  H  H21  1  0.71627000  0.93592000  0.08401000  1.0
  H  H22  1  0.60233000  0.41405000  0.29520000  1.0
  H  H23  1  0.39767000  0.58595000  0.70480000  1.0
  H  H24  1  0.58591000  0.27661000  0.15864000  1.0
  H  H25  1  0.41409000  0.72339000  0.84137000  1.0
  H  H26  1  0.33660000  0.12897000  0.28766000  1.0
  H  H27  1  0.66339000  0.87102000  0.71234000  1.0
  H  H28  1  0.35794000  0.98119000  0.37729000  1.0
  H  H29  1  0.64206000  0.01880000  0.62270000  1.0
  H  H30  1  0.57565000  0.98721000  0.42442000  1.0
  H  H31  1  0.42435000  0.01278000  0.57557000  1.0
  H  H32  1  0.82999000  0.08810000  0.30520000  1.0
  H  H33  1  0.17001000  0.91190000  0.69480000  1.0
  H  H34  1  0.86904000  0.25794000  0.41686000  1.0
  H  H35  1  0.13096000  0.74206000  0.58315000  1.0
  H  H36  1  0.83241000  0.34488000  0.73878000  1.0
  H  H37  1  0.16759000  0.65512000  0.26122000  1.0
  H  H38  1  0.84954000  0.37324000  0.61542000  1.0
  H  H39  1  0.15046000  0.62676000  0.38458000  1.0
  H  H40  1  0.98581000  0.40048000  0.70114000  1.0
  H  H41  1  0.01419000  0.59951000  0.29886000  1.0
  H  H42  1  0.80768000  0.75414000  0.34679000  1.0
  H  H43  1  0.19232000  0.24586000  0.65321000  1.0
  H  H44  1  0.83962000  0.85881000  0.27314000  1.0
  H  H45  1  0.16037000  0.14119000  0.72686000  1.0
  H  H46  1  0.68365000  0.79200000  0.30054000  1.0
  H  H47  1  0.31635000  0.20800000  0.69946000  1.0
  C  C48  1  0.39828000  0.51520000  0.38385000  1.0
  C  C49  1  0.60172000  0.48481000  0.61615000  1.0
  C  C50  1  0.35169000  0.39077000  0.26738000  1.0
  C  C51  1  0.64831000  0.60923000  0.73262000  1.0
  C  C52  1  0.40993000  0.30043000  0.20055000  1.0
  C  C53  1  0.59008000  0.69957000  0.79945000  1.0
  C  C54  1  0.32056000  0.20176000  0.09718000  1.0
  C  C55  1  0.67944000  0.79824000  0.90282000  1.0
  C  C56  1  0.33039000  0.07896000  0.99662000  1.0
  C  C57  1  0.66961000  0.92104000  0.00338000  1.0
  C  C58  1  0.53815000  0.30546000  0.23388000  1.0
  C  C59  1  0.46185000  0.69454000  0.76612000  1.0
  C  C60  1  0.53902000  0.21192000  0.28726000  1.0
  C  C61  1  0.46098000  0.78808000  0.71274000  1.0
  C  C62  1  0.42950000  0.12858000  0.30913000  1.0
  C  C63  1  0.57050000  0.87141000  0.69086000  1.0
  C  C64  1  0.44191000  0.04676000  0.35901000  1.0
  C  C65  1  0.55808000  0.95323000  0.64098000  1.0
  C  C66  1  0.56259000  0.04995000  0.38556000  1.0
  C  C67  1  0.43740000  0.95005000  0.61443000  1.0
  C  C68  1  0.66869000  0.13615000  0.36244000  1.0
  C  C69  1  0.33131000  0.86385000  0.63756000  1.0
  C  C70  1  0.80354000  0.14740000  0.38735000  1.0
  C  C71  1  0.19646000  0.85260000  0.61265000  1.0
  C  C72  1  0.88390000  0.33268000  0.66626000  1.0
  C  C73  1  0.11610000  0.66732000  0.33374000  1.0
  C  C74  1  0.86370000  0.18285000  0.59160000  1.0
  C  C75  1  0.13629000  0.81715000  0.40840000  1.0
  C  C76  1  0.82754000  0.10005000  0.47212000  1.0
  C  C77  1  0.17245000  0.89995000  0.52787000  1.0
  C  C78  1  0.82141000  0.96467000  0.44910000  1.0
  C  C79  1  0.17859000  0.03533000  0.55090000  1.0
  C  C80  1  0.78632000  0.83529000  0.33632000  1.0
  C  C81  1  0.21367000  0.16471000  0.66368000  1.0
  C  C82  1  0.98166000  0.01571000  0.84909000  1.0
  C  C83  1  0.01835000  0.98429000  0.15090000  1.0
  C  C84  1  0.90540000  0.29482000  0.18140000  1.0
  C  C85  1  0.09461000  0.70518000  0.81860000  1.0
  C  C86  1  0.84829000  0.64206000  0.48936000  1.0
  C  C87  1  0.15172000  0.35794000  0.51064000  1.0
  N  N88  1  0.21459000  0.23044000  0.10062000  1.0
  N  N89  1  0.78541000  0.76957000  0.89938000  1.0
  N  N90  1  0.23585000  0.34465000  0.20362000  1.0
  N  N91  1  0.76415000  0.65535000  0.79638000  1.0
  N  N92  1  0.65591000  0.21531000  0.31427000  1.0
  N  N93  1  0.34409000  0.78468000  0.68573000  1.0
  N  N94  1  0.87839000  0.09758000  0.63279000  1.0
  N  N95  1  0.12161000  0.90242000  0.36721000  1.0
  N  N96  1  0.85327000  0.96496000  0.54819000  1.0
  N  N97  1  0.14673000  0.03504000  0.45181000  1.0
  N  N98  1  0.93986000  0.94329000  0.74968000  1.0
  N  N99  1  0.06014000  0.05671000  0.25032000  1.0
  N  N100  1  0.96301000  0.25031000  0.10965000  1.0
  N  N101  1  0.03699000  0.74969000  0.89035000  1.0
  N  N102  1  0.83670000  0.52807000  0.42011000  1.0
  N  N103  1  0.16330000  0.47193000  0.57989000  1.0
