# generated using pymatgen
data_GdH11C16SO12
_symmetry_space_group_name_H-M   'P 1'
_cell_length_a   5.67636000
_cell_length_b   13.16180000
_cell_length_c   13.98470000
_cell_angle_alpha   110.15500000
_cell_angle_beta   96.01290000
_cell_angle_gamma   95.67060000
_symmetry_Int_Tables_number   1
_chemical_formula_structural   GdH11C16SO12
_chemical_formula_sum   'Gd2 H22 C32 S2 O24'
_cell_volume   965.19906898
_cell_formula_units_Z   2
loop_
 _symmetry_equiv_pos_site_id
 _symmetry_equiv_pos_as_xyz
  1  'x, y, z'
loop_
 _atom_site_type_symbol
 _atom_site_label
 _atom_site_symmetry_multiplicity
 _atom_site_fract_x
 _atom_site_fract_y
 _atom_site_fract_z
 _atom_site_occupancy
  Gd  Gd0  1  0.62268000  0.64182000  0.14054000  1.0
  Gd  Gd1  1  0.37731000  0.35819000  0.85946000  1.0
  H  H2  1  0.42308000  0.96346000  0.41290000  1.0
  H  H3  1  0.57692000  0.03654000  0.58710000  1.0
  H  H4  1  0.52423000  0.31675000  0.20904000  1.0
  H  H5  1  0.47576000  0.68325000  0.79096000  1.0
  H  H6  1  0.81472000  0.01411000  0.10718000  1.0
  H  H7  1  0.18527000  0.98589000  0.89282000  1.0
  H  H8  1  0.06230000  0.08798000  0.99883000  1.0
  H  H9  1  0.93769000  0.91202000  0.00117000  1.0
  H  H10  1  0.75443000  0.34664000  0.60160000  1.0
  H  H11  1  0.24557000  0.65337000  0.39840000  1.0
  H  H12  1  0.49738000  0.28698000  0.43153000  1.0
  H  H13  1  0.50264000  0.71303000  0.56846000  1.0
  H  H14  1  0.92024000  0.02923000  0.31061000  1.0
  H  H15  1  0.07978000  0.97077000  0.68939000  1.0
  H  H16  1  0.20948000  0.47716000  0.08872000  1.0
  H  H17  1  0.79052000  0.52284000  0.91129000  1.0
  H  H18  1  0.15292000  0.54693000  0.19563000  1.0
  H  H19  1  0.84707000  0.45307000  0.80437000  1.0
  H  H20  1  0.41460000  0.85606000  0.19769000  1.0
  H  H21  1  0.58540000  0.14394000  0.80230000  1.0
  H  H22  1  0.24045000  0.77548000  0.23190000  1.0
  H  H23  1  0.75955000  0.22452000  0.76810000  1.0
  C  C24  1  0.73935000  0.41706000  0.10151000  1.0
  C  C25  1  0.26065000  0.58293000  0.89848000  1.0
  C  C26  1  0.77657000  0.30595000  0.10132000  1.0
  C  C27  1  0.22342000  0.69405000  0.89868000  1.0
  C  C28  1  0.64262000  0.26659000  0.16292000  1.0
  C  C29  1  0.35737000  0.73341000  0.83708000  1.0
  C  C30  1  0.65889000  0.16161000  0.16282000  1.0
  C  C31  1  0.34110000  0.83839000  0.83718000  1.0
  C  C32  1  0.80667000  0.09517000  0.10395000  1.0
  C  C33  1  0.19332000  0.90483000  0.89605000  1.0
  C  C34  1  0.94057000  0.13566000  0.04407000  1.0
  C  C35  1  0.05942000  0.86433000  0.95592000  1.0
  C  C36  1  0.92761000  0.24021000  0.04142000  1.0
  C  C37  1  0.07238000  0.75979000  0.95857000  1.0
  C  C38  1  0.08114000  0.27869000  0.97638000  1.0
  C  C39  1  0.91885000  0.72130000  0.02361000  1.0
  C  C40  1  0.13414000  0.26813000  0.65712000  1.0
  C  C41  1  0.86586000  0.73187000  0.34288000  1.0
  C  C42  1  0.98823000  0.22471000  0.55159000  1.0
  C  C43  1  0.01177000  0.77529000  0.44841000  1.0
  C  C44  1  0.79545000  0.27920000  0.53727000  1.0
  C  C45  1  0.20455000  0.72081000  0.46273000  1.0
  C  C46  1  0.65008000  0.24596000  0.44233000  1.0
  C  C47  1  0.34993000  0.75404000  0.55767000  1.0
  C  C48  1  0.69609000  0.15577000  0.36151000  1.0
  C  C49  1  0.30392000  0.84423000  0.63849000  1.0
  C  C50  1  0.88736000  0.10032000  0.37343000  1.0
  C  C51  1  0.11266000  0.89968000  0.62657000  1.0
  C  C52  1  0.03564000  0.13489000  0.46889000  1.0
  C  C53  1  0.96437000  0.86511000  0.53111000  1.0
  C  C54  1  0.23477000  0.07337000  0.48314000  1.0
  C  C55  1  0.76524000  0.92663000  0.51686000  1.0
  S  S56  1  0.49742000  0.11086000  0.24273000  1.0
  S  S57  1  0.50259000  0.88913000  0.75726000  1.0
  O  O58  1  0.60245000  0.42469000  0.02698000  1.0
  O  O59  1  0.39753000  0.57530000  0.97301000  1.0
  O  O60  1  0.82531000  0.50107000  0.18021000  1.0
  O  O61  1  0.17469000  0.49893000  0.81979000  1.0
  O  O62  1  0.08525000  0.37787000  0.97878000  1.0
  O  O63  1  0.91475000  0.62213000  0.02122000  1.0
  O  O64  1  0.20814000  0.21519000  0.92101000  1.0
  O  O65  1  0.79185000  0.78481000  0.07899000  1.0
  O  O66  1  0.03234000  0.25786000  0.73224000  1.0
  O  O67  1  0.96765000  0.74214000  0.26776000  1.0
  O  O68  1  0.34182000  0.31986000  0.67223000  1.0
  O  O69  1  0.65818000  0.68015000  0.32777000  1.0
  O  O70  1  0.34809000  0.09036000  0.56964000  1.0
  O  O71  1  0.65192000  0.90965000  0.43038000  1.0
  O  O72  1  0.27800000  0.99947000  0.39736000  1.0
  O  O73  1  0.72201000  0.00054000  0.60265000  1.0
  O  O74  1  0.28846000  0.16562000  0.26104000  1.0
  O  O75  1  0.71155000  0.83438000  0.73897000  1.0
  O  O76  1  0.47204000  0.99222000  0.19734000  1.0
  O  O77  1  0.52796000  0.00778000  0.80266000  1.0
  O  O78  1  0.28778000  0.53194000  0.15684000  1.0
  O  O79  1  0.71221000  0.46805000  0.84316000  1.0
  O  O80  1  0.37831000  0.78008000  0.19439000  1.0
  O  O81  1  0.62169000  0.21992000  0.80561000  1.0
