# generated using pymatgen
data_NdH9C10NO7
_symmetry_space_group_name_H-M   'P 1'
_cell_length_a   8.80993000
_cell_length_b   9.20934000
_cell_length_c   15.66750000
_cell_angle_alpha   90.00000000
_cell_angle_beta   90.00010000
_cell_angle_gamma   98.99160000
_symmetry_Int_Tables_number   1
_chemical_formula_structural   NdH9C10NO7
_chemical_formula_sum   'Nd4 H36 C40 N4 O28'
_cell_volume   1255.54035116
_cell_formula_units_Z   4
loop_
 _symmetry_equiv_pos_site_id
 _symmetry_equiv_pos_as_xyz
  1  'x, y, z'
loop_
 _atom_site_type_symbol
 _atom_site_label
 _atom_site_symmetry_multiplicity
 _atom_site_fract_x
 _atom_site_fract_y
 _atom_site_fract_z
 _atom_site_occupancy
  Nd  Nd0  1  0.96871000  0.39519000  0.11467000  1.0
  Nd  Nd1  1  0.53129000  0.60481000  0.61467000  1.0
  Nd  Nd2  1  0.03129000  0.60481000  0.88533000  1.0
  Nd  Nd3  1  0.46871000  0.39519000  0.38533000  1.0
  H  H4  1  0.49132000  0.69908000  0.09903000  1.0
  H  H5  1  0.00868000  0.30092000  0.59903000  1.0
  H  H6  1  0.50868000  0.30092000  0.90097000  1.0
  H  H7  1  0.99132000  0.69908000  0.40097000  1.0
  H  H8  1  0.39789000  0.77371000  0.01155000  1.0
  H  H9  1  0.10211000  0.22630000  0.51155000  1.0
  H  H10  1  0.60211000  0.22630000  0.98845000  1.0
  H  H11  1  0.89789000  0.77370000  0.48845000  1.0
  H  H12  1  0.41161000  0.55349000  0.92491000  1.0
  H  H13  1  0.08839000  0.44651000  0.42491000  1.0
  H  H14  1  0.58839000  0.44651000  0.07509000  1.0
  H  H15  1  0.91161000  0.55349000  0.57509000  1.0
  H  H16  1  0.59633000  0.63571000  0.95813000  1.0
  H  H17  1  0.90367000  0.36429000  0.45813000  1.0
  H  H18  1  0.40367000  0.36429000  0.04187000  1.0
  H  H19  1  0.09633000  0.63571000  0.54187000  1.0
  H  H20  1  0.70509000  0.73152000  0.21588000  1.0
  H  H21  1  0.79491000  0.26848000  0.71588000  1.0
  H  H22  1  0.29491000  0.26848000  0.78412000  1.0
  H  H23  1  0.20509000  0.73152000  0.28412000  1.0
  H  H24  1  0.89537000  0.02466000  0.01503000  1.0
  H  H25  1  0.60463000  0.97534000  0.51503000  1.0
  H  H26  1  0.10463000  0.97534000  0.98497000  1.0
  H  H27  1  0.39537000  0.02466000  0.48497000  1.0
  H  H28  1  0.61372000  0.95036000  0.28619000  1.0
  H  H29  1  0.88628000  0.04963000  0.78619000  1.0
  H  H30  1  0.38628000  0.04963000  0.71381000  1.0
  H  H31  1  0.11372000  0.95037000  0.21381000  1.0
  H  H32  1  0.91603000  0.51532000  0.29402000  1.0
  H  H33  1  0.58397000  0.48468000  0.79402000  1.0
  H  H34  1  0.08397000  0.48468000  0.70598000  1.0
  H  H35  1  0.41603000  0.51532000  0.20598000  1.0
  H  H36  1  0.08861000  0.47715000  0.28413000  1.0
  H  H37  1  0.41139000  0.52285000  0.78413000  1.0
  H  H38  1  0.91140000  0.52285000  0.71587000  1.0
  H  H39  1  0.58860000  0.47715000  0.21587000  1.0
  C  C40  1  0.26348000  0.59162000  0.07386000  1.0
  C  C41  1  0.23653000  0.40838000  0.57386000  1.0
  C  C42  1  0.73653000  0.40838000  0.92614000  1.0
  C  C43  1  0.76347000  0.59162000  0.42614000  1.0
  C  C44  1  0.41556000  0.67184000  0.04386000  1.0
  C  C45  1  0.08444000  0.32816000  0.54386000  1.0
  C  C46  1  0.58444000  0.32817000  0.95614000  1.0
  C  C47  1  0.91556000  0.67184000  0.45614000  1.0
  C  C48  1  0.48720000  0.57338000  0.98077000  1.0
  C  C49  1  0.01280000  0.42662000  0.48077000  1.0
  C  C50  1  0.51280000  0.42663000  0.01923000  1.0
  C  C51  1  0.98720000  0.57338000  0.51923000  1.0
  C  C52  1  0.85390000  0.73254000  0.06288000  1.0
  C  C53  1  0.64610000  0.26746000  0.56287000  1.0
  C  C54  1  0.14610000  0.26746000  0.93713000  1.0
  C  C55  1  0.35390000  0.73254000  0.43713000  1.0
  C  C56  1  0.80366000  0.86108000  0.10871000  1.0
  C  C57  1  0.69634000  0.13892000  0.60871000  1.0
  C  C58  1  0.19634000  0.13892000  0.89129000  1.0
  C  C59  1  0.30366000  0.86108000  0.39129000  1.0
  C  C60  1  0.72780000  0.84077000  0.18740000  1.0
  C  C61  1  0.77220000  0.15923000  0.68740000  1.0
  C  C62  1  0.27220000  0.15923000  0.81260000  1.0
  C  C63  1  0.22780000  0.84077000  0.31260000  1.0
  C  C64  1  0.66388000  0.23352000  0.22642000  1.0
  C  C65  1  0.83612000  0.76647000  0.72642000  1.0
  C  C66  1  0.33612000  0.76647000  0.77358000  1.0
  C  C67  1  0.16388000  0.23352000  0.27358000  1.0
  C  C68  1  0.83439000  0.00365000  0.07527000  1.0
  C  C69  1  0.66561000  0.99635000  0.57527000  1.0
  C  C70  1  0.16561000  0.99635000  0.92473000  1.0
  C  C71  1  0.33439000  0.00365000  0.42473000  1.0
  C  C72  1  0.71398000  0.09853000  0.18840000  1.0
  C  C73  1  0.78602000  0.90147000  0.68840000  1.0
  C  C74  1  0.28602000  0.90148000  0.81160000  1.0
  C  C75  1  0.21398000  0.09853000  0.31160000  1.0
  C  C76  1  0.67828000  0.96068000  0.22664000  1.0
  C  C77  1  0.82172000  0.03932000  0.72664000  1.0
  C  C78  1  0.32172000  0.03932000  0.77336000  1.0
  C  C79  1  0.17828000  0.96068000  0.27336000  1.0
  N  N80  1  0.79526000  0.12082000  0.11521000  1.0
  N  N81  1  0.70474000  0.87918000  0.61521000  1.0
  N  N82  1  0.20474000  0.87918000  0.88479000  1.0
  N  N83  1  0.29526000  0.12082000  0.38479000  1.0
  O  O84  1  0.71930000  0.35609000  0.19156000  1.0
  O  O85  1  0.78071000  0.64391000  0.69156000  1.0
  O  O86  1  0.28070000  0.64391000  0.80844000  1.0
  O  O87  1  0.21930000  0.35609000  0.30844000  1.0
  O  O88  1  0.00700000  0.52268000  0.25551000  1.0
  O  O89  1  0.49301000  0.47732000  0.75551000  1.0
  O  O90  1  0.99300000  0.47732000  0.74449000  1.0
  O  O91  1  0.50700000  0.52268000  0.24449000  1.0
  O  O92  1  0.84814000  0.61587000  0.10642000  1.0
  O  O93  1  0.65186000  0.38413000  0.60642000  1.0
  O  O94  1  0.15186000  0.38413000  0.89358000  1.0
  O  O95  1  0.34814000  0.61587000  0.39358000  1.0
  O  O96  1  0.25375000  0.51280000  0.14089000  1.0
  O  O97  1  0.24625000  0.48720000  0.64089000  1.0
  O  O98  1  0.74625000  0.48720000  0.85911000  1.0
  O  O99  1  0.75375000  0.51280000  0.35911000  1.0
  O  O100  1  0.14276000  0.59554000  0.02830000  1.0
  O  O101  1  0.35724000  0.40446000  0.52830000  1.0
  O  O102  1  0.85724000  0.40446000  0.97171000  1.0
  O  O103  1  0.64276000  0.59554000  0.47171000  1.0
  O  O104  1  0.89676000  0.75062000  0.98542000  1.0
  O  O105  1  0.60323000  0.24938000  0.48542000  1.0
  O  O106  1  0.10323000  0.24938000  0.01458000  1.0
  O  O107  1  0.39677000  0.75062000  0.51458000  1.0
  O  O108  1  0.56993000  0.21812000  0.28781000  1.0
  O  O109  1  0.93008000  0.78188000  0.78781000  1.0
  O  O110  1  0.43008000  0.78188000  0.71219000  1.0
  O  O111  1  0.06993000  0.21812000  0.21219000  1.0
