# generated using pymatgen
data_Zr3H20C44(Cl3O8)2
_symmetry_space_group_name_H-M   'P 1'
_cell_length_a   19.02144505
_cell_length_b   19.23847645
_cell_length_c   19.23870000
_cell_angle_alpha   90.59766139
_cell_angle_beta   119.61224065
_cell_angle_gamma   119.61024308
_symmetry_Int_Tables_number   1
_chemical_formula_structural   Zr3H20C44(Cl3O8)2
_chemical_formula_sum   'Zr6 H40 C88 Cl12 O32'
_cell_volume   5010.50108238
_cell_formula_units_Z   2
loop_
 _symmetry_equiv_pos_site_id
 _symmetry_equiv_pos_as_xyz
  1  'x, y, z'
loop_
 _atom_site_type_symbol
 _atom_site_label
 _atom_site_symmetry_multiplicity
 _atom_site_fract_x
 _atom_site_fract_y
 _atom_site_fract_z
 _atom_site_occupancy
  Zr  Zr0  1  0.50098000  0.90794000  0.90797000  1.0
  Zr  Zr1  1  0.49956000  0.09206000  0.09209000  1.0
  Zr  Zr2  1  0.68521000  0.09171000  0.09171000  1.0
  Zr  Zr3  1  0.31534000  0.90829000  0.90832000  1.0
  Zr  Zr4  1  0.50026000  0.90865000  0.09138000  1.0
  Zr  Zr5  1  0.50025000  0.09139000  0.90864000  1.0
  H  H6  1  0.64618000  0.92766000  0.07172000  1.0
  H  H7  1  0.35438000  0.92834000  0.07238000  1.0
  H  H8  1  0.64537000  0.21665000  0.07283000  1.0
  H  H9  1  0.35522000  0.92720000  0.78336000  1.0
  H  H10  1  0.49583000  0.31791000  0.10990000  1.0
  H  H11  1  0.49706000  0.67835000  0.88653000  1.0
  H  H12  1  0.49701000  0.67819000  0.10909000  1.0
  H  H13  1  0.49936000  0.55355000  0.10790000  1.0
  H  H14  1  0.49689000  0.31860000  0.88783000  1.0
  H  H15  1  0.50038000  0.44609000  0.89194000  1.0
  H  H16  1  0.50321000  0.11349000  0.32150000  1.0
  H  H17  1  0.50455000  0.89014000  0.68195000  1.0
  H  H18  1  0.50326000  0.11210000  0.68124000  1.0
  H  H19  1  0.49921000  0.10776000  0.55348000  1.0
  H  H20  1  0.50292000  0.89075000  0.32154000  1.0
  H  H21  1  0.50012000  0.89176000  0.44594000  1.0
  H  H22  1  0.70686000  0.31488000  0.88755000  1.0
  H  H23  1  0.29359000  0.68159000  0.10882000  1.0
  H  H24  1  0.06460000  0.67579000  0.88693000  1.0
  H  H25  1  0.94230000  0.55119000  0.89145000  1.0
  H  H26  1  0.93609000  0.32147000  0.11004000  1.0
  H  H27  1  0.05804000  0.44935000  0.10871000  1.0
  H  H28  1  0.70678000  0.89138000  0.31856000  1.0
  H  H29  1  0.29350000  0.11249000  0.68531000  1.0
  H  H30  1  0.06431000  0.89007000  0.67881000  1.0
  H  H31  1  0.94230000  0.89152000  0.55106000  1.0
  H  H32  1  0.93594000  0.11331000  0.32459000  1.0
  H  H33  1  0.05812000  0.10883000  0.44933000  1.0
  H  H34  1  0.29001000  0.11323000  0.11021000  1.0
  H  H35  1  0.24194000  0.17644000  0.17670000  1.0
  H  H36  1  0.06835000  0.89057000  0.88728000  1.0
  H  H37  1  0.71023000  0.88966000  0.88656000  1.0
  H  H38  1  0.75828000  0.82316000  0.82325000  1.0
  H  H39  1  0.93196000  0.11245000  0.10931000  1.0
  H  H40  1  0.93200000  0.31702000  0.32065000  1.0
  H  H41  1  0.06873000  0.67945000  0.68309000  1.0
  H  H42  1  0.29075000  0.67657000  0.67970000  1.0
  H  H43  1  0.16246000  0.55235000  0.55280000  1.0
  H  H44  1  0.70992000  0.32038000  0.32347000  1.0
  H  H45  1  0.83822000  0.44727000  0.44774000  1.0
  C  C46  1  0.49611000  0.76455000  0.99692000  1.0
  C  C47  1  0.50428000  0.00311000  0.23538000  1.0
  C  C48  1  0.49448000  0.23056000  0.99833000  1.0
  C  C49  1  0.50603000  0.00176000  0.76943000  1.0
  C  C50  1  0.73588000  0.00163000  0.99729000  1.0
  C  C51  1  0.26637000  0.76424000  0.76889000  1.0
  C  C52  1  0.26451000  0.00263000  0.99824000  1.0
  C  C53  1  0.73432000  0.23115000  0.23585000  1.0
  C  C54  1  0.73456000  0.00260000  0.23510000  1.0
  C  C55  1  0.73466000  0.23016000  0.99760000  1.0
  C  C56  1  0.26578000  0.00241000  0.76996000  1.0
  C  C57  1  0.26598000  0.76499000  0.99750000  1.0
  C  C58  1  0.49527000  0.30838000  0.99856000  1.0
  C  C59  1  0.49647000  0.68731000  0.99730000  1.0
  C  C60  1  0.49643000  0.34641000  0.06146000  1.0
  C  C61  1  0.49895000  0.42019000  0.06451000  1.0
  C  C62  1  0.49757000  0.65039000  0.93553000  1.0
  C  C63  1  0.49963000  0.57886000  0.93475000  1.0
  C  C64  1  0.49740000  0.65066000  0.05964000  1.0
  C  C65  1  0.49886000  0.57942000  0.05825000  1.0
  C  C66  1  0.49700000  0.34635000  0.93754000  1.0
  C  C67  1  0.49905000  0.41932000  0.94068000  1.0
  C  C68  1  0.49962000  0.46088000  0.00248000  1.0
  C  C69  1  0.49979000  0.53860000  0.99719000  1.0
  C  C70  1  0.50369000  0.00266000  0.31251000  1.0
  C  C71  1  0.50502000  0.00144000  0.69150000  1.0
  C  C72  1  0.50253000  0.06441000  0.34938000  1.0
  C  C73  1  0.50026000  0.06510000  0.42080000  1.0
  C  C74  1  0.50379000  0.93853000  0.65341000  1.0
  C  C75  1  0.50100000  0.93537000  0.57950000  1.0
  C  C76  1  0.50308000  0.06236000  0.65344000  1.0
  C  C77  1  0.50075000  0.05912000  0.58034000  1.0
  C  C78  1  0.50252000  0.94021000  0.34904000  1.0
  C  C79  1  0.50083000  0.94150000  0.42017000  1.0
  C  C80  1  0.49993000  0.00258000  0.46099000  1.0
  C  C81  1  0.50014000  0.99730000  0.53874000  1.0
  C  C82  1  0.81193000  0.30820000  0.99807000  1.0
  C  C83  1  0.18861000  0.68773000  0.99772000  1.0
  C  C84  1  0.78493000  0.34474000  0.93631000  1.0
  C  C85  1  0.85484000  0.41869000  0.93534000  1.0
  C  C86  1  0.21550000  0.65236000  0.06064000  1.0
  C  C87  1  0.14546000  0.58084000  0.06400000  1.0
  C  C88  1  0.08819000  0.64951000  0.93679000  1.0
  C  C89  1  0.01901000  0.57831000  0.94022000  1.0
  C  C90  1  0.91233000  0.34796000  0.06043000  1.0
  C  C91  1  0.98137000  0.42113000  0.05892000  1.0
  C  C92  1  0.95895000  0.46112000  0.99755000  1.0
  C  C93  1  0.04135000  0.53902000  0.00231000  1.0
  C  C94  1  0.81186000  0.00246000  0.31250000  1.0
  C  C95  1  0.18844000  0.00200000  0.69200000  1.0
  C  C96  1  0.78488000  0.93954000  0.34786000  1.0
  C  C97  1  0.85488000  0.93622000  0.41947000  1.0
  C  C98  1  0.21542000  0.06378000  0.65550000  1.0
  C  C99  1  0.14549000  0.06482000  0.58163000  1.0
  C  C100  1  0.08805000  0.93969000  0.65233000  1.0
  C  C101  1  0.01898000  0.94127000  0.57924000  1.0
  C  C102  1  0.91228000  0.06343000  0.35083000  1.0
  C  C103  1  0.98140000  0.06003000  0.42212000  1.0
  C  C104  1  0.95900000  0.99792000  0.46137000  1.0
  C  C105  1  0.04138000  0.00265000  0.53926000  1.0
  C  C106  1  0.21204000  0.06453000  0.06184000  1.0
  C  C107  1  0.13903000  0.06458000  0.06316000  1.0
  C  C108  1  0.16421000  0.12789000  0.12746000  1.0
  C  C109  1  0.08645000  0.93843000  0.93562000  1.0
  C  C110  1  0.01128000  0.93617000  0.93468000  1.0
  C  C111  1  0.90767000  0.87221000  0.87170000  1.0
  C  C112  1  0.78820000  0.93797000  0.93524000  1.0
  C  C113  1  0.86119000  0.93664000  0.93515000  1.0
  C  C114  1  0.83601000  0.87236000  0.87181000  1.0
  C  C115  1  0.91385000  0.06415000  0.06141000  1.0
  C  C116  1  0.98897000  0.06506000  0.06362000  1.0
  C  C117  1  0.09256000  0.12802000  0.12760000  1.0
  C  C118  1  0.18582000  0.00214000  0.99847000  1.0
  C  C119  1  0.03714000  0.00019000  0.99893000  1.0
  C  C120  1  0.81447000  0.00132000  0.99769000  1.0
  C  C121  1  0.96309000  0.00083000  0.99956000  1.0
  C  C122  1  0.81168000  0.30880000  0.31303000  1.0
  C  C123  1  0.18900000  0.68704000  0.69126000  1.0
  C  C124  1  0.91144000  0.34598000  0.34916000  1.0
  C  C125  1  0.98587000  0.41949000  0.42055000  1.0
  C  C126  1  0.08925000  0.65092000  0.65411000  1.0
  C  C127  1  0.01483000  0.57953000  0.58062000  1.0
  C  C128  1  0.21349000  0.64970000  0.65267000  1.0
  C  C129  1  0.13932000  0.57864000  0.58001000  1.0
  C  C130  1  0.78719000  0.34740000  0.35036000  1.0
  C  C131  1  0.86137000  0.42007000  0.42144000  1.0
  C  C132  1  0.96412000  0.46085000  0.46155000  1.0
  C  C133  1  0.03656000  0.53852000  0.53923000  1.0
  Cl  Cl134  1  0.50195000  0.45227000  0.15212000  1.0
  Cl  Cl135  1  0.50243000  0.54963000  0.84999000  1.0
  Cl  Cl136  1  0.49746000  0.14985000  0.45003000  1.0
  Cl  Cl137  1  0.49792000  0.84771000  0.54736000  1.0
  Cl  Cl138  1  0.79649000  0.44871000  0.85095000  1.0
  Cl  Cl139  1  0.20373000  0.55368000  0.15132000  1.0
  Cl  Cl140  1  0.79657000  0.84895000  0.44666000  1.0
  Cl  Cl141  1  0.20386000  0.14927000  0.55168000  1.0
  Cl  Cl142  1  0.10251000  0.45036000  0.44860000  1.0
  Cl  Cl143  1  0.89819000  0.55149000  0.54974000  1.0
  Cl  Cl144  1  0.12701000  0.20611000  0.20686000  1.0
  Cl  Cl145  1  0.87320000  0.79293000  0.79361000  1.0
  O  O146  1  0.49699000  0.79483000  0.93830000  1.0
  O  O147  1  0.50340000  0.06173000  0.20509000  1.0
  O  O148  1  0.49474000  0.20081000  0.05750000  1.0
  O  O149  1  0.50597000  0.94268000  0.79927000  1.0
  O  O150  1  0.76415000  0.06042000  0.05651000  1.0
  O  O151  1  0.23707000  0.79501000  0.79900000  1.0
  O  O152  1  0.23629000  0.94337000  0.93951000  1.0
  O  O153  1  0.76362000  0.20108000  0.20503000  1.0
  O  O154  1  0.64456000  0.94329000  0.20405000  1.0
  O  O155  1  0.64461000  0.19973000  0.93900000  1.0
  O  O156  1  0.35581000  0.06103000  0.80036000  1.0
  O  O157  1  0.35596000  0.79601000  0.05682000  1.0
  O  O158  1  0.76410000  0.20043000  0.05667000  1.0
  O  O159  1  0.23637000  0.94326000  0.79961000  1.0
  O  O160  1  0.23659000  0.79521000  0.93891000  1.0
  O  O161  1  0.76400000  0.06110000  0.20481000  1.0
  O  O162  1  0.64617000  0.94235000  0.93856000  1.0
  O  O163  1  0.64434000  0.20133000  0.20545000  1.0
  O  O164  1  0.35421000  0.06143000  0.05749000  1.0
  O  O165  1  0.35635000  0.79470000  0.79864000  1.0
  O  O166  1  0.50507000  0.06050000  0.79966000  1.0
  O  O167  1  0.49664000  0.79551000  0.05640000  1.0
  O  O168  1  0.50392000  0.94371000  0.20453000  1.0
  O  O169  1  0.49539000  0.20032000  0.93956000  1.0
  O  O170  1  0.39647000  0.94798000  0.84493000  1.0
  O  O171  1  0.60410000  0.15510000  0.05208000  1.0
  O  O172  1  0.39584000  0.94876000  0.05176000  1.0
  O  O173  1  0.60471000  0.94827000  0.05128000  1.0
  O  O174  1  0.57684000  0.03848000  0.11431000  1.0
  O  O175  1  0.42372000  0.88571000  0.96157000  1.0
  O  O176  1  0.42335000  0.03800000  0.96237000  1.0
  O  O177  1  0.57716000  0.03765000  0.96204000  1.0
