# generated using pymatgen
data_VH8C12SO5
_symmetry_space_group_name_H-M   'P 1'
_cell_length_a   6.77022000
_cell_length_b   12.25590000
_cell_length_c   17.40110000
_cell_angle_alpha   89.99840000
_cell_angle_beta   89.99930000
_cell_angle_gamma   89.96170000
_symmetry_Int_Tables_number   1
_chemical_formula_structural   VH8C12SO5
_chemical_formula_sum   'V4 H32 C48 S4 O20'
_cell_volume   1443.85837318
_cell_formula_units_Z   4
loop_
 _symmetry_equiv_pos_site_id
 _symmetry_equiv_pos_as_xyz
  1  'x, y, z'
loop_
 _atom_site_type_symbol
 _atom_site_label
 _atom_site_symmetry_multiplicity
 _atom_site_fract_x
 _atom_site_fract_y
 _atom_site_fract_z
 _atom_site_occupancy
  V  V0  1  0.94295000  0.73311000  0.00092000  1.0
  V  V1  1  0.55635000  0.26724000  0.50091000  1.0
  V  V2  1  0.05635000  0.23271000  0.49909000  1.0
  V  V3  1  0.44269000  0.76682000  0.99909000  1.0
  H  H4  1  0.59813000  0.49367000  0.06653000  1.0
  H  H5  1  0.90073000  0.50544000  0.56697000  1.0
  H  H6  1  0.40088000  0.99444000  0.43305000  1.0
  H  H7  1  0.09838000  0.00643000  0.93349000  1.0
  H  H8  1  0.56252000  0.34003000  0.17364000  1.0
  H  H9  1  0.93831000  0.65878000  0.67420000  1.0
  H  H10  1  0.43832000  0.84109000  0.32581000  1.0
  H  H11  1  0.06260000  0.16011000  0.82641000  1.0
  H  H12  1  0.84478000  0.19105000  0.15999000  1.0
  H  H13  1  0.65847000  0.80915000  0.66045000  1.0
  H  H14  1  0.15836000  0.69097000  0.33958000  1.0
  H  H15  1  0.34461000  0.30903000  0.84008000  1.0
  H  H16  1  0.07992000  0.23543000  0.04204000  1.0
  H  H17  1  0.42324000  0.76604000  0.54228000  1.0
  H  H18  1  0.92320000  0.73429000  0.45777000  1.0
  H  H19  1  0.57982000  0.26454000  0.95805000  1.0
  H  H20  1  0.94195000  0.50877000  0.17724000  1.0
  H  H21  1  0.55651000  0.49080000  0.67817000  1.0
  H  H22  1  0.05773000  0.00958000  0.32145000  1.0
  H  H23  1  0.44251000  0.99131000  0.82271000  1.0
  H  H24  1  0.55968000  0.51054000  0.33319000  1.0
  H  H25  1  0.93908000  0.48860000  0.83428000  1.0
  H  H26  1  0.43945000  0.01126000  0.16586000  1.0
  H  H27  1  0.06060000  0.98930000  0.66699000  1.0
  H  H28  1  0.54219000  0.61602000  0.20973000  1.0
  H  H29  1  0.95694000  0.38283000  0.71092000  1.0
  H  H30  1  0.45752000  0.11705000  0.28918000  1.0
  H  H31  1  0.04292000  0.88381000  0.79042000  1.0
  H  H32  1  0.95981000  0.40408000  0.30049000  1.0
  H  H33  1  0.53858000  0.59575000  0.80125000  1.0
  H  H34  1  0.03971000  0.90460000  0.19835000  1.0
  H  H35  1  0.46057000  0.09606000  0.69949000  1.0
  C  C36  1  0.69025000  0.42202000  0.07461000  1.0
  C  C37  1  0.80958000  0.57748000  0.57509000  1.0
  C  C38  1  0.30969000  0.92249000  0.42494000  1.0
  C  C39  1  0.19053000  0.07802000  0.92541000  1.0
  C  C40  1  0.67660000  0.34134000  0.12952000  1.0
  C  C41  1  0.82424000  0.65803000  0.63007000  1.0
  C  C42  1  0.32427000  0.84192000  0.36996000  1.0
  C  C43  1  0.17673000  0.15876000  0.87052000  1.0
  C  C44  1  0.82799000  0.26109000  0.12207000  1.0
  C  C45  1  0.67419000  0.73901000  0.62258000  1.0
  C  C46  1  0.17416000  0.76109000  0.37745000  1.0
  C  C47  1  0.32796000  0.23897000  0.87798000  1.0
  C  C48  1  0.95287000  0.28216000  0.06140000  1.0
  C  C49  1  0.54939000  0.71865000  0.56177000  1.0
  C  C50  1  0.04937000  0.78156000  0.43827000  1.0
  C  C51  1  0.45283000  0.21786000  0.93867000  1.0
  C  C52  1  0.24074000  0.56894000  0.18691000  1.0
  C  C53  1  0.25797000  0.43033000  0.68794000  1.0
  C  C54  1  0.75881000  0.06973000  0.31195000  1.0
  C  C55  1  0.74134000  0.93102000  0.81316000  1.0
  C  C56  1  0.07542000  0.51001000  0.21223000  1.0
  C  C57  1  0.42304000  0.48952000  0.71314000  1.0
  C  C58  1  0.92411000  0.01079000  0.28658000  1.0
  C  C59  1  0.57608000  0.99009000  0.78779000  1.0
  C  C60  1  0.22965000  0.63173000  0.11432000  1.0
  C  C61  1  0.26917000  0.36769000  0.61518000  1.0
  C  C62  1  0.76961000  0.13226000  0.38478000  1.0
  C  C63  1  0.72975000  0.86807000  0.88566000  1.0
  C  C64  1  0.42583000  0.51067000  0.29846000  1.0
  C  C65  1  0.07293000  0.48849000  0.79954000  1.0
  C  C66  1  0.57349000  0.01146000  0.20048000  1.0
  C  C67  1  0.92663000  0.98921000  0.70165000  1.0
  C  C68  1  0.41588000  0.56935000  0.23027000  1.0
  C  C69  1  0.08306000  0.42974000  0.73137000  1.0
  C  C70  1  0.58369000  0.07020000  0.26864000  1.0
  C  C71  1  0.91660000  0.93056000  0.76987000  1.0
  C  C72  1  0.26061000  0.45143000  0.32366000  1.0
  C  C73  1  0.23799000  0.54801000  0.82462000  1.0
  C  C74  1  0.73872000  0.95206000  0.17528000  1.0
  C  C75  1  0.76140000  0.04851000  0.67640000  1.0
  C  C76  1  0.08554000  0.45153000  0.28039000  1.0
  C  C77  1  0.41300000  0.54804000  0.78128000  1.0
  C  C78  1  0.91404000  0.95225000  0.21842000  1.0
  C  C79  1  0.58625000  0.04853000  0.71962000  1.0
  C  C80  1  0.27104000  0.38492000  0.39476000  1.0
  C  C81  1  0.22761000  0.61505000  0.89536000  1.0
  C  C82  1  0.72773000  0.88485000  0.10462000  1.0
  C  C83  1  0.77155000  0.11497000  0.60525000  1.0
  S  S84  1  0.88671000  0.39944000  0.01422000  1.0
  S  S85  1  0.61383000  0.60111000  0.51457000  1.0
  S  S86  1  0.11392000  0.89904000  0.48546000  1.0
  S  S87  1  0.38690000  0.10056000  0.98581000  1.0
  O  O88  1  0.21474000  0.81358000  0.99733000  1.0
  O  O89  1  0.28578000  0.18726000  0.49730000  1.0
  O  O90  1  0.78575000  0.31267000  0.50268000  1.0
  O  O91  1  0.71513000  0.68642000  0.00267000  1.0
  O  O92  1  0.05920000  0.64767000  0.08500000  1.0
  O  O93  1  0.43956000  0.35319000  0.58565000  1.0
  O  O94  1  0.93990000  0.14671000  0.41440000  1.0
  O  O95  1  0.55929000  0.85208000  0.91481000  1.0
  O  O96  1  0.44108000  0.36868000  0.42433000  1.0
  O  O97  1  0.05730000  0.63303000  0.92439000  1.0
  O  O98  1  0.55743000  0.86689000  0.07576000  1.0
  O  O99  1  0.94156000  0.13127000  0.57569000  1.0
  O  O100  1  0.10810000  0.34710000  0.42051000  1.0
  O  O101  1  0.39044000  0.65267000  0.92158000  1.0
  O  O102  1  0.89058000  0.84704000  0.07834000  1.0
  O  O103  1  0.60851000  0.15270000  0.57948000  1.0
  O  O104  1  0.39250000  0.66652000  0.08605000  1.0
  O  O105  1  0.10622000  0.33255000  0.58741000  1.0
  O  O106  1  0.60651000  0.16733000  0.41253000  1.0
  O  O107  1  0.89266000  0.83329000  0.91407000  1.0
