# generated using pymatgen
data_ZnH22C26S2N14(ClO)2
_symmetry_space_group_name_H-M   'P 1'
_cell_length_a   10.37200000
_cell_length_b   11.50940000
_cell_length_c   13.20170000
_cell_angle_alpha   90.00000000
_cell_angle_beta   90.00000000
_cell_angle_gamma   100.59700000
_symmetry_Int_Tables_number   1
_chemical_formula_structural   ZnH22C26S2N14(ClO)2
_chemical_formula_sum   'Zn2 H44 C52 S4 N28 Cl4 O4'
_cell_volume   1549.08147455
_cell_formula_units_Z   2
loop_
 _symmetry_equiv_pos_site_id
 _symmetry_equiv_pos_as_xyz
  1  'x, y, z'
loop_
 _atom_site_type_symbol
 _atom_site_label
 _atom_site_symmetry_multiplicity
 _atom_site_fract_x
 _atom_site_fract_y
 _atom_site_fract_z
 _atom_site_occupancy
  Zn  Zn0  1  0.50000000  0.00000000  0.00000000  1.0
  Zn  Zn1  1  0.00000000  0.00000000  0.50000000  1.0
  H  H2  1  0.61909000  0.16485000  0.20627000  1.0
  H  H3  1  0.88091000  0.83515000  0.70627000  1.0
  H  H4  1  0.38091000  0.83515000  0.79373000  1.0
  H  H5  1  0.11909000  0.16485000  0.29373000  1.0
  H  H6  1  0.24422000  0.13308000  0.07452000  1.0
  H  H7  1  0.25578000  0.86692000  0.57452000  1.0
  H  H8  1  0.75578000  0.86692000  0.92548000  1.0
  H  H9  1  0.74422000  0.13308000  0.42548000  1.0
  H  H10  1  0.57671000  0.26612000  0.36627000  1.0
  H  H11  1  0.92329000  0.73388000  0.86627000  1.0
  H  H12  1  0.42330000  0.73388000  0.63373000  1.0
  H  H13  1  0.07671000  0.26612000  0.13373000  1.0
  H  H14  1  0.41521000  0.20471000  0.40938000  1.0
  H  H15  1  0.08479000  0.79529000  0.90938000  1.0
  H  H16  1  0.58479000  0.79529000  0.59062000  1.0
  H  H17  1  0.91521000  0.20471000  0.09062000  1.0
  H  H18  1  0.98768000  0.71744000  0.43059000  1.0
  H  H19  1  0.51232000  0.28256000  0.93060000  1.0
  H  H20  1  0.01232000  0.28256000  0.56941000  1.0
  H  H21  1  0.48768000  0.71744000  0.06940000  1.0
  H  H22  1  0.69559000  0.92177000  0.38524000  1.0
  H  H23  1  0.80441000  0.07823000  0.88524000  1.0
  H  H24  1  0.30441000  0.07823000  0.61476000  1.0
  H  H25  1  0.19559000  0.92177000  0.11476000  1.0
  H  H26  1  0.54265000  0.77630000  0.27312000  1.0
  H  H27  1  0.95735000  0.22370000  0.77313000  1.0
  H  H28  1  0.45735000  0.22370000  0.72688000  1.0
  H  H29  1  0.04265000  0.77630000  0.22687000  1.0
  H  H30  1  0.62432000  0.67475000  0.20828000  1.0
  H  H31  1  0.87568000  0.32524000  0.70828000  1.0
  H  H32  1  0.37569000  0.32525000  0.79172000  1.0
  H  H33  1  0.12432000  0.67476000  0.29172000  1.0
  H  H34  1  0.25538000  0.33324000  0.43670000  1.0
  H  H35  1  0.24462000  0.66676000  0.93670000  1.0
  H  H36  1  0.74462000  0.66676000  0.56330000  1.0
  H  H37  1  0.75538000  0.33324000  0.06330000  1.0
  H  H38  1  0.36997000  0.70806000  0.38499000  1.0
  H  H39  1  0.13003000  0.29194000  0.88499000  1.0
  H  H40  1  0.63003000  0.29194000  0.61501000  1.0
  H  H41  1  0.86997000  0.70806000  0.11501000  1.0
  H  H42  1  0.72249000  0.53245000  0.30401000  1.0
  H  H43  1  0.77751000  0.46755000  0.80401000  1.0
  H  H44  1  0.27751000  0.46756000  0.69599000  1.0
  H  H45  1  0.22249000  0.53245000  0.19599000  1.0
  C  C46  1  0.51683000  0.16826000  0.19082000  1.0
  C  C47  1  0.98317000  0.83174000  0.69082000  1.0
  C  C48  1  0.48317000  0.83174000  0.80918000  1.0
  C  C49  1  0.01683000  0.16826000  0.30918000  1.0
  C  C50  1  0.32574000  0.15333000  0.12713000  1.0
  C  C51  1  0.17426000  0.84667000  0.62713000  1.0
  C  C52  1  0.67426000  0.84667000  0.87287000  1.0
  C  C53  1  0.82574000  0.15334000  0.37287000  1.0
  C  C54  1  0.47193000  0.26618000  0.35513000  1.0
  C  C55  1  0.02807000  0.73382000  0.85513000  1.0
  C  C56  1  0.52807000  0.73382000  0.64487000  1.0
  C  C57  1  0.97193000  0.26618000  0.14487000  1.0
  C  C58  1  0.89872000  0.74574000  0.40581000  1.0
  C  C59  1  0.60129000  0.25426000  0.90581000  1.0
  C  C60  1  0.10128000  0.25426000  0.59420000  1.0
  C  C61  1  0.39871000  0.74574000  0.09419000  1.0
  C  C62  1  0.75277000  0.85183000  0.38456000  1.0
  C  C63  1  0.74723000  0.14817000  0.88456000  1.0
  C  C64  1  0.24723000  0.14817000  0.61544000  1.0
  C  C65  1  0.25277000  0.85183000  0.11544000  1.0
  C  C66  1  0.59409000  0.70205000  0.28316000  1.0
  C  C67  1  0.90591000  0.29795000  0.78316000  1.0
  C  C68  1  0.40591000  0.29795000  0.71684000  1.0
  C  C69  1  0.09409000  0.70205000  0.21684000  1.0
  C  C70  1  0.50689000  0.60037000  0.33505000  1.0
  C  C71  1  0.99310000  0.39963000  0.83505000  1.0
  C  C72  1  0.49311000  0.39963000  0.66495000  1.0
  C  C73  1  0.00690000  0.60037000  0.16495000  1.0
  C  C74  1  0.53652000  0.48585000  0.33130000  1.0
  C  C75  1  0.96348000  0.51415000  0.83130000  1.0
  C  C76  1  0.46349000  0.51415000  0.66870000  1.0
  C  C77  1  0.03652000  0.48585000  0.16870000  1.0
  C  C78  1  0.44384000  0.38906000  0.36646000  1.0
  C  C79  1  0.05616000  0.61094000  0.86646000  1.0
  C  C80  1  0.55617000  0.61094000  0.63354000  1.0
  C  C81  1  0.94384000  0.38906000  0.13354000  1.0
  C  C82  1  0.32732000  0.40829000  0.41043000  1.0
  C  C83  1  0.17267000  0.59171000  0.91043000  1.0
  C  C84  1  0.67268000  0.59171000  0.58957000  1.0
  C  C85  1  0.82733000  0.40829000  0.08957000  1.0
  C  C86  1  0.30302000  0.52302000  0.41987000  1.0
  C  C87  1  0.19698000  0.47699000  0.91987000  1.0
  C  C88  1  0.69698000  0.47699000  0.58013000  1.0
  C  C89  1  0.80302000  0.52301000  0.08013000  1.0
  C  C90  1  0.39119000  0.61858000  0.38143000  1.0
  C  C91  1  0.10881000  0.38142000  0.88143000  1.0
  C  C92  1  0.60881000  0.38142000  0.61857000  1.0
  C  C93  1  0.89119000  0.61858000  0.11857000  1.0
  C  C94  1  0.76564000  0.95666000  0.11361000  1.0
  C  C95  1  0.73435000  0.04334000  0.61362000  1.0
  C  C96  1  0.23436000  0.04334000  0.88638000  1.0
  C  C97  1  0.26565000  0.95666000  0.38639000  1.0
  S  S98  1  0.91329000  0.93949000  0.14130000  1.0
  S  S99  1  0.58670000  0.06051000  0.64131000  1.0
  S  S100  1  0.08670000  0.06051000  0.85869000  1.0
  S  S101  1  0.41330000  0.93949000  0.35869000  1.0
  N  N102  1  0.44652000  0.12611000  0.10945000  1.0
  N  N103  1  0.05348000  0.87388000  0.60945000  1.0
  N  N104  1  0.55348000  0.87389000  0.89055000  1.0
  N  N105  1  0.94652000  0.12612000  0.39055000  1.0
  N  N106  1  0.44050000  0.21811000  0.25342000  1.0
  N  N107  1  0.05950000  0.78189000  0.75342000  1.0
  N  N108  1  0.55950000  0.78189000  0.74658000  1.0
  N  N109  1  0.94050000  0.21811000  0.24658000  1.0
  N  N110  1  0.31746000  0.20847000  0.21456000  1.0
  N  N111  1  0.18254000  0.79153000  0.71456000  1.0
  N  N112  1  0.68254000  0.79153000  0.78544000  1.0
  N  N113  1  0.81746000  0.20847000  0.28544000  1.0
  N  N114  1  0.86986000  0.85369000  0.42730000  1.0
  N  N115  1  0.63014000  0.14631000  0.92730000  1.0
  N  N116  1  0.13014000  0.14631000  0.57270000  1.0
  N  N117  1  0.36986000  0.85369000  0.07270000  1.0
  N  N118  1  0.80579000  0.67775000  0.35187000  1.0
  N  N119  1  0.69421000  0.32225000  0.85187000  1.0
  N  N120  1  0.19421000  0.32226000  0.64813000  1.0
  N  N121  1  0.30579000  0.67775000  0.14812000  1.0
  N  N122  1  0.71406000  0.74696000  0.33928000  1.0
  N  N123  1  0.78594000  0.25304000  0.83928000  1.0
  N  N124  1  0.28594000  0.25304000  0.66072000  1.0
  N  N125  1  0.21406000  0.74696000  0.16072000  1.0
  N  N126  1  0.65741000  0.96953000  0.09333000  1.0
  N  N127  1  0.84257000  0.03047000  0.59334000  1.0
  N  N128  1  0.34258000  0.03047000  0.90666000  1.0
  N  N129  1  0.15742000  0.96953000  0.40667000  1.0
  Cl  Cl130  1  0.15857000  0.54760000  0.47586000  1.0
  Cl  Cl131  1  0.34144000  0.45240000  0.97586000  1.0
  Cl  Cl132  1  0.84144000  0.45240000  0.52414000  1.0
  Cl  Cl133  1  0.65856000  0.54760000  0.02414000  1.0
  O  O134  1  0.65056000  0.46342000  0.29208000  1.0
  O  O135  1  0.84944000  0.53658000  0.79208000  1.0
  O  O136  1  0.34944000  0.53658000  0.70792000  1.0
  O  O137  1  0.15056000  0.46342000  0.20792000  1.0
