# generated using pymatgen
data_CuSiH16C24S4N4(O2F)6
_symmetry_space_group_name_H-M   'P 1'
_cell_length_a   7.87664000
_cell_length_b   13.72870000
_cell_length_c   13.72840000
_cell_angle_alpha   89.10680000
_cell_angle_beta   87.63700000
_cell_angle_gamma   87.63550000
_symmetry_Int_Tables_number   1
_chemical_formula_structural   CuSiH16C24S4N4(O2F)6
_chemical_formula_sum   'Cu1 Si1 H16 C24 S4 N4 O12 F6'
_cell_volume   1481.86599686
_cell_formula_units_Z   1
loop_
 _symmetry_equiv_pos_site_id
 _symmetry_equiv_pos_as_xyz
  1  'x, y, z'
loop_
 _atom_site_type_symbol
 _atom_site_label
 _atom_site_symmetry_multiplicity
 _atom_site_fract_x
 _atom_site_fract_y
 _atom_site_fract_z
 _atom_site_occupancy
  Cu  Cu0  1  0.50004000  0.50041000  0.49959000  1.0
  Si  Si1  1  0.00000000  0.49899000  0.50107000  1.0
  H  H2  1  0.25478000  0.35264000  0.45408000  1.0
  H  H3  1  0.24707000  0.17397000  0.43859000  1.0
  H  H4  1  0.76088000  0.33526000  0.53720000  1.0
  H  H5  1  0.23845000  0.66585000  0.53422000  1.0
  H  H6  1  0.75684000  0.64878000  0.45475000  1.0
  H  H7  1  0.76946000  0.82734000  0.44031000  1.0
  H  H8  1  0.24311000  0.54521000  0.35119000  1.0
  H  H9  1  0.23055000  0.55968000  0.17261000  1.0
  H  H10  1  0.76151000  0.46576000  0.33418000  1.0
  H  H11  1  0.23914000  0.46281000  0.66473000  1.0
  H  H12  1  0.74522000  0.54593000  0.64733000  1.0
  H  H13  1  0.75296000  0.56143000  0.82601000  1.0
  H  H14  1  0.77320000  0.02066000  0.43564000  1.0
  H  H15  1  0.04887000  0.97474000  0.43222000  1.0
  H  H16  1  0.95115000  0.56776000  0.02529000  1.0
  H  H17  1  0.22686000  0.56439000  0.97933000  1.0
  C  C18  1  0.36746000  0.30671000  0.46914000  1.0
  C  C19  1  0.36366000  0.20619000  0.45953000  1.0
  C  C20  1  0.50884000  0.14792000  0.47911000  1.0
  C  C21  1  0.65414000  0.19622000  0.50737000  1.0
  C  C22  1  0.64958000  0.29706000  0.51575000  1.0
  C  C23  1  0.50783000  0.04539000  0.47147000  1.0
  C  C24  1  0.50429000  0.95663000  0.47085000  1.0
  C  C25  1  0.49995000  0.85392000  0.47756000  1.0
  C  C26  1  0.34956000  0.80543000  0.50460000  1.0
  C  C27  1  0.35326000  0.70430000  0.51322000  1.0
  C  C28  1  0.64229000  0.69476000  0.46866000  1.0
  C  C29  1  0.64816000  0.79549000  0.45968000  1.0
  C  C30  1  0.35770000  0.53134000  0.30523000  1.0
  C  C31  1  0.35182000  0.54029000  0.20450000  1.0
  C  C32  1  0.50005000  0.52248000  0.14608000  1.0
  C  C33  1  0.65041000  0.49537000  0.19457000  1.0
  C  C34  1  0.64675000  0.48678000  0.29570000  1.0
  C  C35  1  0.49576000  0.52917000  0.04336000  1.0
  C  C36  1  0.49221000  0.52855000  0.95459000  1.0
  C  C37  1  0.49121000  0.52091000  0.85206000  1.0
  C  C38  1  0.34590000  0.49261000  0.80379000  1.0
  C  C39  1  0.35044000  0.48426000  0.70293000  1.0
  C  C40  1  0.63253000  0.53087000  0.69326000  1.0
  C  C41  1  0.63638000  0.54048000  0.79379000  1.0
  S  S42  1  0.84048000  0.12726000  0.53945000  1.0
  S  S43  1  0.15490000  0.87164000  0.53398000  1.0
  S  S44  1  0.84513000  0.46600000  0.12839000  1.0
  S  S45  1  0.15956000  0.46051000  0.87275000  1.0
  N  N46  1  0.50723000  0.35097000  0.49656000  1.0
  N  N47  1  0.49768000  0.65025000  0.49499000  1.0
  N  N48  1  0.50231000  0.50496000  0.34975000  1.0
  N  N49  1  0.49279000  0.50343000  0.64903000  1.0
  O  O50  1  0.87383000  0.06131000  0.44030000  1.0
  O  O51  1  0.98297000  0.18808000  0.54005000  1.0
  O  O52  1  0.79532000  0.06278000  0.61853000  1.0
  O  O53  1  0.11773000  0.91228000  0.42609000  1.0
  O  O54  1  0.02924000  0.80324000  0.56354000  1.0
  O  O55  1  0.18854000  0.95253000  0.59479000  1.0
  O  O56  1  0.88234000  0.57388000  0.08775000  1.0
  O  O57  1  0.97077000  0.43642000  0.19680000  1.0
  O  O58  1  0.81153000  0.40522000  0.04747000  1.0
  O  O59  1  0.12619000  0.55969000  0.93868000  1.0
  O  O60  1  0.01707000  0.45992000  0.81191000  1.0
  O  O61  1  0.20479000  0.38149000  0.93725000  1.0
  F  F62  1  0.21834000  0.50881000  0.50940000  1.0
  F  F63  1  0.78164000  0.49061000  0.49124000  1.0
  F  F64  1  0.99997000  0.41100000  0.58908000  1.0
  F  F65  1  0.99993000  0.58832000  0.41166000  1.0
  F  F66  1  0.03352000  0.41301000  0.41351000  1.0
  F  F67  1  0.96654000  0.58657000  0.58700000  1.0
