# generated using pymatgen
data_Zr3H24C44(BrO8)2
_symmetry_space_group_name_H-M   'P 1'
_cell_length_a   19.05414545
_cell_length_b   19.11690000
_cell_length_c   19.11692251
_cell_angle_alpha   60.09411665
_cell_angle_beta   60.10660144
_cell_angle_gamma   60.10679652
_symmetry_Int_Tables_number   1
_chemical_formula_structural   Zr3H24C44(BrO8)2
_chemical_formula_sum   'Zr6 H48 C88 Br4 O32'
_cell_volume   4935.34375242
_cell_formula_units_Z   2
loop_
 _symmetry_equiv_pos_site_id
 _symmetry_equiv_pos_as_xyz
  1  'x, y, z'
loop_
 _atom_site_type_symbol
 _atom_site_label
 _atom_site_symmetry_multiplicity
 _atom_site_fract_x
 _atom_site_fract_y
 _atom_site_fract_z
 _atom_site_occupancy
  Zr  Zr0  1  0.59303000  0.09251000  0.90752000  1.0
  Zr  Zr1  1  0.40755000  0.90748000  0.09253000  1.0
  Zr  Zr2  1  0.59302000  0.90754000  0.09250000  1.0
  Zr  Zr3  1  0.40756000  0.09253000  0.90747000  1.0
  Zr  Zr4  1  0.59255000  0.90768000  0.90766000  1.0
  Zr  Zr5  1  0.40782000  0.09235000  0.09235000  1.0
  H  H6  1  0.71890000  0.92716000  0.92715000  1.0
  H  H7  1  0.42750000  0.92709000  0.92709000  1.0
  H  H8  1  0.42758000  0.92736000  0.21794000  1.0
  H  H9  1  0.42758000  0.21795000  0.92735000  1.0
  H  H10  1  0.17769000  0.88865000  0.32036000  1.0
  H  H11  1  0.05023000  0.88669000  0.45006000  1.0
  H  H12  1  0.82098000  0.11293000  0.67798000  1.0
  H  H13  1  0.95055000  0.11272000  0.55036000  1.0
  H  H14  1  0.82009000  0.88876000  0.67834000  1.0
  H  H15  1  0.94971000  0.88675000  0.55070000  1.0
  H  H16  1  0.17844000  0.11284000  0.32011000  1.0
  H  H17  1  0.05094000  0.11266000  0.44982000  1.0
  H  H18  1  0.38825000  0.67810000  0.11286000  1.0
  H  H19  1  0.38639000  0.55054000  0.11267000  1.0
  H  H20  1  0.61342000  0.32046000  0.88862000  1.0
  H  H21  1  0.61303000  0.45021000  0.88666000  1.0
  H  H22  1  0.38872000  0.32013000  0.11279000  1.0
  H  H23  1  0.38658000  0.44991000  0.11263000  1.0
  H  H24  1  0.61296000  0.67834000  0.88868000  1.0
  H  H25  1  0.61286000  0.55076000  0.88672000  1.0
  H  H26  1  0.38872000  0.11279000  0.32014000  1.0
  H  H27  1  0.38658000  0.11264000  0.44990000  1.0
  H  H28  1  0.61296000  0.88868000  0.67834000  1.0
  H  H29  1  0.61286000  0.88672000  0.55076000  1.0
  H  H30  1  0.38825000  0.11287000  0.67809000  1.0
  H  H31  1  0.38639000  0.11268000  0.55053000  1.0
  H  H32  1  0.61342000  0.88863000  0.32045000  1.0
  H  H33  1  0.61303000  0.88666000  0.45020000  1.0
  H  H34  1  0.82009000  0.67834000  0.88876000  1.0
  H  H35  1  0.94970000  0.55070000  0.88676000  1.0
  H  H36  1  0.17844000  0.32012000  0.11283000  1.0
  H  H37  1  0.05094000  0.44982000  0.11266000  1.0
  H  H38  1  0.17769000  0.32036000  0.88865000  1.0
  H  H39  1  0.05023000  0.45005000  0.88670000  1.0
  H  H40  1  0.82098000  0.67799000  0.11292000  1.0
  H  H41  1  0.95055000  0.55036000  0.11272000  1.0
  H  H42  1  0.17829000  0.88903000  0.11257000  1.0
  H  H43  1  0.17829000  0.11257000  0.88903000  1.0
  H  H44  1  0.82123000  0.11258000  0.88896000  1.0
  H  H45  1  0.82124000  0.88897000  0.11256000  1.0
  H  H46  1  0.61340000  0.67798000  0.32049000  1.0
  H  H47  1  0.61315000  0.55056000  0.45006000  1.0
  H  H48  1  0.38843000  0.32037000  0.67808000  1.0
  H  H49  1  0.38637000  0.44994000  0.55066000  1.0
  H  H50  1  0.61340000  0.32049000  0.67797000  1.0
  H  H51  1  0.61315000  0.45006000  0.55055000  1.0
  H  H52  1  0.38844000  0.67808000  0.32036000  1.0
  H  H53  1  0.38637000  0.55067000  0.44993000  1.0
  C  C54  1  0.73340000  0.00203000  0.76317000  1.0
  C  C55  1  0.50174000  0.76316000  0.00200000  1.0
  C  C56  1  0.26296000  0.00194000  0.23291000  1.0
  C  C57  1  0.50248000  0.23289000  0.00198000  1.0
  C  C58  1  0.73477000  0.00188000  0.00188000  1.0
  C  C59  1  0.50217000  0.23313000  0.76298000  1.0
  C  C60  1  0.26228000  0.00193000  0.00192000  1.0
  C  C61  1  0.50218000  0.76298000  0.23312000  1.0
  C  C62  1  0.73340000  0.76317000  0.00203000  1.0
  C  C63  1  0.50248000  0.00198000  0.23289000  1.0
  C  C64  1  0.26296000  0.23292000  0.00193000  1.0
  C  C65  1  0.50173000  0.00201000  0.76316000  1.0
  C  C66  1  0.18593000  0.00111000  0.31161000  1.0
  C  C67  1  0.81193000  0.00125000  0.68599000  1.0
  C  C68  1  0.14904000  0.93753000  0.34946000  1.0
  C  C69  1  0.07709000  0.93706000  0.42278000  1.0
  C  C70  1  0.84989000  0.06377000  0.64917000  1.0
  C  C71  1  0.92311000  0.06293000  0.57711000  1.0
  C  C72  1  0.84940000  0.93763000  0.64939000  1.0
  C  C73  1  0.92262000  0.93714000  0.57735000  1.0
  C  C74  1  0.14946000  0.06367000  0.34929000  1.0
  C  C75  1  0.07750000  0.06286000  0.42258000  1.0
  C  C76  1  0.03899000  0.99983000  0.46130000  1.0
  C  C77  1  0.96145000  0.99987000  0.53890000  1.0
  C  C78  1  0.50102000  0.68606000  0.00119000  1.0
  C  C79  1  0.50149000  0.31167000  0.00110000  1.0
  C  C80  1  0.43730000  0.64928000  0.06370000  1.0
  C  C81  1  0.43691000  0.57725000  0.06286000  1.0
  C  C82  1  0.56407000  0.34956000  0.93748000  1.0
  C  C83  1  0.56311000  0.42290000  0.93702000  1.0
  C  C84  1  0.43766000  0.34937000  0.06362000  1.0
  C  C85  1  0.43709000  0.42268000  0.06281000  1.0
  C  C86  1  0.56369000  0.64945000  0.93757000  1.0
  C  C87  1  0.56293000  0.57743000  0.93709000  1.0
  C  C88  1  0.49981000  0.53900000  0.99983000  1.0
  C  C89  1  0.49991000  0.46140000  0.99978000  1.0
  C  C90  1  0.50149000  0.00111000  0.31166000  1.0
  C  C91  1  0.50102000  0.00119000  0.68606000  1.0
  C  C92  1  0.43766000  0.06363000  0.34936000  1.0
  C  C93  1  0.43709000  0.06281000  0.42268000  1.0
  C  C94  1  0.56369000  0.93757000  0.64945000  1.0
  C  C95  1  0.56293000  0.93709000  0.57743000  1.0
  C  C96  1  0.43730000  0.06371000  0.64927000  1.0
  C  C97  1  0.43691000  0.06286000  0.57725000  1.0
  C  C98  1  0.56407000  0.93748000  0.34956000  1.0
  C  C99  1  0.56311000  0.93702000  0.42290000  1.0
  C  C100  1  0.49991000  0.99978000  0.46140000  1.0
  C  C101  1  0.49981000  0.99983000  0.53900000  1.0
  C  C102  1  0.81193000  0.68599000  0.00125000  1.0
  C  C103  1  0.18593000  0.31161000  0.00111000  1.0
  C  C104  1  0.84940000  0.64939000  0.93763000  1.0
  C  C105  1  0.92262000  0.57735000  0.93714000  1.0
  C  C106  1  0.14946000  0.34930000  0.06366000  1.0
  C  C107  1  0.07750000  0.42259000  0.06285000  1.0
  C  C108  1  0.14905000  0.34947000  0.93751000  1.0
  C  C109  1  0.07709000  0.42278000  0.93706000  1.0
  C  C110  1  0.84989000  0.64917000  0.06377000  1.0
  C  C111  1  0.92311000  0.57711000  0.06293000  1.0
  C  C112  1  0.96144000  0.53891000  0.99987000  1.0
  C  C113  1  0.03899000  0.46130000  0.99982000  1.0
  C  C114  1  0.14867000  0.93736000  0.06396000  1.0
  C  C115  1  0.07577000  0.93539000  0.06476000  1.0
  C  C116  1  0.03663000  0.87070000  0.12900000  1.0
  C  C117  1  0.14867000  0.06398000  0.93734000  1.0
  C  C118  1  0.07577000  0.06477000  0.93538000  1.0
  C  C119  1  0.03663000  0.12901000  0.87069000  1.0
  C  C120  1  0.85104000  0.06391000  0.93735000  1.0
  C  C121  1  0.92512000  0.06473000  0.93539000  1.0
  C  C122  1  0.96463000  0.12901000  0.87071000  1.0
  C  C123  1  0.85104000  0.93735000  0.06391000  1.0
  C  C124  1  0.92512000  0.93540000  0.06472000  1.0
  C  C125  1  0.96463000  0.87071000  0.12900000  1.0
  C  C126  1  0.18438000  0.00118000  0.00118000  1.0
  C  C127  1  0.03786000  0.99996000  0.99995000  1.0
  C  C128  1  0.81425000  0.00112000  0.00112000  1.0
  C  C129  1  0.96331000  0.99994000  0.99994000  1.0
  C  C130  1  0.50132000  0.68594000  0.31174000  1.0
  C  C131  1  0.50131000  0.31175000  0.68594000  1.0
  C  C132  1  0.56402000  0.64917000  0.34960000  1.0
  C  C133  1  0.56315000  0.57726000  0.42280000  1.0
  C  C134  1  0.43747000  0.34952000  0.64924000  1.0
  C  C135  1  0.43696000  0.42272000  0.57732000  1.0
  C  C136  1  0.56401000  0.34960000  0.64918000  1.0
  C  C137  1  0.56315000  0.42280000  0.57726000  1.0
  C  C138  1  0.43748000  0.64924000  0.34951000  1.0
  C  C139  1  0.43697000  0.57731000  0.42272000  1.0
  C  C140  1  0.49988000  0.53894000  0.46141000  1.0
  C  C141  1  0.49988000  0.46141000  0.53894000  1.0
  Br  Br142  1  0.91379000  0.78542000  0.21424000  1.0
  Br  Br143  1  0.08744000  0.78537000  0.21429000  1.0
  Br  Br144  1  0.91379000  0.21424000  0.78542000  1.0
  Br  Br145  1  0.08744000  0.21429000  0.78537000  1.0
  O  O146  1  0.70307000  0.06134000  0.79390000  1.0
  O  O147  1  0.44213000  0.79387000  0.06136000  1.0
  O  O148  1  0.29349000  0.94255000  0.20220000  1.0
  O  O149  1  0.56221000  0.20209000  0.94271000  1.0
  O  O150  1  0.70444000  0.94242000  0.06124000  1.0
  O  O151  1  0.44248000  0.20248000  0.79367000  1.0
  O  O152  1  0.29269000  0.06129000  0.94245000  1.0
  O  O153  1  0.56182000  0.79365000  0.20256000  1.0
  O  O154  1  0.70258000  0.79399000  0.94256000  1.0
  O  O155  1  0.44285000  0.06133000  0.20226000  1.0
  O  O156  1  0.29384000  0.20228000  0.06131000  1.0
  O  O157  1  0.56123000  0.94252000  0.79395000  1.0
  O  O158  1  0.56221000  0.94271000  0.20209000  1.0
  O  O159  1  0.29349000  0.20220000  0.94255000  1.0
  O  O160  1  0.44213000  0.06136000  0.79387000  1.0
  O  O161  1  0.70307000  0.79390000  0.06134000  1.0
  O  O162  1  0.70443000  0.06126000  0.94241000  1.0
  O  O163  1  0.44248000  0.79367000  0.20248000  1.0
  O  O164  1  0.29269000  0.94245000  0.06129000  1.0
  O  O165  1  0.56182000  0.20256000  0.79365000  1.0
  O  O166  1  0.44285000  0.20227000  0.06132000  1.0
  O  O167  1  0.70259000  0.94256000  0.79398000  1.0
  O  O168  1  0.56123000  0.79395000  0.94252000  1.0
  O  O169  1  0.29383000  0.06133000  0.20227000  1.0
  O  O170  1  0.44832000  0.15594000  0.94793000  1.0
  O  O171  1  0.44831000  0.94794000  0.15594000  1.0
  O  O172  1  0.44759000  0.94813000  0.94814000  1.0
  O  O173  1  0.65671000  0.94815000  0.94815000  1.0
  O  O174  1  0.53858000  0.88494000  0.03848000  1.0
  O  O175  1  0.53859000  0.03848000  0.88493000  1.0
  O  O176  1  0.38472000  0.03831000  0.03831000  1.0
  O  O177  1  0.53914000  0.03832000  0.03831000  1.0
