# generated using pymatgen
data_NdZnH16C26N2ClO11
_symmetry_space_group_name_H-M   'P 1'
_cell_length_a   8.43148000
_cell_length_b   12.75580000
_cell_length_c   13.31280000
_cell_angle_alpha   107.38200000
_cell_angle_beta   104.91700000
_cell_angle_gamma   93.50100000
_symmetry_Int_Tables_number   1
_chemical_formula_structural   NdZnH16C26N2ClO11
_chemical_formula_sum   'Nd2 Zn2 H32 C52 N4 Cl2 O22'
_cell_volume   1305.50194590
_cell_formula_units_Z   2
loop_
 _symmetry_equiv_pos_site_id
 _symmetry_equiv_pos_as_xyz
  1  'x, y, z'
loop_
 _atom_site_type_symbol
 _atom_site_label
 _atom_site_symmetry_multiplicity
 _atom_site_fract_x
 _atom_site_fract_y
 _atom_site_fract_z
 _atom_site_occupancy
  Nd  Nd0  1  0.75495000  0.00894000  0.51207000  1.0
  Nd  Nd1  1  0.24506000  0.99106000  0.48793000  1.0
  Zn  Zn2  1  0.67856000  0.28454000  0.33749000  1.0
  Zn  Zn3  1  0.32144000  0.71546000  0.66252000  1.0
  H  H4  1  0.86609000  0.91150000  0.70905000  1.0
  H  H5  1  0.13391000  0.08850000  0.29095000  1.0
  H  H6  1  0.00273000  0.91448000  0.64450000  1.0
  H  H7  1  0.99727000  0.08552000  0.35550000  1.0
  H  H8  1  0.32311000  0.31303000  0.82264000  1.0
  H  H9  1  0.67690000  0.68697000  0.17736000  1.0
  H  H10  1  0.23673000  0.45951000  0.96199000  1.0
  H  H11  1  0.76327000  0.54049000  0.03801000  1.0
  H  H12  1  0.95891000  0.52131000  0.90678000  1.0
  H  H13  1  0.04109000  0.47869000  0.09322000  1.0
  H  H14  1  0.48593000  0.54102000  0.71853000  1.0
  H  H15  1  0.51407000  0.45899000  0.28147000  1.0
  H  H16  1  0.92635000  0.52177000  0.60791000  1.0
  H  H17  1  0.07365000  0.47823000  0.39209000  1.0
  H  H18  1  0.84100000  0.66764000  0.52437000  1.0
  H  H19  1  0.15900000  0.33236000  0.47563000  1.0
  H  H20  1  0.57990000  0.74642000  0.54326000  1.0
  H  H21  1  0.42010000  0.25357000  0.45673000  1.0
  H  H22  1  0.26779000  0.71559000  0.14212000  1.0
  H  H23  1  0.73221000  0.28441000  0.85788000  1.0
  H  H24  1  0.36172000  0.63915000  0.97273000  1.0
  H  H25  1  0.63828000  0.36085000  0.02727000  1.0
  H  H26  1  0.57841000  0.75058000  0.93871000  1.0
  H  H27  1  0.42160000  0.24942000  0.06129000  1.0
  H  H28  1  0.70679000  0.99288000  0.89038000  1.0
  H  H29  1  0.29321000  0.00713000  0.10962000  1.0
  H  H30  1  0.95471000  0.81113000  0.09461000  1.0
  H  H31  1  0.04528000  0.18887000  0.90539000  1.0
  H  H32  1  0.09560000  0.72996000  0.94733000  1.0
  H  H33  1  0.90440000  0.27004000  0.05266000  1.0
  H  H34  1  0.03065000  0.78422000  0.77975000  1.0
  H  H35  1  0.96934000  0.21578000  0.22024000  1.0
  C  C36  1  0.89473000  0.40706000  0.74235000  1.0
  C  C37  1  0.10526000  0.59294000  0.25765000  1.0
  C  C38  1  0.93847000  0.32233000  0.66471000  1.0
  C  C39  1  0.06152000  0.67767000  0.33529000  1.0
  C  C40  1  0.09484000  0.28907000  0.69564000  1.0
  C  C41  1  0.90516000  0.71093000  0.30436000  1.0
  C  C42  1  0.20249000  0.34003000  0.80151000  1.0
  C  C43  1  0.79751000  0.65997000  0.19849000  1.0
  C  C44  1  0.15374000  0.42179000  0.87873000  1.0
  C  C45  1  0.84626000  0.57821000  0.12127000  1.0
  C  C46  1  0.99940000  0.45590000  0.84909000  1.0
  C  C47  1  0.00059000  0.54410000  0.15091000  1.0
  C  C48  1  0.82136000  0.27544000  0.54966000  1.0
  C  C49  1  0.17865000  0.72456000  0.45035000  1.0
  C  C50  1  0.14371000  0.19333000  0.61982000  1.0
  C  C51  1  0.85629000  0.80667000  0.38018000  1.0
  C  C52  1  0.56822000  0.56757000  0.67661000  1.0
  C  C53  1  0.43178000  0.43243000  0.32339000  1.0
  C  C54  1  0.71112000  0.52013000  0.66903000  1.0
  C  C55  1  0.28888000  0.47987000  0.33097000  1.0
  C  C56  1  0.81275000  0.55584000  0.61404000  1.0
  C  C57  1  0.18725000  0.44416000  0.38596000  1.0
  C  C58  1  0.76465000  0.63759000  0.56754000  1.0
  C  C59  1  0.23535000  0.36241000  0.43246000  1.0
  C  C60  1  0.62110000  0.68231000  0.57819000  1.0
  C  C61  1  0.37890000  0.31769000  0.42181000  1.0
  C  C62  1  0.61659000  0.88600000  0.09030000  1.0
  C  C63  1  0.38341000  0.11400000  0.90970000  1.0
  C  C64  1  0.56703000  0.92956000  0.18555000  1.0
  C  C65  1  0.43296000  0.07044000  0.81445000  1.0
  C  C66  1  0.43859000  0.86732000  0.20198000  1.0
  C  C67  1  0.56141000  0.13268000  0.79802000  1.0
  C  C68  1  0.36608000  0.76205000  0.12634000  1.0
  C  C69  1  0.63392000  0.23795000  0.87366000  1.0
  C  C70  1  0.41899000  0.71974000  0.03353000  1.0
  C  C71  1  0.58100000  0.28026000  0.96647000  1.0
  C  C72  1  0.54244000  0.78210000  0.01389000  1.0
  C  C73  1  0.45756000  0.21790000  0.98611000  1.0
  C  C74  1  0.65362000  0.04210000  0.26454000  1.0
  C  C75  1  0.34638000  0.95790000  0.73546000  1.0
  C  C76  1  0.37188000  0.91090000  0.29707000  1.0
  C  C77  1  0.62812000  0.08910000  0.70293000  1.0
  C  C78  1  0.79135000  0.93408000  0.90419000  1.0
  C  C79  1  0.20865000  0.06592000  0.09581000  1.0
  C  C80  1  0.81804000  0.90474000  0.99929000  1.0
  C  C81  1  0.18196000  0.09526000  0.00071000  1.0
  C  C82  1  0.92892000  0.83120000  0.01839000  1.0
  C  C83  1  0.07108000  0.16879000  0.98161000  1.0
  C  C84  1  0.00640000  0.78695000  0.93785000  1.0
  C  C85  1  0.99360000  0.21305000  0.06214000  1.0
  C  C86  1  0.97172000  0.81859000  0.84385000  1.0
  C  C87  1  0.02827000  0.18140000  0.15614000  1.0
  N  N88  1  0.52544000  0.64756000  0.63260000  1.0
  N  N89  1  0.47456000  0.35244000  0.36740000  1.0
  N  N90  1  0.86778000  0.89147000  0.82756000  1.0
  N  N91  1  0.13222000  0.10853000  0.17244000  1.0
  Cl  Cl92  1  0.77362000  0.37784000  0.24310000  1.0
  Cl  Cl93  1  0.22638000  0.62216000  0.75690000  1.0
  O  O94  1  0.85306000  0.32023000  0.48169000  1.0
  O  O95  1  0.14694000  0.67977000  0.51831000  1.0
  O  O96  1  0.70017000  0.20061000  0.52677000  1.0
  O  O97  1  0.29983000  0.79939000  0.47323000  1.0
  O  O98  1  0.02878000  0.11083000  0.55730000  1.0
  O  O99  1  0.97122000  0.88916000  0.44270000  1.0
  O  O100  1  0.29242000  0.18982000  0.61855000  1.0
  O  O101  1  0.70759000  0.81018000  0.38145000  1.0
  O  O102  1  0.73733000  0.43833000  0.71681000  1.0
  O  O103  1  0.26267000  0.56167000  0.28319000  1.0
  O  O104  1  0.59440000  0.12587000  0.24613000  1.0
  O  O105  1  0.40559000  0.87413000  0.75387000  1.0
  O  O106  1  0.78143000  0.04505000  0.34165000  1.0
  O  O107  1  0.21857000  0.95495000  0.65835000  1.0
  O  O108  1  0.46719000  0.98249000  0.38851000  1.0
  O  O109  1  0.53282000  0.01752000  0.61149000  1.0
  O  O110  1  0.22308000  0.87965000  0.28836000  1.0
  O  O111  1  0.77692000  0.12036000  0.71164000  1.0
  O  O112  1  0.73765000  0.95384000  0.07630000  1.0
  O  O113  1  0.26236000  0.04615000  0.92370000  1.0
  O  O114  1  0.88209000  0.90876000  0.63484000  1.0
  O  O115  1  0.11791000  0.09124000  0.36516000  1.0
