# generated using pymatgen
data_CuH5C5NCl2
_symmetry_space_group_name_H-M   'P 1'
_cell_length_a   3.78164000
_cell_length_b   11.82464139
_cell_length_c   14.92010000
_cell_angle_alpha   89.99827513
_cell_angle_beta   89.99910000
_cell_angle_gamma   98.04749340
_symmetry_Int_Tables_number   1
_chemical_formula_structural   CuH5C5NCl2
_chemical_formula_sum   'Cu4 H20 C20 N4 Cl8'
_cell_volume   660.60510383
_cell_formula_units_Z   4
loop_
 _symmetry_equiv_pos_site_id
 _symmetry_equiv_pos_as_xyz
  1  'x, y, z'
loop_
 _atom_site_type_symbol
 _atom_site_label
 _atom_site_symmetry_multiplicity
 _atom_site_fract_x
 _atom_site_fract_y
 _atom_site_fract_z
 _atom_site_occupancy
  Cu  Cu0  1  0.11295000  0.91093000  0.41695000  1.0
  Cu  Cu1  1  0.38707000  0.58908000  0.91695000  1.0
  Cu  Cu2  1  0.88707000  0.08908000  0.58305000  1.0
  Cu  Cu3  1  0.61295000  0.41092000  0.08305000  1.0
  H  H4  1  0.44079000  0.07943000  0.28613000  1.0
  H  H5  1  0.05923000  0.42059000  0.78615000  1.0
  H  H6  1  0.55921000  0.92057000  0.71387000  1.0
  H  H7  1  0.94078000  0.57942000  0.21386000  1.0
  H  H8  1  0.81255000  0.76452000  0.26984000  1.0
  H  H9  1  0.68746000  0.73550000  0.76984000  1.0
  H  H10  1  0.18744000  0.23549000  0.73016000  1.0
  H  H11  1  0.31254000  0.26450000  0.23015000  1.0
  H  H12  1  0.49894000  0.09505000  0.11985000  1.0
  H  H13  1  0.00108000  0.40495000  0.61987000  1.0
  H  H14  1  0.50107000  0.90496000  0.88015000  1.0
  H  H15  1  0.99887000  0.59503000  0.38014000  1.0
  H  H16  1  0.85215000  0.76361000  0.10151000  1.0
  H  H17  1  0.64789000  0.73639000  0.60150000  1.0
  H  H18  1  0.14783000  0.23639000  0.89849000  1.0
  H  H19  1  0.35210000  0.26360000  0.39849000  1.0
  H  H20  1  0.20206000  0.92991000  0.02474000  1.0
  H  H21  1  0.29800000  0.57009000  0.52475000  1.0
  H  H22  1  0.79795000  0.07010000  0.97525000  1.0
  H  H23  1  0.70197000  0.42989000  0.47525000  1.0
  C  C24  1  0.31271000  0.01231000  0.24225000  1.0
  C  C25  1  0.18729000  0.48770000  0.74227000  1.0
  C  C26  1  0.68728000  0.98770000  0.75774000  1.0
  C  C27  1  0.81274000  0.51230000  0.25774000  1.0
  C  C28  1  0.96547000  0.83430000  0.23294000  1.0
  C  C29  1  0.53455000  0.66571000  0.73294000  1.0
  C  C30  1  0.03453000  0.16571000  0.76705000  1.0
  C  C31  1  0.46547000  0.33428000  0.26706000  1.0
  C  C32  1  0.34419000  0.01955000  0.14944000  1.0
  C  C33  1  0.15586000  0.48046000  0.64946000  1.0
  C  C34  1  0.65583000  0.98046000  0.85056000  1.0
  C  C35  1  0.84412000  0.51953000  0.35054000  1.0
  C  C36  1  0.98621000  0.83532000  0.13995000  1.0
  C  C37  1  0.51385000  0.66469000  0.63996000  1.0
  C  C38  1  0.01380000  0.16468000  0.86005000  1.0
  C  C39  1  0.48614000  0.33530000  0.36004000  1.0
  C  C40  1  0.18018000  0.92912000  0.09755000  1.0
  C  C41  1  0.31985000  0.57088000  0.59756000  1.0
  C  C42  1  0.81982000  0.07089000  0.90244000  1.0
  C  C43  1  0.68016000  0.42911000  0.40245000  1.0
  N  N44  1  0.12732000  0.92118000  0.28310000  1.0
  N  N45  1  0.37273000  0.57884000  0.78312000  1.0
  N  N46  1  0.87270000  0.07882000  0.71690000  1.0
  N  N47  1  0.62728000  0.42116000  0.21689000  1.0
  Cl  Cl48  1  0.46834000  0.77033000  0.41690000  1.0
  Cl  Cl49  1  0.03163000  0.72967000  0.91690000  1.0
  Cl  Cl50  1  0.53165000  0.22967000  0.58310000  1.0
  Cl  Cl51  1  0.96837000  0.27033000  0.08310000  1.0
  Cl  Cl52  1  0.86759000  0.07980000  0.42794000  1.0
  Cl  Cl53  1  0.63239000  0.42020000  0.92794000  1.0
  Cl  Cl54  1  0.13240000  0.92019000  0.57206000  1.0
  Cl  Cl55  1  0.36761000  0.57981000  0.07207000  1.0
