# generated using pymatgen
data_Cu3H34C36(NO3)4
_symmetry_space_group_name_H-M   'P 1'
_cell_length_a   5.56142000
_cell_length_b   8.97954000
_cell_length_c   18.56940000
_cell_angle_alpha   77.10430000
_cell_angle_beta   81.57040000
_cell_angle_gamma   82.79500000
_symmetry_Int_Tables_number   1
_chemical_formula_structural   Cu3H34C36(NO3)4
_chemical_formula_sum   'Cu3 H34 C36 N4 O12'
_cell_volume   890.04013412
_cell_formula_units_Z   1
loop_
 _symmetry_equiv_pos_site_id
 _symmetry_equiv_pos_as_xyz
  1  'x, y, z'
loop_
 _atom_site_type_symbol
 _atom_site_label
 _atom_site_symmetry_multiplicity
 _atom_site_fract_x
 _atom_site_fract_y
 _atom_site_fract_z
 _atom_site_occupancy
  Cu  Cu0  1  0.98132000  0.58379000  0.41820000  1.0
  Cu  Cu1  1  0.01595000  0.41653000  0.58149000  1.0
  Cu  Cu2  1  0.50052000  0.49917000  0.50035000  1.0
  H  H3  1  0.91125000  0.76060000  0.26875000  1.0
  H  H4  1  0.08871000  0.23936000  0.73077000  1.0
  H  H5  1  0.12197000  0.78922000  0.13992000  1.0
  H  H6  1  0.87946000  0.21128000  0.85979000  1.0
  H  H7  1  0.71835000  0.47799000  0.23001000  1.0
  H  H8  1  0.28184000  0.52199000  0.77010000  1.0
  H  H9  1  0.47863000  0.45444000  0.35343000  1.0
  H  H10  1  0.52011000  0.54514000  0.64651000  1.0
  H  H11  1  0.19399000  0.33099000  0.46304000  1.0
  H  H12  1  0.80640000  0.67079000  0.53691000  1.0
  H  H13  1  0.46623000  0.70807000  0.93346000  1.0
  H  H14  1  0.53469000  0.29185000  0.06659000  1.0
  H  H15  1  0.75401000  0.71337000  0.96466000  1.0
  H  H16  1  0.24693000  0.28668000  0.03539000  1.0
  H  H17  1  0.85743000  0.43575000  0.96756000  1.0
  H  H18  1  0.14359000  0.56431000  0.03253000  1.0
  H  H19  1  0.75878000  0.52333000  0.88010000  1.0
  H  H20  1  0.24247000  0.47665000  0.11995000  1.0
  H  H21  1  0.26809000  0.91624000  0.32949000  1.0
  H  H22  1  0.73060000  0.08458000  0.67059000  1.0
  H  H23  1  0.32649000  0.00886000  0.39780000  1.0
  H  H24  1  0.67336000  0.99127000  0.60238000  1.0
  H  H25  1  0.47874000  0.96087000  0.20817000  1.0
  H  H26  1  0.52026000  0.03943000  0.79201000  1.0
  H  H27  1  0.80632000  0.07544000  0.11378000  1.0
  H  H28  1  0.19281000  0.92445000  0.88634000  1.0
  H  H29  1  0.11143000  0.21527000  0.15321000  1.0
  H  H30  1  0.88812000  0.78451000  0.84680000  1.0
  H  H31  1  0.08402000  0.23827000  0.28403000  1.0
  H  H32  1  0.91622000  0.76120000  0.71602000  1.0
  H  H33  1  0.83968000  0.00284000  0.43291000  1.0
  H  H34  1  0.16303000  0.99634000  0.56692000  1.0
  H  H35  1  0.57543000  0.13571000  0.42787000  1.0
  H  H36  1  0.42598000  0.86245000  0.57264000  1.0
  C  C37  1  0.08869000  0.69867000  0.25727000  1.0
  C  C38  1  0.91129000  0.30129000  0.74238000  1.0
  C  C39  1  0.21097000  0.71633000  0.18556000  1.0
  C  C40  1  0.78988000  0.28398000  0.81420000  1.0
  C  C41  1  0.44211000  0.63749000  0.17399000  1.0
  C  C42  1  0.55871000  0.36272000  0.82593000  1.0
  C  C43  1  0.53970000  0.54280000  0.23542000  1.0
  C  C44  1  0.46042000  0.45717000  0.76457000  1.0
  C  C45  1  0.40350000  0.52861000  0.30538000  1.0
  C  C46  1  0.59579000  0.47115000  0.69450000  1.0
  C  C47  1  0.58432000  0.66261000  0.09771000  1.0
  C  C48  1  0.41673000  0.33754000  0.90228000  1.0
  C  C49  1  0.60513000  0.64203000  0.96785000  1.0
  C  C50  1  0.39585000  0.35795000  0.03221000  1.0
  C  C51  1  0.69914000  0.49503000  0.93998000  1.0
  C  C52  1  0.30192000  0.50498000  0.06007000  1.0
  C  C53  1  0.53414000  0.79235000  0.39681000  1.0
  C  C54  1  0.46419000  0.20743000  0.60312000  1.0
  C  C55  1  0.41679000  0.94392000  0.35580000  1.0
  C  C56  1  0.58238000  0.05637000  0.64426000  1.0
  C  C57  1  0.59694000  0.03241000  0.29930000  1.0
  C  C58  1  0.40249000  0.96768000  0.70082000  1.0
  C  C59  1  0.61040000  0.02394000  0.22436000  1.0
  C  C60  1  0.38878000  0.97627000  0.77577000  1.0
  C  C61  1  0.79302000  0.08949000  0.17116000  1.0
  C  C62  1  0.20620000  0.91051000  0.82894000  1.0
  C  C63  1  0.96288000  0.16700000  0.19315000  1.0
  C  C64  1  0.03661000  0.83287000  0.80690000  1.0
  C  C65  1  0.94830000  0.17878000  0.26742000  1.0
  C  C66  1  0.05153000  0.82088000  0.73266000  1.0
  C  C67  1  0.76793000  0.11173000  0.32153000  1.0
  C  C68  1  0.23200000  0.88797000  0.67860000  1.0
  C  C69  1  0.76518000  0.11507000  0.40278000  1.0
  C  C70  1  0.23607000  0.88406000  0.59738000  1.0
  C  C71  1  0.90628000  0.24044000  0.41491000  1.0
  C  C72  1  0.09358000  0.75929000  0.58541000  1.0
  N  N73  1  0.18212000  0.60622000  0.31643000  1.0
  N  N74  1  0.81700000  0.39338000  0.68328000  1.0
  N  N75  1  0.49566000  0.60739000  0.04519000  1.0
  N  N76  1  0.50543000  0.39258000  0.95484000  1.0
  O  O77  1  0.39337000  0.70670000  0.44359000  1.0
  O  O78  1  0.60574000  0.29360000  0.55672000  1.0
  O  O79  1  0.76292000  0.76243000  0.37998000  1.0
  O  O80  1  0.23522000  0.23683000  0.61907000  1.0
  O  O81  1  0.81051000  0.37804000  0.39822000  1.0
  O  O82  1  0.18754000  0.62134000  0.60232000  1.0
  O  O83  1  0.11200000  0.20019000  0.44014000  1.0
  O  O84  1  0.88811000  0.80065000  0.56013000  1.0
  O  O85  1  0.76694000  0.73596000  0.08424000  1.0
  O  O86  1  0.23409000  0.26426000  0.91568000  1.0
  O  O87  1  0.20574000  0.43539000  0.47867000  1.0
  O  O88  1  0.79454000  0.56721000  0.52067000  1.0
