# generated using pymatgen
data_CdH4C6BrNO2
_symmetry_space_group_name_H-M   'P 1'
_cell_length_a   3.90124000
_cell_length_b   12.92210000
_cell_length_c   15.05340000
_cell_angle_alpha   89.99980000
_cell_angle_beta   96.76180000
_cell_angle_gamma   89.99990000
_symmetry_Int_Tables_number   1
_chemical_formula_structural   CdH4C6BrNO2
_chemical_formula_sum   'Cd4 H16 C24 Br4 N4 O8'
_cell_volume   753.59665120
_cell_formula_units_Z   4
loop_
 _symmetry_equiv_pos_site_id
 _symmetry_equiv_pos_as_xyz
  1  'x, y, z'
loop_
 _atom_site_type_symbol
 _atom_site_label
 _atom_site_symmetry_multiplicity
 _atom_site_fract_x
 _atom_site_fract_y
 _atom_site_fract_z
 _atom_site_occupancy
  Cd  Cd0  1  0.62021000  0.57732000  0.74986000  1.0
  Cd  Cd1  1  0.87978000  0.07732000  0.75014000  1.0
  Cd  Cd2  1  0.37978000  0.42268000  0.25014000  1.0
  Cd  Cd3  1  0.12020000  0.92268000  0.24986000  1.0
  H  H4  1  0.83330000  0.92267000  0.04748000  1.0
  H  H5  1  0.66666667  0.42267000  0.45252000  1.0
  H  H6  1  0.16671000  0.07733000  0.95252000  1.0
  H  H7  1  0.33329000  0.57734000  0.54748000  1.0
  H  H8  1  0.90317000  0.82735000  0.90555000  1.0
  H  H9  1  0.59683000  0.32736000  0.59445000  1.0
  H  H10  1  0.09685000  0.17264000  0.09445000  1.0
  H  H11  1  0.40315000  0.67264000  0.40555000  1.0
  H  H12  1  0.47412000  0.59353000  0.06556000  1.0
  H  H13  1  0.02588000  0.09353000  0.43444000  1.0
  H  H14  1  0.52588000  0.40647000  0.93444000  1.0
  H  H15  1  0.97412000  0.90647000  0.56556000  1.0
  H  H16  1  0.38791000  0.69892000  0.20135000  1.0
  H  H17  1  0.11209000  0.19892000  0.29865000  1.0
  H  H18  1  0.61208000  0.30108000  0.79866000  1.0
  H  H19  1  0.88792000  0.80108000  0.70135000  1.0
  C  C20  1  0.97457000  0.84961000  0.04835000  1.0
  C  C21  1  0.52545000  0.34961000  0.45165000  1.0
  C  C22  1  0.02544000  0.15039000  0.95165000  1.0
  C  C23  1  0.47454000  0.65039000  0.54835000  1.0
  C  C24  1  0.01226000  0.79647000  0.96997000  1.0
  C  C25  1  0.48773000  0.29647000  0.53003000  1.0
  C  C26  1  0.98775000  0.20352000  0.03003000  1.0
  C  C27  1  0.51225000  0.70353000  0.46997000  1.0
  C  C28  1  0.19954000  0.70392000  0.97500000  1.0
  C  C29  1  0.30046000  0.20392000  0.52500000  1.0
  C  C30  1  0.80047000  0.29608000  0.02500000  1.0
  C  C31  1  0.69953000  0.79608000  0.47500000  1.0
  C  C32  1  0.33106000  0.66609000  0.05912000  1.0
  C  C33  1  0.16894000  0.16608000  0.44088000  1.0
  C  C34  1  0.66895000  0.33391000  0.94088000  1.0
  C  C35  1  0.83106000  0.83391000  0.55912000  1.0
  C  C36  1  0.28132000  0.72371000  0.13463000  1.0
  C  C37  1  0.21869000  0.22372000  0.36537000  1.0
  C  C38  1  0.71869000  0.27629000  0.86537000  1.0
  C  C39  1  0.78132000  0.77628000  0.63463000  1.0
  C  C40  1  0.27845000  0.65189000  0.89061000  1.0
  C  C41  1  0.22154000  0.15189000  0.60938000  1.0
  C  C42  1  0.72156000  0.34811000  0.10939000  1.0
  C  C43  1  0.77845000  0.84811000  0.39062000  1.0
  Br  Br44  1  0.09002000  0.44303000  0.69946000  1.0
  Br  Br45  1  0.40998000  0.94303000  0.80054000  1.0
  Br  Br46  1  0.90998000  0.55697000  0.30054000  1.0
  Br  Br47  1  0.59001000  0.05697000  0.19946000  1.0
  N  N48  1  0.11091000  0.81471000  0.12922000  1.0
  N  N49  1  0.38909000  0.31471000  0.37078000  1.0
  N  N50  1  0.88909000  0.18529000  0.87078000  1.0
  N  N51  1  0.61091000  0.68529000  0.62923000  1.0
  O  O52  1  0.52336000  0.58584000  0.89704000  1.0
  O  O53  1  0.97664000  0.08584000  0.60296000  1.0
  O  O54  1  0.47667000  0.41416000  0.10296000  1.0
  O  O55  1  0.02333000  0.91417000  0.39704000  1.0
  O  O56  1  0.11596000  0.68002000  0.81597000  1.0
  O  O57  1  0.38405000  0.18002000  0.68403000  1.0
  O  O58  1  0.88406000  0.31998000  0.18403000  1.0
  O  O59  1  0.61595000  0.81998000  0.31597000  1.0
