# generated using pymatgen
data_ZnH34C36(NO)4
_symmetry_space_group_name_H-M   'P 1'
_cell_length_a   11.44260000
_cell_length_b   12.26410000
_cell_length_c   13.36190000
_cell_angle_alpha   89.58940000
_cell_angle_beta   89.13370000
_cell_angle_gamma   62.18730000
_symmetry_Int_Tables_number   1
_chemical_formula_structural   ZnH34C36(NO)4
_chemical_formula_sum   'Zn2 H68 C72 N8 O8'
_cell_volume   1658.31029332
_cell_formula_units_Z   2
loop_
 _symmetry_equiv_pos_site_id
 _symmetry_equiv_pos_as_xyz
  1  'x, y, z'
loop_
 _atom_site_type_symbol
 _atom_site_label
 _atom_site_symmetry_multiplicity
 _atom_site_fract_x
 _atom_site_fract_y
 _atom_site_fract_z
 _atom_site_occupancy
  Zn  Zn0  1  0.28557000  0.42892000  0.74993000  1.0
  Zn  Zn1  1  0.71443000  0.57108000  0.25007000  1.0
  H  H2  1  0.41230000  0.50659000  0.40538000  1.0
  H  H3  1  0.08122000  0.50660000  0.09467000  1.0
  H  H4  1  0.58770000  0.49341000  0.59462000  1.0
  H  H5  1  0.91878000  0.49340000  0.90533000  1.0
  H  H6  1  0.33233000  0.41434000  0.38581000  1.0
  H  H7  1  0.25341000  0.41414000  0.11439000  1.0
  H  H8  1  0.66767000  0.58566000  0.61419000  1.0
  H  H9  1  0.74659000  0.58585000  0.88561000  1.0
  H  H10  1  0.43618000  0.38570000  0.49096000  1.0
  H  H11  1  0.17819000  0.38566000  0.00916000  1.0
  H  H12  1  0.56382000  0.61430000  0.50904000  1.0
  H  H13  1  0.82181000  0.61434000  0.99084000  1.0
  H  H14  1  0.17028000  0.61806000  0.45991000  1.0
  H  H15  1  0.21208000  0.61781000  0.04023000  1.0
  H  H16  1  0.82972000  0.38194000  0.54009000  1.0
  H  H17  1  0.78792000  0.38219000  0.95977000  1.0
  H  H18  1  0.20066000  0.49450000  0.54355000  1.0
  H  H19  1  0.30522000  0.49419000  0.95662000  1.0
  H  H20  1  0.79934000  0.50550000  0.45645000  1.0
  H  H21  1  0.69479000  0.50581000  0.04338000  1.0
  H  H22  1  0.42878000  0.55674000  0.87284000  1.0
  H  H23  1  0.01461000  0.55659000  0.62732000  1.0
  H  H24  1  0.57122000  0.44326000  0.12716000  1.0
  H  H25  1  0.98539000  0.44341000  0.37268000  1.0
  H  H26  1  0.48354000  0.72363000  0.92333000  1.0
  H  H27  1  0.79293000  0.72353000  0.57683000  1.0
  H  H28  1  0.51646000  0.27637000  0.07666000  1.0
  H  H29  1  0.20707000  0.27647000  0.42317000  1.0
  H  H30  1  0.44976000  0.89361000  0.80683000  1.0
  H  H31  1  0.65695000  0.89364000  0.69327000  1.0
  H  H32  1  0.55024000  0.10639000  0.19317000  1.0
  H  H33  1  0.34305000  0.10636000  0.30673000  1.0
  H  H34  1  0.36252000  0.90217000  0.63544000  1.0
  H  H35  1  0.73584000  0.90226000  0.86454000  1.0
  H  H36  1  0.63748000  0.09783000  0.36455000  1.0
  H  H37  1  0.26416000  0.09773000  0.13546000  1.0
  H  H38  1  0.26586000  0.73405000  0.41882000  1.0
  H  H39  1  0.00015000  0.73405000  0.08129000  1.0
  H  H40  1  0.73413000  0.26595000  0.58118000  1.0
  H  H41  1  0.99985000  0.26595000  0.91871000  1.0
  H  H42  1  0.33833000  0.81831000  0.46918000  1.0
  H  H43  1  0.84351000  0.81820000  0.03070000  1.0
  H  H44  1  0.66167000  0.18169000  0.53082000  1.0
  H  H45  1  0.15649000  0.18180000  0.96930000  1.0
  H  H46  1  0.03884000  0.80063000  0.57579000  1.0
  H  H47  1  0.16057000  0.80065000  0.92424000  1.0
  H  H48  1  0.96116000  0.19938000  0.42421000  1.0
  H  H49  1  0.83943000  0.19935000  0.07576000  1.0
  H  H50  1  0.18363000  0.02173000  0.41709000  1.0
  H  H51  1  0.79467000  0.02170000  0.08296000  1.0
  H  H52  1  0.81637000  0.97828000  0.58291000  1.0
  H  H53  1  0.20533000  0.97830000  0.91705000  1.0
  H  H54  1  0.64872000  0.26369000  0.92635000  1.0
  H  H55  1  0.08794000  0.26346000  0.57339000  1.0
  H  H56  1  0.35128000  0.73631000  0.07365000  1.0
  H  H57  1  0.91206000  0.73654000  0.42661000  1.0
  H  H58  1  0.68436000  0.12250000  0.86854000  1.0
  H  H59  1  0.19348000  0.12236000  0.63137000  1.0
  H  H60  1  0.31564000  0.87750000  0.13146000  1.0
  H  H61  1  0.80652000  0.87764000  0.36863000  1.0
  H  H62  1  0.69517000  0.41590000  0.79173000  1.0
  H  H63  1  0.88917000  0.41576000  0.70781000  1.0
  H  H64  1  0.30483000  0.58410000  0.20827000  1.0
  H  H65  1  0.11083000  0.58424000  0.29219000  1.0
  H  H66  1  0.89391000  0.01924000  0.79285000  1.0
  H  H67  1  0.08687000  0.01912000  0.70697000  1.0
  H  H68  1  0.10609000  0.98076000  0.20715000  1.0
  H  H69  1  0.91313000  0.98088000  0.29303000  1.0
  C  C70  1  0.36402000  0.45819000  0.44314000  1.0
  C  C71  1  0.17794000  0.45810000  0.05698000  1.0
  C  C72  1  0.63598000  0.54181000  0.55686000  1.0
  C  C73  1  0.82206000  0.54190000  0.94302000  1.0
  C  C74  1  0.24530000  0.54682000  0.50714000  1.0
  C  C75  1  0.20823000  0.54661000  0.99300000  1.0
  C  C76  1  0.75470000  0.45318000  0.49286000  1.0
  C  C77  1  0.79177000  0.45339000  0.00700000  1.0
  C  C78  1  0.28656000  0.60554000  0.58643000  1.0
  C  C79  1  0.10826000  0.60541000  0.91367000  1.0
  C  C80  1  0.71344000  0.39446000  0.41357000  1.0
  C  C81  1  0.89174000  0.39459000  0.08633000  1.0
  C  C82  1  0.36174000  0.63821000  0.72686000  1.0
  C  C83  1  0.00040000  0.63813000  0.77323000  1.0
  C  C84  1  0.63827000  0.36179000  0.27314000  1.0
  C  C85  1  0.99960000  0.36187000  0.22677000  1.0
  C  C86  1  0.41243000  0.63269000  0.82254000  1.0
  C  C87  1  0.95513000  0.63260000  0.67758000  1.0
  C  C88  1  0.58757000  0.36731000  0.17745000  1.0
  C  C89  1  0.04487000  0.36740000  0.32242000  1.0
  C  C90  1  0.44349000  0.72578000  0.84937000  1.0
  C  C91  1  0.83098000  0.72572000  0.65075000  1.0
  C  C92  1  0.55652000  0.27422000  0.15063000  1.0
  C  C93  1  0.16903000  0.27428000  0.34925000  1.0
  C  C94  1  0.42482000  0.82227000  0.78302000  1.0
  C  C95  1  0.75324000  0.82229000  0.71706000  1.0
  C  C96  1  0.57518000  0.17773000  0.21698000  1.0
  C  C97  1  0.24676000  0.17770000  0.28294000  1.0
  C  C98  1  0.37575000  0.82821000  0.68709000  1.0
  C  C99  1  0.79647000  0.82825000  0.81295000  1.0
  C  C100  1  0.62425000  0.17179000  0.31291000  1.0
  C  C101  1  0.20353000  0.17175000  0.18705000  1.0
  C  C102  1  0.34547000  0.73453000  0.66045000  1.0
  C  C103  1  0.92039000  0.73450000  0.83961000  1.0
  C  C104  1  0.65453000  0.26547000  0.33955000  1.0
  C  C105  1  0.07962000  0.26550000  0.16039000  1.0
  C  C106  1  0.26242000  0.78923000  0.48421000  1.0
  C  C107  1  0.94853000  0.78915000  0.01581000  1.0
  C  C108  1  0.73758000  0.21077000  0.51579000  1.0
  C  C109  1  0.05147000  0.21085000  0.98419000  1.0
  C  C110  1  0.12728000  0.89889000  0.49576000  1.0
  C  C111  1  0.97390000  0.89887000  0.00429000  1.0
  C  C112  1  0.87272000  0.10111000  0.50424000  1.0
  C  C113  1  0.02610000  0.10113000  0.99571000  1.0
  C  C114  1  0.02287000  0.88774000  0.54208000  1.0
  C  C115  1  0.08942000  0.88776000  0.95794000  1.0
  C  C116  1  0.97713000  0.11227000  0.45792000  1.0
  C  C117  1  0.91058000  0.11224000  0.04206000  1.0
  C  C118  1  0.10333000  0.01219000  0.45421000  1.0
  C  C119  1  0.88451000  0.01215000  0.04582000  1.0
  C  C120  1  0.89667000  0.98782000  0.54579000  1.0
  C  C121  1  0.11549000  0.98785000  0.95418000  1.0
  C  C122  1  0.53667000  0.28019000  0.79413000  1.0
  C  C123  1  0.18318000  0.28020000  0.70571000  1.0
  C  C124  1  0.46333000  0.71981000  0.20587000  1.0
  C  C125  1  0.81682000  0.71980000  0.29430000  1.0
  C  C126  1  0.66461000  0.21781000  0.85335000  1.0
  C  C127  1  0.11780000  0.21768000  0.64646000  1.0
  C  C128  1  0.33539000  0.78219000  0.14665000  1.0
  C  C129  1  0.88220000  0.78232000  0.35354000  1.0
  C  C130  1  0.78117000  0.21694000  0.79914000  1.0
  C  C131  1  0.00203000  0.21682000  0.70053000  1.0
  C  C132  1  0.21883000  0.78306000  0.20086000  1.0
  C  C133  1  0.99797000  0.78318000  0.29947000  1.0
  C  C134  1  0.78154000  0.32825000  0.77390000  1.0
  C  C135  1  0.89037000  0.32817000  0.72568000  1.0
  C  C136  1  0.21846000  0.67175000  0.22610000  1.0
  C  C137  1  0.10963000  0.67183000  0.27432000  1.0
  C  C138  1  0.89211000  0.10665000  0.77385000  1.0
  C  C139  1  0.00129000  0.10659000  0.72588000  1.0
  C  C140  1  0.10789000  0.89335000  0.22615000  1.0
  C  C141  1  0.99871000  0.89341000  0.27412000  1.0
  N  N142  1  0.32308000  0.56027000  0.67845000  1.0
  N  N143  1  0.11698000  0.56015000  0.82164000  1.0
  N  N144  1  0.67692000  0.43973000  0.32155000  1.0
  N  N145  1  0.88303000  0.43985000  0.17836000  1.0
  N  N146  1  0.29968000  0.71006000  0.57221000  1.0
  N  N147  1  0.99063000  0.70998000  0.92786000  1.0
  N  N148  1  0.70032000  0.28994000  0.42779000  1.0
  N  N149  1  0.00937000  0.29002000  0.07215000  1.0
  O  O150  1  0.53527000  0.25927000  0.70305000  1.0
  O  O151  1  0.20519000  0.25952000  0.79685000  1.0
  O  O152  1  0.46473000  0.74072000  0.29695000  1.0
  O  O153  1  0.79480000  0.74048000  0.20315000  1.0
  O  O154  1  0.43253000  0.35449000  0.84603000  1.0
  O  O155  1  0.21315000  0.35441000  0.65379000  1.0
  O  O156  1  0.56747000  0.64551000  0.15397000  1.0
  O  O157  1  0.78685000  0.64559000  0.34620000  1.0
