# generated using pymatgen
data_CuH14C8O5
_symmetry_space_group_name_H-M   'P 1'
_cell_length_a   7.96800000
_cell_length_b   8.94355000
_cell_length_c   14.59090000
_cell_angle_alpha   105.28700000
_cell_angle_beta   90.00000000
_cell_angle_gamma   89.99930000
_symmetry_Int_Tables_number   1
_chemical_formula_structural   CuH14C8O5
_chemical_formula_sum   'Cu4 H56 C32 O20'
_cell_volume   1002.98947624
_cell_formula_units_Z   4
loop_
 _symmetry_equiv_pos_site_id
 _symmetry_equiv_pos_as_xyz
  1  'x, y, z'
loop_
 _atom_site_type_symbol
 _atom_site_label
 _atom_site_symmetry_multiplicity
 _atom_site_fract_x
 _atom_site_fract_y
 _atom_site_fract_z
 _atom_site_occupancy
  Cu  Cu0  1  0.96419000  0.14133000  0.01209000  1.0
  Cu  Cu1  1  0.46421000  0.35867000  0.48790000  1.0
  Cu  Cu2  1  0.03579000  0.85868000  0.98791000  1.0
  Cu  Cu3  1  0.53580000  0.64132000  0.51210000  1.0
  H  H4  1  0.76793000  0.80331000  0.70435000  1.0
  H  H5  1  0.26795000  0.69670000  0.79566000  1.0
  H  H6  1  0.23205000  0.19670000  0.29564000  1.0
  H  H7  1  0.73206000  0.30330000  0.20434000  1.0
  H  H8  1  0.76868000  0.00618000  0.71500000  1.0
  H  H9  1  0.26869000  0.49383000  0.78500000  1.0
  H  H10  1  0.23134000  0.99382000  0.28499000  1.0
  H  H11  1  0.73130000  0.50617000  0.21500000  1.0
  H  H12  1  0.96798000  0.86579000  0.58903000  1.0
  H  H13  1  0.46798000  0.63419000  0.91098000  1.0
  H  H14  1  0.03205000  0.13416000  0.41098000  1.0
  H  H15  1  0.53201000  0.36580000  0.08902000  1.0
  H  H16  1  0.08058000  0.99411000  0.68326000  1.0
  H  H17  1  0.58061000  0.50589000  0.81675000  1.0
  H  H18  1  0.91941000  0.00587000  0.31675000  1.0
  H  H19  1  0.41939000  0.49412000  0.18326000  1.0
  H  H20  1  0.07883000  0.79164000  0.67297000  1.0
  H  H21  1  0.57883000  0.70836000  0.82706000  1.0
  H  H22  1  0.92119000  0.20834000  0.32707000  1.0
  H  H23  1  0.42116000  0.29164000  0.17295000  1.0
  H  H24  1  0.54876000  0.07199000  0.93404000  1.0
  H  H25  1  0.04878000  0.42802000  0.56597000  1.0
  H  H26  1  0.45122000  0.92802000  0.06597000  1.0
  H  H27  1  0.95123000  0.57197000  0.43403000  1.0
  H  H28  1  0.47063000  0.95998000  0.82476000  1.0
  H  H29  1  0.97064000  0.54002000  0.67524000  1.0
  H  H30  1  0.52937000  0.04002000  0.17524000  1.0
  H  H31  1  0.02936000  0.45997000  0.32475000  1.0
  H  H32  1  0.57633000  0.21408000  0.80821000  1.0
  H  H33  1  0.07632000  0.28591000  0.69180000  1.0
  H  H34  1  0.42368000  0.78592000  0.19180000  1.0
  H  H35  1  0.92369000  0.71408000  0.30820000  1.0
  H  H36  1  0.35533000  0.20939000  0.79168000  1.0
  H  H37  1  0.85532000  0.29062000  0.70831000  1.0
  H  H38  1  0.64468000  0.79063000  0.20831000  1.0
  H  H39  1  0.14468000  0.70938000  0.29170000  1.0
  H  H40  1  0.44210000  0.31639000  0.90103000  1.0
  H  H41  1  0.94211000  0.18361000  0.59896000  1.0
  H  H42  1  0.55790000  0.68361000  0.09897000  1.0
  H  H43  1  0.05789000  0.81638000  0.40104000  1.0
  H  H44  1  0.06033000  0.46111000  0.15359000  1.0
  H  H45  1  0.56036000  0.03890000  0.34641000  1.0
  H  H46  1  0.93965000  0.53893000  0.84641000  1.0
  H  H47  1  0.43967000  0.96108000  0.65359000  1.0
  H  H48  1  0.94417000  0.61944000  0.12903000  1.0
  H  H49  1  0.44418000  0.88058000  0.37097000  1.0
  H  H50  1  0.05582000  0.38060000  0.87096000  1.0
  H  H51  1  0.55584000  0.11942000  0.62904000  1.0
  H  H52  1  0.76519000  0.55913000  0.98935000  1.0
  H  H53  1  0.26521000  0.94088000  0.51064000  1.0
  H  H54  1  0.23480000  0.44090000  0.01064000  1.0
  H  H55  1  0.73482000  0.05912000  0.48936000  1.0
  H  H56  1  0.76197000  0.36040000  0.91874000  1.0
  H  H57  1  0.26199000  0.13961000  0.58126000  1.0
  H  H58  1  0.23801000  0.63963000  0.08125000  1.0
  H  H59  1  0.73804000  0.86038000  0.41874000  1.0
  C  C60  1  0.88929000  0.94137000  0.82939000  1.0
  C  C61  1  0.38931000  0.55862000  0.67063000  1.0
  C  C62  1  0.11069000  0.05861000  0.17061000  1.0
  C  C63  1  0.61069000  0.44137000  0.32938000  1.0
  C  C64  1  0.84364000  0.90932000  0.72536000  1.0
  C  C65  1  0.34366000  0.59069000  0.77464000  1.0
  C  C66  1  0.15636000  0.09067000  0.27463000  1.0
  C  C67  1  0.65634000  0.40931000  0.22536000  1.0
  C  C68  1  0.00270000  0.88912000  0.66424000  1.0
  C  C69  1  0.50271000  0.61087000  0.83578000  1.0
  C  C70  1  0.99732000  0.11084000  0.33577000  1.0
  C  C71  1  0.49728000  0.38913000  0.16423000  1.0
  C  C72  1  0.28464000  0.04587000  0.92945000  1.0
  C  C73  1  0.78467000  0.45415000  0.57054000  1.0
  C  C74  1  0.71533000  0.95415000  0.07054000  1.0
  C  C75  1  0.21534000  0.54586000  0.42945000  1.0
  C  C76  1  0.44847000  0.06676000  0.88132000  1.0
  C  C77  1  0.94848000  0.43325000  0.61868000  1.0
  C  C78  1  0.55152000  0.93324000  0.11868000  1.0
  C  C79  1  0.05152000  0.56674000  0.38132000  1.0
  C  C80  1  0.45543000  0.20982000  0.84352000  1.0
  C  C81  1  0.95543000  0.29017000  0.65647000  1.0
  C  C82  1  0.54457000  0.79018000  0.15648000  1.0
  C  C83  1  0.04457000  0.70981000  0.34353000  1.0
  C  C84  1  0.01485000  0.51214000  0.09761000  1.0
  C  C85  1  0.51488000  0.98788000  0.40239000  1.0
  C  C86  1  0.98514000  0.48790000  0.90238000  1.0
  C  C87  1  0.48514000  0.01212000  0.59761000  1.0
  C  C88  1  0.84052000  0.45377000  0.96123000  1.0
  C  C89  1  0.34054000  0.04625000  0.53876000  1.0
  C  C90  1  0.15947000  0.54626000  0.03876000  1.0
  C  C91  1  0.65949000  0.95375000  0.46124000  1.0
  O  O92  1  0.87851000  0.08166000  0.87953000  1.0
  O  O93  1  0.37848000  0.41834000  0.62046000  1.0
  O  O94  1  0.12158000  0.91835000  0.12045000  1.0
  O  O95  1  0.62153000  0.58165000  0.37954000  1.0
  O  O96  1  0.05902000  0.17365000  0.14191000  1.0
  O  O97  1  0.55911000  0.32632000  0.35810000  1.0
  O  O98  1  0.94080000  0.82632000  0.85811000  1.0
  O  O99  1  0.44091000  0.67367000  0.64190000  1.0
  O  O100  1  0.19010000  0.16381000  0.95774000  1.0
  O  O101  1  0.69009000  0.33621000  0.54229000  1.0
  O  O102  1  0.80994000  0.83622000  0.04232000  1.0
  O  O103  1  0.30992000  0.66378000  0.45771000  1.0
  O  O104  1  0.74504000  0.08997000  0.06160000  1.0
  O  O105  1  0.24509000  0.41001000  0.43836000  1.0
  O  O106  1  0.25488000  0.91001000  0.93832000  1.0
  O  O107  1  0.75492000  0.58999000  0.56164000  1.0
  O  O108  1  0.90226000  0.39935000  0.03976000  1.0
  O  O109  1  0.40227000  0.10066000  0.46023000  1.0
  O  O110  1  0.09774000  0.60067000  0.96023000  1.0
  O  O111  1  0.59776000  0.89933000  0.53977000  1.0
