# generated using pymatgen
data_CdH9C10(NO2)3
_symmetry_space_group_name_H-M   'P 1'
_cell_length_a   10.54340000
_cell_length_b   11.13089244
_cell_length_c   12.97160000
_cell_angle_alpha   90.20210858
_cell_angle_beta   113.97880000
_cell_angle_gamma   118.26882764
_symmetry_Int_Tables_number   1
_chemical_formula_structural   CdH9C10(NO2)3
_chemical_formula_sum   'Cd4 H36 C40 N12 O24'
_cell_volume   1188.15042511
_cell_formula_units_Z   4
loop_
 _symmetry_equiv_pos_site_id
 _symmetry_equiv_pos_as_xyz
  1  'x, y, z'
loop_
 _atom_site_type_symbol
 _atom_site_label
 _atom_site_symmetry_multiplicity
 _atom_site_fract_x
 _atom_site_fract_y
 _atom_site_fract_z
 _atom_site_occupancy
  Cd  Cd0  1  0.74423000  0.08176000  0.68934000  1.0
  Cd  Cd1  1  0.47302000  0.41822000  0.81071000  1.0
  Cd  Cd2  1  0.25577000  0.91824000  0.31066000  1.0
  Cd  Cd3  1  0.52698000  0.58178000  0.18929000  1.0
  H  H4  1  0.16330000  0.77806000  0.01617000  1.0
  H  H5  1  0.86913000  0.72205000  0.48399000  1.0
  H  H6  1  0.83670000  0.22194000  0.98383000  1.0
  H  H7  1  0.13087000  0.27796000  0.51601000  1.0
  H  H8  1  0.17884000  0.98828000  0.74005000  1.0
  H  H9  1  0.95050000  0.51168000  0.75999000  1.0
  H  H10  1  0.82115000  0.01171000  0.25995000  1.0
  H  H11  1  0.04950000  0.48832000  0.24001000  1.0
  H  H12  1  0.92120000  0.75457000  0.95934000  1.0
  H  H13  1  0.70765000  0.74578000  0.54114000  1.0
  H  H14  1  0.07880000  0.24543000  0.04066000  1.0
  H  H15  1  0.29235000  0.25422000  0.45886000  1.0
  H  H16  1  0.70753000  0.85295000  0.87729000  1.0
  H  H17  1  0.47760000  0.64728000  0.62317000  1.0
  H  H18  1  0.29247000  0.14705000  0.12271000  1.0
  H  H19  1  0.52240000  0.35272000  0.37683000  1.0
  H  H20  1  0.51398000  0.84799000  0.89832000  1.0
  H  H21  1  0.26777000  0.65215000  0.60176000  1.0
  H  H22  1  0.48602000  0.15201000  0.10168000  1.0
  H  H23  1  0.73223000  0.34785000  0.39824000  1.0
  H  H24  1  0.46038000  0.84634000  0.50608000  1.0
  H  H25  1  0.60810000  0.65369000  0.99383000  1.0
  H  H26  1  0.53963000  0.15366000  0.49392000  1.0
  H  H27  1  0.39189000  0.34631000  0.00617000  1.0
  H  H28  1  0.58527000  0.91353000  0.45369000  1.0
  H  H29  1  0.71818000  0.58651000  0.04625000  1.0
  H  H30  1  0.41473000  0.08647000  0.54631000  1.0
  H  H31  1  0.28181000  0.41349000  0.95376000  1.0
  H  H32  1  0.81611000  0.31901000  0.84755000  1.0
  H  H33  1  0.14958000  0.18099000  0.65237000  1.0
  H  H34  1  0.18389000  0.68099000  0.15245000  1.0
  H  H35  1  0.85043000  0.81901000  0.34763000  1.0
  H  H36  1  0.98213000  0.36010000  0.83796000  1.0
  H  H37  1  0.28411000  0.13989000  0.66205000  1.0
  H  H38  1  0.01787000  0.63990000  0.16204000  1.0
  H  H39  1  0.71589000  0.86011000  0.33795000  1.0
  C  C40  1  0.21606000  0.81792000  0.95810000  1.0
  C  C41  1  0.94013000  0.68222000  0.54208000  1.0
  C  C42  1  0.78394000  0.18208000  0.04190000  1.0
  C  C43  1  0.05987000  0.31778000  0.45792000  1.0
  C  C44  1  0.16031000  0.88571000  0.87764000  1.0
  C  C45  1  0.89707000  0.61443000  0.62253000  1.0
  C  C46  1  0.83969000  0.11429000  0.12236000  1.0
  C  C47  1  0.10293000  0.38557000  0.37747000  1.0
  C  C48  1  0.22785000  0.93872000  0.80348000  1.0
  C  C49  1  0.98571000  0.56132000  0.69661000  1.0
  C  C50  1  0.77215000  0.06127000  0.19652000  1.0
  C  C51  1  0.01429000  0.43868000  0.30339000  1.0
  C  C52  1  0.91917000  0.83087000  0.90826000  1.0
  C  C53  1  0.68031000  0.66937000  0.59211000  1.0
  C  C54  1  0.08083000  0.16913000  0.09174000  1.0
  C  C55  1  0.31969000  0.33063000  0.40789000  1.0
  C  C56  1  0.43372000  0.98756000  0.73411000  1.0
  C  C57  1  0.21197000  0.51240000  0.76598000  1.0
  C  C58  1  0.56628000  0.01244000  0.26590000  1.0
  C  C59  1  0.78803000  0.48760000  0.23402000  1.0
  C  C60  1  0.34323000  0.80267000  0.96433000  1.0
  C  C61  1  0.07628000  0.69746000  0.53582000  1.0
  C  C62  1  0.65676000  0.19733000  0.03567000  1.0
  C  C63  1  0.92372000  0.30254000  0.46418000  1.0
  C  C64  1  0.40225000  0.72714000  0.04881000  1.0
  C  C65  1  0.12614000  0.77284000  0.45121000  1.0
  C  C66  1  0.59775000  0.27286000  0.95119000  1.0
  C  C67  1  0.87386000  0.22716000  0.54879000  1.0
  C  C68  1  0.81482000  0.88033000  0.86815000  1.0
  C  C69  1  0.56657000  0.61985000  0.63220000  1.0
  C  C70  1  0.18518000  0.11967000  0.13185000  1.0
  C  C71  1  0.43344000  0.38016000  0.36780000  1.0
  C  C72  1  0.35697000  0.92678000  0.81167000  1.0
  C  C73  1  0.11859000  0.57330000  0.68842000  1.0
  C  C74  1  0.64303000  0.07322000  0.18833000  1.0
  C  C75  1  0.88141000  0.42670000  0.31158000  1.0
  C  C76  1  0.41389000  0.85821000  0.89212000  1.0
  C  C77  1  0.16370000  0.64192000  0.60800000  1.0
  C  C78  1  0.58611000  0.14179000  0.10788000  1.0
  C  C79  1  0.83630000  0.35808000  0.39199000  1.0
  N  N80  1  0.02876000  0.89973000  0.86757000  1.0
  N  N81  1  0.76158000  0.60036000  0.63264000  1.0
  N  N82  1  0.97124000  0.10027000  0.13242000  1.0
  N  N83  1  0.23842000  0.39964000  0.36736000  1.0
  N  N84  1  0.99640000  0.98798000  0.80605000  1.0
  N  N85  1  0.70237000  0.51196000  0.69405000  1.0
  N  N86  1  0.00360000  0.01202000  0.19395000  1.0
  N  N87  1  0.29763000  0.48804000  0.30596000  1.0
  N  N88  1  0.86669000  0.97543000  0.80702000  1.0
  N  N89  1  0.58432000  0.52458000  0.69315000  1.0
  N  N90  1  0.13331000  0.02457000  0.19298000  1.0
  N  N91  1  0.41569000  0.47543000  0.30685000  1.0
  O  O92  1  0.57612000  0.88929000  0.52576000  1.0
  O  O93  1  0.66132000  0.61084000  0.97418000  1.0
  O  O94  1  0.42388000  0.11071000  0.47424000  1.0
  O  O95  1  0.33868000  0.38916000  0.02582000  1.0
  O  O96  1  0.88278000  0.28369000  0.83969000  1.0
  O  O97  1  0.25944000  0.21631000  0.66026000  1.0
  O  O98  1  0.11722000  0.71631000  0.16031000  1.0
  O  O99  1  0.74057000  0.78369000  0.33974000  1.0
  O  O100  1  0.52300000  0.71920000  0.05507000  1.0
  O  O101  1  0.24839000  0.78055000  0.44479000  1.0
  O  O102  1  0.47700000  0.28080000  0.94494000  1.0
  O  O103  1  0.75160000  0.21945000  0.55521000  1.0
  O  O104  1  0.37664000  0.04703000  0.66095000  1.0
  O  O105  1  0.16853000  0.45297000  0.83913000  1.0
  O  O106  1  0.62337000  0.95297000  0.33904000  1.0
  O  O107  1  0.83147000  0.54703000  0.16087000  1.0
  O  O108  1  0.55259000  0.97377000  0.74845000  1.0
  O  O109  1  0.33025000  0.52612000  0.75165000  1.0
  O  O110  1  0.44741000  0.02623000  0.25155000  1.0
  O  O111  1  0.66975000  0.47388000  0.24835000  1.0
  O  O112  1  0.33491000  0.67412000  0.11230000  1.0
  O  O113  1  0.04840000  0.82595000  0.38776000  1.0
  O  O114  1  0.66510000  0.32589000  0.88770000  1.0
  O  O115  1  0.95160000  0.17405000  0.61224000  1.0
