# generated using pymatgen
data_CdH14C16O7
_symmetry_space_group_name_H-M   'P 1'
_cell_length_a   5.97156000
_cell_length_b   7.91923000
_cell_length_c   15.28910000
_cell_angle_alpha   98.76480000
_cell_angle_beta   90.73590000
_cell_angle_gamma   93.12890000
_symmetry_Int_Tables_number   1
_chemical_formula_structural   CdH14C16O7
_chemical_formula_sum   'Cd2 H28 C32 O14'
_cell_volume   713.35129713
_cell_formula_units_Z   2
loop_
 _symmetry_equiv_pos_site_id
 _symmetry_equiv_pos_as_xyz
  1  'x, y, z'
loop_
 _atom_site_type_symbol
 _atom_site_label
 _atom_site_symmetry_multiplicity
 _atom_site_fract_x
 _atom_site_fract_y
 _atom_site_fract_z
 _atom_site_occupancy
  Cd  Cd0  1  0.77003000  0.06663000  0.94926000  1.0
  Cd  Cd1  1  0.22999000  0.93338000  0.05075000  1.0
  H  H2  1  0.00557000  0.42667000  0.85280000  1.0
  H  H3  1  0.99439000  0.57333000  0.14718000  1.0
  H  H4  1  0.86367000  0.50114000  0.76397000  1.0
  H  H5  1  0.13630000  0.49889000  0.23601000  1.0
  H  H6  1  0.54786000  0.74812000  0.75116000  1.0
  H  H7  1  0.45213000  0.25188000  0.24884000  1.0
  H  H8  1  0.71663000  0.69503000  0.60491000  1.0
  H  H9  1  0.28338000  0.30496000  0.39509000  1.0
  H  H10  1  0.15241000  0.34632000  0.51168000  1.0
  H  H11  1  0.84761000  0.65366000  0.48832000  1.0
  H  H12  1  0.99304000  0.39196000  0.65641000  1.0
  H  H13  1  0.00696000  0.60803000  0.34359000  1.0
  H  H14  1  0.30400000  0.13372000  0.73866000  1.0
  H  H15  1  0.69600000  0.86628000  0.26135000  1.0
  H  H16  1  0.43284000  0.31693000  0.80741000  1.0
  H  H17  1  0.56717000  0.68308000  0.19259000  1.0
  H  H18  1  0.96547000  0.92032000  0.75468000  1.0
  H  H19  1  0.03452000  0.07967000  0.24532000  1.0
  H  H20  1  0.15958000  0.86871000  0.61398000  1.0
  H  H21  1  0.84042000  0.13128000  0.38602000  1.0
  H  H22  1  0.68673000  0.17223000  0.49950000  1.0
  H  H23  1  0.31327000  0.82776000  0.50050000  1.0
  H  H24  1  0.50144000  0.22818000  0.63929000  1.0
  H  H25  1  0.49855000  0.77182000  0.36071000  1.0
  H  H26  1  0.56329000  0.34304000  0.03567000  1.0
  H  H27  1  0.43670000  0.65697000  0.96433000  1.0
  H  H28  1  0.70765000  0.42794000  0.96499000  1.0
  H  H29  1  0.29235000  0.57208000  0.03501000  1.0
  C  C30  1  0.84865000  0.66753000  0.88390000  1.0
  C  C31  1  0.15135000  0.33248000  0.11610000  1.0
  C  C32  1  0.97623000  0.54045000  0.82200000  1.0
  C  C33  1  0.02374000  0.45956000  0.17799000  1.0
  C  C34  1  0.25968000  0.57552000  0.71476000  1.0
  C  C35  1  0.74031000  0.42447000  0.28523000  1.0
  C  C36  1  0.46476000  0.65851000  0.69790000  1.0
  C  C37  1  0.53524000  0.34148000  0.30209000  1.0
  C  C38  1  0.55740000  0.62788000  0.61467000  1.0
  C  C39  1  0.44262000  0.37211000  0.38533000  1.0
  C  C40  1  0.45009000  0.51556000  0.54429000  1.0
  C  C41  1  0.54993000  0.48443000  0.45572000  1.0
  C  C42  1  0.24442000  0.43492000  0.56279000  1.0
  C  C43  1  0.75559000  0.56507000  0.43720000  1.0
  C  C44  1  0.15032000  0.46170000  0.64644000  1.0
  C  C45  1  0.84967000  0.53829000  0.35355000  1.0
  C  C46  1  0.28267000  0.12248000  0.87621000  1.0
  C  C47  1  0.71734000  0.87753000  0.12380000  1.0
  C  C48  1  0.41028000  0.17617000  0.79804000  1.0
  C  C49  1  0.58973000  0.82384000  0.20197000  1.0
  C  C50  1  0.72182000  0.07845000  0.70765000  1.0
  C  C51  1  0.27818000  0.92155000  0.29235000  1.0
  C  C52  1  0.90868000  0.97799000  0.69858000  1.0
  C  C53  1  0.09132000  0.02201000  0.30142000  1.0
  C  C54  1  0.01614000  0.94882000  0.61794000  1.0
  C  C55  1  0.98386000  0.05118000  0.38206000  1.0
  C  C56  1  0.94229000  0.01632000  0.54296000  1.0
  C  C57  1  0.05771000  0.98367000  0.45704000  1.0
  C  C58  1  0.75350000  0.11551000  0.55419000  1.0
  C  C59  1  0.24651000  0.88448000  0.44581000  1.0
  C  C60  1  0.64461000  0.14804000  0.63491000  1.0
  C  C61  1  0.35539000  0.85195000  0.36509000  1.0
  O  O62  1  0.18388000  0.61650000  0.79862000  1.0
  O  O63  1  0.81610000  0.38351000  0.20137000  1.0
  O  O64  1  0.62274000  0.09974000  0.78965000  1.0
  O  O65  1  0.37727000  0.90026000  0.21035000  1.0
  O  O66  1  0.90998000  0.82503000  0.88905000  1.0
  O  O67  1  0.09002000  0.17498000  0.11094000  1.0
  O  O68  1  0.68341000  0.60432000  0.92143000  1.0
  O  O69  1  0.31660000  0.39570000  0.07857000  1.0
  O  O70  1  0.08919000  0.17678000  0.88584000  1.0
  O  O71  1  0.91083000  0.82323000  0.11417000  1.0
  O  O72  1  0.37702000  0.02715000  0.92440000  1.0
  O  O73  1  0.62298000  0.97285000  0.07561000  1.0
  O  O74  1  0.70720000  0.33552000  0.00309000  1.0
  O  O75  1  0.29279000  0.66449000  0.99690000  1.0
