# generated using pymatgen
data_ZnTeH8C3N
_symmetry_space_group_name_H-M   'P 1'
_cell_length_a   6.87222000
_cell_length_b   6.93831000
_cell_length_c   26.87610000
_cell_angle_alpha   90.00010000
_cell_angle_beta   89.99950000
_cell_angle_gamma   89.99990000
_symmetry_Int_Tables_number   1
_chemical_formula_structural   ZnTeH8C3N
_chemical_formula_sum   'Zn8 Te8 H64 C24 N8'
_cell_volume   1281.49525481
_cell_formula_units_Z   8
loop_
 _symmetry_equiv_pos_site_id
 _symmetry_equiv_pos_as_xyz
  1  'x, y, z'
loop_
 _atom_site_type_symbol
 _atom_site_label
 _atom_site_symmetry_multiplicity
 _atom_site_fract_x
 _atom_site_fract_y
 _atom_site_fract_z
 _atom_site_occupancy
  Zn  Zn0  1  0.81057000  0.40906000  0.71629000  1.0
  Zn  Zn1  1  0.18944000  0.09094000  0.21630000  1.0
  Zn  Zn2  1  0.31056000  0.59093000  0.78370000  1.0
  Zn  Zn3  1  0.68944000  0.90907000  0.28370000  1.0
  Zn  Zn4  1  0.18943000  0.59094000  0.28371000  1.0
  Zn  Zn5  1  0.81057000  0.90907000  0.78371000  1.0
  Zn  Zn6  1  0.68943000  0.40906000  0.21629000  1.0
  Zn  Zn7  1  0.31057000  0.09094000  0.71629000  1.0
  Te  Te8  1  0.18601000  0.44563000  0.69929000  1.0
  Te  Te9  1  0.81399000  0.05437000  0.19929000  1.0
  Te  Te10  1  0.68601000  0.55437000  0.80070000  1.0
  Te  Te11  1  0.31399000  0.94563000  0.30071000  1.0
  Te  Te12  1  0.81398000  0.55437000  0.30070000  1.0
  Te  Te13  1  0.18602000  0.94563000  0.80070000  1.0
  Te  Te14  1  0.31399000  0.44563000  0.19930000  1.0
  Te  Te15  1  0.68602000  0.05437000  0.69930000  1.0
  H  H16  1  0.52724000  0.55243000  0.66765000  1.0
  H  H17  1  0.47276000  0.94756000  0.16765000  1.0
  H  H18  1  0.02724000  0.44756000  0.83235000  1.0
  H  H19  1  0.97276000  0.05244000  0.33235000  1.0
  H  H20  1  0.47276000  0.44757000  0.33235000  1.0
  H  H21  1  0.52724000  0.05244000  0.83235000  1.0
  H  H22  1  0.97276000  0.55244000  0.16765000  1.0
  H  H23  1  0.02724000  0.94757000  0.66765000  1.0
  H  H24  1  0.70850000  0.70381000  0.65967000  1.0
  H  H25  1  0.29150000  0.79617000  0.15967000  1.0
  H  H26  1  0.20850000  0.29617000  0.84033000  1.0
  H  H27  1  0.79150000  0.20382000  0.34033000  1.0
  H  H28  1  0.29150000  0.29619000  0.34033000  1.0
  H  H29  1  0.70850000  0.20384000  0.84033000  1.0
  H  H30  1  0.79150000  0.70383000  0.15967000  1.0
  H  H31  1  0.20850000  0.79618000  0.65967000  1.0
  H  H32  1  0.68064000  0.32289000  0.61037000  1.0
  H  H33  1  0.31937000  0.17711000  0.11037000  1.0
  H  H34  1  0.18063000  0.67710000  0.88963000  1.0
  H  H35  1  0.81937000  0.82289000  0.38963000  1.0
  H  H36  1  0.31935000  0.67711000  0.38964000  1.0
  H  H37  1  0.68064000  0.82291000  0.88964000  1.0
  H  H38  1  0.81937000  0.32290000  0.11037000  1.0
  H  H39  1  0.18064000  0.17711000  0.61036000  1.0
  H  H40  1  0.85078000  0.50614000  0.59640000  1.0
  H  H41  1  0.14922000  0.99386000  0.09640000  1.0
  H  H42  1  0.35078000  0.49385000  0.90359000  1.0
  H  H43  1  0.64921000  0.00614000  0.40360000  1.0
  H  H44  1  0.14921000  0.49385000  0.40360000  1.0
  H  H45  1  0.85079000  0.00616000  0.90360000  1.0
  H  H46  1  0.64923000  0.50615000  0.09640000  1.0
  H  H47  1  0.35079000  0.99385000  0.59640000  1.0
  H  H48  1  0.40716000  0.54142000  0.58392000  1.0
  H  H49  1  0.59284000  0.95855000  0.08392000  1.0
  H  H50  1  0.90717000  0.45854000  0.91608000  1.0
  H  H51  1  0.09283000  0.04144000  0.41608000  1.0
  H  H52  1  0.59283000  0.45857000  0.41608000  1.0
  H  H53  1  0.40717000  0.04146000  0.91609000  1.0
  H  H54  1  0.09285000  0.54144000  0.08392000  1.0
  H  H55  1  0.90716000  0.95856000  0.58392000  1.0
  H  H56  1  0.57824000  0.71866000  0.56574000  1.0
  H  H57  1  0.42174000  0.78133000  0.06574000  1.0
  H  H58  1  0.07827000  0.28132000  0.93426000  1.0
  H  H59  1  0.92174000  0.21867000  0.43426000  1.0
  H  H60  1  0.42174000  0.28133000  0.43426000  1.0
  H  H61  1  0.57827000  0.21869000  0.93426000  1.0
  H  H62  1  0.92175000  0.71867000  0.06574000  1.0
  H  H63  1  0.07826000  0.78133000  0.56574000  1.0
  H  H64  1  0.56014000  0.30697000  0.52342000  1.0
  H  H65  1  0.43984000  0.19301000  0.02342000  1.0
  H  H66  1  0.06016000  0.69301000  0.97658000  1.0
  H  H67  1  0.93984000  0.80699000  0.47658000  1.0
  H  H68  1  0.43983000  0.69301000  0.47658000  1.0
  H  H69  1  0.56018000  0.80699000  0.97658000  1.0
  H  H70  1  0.93984000  0.30698000  0.02342000  1.0
  H  H71  1  0.06015000  0.19302000  0.52342000  1.0
  H  H72  1  0.72271000  0.48858000  0.50381000  1.0
  H  H73  1  0.27729000  0.01140000  0.00381000  1.0
  H  H74  1  0.22273000  0.51140000  0.99619000  1.0
  H  H75  1  0.77727000  0.98859000  0.49619000  1.0
  H  H76  1  0.27726000  0.51140000  0.49619000  1.0
  H  H77  1  0.72273000  0.98860000  0.99619000  1.0
  H  H78  1  0.77728000  0.48860000  0.00381000  1.0
  H  H79  1  0.22272000  0.01142000  0.50381000  1.0
  C  C80  1  0.69898000  0.48045000  0.60774000  1.0
  C  C81  1  0.30101000  0.01954000  0.10774000  1.0
  C  C82  1  0.19899000  0.51953000  0.89226000  1.0
  C  C83  1  0.80101000  0.98046000  0.39226000  1.0
  C  C84  1  0.30101000  0.51954000  0.39226000  1.0
  C  C85  1  0.69900000  0.98048000  0.89226000  1.0
  C  C86  1  0.80102000  0.48047000  0.10774000  1.0
  C  C87  1  0.19898000  0.01954000  0.60774000  1.0
  C  C88  1  0.55641000  0.56173000  0.56959000  1.0
  C  C89  1  0.44357000  0.93826000  0.06959000  1.0
  C  C90  1  0.05643000  0.43825000  0.93041000  1.0
  C  C91  1  0.94357000  0.06174000  0.43041000  1.0
  C  C92  1  0.44356000  0.43826000  0.43041000  1.0
  C  C93  1  0.55645000  0.06175000  0.93042000  1.0
  C  C94  1  0.94358000  0.56174000  0.06959000  1.0
  C  C95  1  0.05642000  0.93826000  0.56959000  1.0
  C  C96  1  0.57508000  0.46453000  0.51883000  1.0
  C  C97  1  0.42491000  0.03546000  0.01883000  1.0
  C  C98  1  0.07510000  0.53546000  0.98117000  1.0
  C  C99  1  0.92490000  0.96454000  0.48117000  1.0
  C  C100  1  0.42489000  0.53546000  0.48117000  1.0
  C  C101  1  0.57511000  0.96454000  0.98117000  1.0
  C  C102  1  0.92491000  0.46453000  0.01883000  1.0
  C  C103  1  0.07509000  0.03547000  0.51883000  1.0
  N  N104  1  0.67277000  0.55958000  0.65815000  1.0
  N  N105  1  0.32723000  0.94043000  0.15816000  1.0
  N  N106  1  0.17277000  0.44042000  0.84184000  1.0
  N  N107  1  0.82723000  0.05958000  0.34185000  1.0
  N  N108  1  0.32722000  0.44042000  0.34184000  1.0
  N  N109  1  0.67277000  0.05958000  0.84185000  1.0
  N  N110  1  0.82724000  0.55958000  0.15816000  1.0
  N  N111  1  0.17277000  0.94042000  0.65815000  1.0
