# generated using pymatgen
data_NiH10C4(NCl)2
_symmetry_space_group_name_H-M   'P 1'
_cell_length_a   6.19305000
_cell_length_b   7.87761000
_cell_length_c   7.87759000
_cell_angle_alpha   107.88300000
_cell_angle_beta   90.78230000
_cell_angle_gamma   90.78240000
_symmetry_Int_Tables_number   1
_chemical_formula_structural   NiH10C4(NCl)2
_chemical_formula_sum   'Ni2 H20 C8 N4 Cl4'
_cell_volume   365.65290930
_cell_formula_units_Z   2
loop_
 _symmetry_equiv_pos_site_id
 _symmetry_equiv_pos_as_xyz
  1  'x, y, z'
loop_
 _atom_site_type_symbol
 _atom_site_label
 _atom_site_symmetry_multiplicity
 _atom_site_fract_x
 _atom_site_fract_y
 _atom_site_fract_z
 _atom_site_occupancy
  Ni  Ni0  1  0.75000000  0.07344000  0.92656000  1.0
  Ni  Ni1  1  0.25000000  0.92656000  0.07344000  1.0
  H  H2  1  0.06926000  0.26812000  0.00354000  1.0
  H  H3  1  0.43075000  0.99645000  0.73188000  1.0
  H  H4  1  0.93074000  0.73188000  0.99646000  1.0
  H  H5  1  0.56926000  0.00355000  0.26812000  1.0
  H  H6  1  0.70519000  0.51273000  0.09192000  1.0
  H  H7  1  0.79481000  0.90808000  0.48727000  1.0
  H  H8  1  0.29481000  0.48727000  0.90807000  1.0
  H  H9  1  0.20518000  0.09191000  0.51273000  1.0
  H  H10  1  0.83208000  0.40929000  0.23789000  1.0
  H  H11  1  0.66793000  0.76211000  0.59071000  1.0
  H  H12  1  0.16793000  0.59071000  0.76211000  1.0
  H  H13  1  0.33206000  0.23789000  0.40929000  1.0
  H  H14  1  0.02431000  0.27713000  0.70728000  1.0
  H  H15  1  0.47568000  0.29272000  0.72288000  1.0
  H  H16  1  0.97570000  0.72288000  0.29272000  1.0
  H  H17  1  0.52431000  0.70728000  0.27712000  1.0
  H  H18  1  0.81976000  0.43845000  0.78328000  1.0
  H  H19  1  0.68023000  0.21672000  0.56155000  1.0
  H  H20  1  0.18025000  0.56155000  0.21672000  1.0
  H  H21  1  0.31976000  0.78328000  0.43844000  1.0
  C  C22  1  0.85909000  0.46325000  0.12698000  1.0
  C  C23  1  0.64092000  0.87302000  0.53675000  1.0
  C  C24  1  0.14092000  0.53676000  0.87302000  1.0
  C  C25  1  0.35908000  0.12698000  0.46324000  1.0
  C  C26  1  0.97068000  0.38680000  0.82127000  1.0
  C  C27  1  0.52931000  0.17872000  0.61321000  1.0
  C  C28  1  0.02932000  0.61321000  0.17873000  1.0
  C  C29  1  0.47069000  0.82127000  0.38679000  1.0
  N  N30  1  0.92529000  0.31572000  0.97044000  1.0
  N  N31  1  0.57470000  0.02956000  0.68428000  1.0
  N  N32  1  0.07471000  0.68428000  0.02957000  1.0
  N  N33  1  0.42528000  0.97044000  0.31573000  1.0
  Cl  Cl34  1  0.07005000  0.92448000  0.78742000  1.0
  Cl  Cl35  1  0.42995000  0.21258000  0.07553000  1.0
  Cl  Cl36  1  0.92995000  0.07553000  0.21258000  1.0
  Cl  Cl37  1  0.57005000  0.78742000  0.92448000  1.0
