# generated using pymatgen
data_ZnH11C11NO5
_symmetry_space_group_name_H-M   'P 1'
_cell_length_a   7.94340000
_cell_length_b   11.61870000
_cell_length_c   14.16770000
_cell_angle_alpha   90.00000000
_cell_angle_beta   90.00000000
_cell_angle_gamma   107.49800000
_symmetry_Int_Tables_number   1
_chemical_formula_structural   ZnH11C11NO5
_chemical_formula_sum   'Zn4 H44 C44 N4 O20'
_cell_volume   1247.06073141
_cell_formula_units_Z   4
loop_
 _symmetry_equiv_pos_site_id
 _symmetry_equiv_pos_as_xyz
  1  'x, y, z'
loop_
 _atom_site_type_symbol
 _atom_site_label
 _atom_site_symmetry_multiplicity
 _atom_site_fract_x
 _atom_site_fract_y
 _atom_site_fract_z
 _atom_site_occupancy
  Zn  Zn0  1  0.41815000  0.09699000  0.99733000  1.0
  Zn  Zn1  1  0.58185000  0.40301000  0.49733000  1.0
  Zn  Zn2  1  0.58185000  0.90301000  0.00267000  1.0
  Zn  Zn3  1  0.41815000  0.59699000  0.50267000  1.0
  H  H4  1  0.04243000  0.07659000  0.84415000  1.0
  H  H5  1  0.95757000  0.42341000  0.34416000  1.0
  H  H6  1  0.95757000  0.92341000  0.15585000  1.0
  H  H7  1  0.04243000  0.57659000  0.65585000  1.0
  H  H8  1  0.27932000  0.19314000  0.73491000  1.0
  H  H9  1  0.72069000  0.30686000  0.23491000  1.0
  H  H10  1  0.72069000  0.80686000  0.26509000  1.0
  H  H11  1  0.27932000  0.69314000  0.76509000  1.0
  H  H12  1  0.93214000  0.38549000  0.62973000  1.0
  H  H13  1  0.06786000  0.11451000  0.12973000  1.0
  H  H14  1  0.06786000  0.61451000  0.37027000  1.0
  H  H15  1  0.93214000  0.88549000  0.87027000  1.0
  H  H16  1  0.69614000  0.27058000  0.73869000  1.0
  H  H17  1  0.30386000  0.22942000  0.23869000  1.0
  H  H18  1  0.30386000  0.72942000  0.26131000  1.0
  H  H19  1  0.69614000  0.77058000  0.76131000  1.0
  H  H20  1  0.51886000  0.32530000  0.89192000  1.0
  H  H21  1  0.48114000  0.17470000  0.39192000  1.0
  H  H22  1  0.48114000  0.67470000  0.10808000  1.0
  H  H23  1  0.51886000  0.82530000  0.60808000  1.0
  H  H24  1  0.55496000  0.49456000  0.82199000  1.0
  H  H25  1  0.44504000  0.00544000  0.32199000  1.0
  H  H26  1  0.44504000  0.50544000  0.17801000  1.0
  H  H27  1  0.55496000  0.99456000  0.67801000  1.0
  H  H28  1  0.46773000  0.60228000  0.87811000  1.0
  H  H29  1  0.53227000  0.89772000  0.37811000  1.0
  H  H30  1  0.53227000  0.39772000  0.12189000  1.0
  H  H31  1  0.46773000  0.10228000  0.62189000  1.0
  H  H32  1  0.35081000  0.51240000  0.78277000  1.0
  H  H33  1  0.64919000  0.98760000  0.28277000  1.0
  H  H34  1  0.64919000  0.48760000  0.21723000  1.0
  H  H35  1  0.35081000  0.01240000  0.71723000  1.0
  H  H36  1  0.12354000  0.35493000  0.00134000  1.0
  H  H37  1  0.87646000  0.14506000  0.50134000  1.0
  H  H38  1  0.87646000  0.64507000  0.99866000  1.0
  H  H39  1  0.12354000  0.85493000  0.49866000  1.0
  H  H40  1  0.07914000  0.42449000  0.89497000  1.0
  H  H41  1  0.92086000  0.07550000  0.39497000  1.0
  H  H42  1  0.92086000  0.57551000  0.10503000  1.0
  H  H43  1  0.07914000  0.92449000  0.60503000  1.0
  H  H44  1  0.20049000  0.51641000  0.98816000  1.0
  H  H45  1  0.79951000  0.98359000  0.48816000  1.0
  H  H46  1  0.79951000  0.48359000  0.01184000  1.0
  H  H47  1  0.20049000  0.01641000  0.51184000  1.0
  C  C48  1  0.85443000  0.16571000  0.79715000  1.0
  C  C49  1  0.14557000  0.33429000  0.29715000  1.0
  C  C50  1  0.14557000  0.83429000  0.20285000  1.0
  C  C51  1  0.85443000  0.66571000  0.70285000  1.0
  C  C52  1  0.01809000  0.14295000  0.79611000  1.0
  C  C53  1  0.98191000  0.35705000  0.29612000  1.0
  C  C54  1  0.98191000  0.85705000  0.20389000  1.0
  C  C55  1  0.01809000  0.64295000  0.70389000  1.0
  C  C56  1  0.15029000  0.20803000  0.73568000  1.0
  C  C57  1  0.84971000  0.29197000  0.23568000  1.0
  C  C58  1  0.84971000  0.79197000  0.26432000  1.0
  C  C59  1  0.15029000  0.70803000  0.76432000  1.0
  C  C60  1  0.11977000  0.29599000  0.67623000  1.0
  C  C61  1  0.88022000  0.20401000  0.17623000  1.0
  C  C62  1  0.88023000  0.70401000  0.32377000  1.0
  C  C63  1  0.11977000  0.79599000  0.82377000  1.0
  C  C64  1  0.95591000  0.31817000  0.67684000  1.0
  C  C65  1  0.04409000  0.18183000  0.17684000  1.0
  C  C66  1  0.04409000  0.68183000  0.32316000  1.0
  C  C67  1  0.95591000  0.81817000  0.82316000  1.0
  C  C68  1  0.82374000  0.25347000  0.73743000  1.0
  C  C69  1  0.17626000  0.24652000  0.23743000  1.0
  C  C70  1  0.17626000  0.74652000  0.26257000  1.0
  C  C71  1  0.82374000  0.75347000  0.76257000  1.0
  C  C72  1  0.71506000  0.09824000  0.86434000  1.0
  C  C73  1  0.28494000  0.40176000  0.36434000  1.0
  C  C74  1  0.28494000  0.90176000  0.13566000  1.0
  C  C75  1  0.71506000  0.59824000  0.63566000  1.0
  C  C76  1  0.26304000  0.36812000  0.61305000  1.0
  C  C77  1  0.73696000  0.13188000  0.11305000  1.0
  C  C78  1  0.73696000  0.63188000  0.38695000  1.0
  C  C79  1  0.26304000  0.86812000  0.88695000  1.0
  C  C80  1  0.39634000  0.32475000  0.92876000  1.0
  C  C81  1  0.60366000  0.17525000  0.42877000  1.0
  C  C82  1  0.60366000  0.67525000  0.07124000  1.0
  C  C83  1  0.39634000  0.82475000  0.57123000  1.0
  C  C84  1  0.43363000  0.51271000  0.84499000  1.0
  C  C85  1  0.56637000  0.98729000  0.34499000  1.0
  C  C86  1  0.56637000  0.48729000  0.15501000  1.0
  C  C87  1  0.43363000  0.01271000  0.65501000  1.0
  C  C88  1  0.17570000  0.42934000  0.95168000  1.0
  C  C89  1  0.82430000  0.07066000  0.45168000  1.0
  C  C90  1  0.82430000  0.57066000  0.04832000  1.0
  C  C91  1  0.17570000  0.92934000  0.54832000  1.0
  N  N92  1  0.34001000  0.41983000  0.91163000  1.0
  N  N93  1  0.65999000  0.08017000  0.41163000  1.0
  N  N94  1  0.65999000  0.58017000  0.08837000  1.0
  N  N95  1  0.34001000  0.91983000  0.58837000  1.0
  O  O96  1  0.59847000  0.14808000  0.88775000  1.0
  O  O97  1  0.40153000  0.35192000  0.38775000  1.0
  O  O98  1  0.40153000  0.85192000  0.11225000  1.0
  O  O99  1  0.59847000  0.64808000  0.61225000  1.0
  O  O100  1  0.72492000  0.99665000  0.89318000  1.0
  O  O101  1  0.27508000  0.50335000  0.39318000  1.0
  O  O102  1  0.27508000  0.00335000  0.10682000  1.0
  O  O103  1  0.72493000  0.49665000  0.60682000  1.0
  O  O104  1  0.25571000  0.47266000  0.59053000  1.0
  O  O105  1  0.74428000  0.02734000  0.09053000  1.0
  O  O106  1  0.74428000  0.52734000  0.40947000  1.0
  O  O107  1  0.25572000  0.97266000  0.90947000  1.0
  O  O108  1  0.38015000  0.31971000  0.58772000  1.0
  O  O109  1  0.61985000  0.18029000  0.08772000  1.0
  O  O110  1  0.61985000  0.68029000  0.41228000  1.0
  O  O111  1  0.38015000  0.81971000  0.91228000  1.0
  O  O112  1  0.31850000  0.23873000  0.98259000  1.0
  O  O113  1  0.68150000  0.26127000  0.48259000  1.0
  O  O114  1  0.68150000  0.76127000  0.01741000  1.0
  O  O115  1  0.31850000  0.73873000  0.51741000  1.0
