# generated using pymatgen
data_H14PbC14(NO)8
_symmetry_space_group_name_H-M   'P 1'
_cell_length_a   6.86820000
_cell_length_b   9.21973000
_cell_length_c   13.52760000
_cell_angle_alpha   89.99900000
_cell_angle_beta   93.22550000
_cell_angle_gamma   89.99720000
_symmetry_Int_Tables_number   1
_chemical_formula_structural   H14PbC14(NO)8
_chemical_formula_sum   'H28 Pb2 C28 N16 O16'
_cell_volume   855.25051233
_cell_formula_units_Z   2
loop_
 _symmetry_equiv_pos_site_id
 _symmetry_equiv_pos_as_xyz
  1  'x, y, z'
loop_
 _atom_site_type_symbol
 _atom_site_label
 _atom_site_symmetry_multiplicity
 _atom_site_fract_x
 _atom_site_fract_y
 _atom_site_fract_z
 _atom_site_occupancy
  H  H0  1  0.84998000  0.19172000  0.73854000  1.0
  H  H1  1  0.65004000  0.69168000  0.76146000  1.0
  H  H2  1  0.15003000  0.80830000  0.26147000  1.0
  H  H3  1  0.34997000  0.30832000  0.23853000  1.0
  H  H4  1  0.01936000  0.04684000  0.74530000  1.0
  H  H5  1  0.48064000  0.54687000  0.75469000  1.0
  H  H6  1  0.98068000  0.95318000  0.25472000  1.0
  H  H7  1  0.51934000  0.45312000  0.24528000  1.0
  H  H8  1  0.57946000  0.97242000  0.29026000  1.0
  H  H9  1  0.92053000  0.47246000  0.20975000  1.0
  H  H10  1  0.42061000  0.02756000  0.70977000  1.0
  H  H11  1  0.07943000  0.52760000  0.79027000  1.0
  H  H12  1  0.71334000  0.24632000  0.59648000  1.0
  H  H13  1  0.78660000  0.74632000  0.90352000  1.0
  H  H14  1  0.28667000  0.75371000  0.40353000  1.0
  H  H15  1  0.21329000  0.25370000  0.09645000  1.0
  H  H16  1  0.70574000  0.71002000  0.28772000  1.0
  H  H17  1  0.79421000  0.21010000  0.21232000  1.0
  H  H18  1  0.29422000  0.28995000  0.71234000  1.0
  H  H19  1  0.20574000  0.78998000  0.78768000  1.0
  H  H20  1  0.68908000  0.29160000  0.40796000  1.0
  H  H21  1  0.81089000  0.79163000  0.09200000  1.0
  H  H22  1  0.31081000  0.70832000  0.59197000  1.0
  H  H23  1  0.18914000  0.20836000  0.90799000  1.0
  H  H24  1  0.57826000  0.44081000  0.40397000  1.0
  H  H25  1  0.92174000  0.94083000  0.09603000  1.0
  H  H26  1  0.42168000  0.55914000  0.59598000  1.0
  H  H27  1  0.07833000  0.05919000  0.90400000  1.0
  Pb  Pb28  1  0.99978000  0.49998000  0.49997000  1.0
  Pb  Pb29  1  0.50022000  0.00000000  0.00001000  1.0
  C  C30  1  0.85177000  0.89021000  0.59894000  1.0
  C  C31  1  0.64830000  0.39024000  0.90107000  1.0
  C  C32  1  0.14826000  0.10977000  0.40111000  1.0
  C  C33  1  0.35181000  0.60976000  0.09890000  1.0
  C  C34  1  0.79691000  0.86776000  0.49663000  1.0
  C  C35  1  0.70306000  0.36781000  0.00340000  1.0
  C  C36  1  0.20312000  0.13221000  0.50342000  1.0
  C  C37  1  0.29690000  0.63221000  0.99659000  1.0
  C  C38  1  0.86549000  0.07381000  0.73036000  1.0
  C  C39  1  0.63451000  0.57380000  0.76964000  1.0
  C  C40  1  0.13454000  0.92620000  0.26967000  1.0
  C  C41  1  0.36545000  0.42619000  0.23035000  1.0
  C  C42  1  0.71192000  0.98028000  0.43969000  1.0
  C  C43  1  0.78807000  0.48031000  0.06032000  1.0
  C  C44  1  0.28809000  0.01969000  0.56035000  1.0
  C  C45  1  0.21192000  0.51971000  0.93966000  1.0
  C  C46  1  0.73214000  0.13836000  0.56516000  1.0
  C  C47  1  0.76784000  0.63837000  0.93480000  1.0
  C  C48  1  0.26784000  0.86163000  0.43484000  1.0
  C  C49  1  0.23219000  0.36162000  0.06515000  1.0
  C  C50  1  0.72590000  0.78093000  0.35140000  1.0
  C  C51  1  0.77406000  0.28097000  0.14861000  1.0
  C  C52  1  0.27414000  0.21905000  0.64864000  1.0
  C  C53  1  0.22585000  0.71909000  0.85138000  1.0
  C  C54  1  0.74865000  0.00078000  0.80939000  1.0
  C  C55  1  0.75140000  0.50079000  0.69059000  1.0
  C  C56  1  0.25134000  0.99929000  0.19061000  1.0
  C  C57  1  0.24854000  0.49918000  0.30940000  1.0
  N  N58  1  0.68130000  0.11776000  0.47101000  1.0
  N  N59  1  0.81865000  0.61779000  0.02895000  1.0
  N  N60  1  0.31872000  0.88221000  0.52900000  1.0
  N  N61  1  0.18130000  0.38221000  0.97101000  1.0
  N  N62  1  0.80852000  0.03507000  0.62830000  1.0
  N  N63  1  0.69143000  0.53509000  0.87169000  1.0
  N  N64  1  0.19149000  0.96494000  0.37173000  1.0
  N  N65  1  0.30852000  0.46494000  0.12829000  1.0
  N  N66  1  0.80674000  0.74428000  0.43959000  1.0
  N  N67  1  0.69332000  0.24430000  0.06042000  1.0
  N  N68  1  0.19335000  0.25572000  0.56046000  1.0
  N  N69  1  0.30676000  0.75571000  0.93955000  1.0
  N  N70  1  0.66716000  0.92291000  0.34774000  1.0
  N  N71  1  0.83286000  0.42294000  0.15227000  1.0
  N  N72  1  0.33290000  0.07706000  0.65230000  1.0
  N  N73  1  0.16717000  0.57708000  0.84771000  1.0
  O  O74  1  0.92774000  0.80285000  0.65929000  1.0
  O  O75  1  0.57234000  0.30293000  0.84071000  1.0
  O  O76  1  0.07231000  0.19713000  0.34073000  1.0
  O  O77  1  0.42773000  0.69711000  0.15927000  1.0
  O  O78  1  0.83305000  0.99530000  0.89548000  1.0
  O  O79  1  0.66690000  0.49523000  0.60455000  1.0
  O  O80  1  0.16693000  0.00475000  0.10455000  1.0
  O  O81  1  0.33301000  0.50471000  0.39545000  1.0
  O  O82  1  0.57721000  0.95357000  0.78948000  1.0
  O  O83  1  0.92283000  0.45360000  0.71052000  1.0
  O  O84  1  0.42285000  0.04638000  0.21051000  1.0
  O  O85  1  0.07711000  0.54646000  0.28949000  1.0
  O  O86  1  0.70564000  0.39538000  0.39014000  1.0
  O  O87  1  0.79434000  0.89540000  0.10985000  1.0
  O  O88  1  0.29428000  0.60455000  0.60980000  1.0
  O  O89  1  0.20572000  0.10457000  0.89017000  1.0
