# generated using pymatgen
data_HgH14C14(BrN2)2
_symmetry_space_group_name_H-M   'P 1'
_cell_length_a   7.68109000
_cell_length_b   8.29965000
_cell_length_c   13.60310000
_cell_angle_alpha   88.07270000
_cell_angle_beta   80.83800000
_cell_angle_gamma   73.85300000
_symmetry_Int_Tables_number   1
_chemical_formula_structural   HgH14C14(BrN2)2
_chemical_formula_sum   'Hg2 H28 C28 Br4 N8'
_cell_volume   822.31342371
_cell_formula_units_Z   2
loop_
 _symmetry_equiv_pos_site_id
 _symmetry_equiv_pos_as_xyz
  1  'x, y, z'
loop_
 _atom_site_type_symbol
 _atom_site_label
 _atom_site_symmetry_multiplicity
 _atom_site_fract_x
 _atom_site_fract_y
 _atom_site_fract_z
 _atom_site_occupancy
  Hg  Hg0  1  0.58719000  0.73465000  0.73985000  1.0
  Hg  Hg1  1  0.41283000  0.26534000  0.26016000  1.0
  H  H2  1  0.00332000  0.62942000  0.59176000  1.0
  H  H3  1  0.99666000  0.37058000  0.40824000  1.0
  H  H4  1  0.27534000  0.73968000  0.54098000  1.0
  H  H5  1  0.72466000  0.26031000  0.45903000  1.0
  H  H6  1  0.94102000  0.21715000  0.66967000  1.0
  H  H7  1  0.05895000  0.78287000  0.33030000  1.0
  H  H8  1  0.68716000  0.08735000  0.71565000  1.0
  H  H9  1  0.31282000  0.91266000  0.28434000  1.0
  H  H10  1  0.37324000  0.28807000  0.55039000  1.0
  H  H11  1  0.62678000  0.71191000  0.44960000  1.0
  H  H12  1  0.26207000  0.25692000  0.67204000  1.0
  H  H13  1  0.73792000  0.74306000  0.32796000  1.0
  H  H14  1  0.12977000  0.32322000  0.57441000  1.0
  H  H15  1  0.87024000  0.67678000  0.42558000  1.0
  H  H16  1  0.00040000  0.46490000  0.75785000  1.0
  H  H17  1  0.99963000  0.53509000  0.24215000  1.0
  H  H18  1  0.27622000  0.44366000  0.83946000  1.0
  H  H19  1  0.72381000  0.55633000  0.16053000  1.0
  H  H20  1  0.93657000  0.84562000  0.03746000  1.0
  H  H21  1  0.06347000  0.15438000  0.96253000  1.0
  H  H22  1  0.67749000  0.84762000  0.94922000  1.0
  H  H23  1  0.32254000  0.15238000  0.05078000  1.0
  H  H24  1  0.38495000  0.72418000  0.11857000  1.0
  H  H25  1  0.61507000  0.27583000  0.88143000  1.0
  H  H26  1  0.14275000  0.75145000  0.13898000  1.0
  H  H27  1  0.85727000  0.24856000  0.86102000  1.0
  H  H28  1  0.23692000  0.88155000  0.05338000  1.0
  H  H29  1  0.76311000  0.11846000  0.94661000  1.0
  C  C30  1  0.99657000  0.75904000  0.60839000  1.0
  C  C31  1  0.00342000  0.24096000  0.39161000  1.0
  C  C32  1  0.14767000  0.82022000  0.58012000  1.0
  C  C33  1  0.85232000  0.17977000  0.41988000  1.0
  C  C34  1  0.13282000  0.98880000  0.60127000  1.0
  C  C35  1  0.86717000  0.01120000  0.39873000  1.0
  C  C36  1  0.96447000  0.08534000  0.65188000  1.0
  C  C37  1  0.03551000  0.91467000  0.34810000  1.0
  C  C38  1  0.82009000  0.01402000  0.67733000  1.0
  C  C39  1  0.17989000  0.98599000  0.32266000  1.0
  C  C40  1  0.28488000  0.06401000  0.56763000  1.0
  C  C41  1  0.71511000  0.93599000  0.43236000  1.0
  C  C42  1  0.26152000  0.24410000  0.59178000  1.0
  C  C43  1  0.73848000  0.75589000  0.40822000  1.0
  C  C44  1  0.99299000  0.54680000  0.82044000  1.0
  C  C45  1  0.00704000  0.45320000  0.17956000  1.0
  C  C46  1  0.14594000  0.53526000  0.86541000  1.0
  C  C47  1  0.85409000  0.46473000  0.13459000  1.0
  C  C48  1  0.13028000  0.64329000  0.94589000  1.0
  C  C49  1  0.86974000  0.35671000  0.05411000  1.0
  C  C50  1  0.95904000  0.75875000  0.97553000  1.0
  C  C51  1  0.04098000  0.24125000  0.02447000  1.0
  C  C52  1  0.81282000  0.76068000  0.92660000  1.0
  C  C53  1  0.18721000  0.23932000  0.07340000  1.0
  C  C54  1  0.28461000  0.63114000  0.00062000  1.0
  C  C55  1  0.71542000  0.36886000  0.99938000  1.0
  C  C56  1  0.26218000  0.75363000  0.08297000  1.0
  C  C57  1  0.73785000  0.24638000  0.91703000  1.0
  Br  Br58  1  0.37726000  0.99542000  0.83251000  1.0
  Br  Br59  1  0.62276000  0.00460000  0.16750000  1.0
  Br  Br60  1  0.61023000  0.47366000  0.64433000  1.0
  Br  Br61  1  0.38942000  0.52631000  0.35581000  1.0
  N  N62  1  0.83478000  0.85387000  0.65577000  1.0
  N  N63  1  0.16521000  0.14614000  0.34422000  1.0
  N  N64  1  0.43082000  0.96373000  0.51665000  1.0
  N  N65  1  0.56916000  0.03627000  0.48334000  1.0
  N  N66  1  0.43014000  0.50716000  0.97303000  1.0
  N  N67  1  0.56989000  0.49284000  0.02697000  1.0
  N  N68  1  0.82859000  0.65665000  0.85036000  1.0
  N  N69  1  0.17144000  0.34335000  0.14964000  1.0
