# generated using pymatgen
data_SnH22C18N2O3
_symmetry_space_group_name_H-M   'P 1'
_cell_length_a   8.59681000
_cell_length_b   14.34290000
_cell_length_c   18.07870000
_cell_angle_alpha   89.99970000
_cell_angle_beta   89.99970000
_cell_angle_gamma   75.22000000
_symmetry_Int_Tables_number   1
_chemical_formula_structural   SnH22C18N2O3
_chemical_formula_sum   'Sn4 H88 C72 N8 O12'
_cell_volume   2155.40393001
_cell_formula_units_Z   4
loop_
 _symmetry_equiv_pos_site_id
 _symmetry_equiv_pos_as_xyz
  1  'x, y, z'
loop_
 _atom_site_type_symbol
 _atom_site_label
 _atom_site_symmetry_multiplicity
 _atom_site_fract_x
 _atom_site_fract_y
 _atom_site_fract_z
 _atom_site_occupancy
  Sn  Sn0  1  0.72150000  0.23967000  0.03711000  1.0
  Sn  Sn1  1  0.77853000  0.76033000  0.53711000  1.0
  Sn  Sn2  1  0.27850000  0.76033000  0.96290000  1.0
  Sn  Sn3  1  0.22148000  0.23967000  0.46289000  1.0
  H  H4  1  0.03748000  0.11804000  0.81977000  1.0
  H  H5  1  0.46254000  0.88196000  0.31977000  1.0
  H  H6  1  0.96250000  0.88196000  0.18023000  1.0
  H  H7  1  0.53748000  0.11803000  0.68022000  1.0
  H  H8  1  0.07916000  0.38568000  0.94517000  1.0
  H  H9  1  0.42085000  0.61434000  0.44518000  1.0
  H  H10  1  0.92084000  0.61434000  0.05481000  1.0
  H  H11  1  0.57915000  0.38566000  0.55481000  1.0
  H  H12  1  0.25048000  0.46245000  0.86601000  1.0
  H  H13  1  0.24952000  0.53757000  0.36603000  1.0
  H  H14  1  0.74952000  0.53755000  0.13395000  1.0
  H  H15  1  0.75047000  0.46244000  0.63396000  1.0
  H  H16  1  0.35395000  0.38686000  0.74540000  1.0
  H  H17  1  0.14603000  0.61315000  0.24542000  1.0
  H  H18  1  0.64604000  0.61312000  0.25457000  1.0
  H  H19  1  0.85394000  0.38686000  0.75458000  1.0
  H  H20  1  0.28482000  0.23578000  0.70482000  1.0
  H  H21  1  0.21517000  0.76423000  0.20483000  1.0
  H  H22  1  0.71519000  0.76419000  0.29518000  1.0
  H  H23  1  0.78480000  0.23579000  0.79517000  1.0
  H  H24  1  0.98370000  0.99178000  0.78977000  1.0
  H  H25  1  0.51633000  0.00822000  0.28977000  1.0
  H  H26  1  0.01629000  0.00820000  0.21023000  1.0
  H  H27  1  0.48369000  0.99178000  0.71023000  1.0
  H  H28  1  0.23627000  0.03818000  0.59093000  1.0
  H  H29  1  0.26376000  0.96182000  0.09093000  1.0
  H  H30  1  0.76373000  0.96181000  0.40907000  1.0
  H  H31  1  0.73625000  0.03819000  0.90907000  1.0
  H  H32  1  0.62839000  0.42171000  0.09122000  1.0
  H  H33  1  0.87161000  0.57829000  0.59123000  1.0
  H  H34  1  0.37159000  0.57829000  0.90879000  1.0
  H  H35  1  0.12839000  0.42171000  0.40878000  1.0
  H  H36  1  0.83611000  0.37045000  0.11303000  1.0
  H  H37  1  0.66389000  0.62956000  0.61304000  1.0
  H  H38  1  0.16388000  0.62957000  0.88699000  1.0
  H  H39  1  0.33611000  0.37044000  0.38697000  1.0
  H  H40  1  0.68046000  0.34022000  0.16718000  1.0
  H  H41  1  0.81954000  0.65980000  0.66718000  1.0
  H  H42  1  0.31952000  0.65978000  0.83283000  1.0
  H  H43  1  0.18046000  0.34022000  0.33282000  1.0
  H  H44  1  0.78795000  0.06539000  0.10911000  1.0
  H  H45  1  0.71204000  0.93461000  0.60910000  1.0
  H  H46  1  0.21206000  0.93462000  0.89090000  1.0
  H  H47  1  0.28795000  0.06538000  0.39090000  1.0
  H  H48  1  0.96635000  0.10734000  0.09948000  1.0
  H  H49  1  0.53365000  0.89266000  0.59947000  1.0
  H  H50  1  0.03365000  0.89268000  0.90053000  1.0
  H  H51  1  0.46635000  0.10733000  0.40053000  1.0
  H  H52  1  0.89341000  0.05409000  0.02250000  1.0
  H  H53  1  0.60660000  0.94590000  0.52249000  1.0
  H  H54  1  0.10660000  0.94592000  0.97752000  1.0
  H  H55  1  0.39340000  0.05409000  0.47751000  1.0
  H  H56  1  0.60264000  0.33207000  0.91170000  1.0
  H  H57  1  0.89740000  0.66793000  0.41170000  1.0
  H  H58  1  0.39737000  0.66793000  0.08831000  1.0
  H  H59  1  0.10261000  0.33206000  0.58830000  1.0
  H  H60  1  0.44586000  0.29374000  0.95876000  1.0
  H  H61  1  0.05417000  0.70627000  0.45876000  1.0
  H  H62  1  0.55414000  0.70626000  0.04125000  1.0
  H  H63  1  0.94584000  0.29373000  0.54124000  1.0
  H  H64  1  0.59144000  0.21014000  0.90407000  1.0
  H  H65  1  0.90858000  0.78987000  0.40407000  1.0
  H  H66  1  0.40857000  0.78986000  0.09594000  1.0
  H  H67  1  0.09142000  0.21013000  0.59593000  1.0
  H  H68  1  0.88254000  0.85165000  0.80256000  1.0
  H  H69  1  0.61748000  0.14835000  0.30256000  1.0
  H  H70  1  0.11748000  0.14833000  0.19744000  1.0
  H  H71  1  0.38253000  0.85164000  0.69745000  1.0
  H  H72  1  0.98937000  0.75171000  0.74787000  1.0
  H  H73  1  0.51064000  0.24829000  0.24786000  1.0
  H  H74  1  0.01065000  0.24827000  0.25213000  1.0
  H  H75  1  0.48937000  0.75171000  0.75215000  1.0
  H  H76  1  0.79929000  0.82048000  0.71895000  1.0
  H  H77  1  0.70073000  0.17953000  0.21895000  1.0
  H  H78  1  0.20071000  0.17950000  0.28106000  1.0
  H  H79  1  0.29929000  0.82047000  0.78107000  1.0
  H  H80  1  0.26325000  0.92668000  0.48672000  1.0
  H  H81  1  0.23676000  0.07333000  0.98673000  1.0
  H  H82  1  0.73673000  0.07333000  0.51328000  1.0
  H  H83  1  0.76323000  0.92669000  0.01328000  1.0
  H  H84  1  0.08099000  0.89164000  0.47297000  1.0
  H  H85  1  0.41902000  0.10836000  0.97298000  1.0
  H  H86  1  0.91902000  0.10835000  0.52702000  1.0
  H  H87  1  0.58097000  0.89166000  0.02702000  1.0
  H  H88  1  0.24961000  0.80782000  0.50956000  1.0
  H  H89  1  0.25040000  0.19219000  0.00956000  1.0
  H  H90  1  0.75039000  0.19219000  0.49043000  1.0
  H  H91  1  0.74960000  0.80782000  0.99045000  1.0
  C  C92  1  0.98047000  0.22659000  0.91929000  1.0
  C  C93  1  0.51955000  0.77341000  0.41929000  1.0
  C  C94  1  0.01953000  0.77342000  0.08071000  1.0
  C  C95  1  0.48046000  0.22658000  0.58070000  1.0
  C  C96  1  0.08796000  0.26833000  0.87121000  1.0
  C  C97  1  0.41205000  0.73168000  0.37122000  1.0
  C  C98  1  0.91203000  0.73168000  0.12878000  1.0
  C  C99  1  0.58796000  0.26832000  0.62878000  1.0
  C  C100  1  0.12628000  0.35382000  0.89248000  1.0
  C  C101  1  0.37372000  0.64619000  0.39249000  1.0
  C  C102  1  0.87372000  0.64618000  0.10750000  1.0
  C  C103  1  0.62626000  0.35382000  0.60751000  1.0
  C  C104  1  0.22119000  0.39645000  0.84811000  1.0
  C  C105  1  0.27881000  0.60356000  0.34813000  1.0
  C  C106  1  0.77881000  0.60355000  0.15186000  1.0
  C  C107  1  0.72118000  0.39644000  0.65187000  1.0
  C  C108  1  0.27928000  0.35397000  0.78043000  1.0
  C  C109  1  0.22071000  0.64604000  0.28045000  1.0
  C  C110  1  0.72072000  0.64601000  0.21954000  1.0
  C  C111  1  0.77926000  0.35397000  0.71955000  1.0
  C  C112  1  0.24302000  0.26953000  0.75753000  1.0
  C  C113  1  0.25697000  0.73048000  0.25755000  1.0
  C  C114  1  0.75697000  0.73045000  0.24246000  1.0
  C  C115  1  0.74301000  0.26953000  0.74245000  1.0
  C  C116  1  0.14874000  0.22614000  0.80274000  1.0
  C  C117  1  0.35127000  0.77387000  0.30275000  1.0
  C  C118  1  0.85124000  0.77385000  0.19725000  1.0
  C  C119  1  0.64873000  0.22614000  0.69725000  1.0
  C  C120  1  0.11112000  0.02585000  0.69237000  1.0
  C  C121  1  0.38891000  0.97415000  0.19237000  1.0
  C  C122  1  0.88887000  0.97413000  0.30764000  1.0
  C  C123  1  0.61110000  0.02586000  0.80763000  1.0
  C  C124  1  0.02329000  0.97087000  0.73342000  1.0
  C  C125  1  0.47674000  0.02913000  0.23342000  1.0
  C  C126  1  0.97671000  0.02912000  0.26658000  1.0
  C  C127  1  0.52328000  0.97087000  0.76658000  1.0
  C  C128  1  0.99174000  0.88973000  0.70355000  1.0
  C  C129  1  0.50829000  0.11027000  0.20355000  1.0
  C  C130  1  0.00826000  0.11025000  0.29645000  1.0
  C  C131  1  0.49173000  0.88973000  0.79645000  1.0
  C  C132  1  0.04149000  0.86156000  0.62783000  1.0
  C  C133  1  0.45852000  0.13845000  0.12784000  1.0
  C  C134  1  0.95850000  0.13843000  0.37216000  1.0
  C  C135  1  0.54149000  0.86156000  0.87217000  1.0
  C  C136  1  0.13224000  0.91672000  0.58660000  1.0
  C  C137  1  0.36778000  0.08329000  0.08661000  1.0
  C  C138  1  0.86775000  0.08328000  0.41339000  1.0
  C  C139  1  0.63224000  0.91672000  0.91340000  1.0
  C  C140  1  0.16592000  0.99551000  0.61937000  1.0
  C  C141  1  0.33410000  0.00449000  0.11937000  1.0
  C  C142  1  0.83406000  0.00448000  0.38063000  1.0
  C  C143  1  0.66592000  0.99551000  0.88063000  1.0
  C  C144  1  0.71602000  0.35720000  0.11164000  1.0
  C  C145  1  0.78399000  0.64281000  0.61164000  1.0
  C  C146  1  0.28397000  0.64281000  0.88838000  1.0
  C  C147  1  0.21602000  0.35719000  0.38837000  1.0
  C  C148  1  0.85748000  0.09906000  0.07154000  1.0
  C  C149  1  0.64253000  0.90094000  0.57153000  1.0
  C  C150  1  0.14254000  0.90095000  0.92847000  1.0
  C  C151  1  0.35747000  0.09905000  0.42847000  1.0
  C  C152  1  0.57157000  0.27241000  0.94110000  1.0
  C  C153  1  0.92845000  0.72759000  0.44110000  1.0
  C  C154  1  0.42843000  0.72759000  0.05891000  1.0
  C  C155  1  0.07156000  0.27240000  0.55890000  1.0
  C  C156  1  0.91128000  0.82558000  0.74599000  1.0
  C  C157  1  0.58874000  0.17442000  0.24599000  1.0
  C  C158  1  0.08873000  0.17440000  0.25401000  1.0
  C  C159  1  0.41127000  0.82558000  0.75402000  1.0
  C  C160  1  0.18506000  0.88450000  0.50988000  1.0
  C  C161  1  0.31495000  0.11551000  0.00989000  1.0
  C  C162  1  0.81493000  0.11550000  0.49011000  1.0
  C  C163  1  0.68505000  0.88451000  0.99012000  1.0
  N  N164  1  0.10976000  0.14162000  0.78028000  1.0
  N  N165  1  0.39025000  0.85839000  0.28028000  1.0
  N  N166  1  0.89022000  0.85837000  0.21972000  1.0
  N  N167  1  0.60975000  0.14162000  0.71971000  1.0
  N  N168  1  0.15294000  0.10515000  0.71554000  1.0
  N  N169  1  0.34708000  0.89486000  0.21554000  1.0
  N  N170  1  0.84705000  0.89484000  0.28447000  1.0
  N  N171  1  0.65293000  0.10515000  0.78446000  1.0
  O  O172  1  0.92728000  0.27482000  0.97834000  1.0
  O  O173  1  0.57274000  0.72518000  0.47834000  1.0
  O  O174  1  0.07273000  0.72519000  0.02166000  1.0
  O  O175  1  0.42727000  0.27482000  0.52165000  1.0
  O  O176  1  0.94450000  0.14960000  0.90057000  1.0
  O  O177  1  0.55552000  0.85040000  0.40057000  1.0
  O  O178  1  0.05549000  0.85041000  0.09944000  1.0
  O  O179  1  0.44450000  0.14959000  0.59943000  1.0
  O  O180  1  0.00783000  0.78783000  0.59877000  1.0
  O  O181  1  0.49218000  0.21217000  0.09877000  1.0
  O  O182  1  0.99218000  0.21215000  0.40123000  1.0
  O  O183  1  0.50783000  0.78784000  0.90124000  1.0
