# generated using pymatgen
data_KH3C2(N3O)2
_symmetry_space_group_name_H-M   'P 1'
_cell_length_a   3.68954000
_cell_length_b   8.72291000
_cell_length_c   19.87159763
_cell_angle_alpha   89.99993706
_cell_angle_beta   95.08330344
_cell_angle_gamma   89.99980000
_symmetry_Int_Tables_number   1
_chemical_formula_structural   KH3C2(N3O)2
_chemical_formula_sum   'K4 H12 C8 N24 O8'
_cell_volume   637.02271692
_cell_formula_units_Z   4
loop_
 _symmetry_equiv_pos_site_id
 _symmetry_equiv_pos_as_xyz
  1  'x, y, z'
loop_
 _atom_site_type_symbol
 _atom_site_label
 _atom_site_symmetry_multiplicity
 _atom_site_fract_x
 _atom_site_fract_y
 _atom_site_fract_z
 _atom_site_occupancy
  K  K0  1  0.16982000  0.83753000  0.27477000  1.0
  K  K1  1  0.33018000  0.33752000  0.22523000  1.0
  K  K2  1  0.83018000  0.16248000  0.72523000  1.0
  K  K3  1  0.66983000  0.66248000  0.77477000  1.0
  H  H4  1  0.47105000  0.14361000  0.51924000  1.0
  H  H5  1  0.02895000  0.64361000  0.98076000  1.0
  H  H6  1  0.52896000  0.85639000  0.48076000  1.0
  H  H7  1  0.97105000  0.35639000  0.01924000  1.0
  H  H8  1  0.87516000  0.25041000  0.54304000  1.0
  H  H9  1  0.62485000  0.75041000  0.95696000  1.0
  H  H10  1  0.12485000  0.74959000  0.45696000  1.0
  H  H11  1  0.37515000  0.24959000  0.04304000  1.0
  H  H12  1  0.48509000  0.34685000  0.50405000  1.0
  H  H13  1  0.01490000  0.84685000  0.99595000  1.0
  H  H14  1  0.51491000  0.65315000  0.49595000  1.0
  H  H15  1  0.98509000  0.15315000  0.00405000  1.0
  C  C16  1  0.81512000  0.31367000  0.38874000  1.0
  C  C17  1  0.68488000  0.81366000  0.11126000  1.0
  C  C18  1  0.18490000  0.68633000  0.61126000  1.0
  C  C19  1  0.31511000  0.18633000  0.88874000  1.0
  C  C20  1  0.63986000  0.23988000  0.50553000  1.0
  C  C21  1  0.86013000  0.73988000  0.99447000  1.0
  C  C22  1  0.36015000  0.76012000  0.49447000  1.0
  C  C23  1  0.13986000  0.26012000  0.00553000  1.0
  N  N24  1  0.79148000  0.56296000  0.35176000  1.0
  N  N25  1  0.70852000  0.06296000  0.14824000  1.0
  N  N26  1  0.20853000  0.43704000  0.64824000  1.0
  N  N27  1  0.29148000  0.93704000  0.85176000  1.0
  N  N28  1  0.94542000  0.08480000  0.35743000  1.0
  N  N29  1  0.55457000  0.58480000  0.14257000  1.0
  N  N30  1  0.05457000  0.91520000  0.64257000  1.0
  N  N31  1  0.44542000  0.41520000  0.85743000  1.0
  N  N32  1  0.84547000  0.07006000  0.41835000  1.0
  N  N33  1  0.65453000  0.57006000  0.08165000  1.0
  N  N34  1  0.15453000  0.92994000  0.58165000  1.0
  N  N35  1  0.34547000  0.42994000  0.91835000  1.0
  N  N36  1  0.93185000  0.23336000  0.33676000  1.0
  N  N37  1  0.56815000  0.73336000  0.16324000  1.0
  N  N38  1  0.06815000  0.76664000  0.66324000  1.0
  N  N39  1  0.43185000  0.26664000  0.83676000  1.0
  N  N40  1  0.73564000  0.46392000  0.39954000  1.0
  N  N41  1  0.76435000  0.96392000  0.10046000  1.0
  N  N42  1  0.26437000  0.53608000  0.60046000  1.0
  N  N43  1  0.23564000  0.03608000  0.89954000  1.0
  N  N44  1  0.76108000  0.21156000  0.43902000  1.0
  N  N45  1  0.73891000  0.71156000  0.06098000  1.0
  N  N46  1  0.23892000  0.78844000  0.56098000  1.0
  N  N47  1  0.26108000  0.28844000  0.93902000  1.0
  O  O48  1  0.70718000  0.70176000  0.36258000  1.0
  O  O49  1  0.79282000  0.20176000  0.13742000  1.0
  O  O50  1  0.29283000  0.29824000  0.63743000  1.0
  O  O51  1  0.20718000  0.79824000  0.86258000  1.0
  O  O52  1  0.92389000  0.52826000  0.29647000  1.0
  O  O53  1  0.57612000  0.02826000  0.20353000  1.0
  O  O54  1  0.07611000  0.47174000  0.70353000  1.0
  O  O55  1  0.42389000  0.97174000  0.79647000  1.0
