# generated using pymatgen
data_CdH16(C9O2)3
_symmetry_space_group_name_H-M   'P 1'
_cell_length_a   8.03655000
_cell_length_b   28.32200000
_cell_length_c   28.32945387
_cell_angle_alpha   119.99188963
_cell_angle_beta   89.99830029
_cell_angle_gamma   90.00110000
_symmetry_Int_Tables_number   1
_chemical_formula_structural   CdH16(C9O2)3
_chemical_formula_sum   'Cd6 H96 C162 O36'
_cell_volume   5584.67482054
_cell_formula_units_Z   6
loop_
 _symmetry_equiv_pos_site_id
 _symmetry_equiv_pos_as_xyz
  1  'x, y, z'
loop_
 _atom_site_type_symbol
 _atom_site_label
 _atom_site_symmetry_multiplicity
 _atom_site_fract_x
 _atom_site_fract_y
 _atom_site_fract_z
 _atom_site_occupancy
  Cd  Cd0  1  0.83341000  0.00009000  0.60932000  1.0
  Cd  Cd1  1  0.49999000  0.60930000  0.00000000  1.0
  Cd  Cd2  1  0.16658000  0.39078000  0.39068000  1.0
  Cd  Cd3  1  0.50001000  0.37467000  0.00000000  1.0
  Cd  Cd4  1  0.16671000  0.62533000  0.62534000  1.0
  Cd  Cd5  1  0.83326000  0.00000000  0.37468000  1.0
  H  H6  1  0.64047000  0.13623000  0.77676000  1.0
  H  H7  1  0.30725000  0.64054000  0.86375000  1.0
  H  H8  1  0.97383000  0.22327000  0.35951000  1.0
  H  H9  1  0.35953000  0.35947000  0.22323000  1.0
  H  H10  1  0.69271000  0.77678000  0.13625000  1.0
  H  H11  1  0.02616000  0.86375000  0.64048000  1.0
  H  H12  1  0.42761000  0.19755000  0.84346000  1.0
  H  H13  1  0.09443000  0.64587000  0.80240000  1.0
  H  H14  1  0.76097000  0.15657000  0.35417000  1.0
  H  H15  1  0.57240000  0.35409000  0.15654000  1.0
  H  H16  1  0.90555000  0.84347000  0.19760000  1.0
  H  H17  1  0.23901000  0.80238000  0.64581000  1.0
  H  H18  1  0.06246000  0.13447000  0.71456000  1.0
  H  H19  1  0.72921000  0.58010000  0.86555000  1.0
  H  H20  1  0.39583000  0.28551000  0.41995000  1.0
  H  H21  1  0.93756000  0.41990000  0.28544000  1.0
  H  H22  1  0.27076000  0.71455000  0.13445000  1.0
  H  H23  1  0.60416000  0.86555000  0.58004000  1.0
  H  H24  1  0.27715000  0.07379000  0.64885000  1.0
  H  H25  1  0.94386000  0.57510000  0.92625000  1.0
  H  H26  1  0.61051000  0.35122000  0.42494000  1.0
  H  H27  1  0.72285000  0.42493000  0.35114000  1.0
  H  H28  1  0.05611000  0.64884000  0.07374000  1.0
  H  H29  1  0.38948000  0.92627000  0.57504000  1.0
  H  H30  1  0.27973000  0.27401000  0.86993000  1.0
  H  H31  1  0.94653000  0.59589000  0.72597000  1.0
  H  H32  1  0.61298000  0.13011000  0.40416000  1.0
  H  H33  1  0.72028000  0.40408000  0.13007000  1.0
  H  H34  1  0.05347000  0.86991000  0.27404000  1.0
  H  H35  1  0.38700000  0.72593000  0.59582000  1.0
  H  H36  1  0.06467000  0.33689000  0.93360000  1.0
  H  H37  1  0.73150000  0.59669000  0.66310000  1.0
  H  H38  1  0.39786000  0.06642000  0.40334000  1.0
  H  H39  1  0.93533000  0.40329000  0.06640000  1.0
  H  H40  1  0.26851000  0.93358000  0.33690000  1.0
  H  H41  1  0.60210000  0.66308000  0.59666000  1.0
  H  H42  1  0.68957000  0.21561000  0.84931000  1.0
  H  H43  1  0.35637000  0.63368000  0.78436000  1.0
  H  H44  1  0.02296000  0.15069000  0.36623000  1.0
  H  H45  1  0.31045000  0.36631000  0.15069000  1.0
  H  H46  1  0.64361000  0.84932000  0.21563000  1.0
  H  H47  1  0.97701000  0.78447000  0.63377000  1.0
  H  H48  1  0.90275000  0.15165000  0.78521000  1.0
  H  H49  1  0.56953000  0.63356000  0.84832000  1.0
  H  H50  1  0.23619000  0.21481000  0.36641000  1.0
  H  H51  1  0.09728000  0.36643000  0.21478000  1.0
  H  H52  1  0.43044000  0.78524000  0.15168000  1.0
  H  H53  1  0.76379000  0.84839000  0.63357000  1.0
  H  H54  1  0.06487000  0.19570000  0.65491000  1.0
  H  H55  1  0.73159000  0.45927000  0.80435000  1.0
  H  H56  1  0.39811000  0.34507000  0.54079000  1.0
  H  H57  1  0.93511000  0.54079000  0.34509000  1.0
  H  H58  1  0.26847000  0.65491000  0.19565000  1.0
  H  H59  1  0.60192000  0.80426000  0.45920000  1.0
  H  H60  1  0.97133000  0.24199000  0.74899000  1.0
  H  H61  1  0.63796000  0.50706000  0.75804000  1.0
  H  H62  1  0.30448000  0.25097000  0.49293000  1.0
  H  H63  1  0.02863000  0.49301000  0.25101000  1.0
  H  H64  1  0.36209000  0.74902000  0.24196000  1.0
  H  H65  1  0.69554000  0.75802000  0.50706000  1.0
  H  H66  1  0.46207000  0.20735000  0.69429000  1.0
  H  H67  1  0.12873000  0.48692000  0.79268000  1.0
  H  H68  1  0.79525000  0.30575000  0.51316000  1.0
  H  H69  1  0.53789000  0.51303000  0.30571000  1.0
  H  H70  1  0.87133000  0.69425000  0.20735000  1.0
  H  H71  1  0.20477000  0.79259000  0.48684000  1.0
  H  H72  1  0.55573000  0.15801000  0.60015000  1.0
  H  H73  1  0.22249000  0.44211000  0.84202000  1.0
  H  H74  1  0.88901000  0.39991000  0.55802000  1.0
  H  H75  1  0.44423000  0.55781000  0.39984000  1.0
  H  H76  1  0.77757000  0.60010000  0.15801000  1.0
  H  H77  1  0.11101000  0.84190000  0.44199000  1.0
  H  H78  1  0.89491000  0.32105000  0.80311000  1.0
  H  H79  1  0.56147000  0.48205000  0.67897000  1.0
  H  H80  1  0.22808000  0.19687000  0.51792000  1.0
  H  H81  1  0.10510000  0.51794000  0.19689000  1.0
  H  H82  1  0.43855000  0.80308000  0.32104000  1.0
  H  H83  1  0.77194000  0.67894000  0.48209000  1.0
  H  H84  1  0.79761000  0.41481000  0.84516000  1.0
  H  H85  1  0.46414000  0.43032000  0.58524000  1.0
  H  H86  1  0.13081000  0.15485000  0.56965000  1.0
  H  H87  1  0.20244000  0.56965000  0.15485000  1.0
  H  H88  1  0.53589000  0.84508000  0.41476000  1.0
  H  H89  1  0.86920000  0.58519000  0.43036000  1.0
  H  H90  1  0.62370000  0.18865000  0.54603000  1.0
  H  H91  1  0.29052000  0.35735000  0.81136000  1.0
  H  H92  1  0.95706000  0.45399000  0.64272000  1.0
  H  H93  1  0.37631000  0.64261000  0.45395000  1.0
  H  H94  1  0.70951000  0.54599000  0.18866000  1.0
  H  H95  1  0.04295000  0.81128000  0.35729000  1.0
  H  H96  1  0.38770000  0.26388000  0.77316000  1.0
  H  H97  1  0.05431000  0.50927000  0.73615000  1.0
  H  H98  1  0.72081000  0.22683000  0.49074000  1.0
  H  H99  1  0.61229000  0.49072000  0.22685000  1.0
  H  H100  1  0.94572000  0.77313000  0.26385000  1.0
  H  H101  1  0.27922000  0.73607000  0.50924000  1.0
  C  C102  1  0.60754000  0.06896000  0.67104000  1.0
  C  C103  1  0.27424000  0.60213000  0.93109000  1.0
  C  C104  1  0.94090000  0.32900000  0.39787000  1.0
  C  C105  1  0.39246000  0.39793000  0.32896000  1.0
  C  C106  1  0.72572000  0.67105000  0.06891000  1.0
  C  C107  1  0.05909000  0.93111000  0.60211000  1.0
  C  C108  1  0.47355000  0.10284000  0.70885000  1.0
  C  C109  1  0.14030000  0.60605000  0.89719000  1.0
  C  C110  1  0.80692000  0.29120000  0.39400000  1.0
  C  C111  1  0.52645000  0.39398000  0.29114000  1.0
  C  C112  1  0.85967000  0.70886000  0.10282000  1.0
  C  C113  1  0.19308000  0.89719000  0.60599000  1.0
  C  C114  1  0.51380000  0.13720000  0.76388000  1.0
  C  C115  1  0.18058000  0.62669000  0.86280000  1.0
  C  C116  1  0.84716000  0.23616000  0.37335000  1.0
  C  C117  1  0.48620000  0.37332000  0.23612000  1.0
  C  C118  1  0.81939000  0.76390000  0.13721000  1.0
  C  C119  1  0.15283000  0.86280000  0.62664000  1.0
  C  C120  1  0.39492000  0.17116000  0.80070000  1.0
  C  C121  1  0.06173000  0.62952000  0.82881000  1.0
  C  C122  1  0.72828000  0.19933000  0.37052000  1.0
  C  C123  1  0.60509000  0.37046000  0.19930000  1.0
  C  C124  1  0.93824000  0.80071000  0.17119000  1.0
  C  C125  1  0.27170000  0.82880000  0.62946000  1.0
  C  C126  1  0.23100000  0.17135000  0.78350000  1.0
  C  C127  1  0.89778000  0.61214000  0.82864000  1.0
  C  C128  1  0.56436000  0.21655000  0.38790000  1.0
  C  C129  1  0.76902000  0.38785000  0.21650000  1.0
  C  C130  1  0.10219000  0.78349000  0.17136000  1.0
  C  C131  1  0.43562000  0.82864000  0.61208000  1.0
  C  C132  1  0.18955000  0.13534000  0.72846000  1.0
  C  C133  1  0.85632000  0.59313000  0.86467000  1.0
  C  C134  1  0.52294000  0.27161000  0.40693000  1.0
  C  C135  1  0.81046000  0.40687000  0.27154000  1.0
  C  C136  1  0.14365000  0.72846000  0.13533000  1.0
  C  C137  1  0.47705000  0.86467000  0.59306000  1.0
  C  C138  1  0.30937000  0.10150000  0.69140000  1.0
  C  C139  1  0.97612000  0.58992000  0.89852000  1.0
  C  C140  1  0.64275000  0.30866000  0.41013000  1.0
  C  C141  1  0.69063000  0.41009000  0.30859000  1.0
  C  C142  1  0.02385000  0.69140000  0.10148000  1.0
  C  C143  1  0.35724000  0.89853000  0.58986000  1.0
  C  C144  1  0.10592000  0.20853000  0.82255000  1.0
  C  C145  1  0.77271000  0.61401000  0.79145000  1.0
  C  C146  1  0.43926000  0.17749000  0.38602000  1.0
  C  C147  1  0.89410000  0.38597000  0.17744000  1.0
  C  C148  1  0.22727000  0.82255000  0.20855000  1.0
  C  C149  1  0.56072000  0.79146000  0.61396000  1.0
  C  C150  1  0.15017000  0.26087000  0.86517000  1.0
  C  C151  1  0.81698000  0.60428000  0.73911000  1.0
  C  C152  1  0.48344000  0.13487000  0.39576000  1.0
  C  C153  1  0.84984000  0.39569000  0.13482000  1.0
  C  C154  1  0.18302000  0.86516000  0.26089000  1.0
  C  C155  1  0.51653000  0.73910000  0.60423000  1.0
  C  C156  1  0.03018000  0.29642000  0.90072000  1.0
  C  C157  1  0.69700000  0.60428000  0.70356000  1.0
  C  C158  1  0.36342000  0.09931000  0.39575000  1.0
  C  C159  1  0.96982000  0.39570000  0.09927000  1.0
  C  C160  1  0.30300000  0.90071000  0.29644000  1.0
  C  C161  1  0.63654000  0.70356000  0.60425000  1.0
  C  C162  1  0.86304000  0.28000000  0.89439000  1.0
  C  C163  1  0.52986000  0.61437000  0.71997000  1.0
  C  C164  1  0.19631000  0.10563000  0.38562000  1.0
  C  C165  1  0.13697000  0.38561000  0.10560000  1.0
  C  C166  1  0.47014000  0.89439000  0.28003000  1.0
  C  C167  1  0.80365000  0.72001000  0.61438000  1.0
  C  C168  1  0.81940000  0.22756000  0.85293000  1.0
  C  C169  1  0.48619000  0.62536000  0.77241000  1.0
  C  C170  1  0.15274000  0.14709000  0.37461000  1.0
  C  C171  1  0.18062000  0.37464000  0.14707000  1.0
  C  C172  1  0.51379000  0.85295000  0.22759000  1.0
  C  C173  1  0.84722000  0.77248000  0.62539000  1.0
  C  C174  1  0.93850000  0.19230000  0.81739000  1.0
  C  C175  1  0.60529000  0.62508000  0.80767000  1.0
  C  C176  1  0.27188000  0.18264000  0.37491000  1.0
  C  C177  1  0.06152000  0.37491000  0.18260000  1.0
  C  C178  1  0.39468000  0.81741000  0.19233000  1.0
  C  C179  1  0.72810000  0.80772000  0.62508000  1.0
  C  C180  1  0.72927000  0.31626000  0.93031000  1.0
  C  C181  1  0.39608000  0.61403000  0.68372000  1.0
  C  C182  1  0.06251000  0.06971000  0.38595000  1.0
  C  C183  1  0.27072000  0.38596000  0.06969000  1.0
  C  C184  1  0.60392000  0.93031000  0.31628000  1.0
  C  C185  1  0.93745000  0.68376000  0.61406000  1.0
  C  C186  1  0.83426000  0.05888000  0.52190000  1.0
  C  C187  1  0.50079000  0.46306000  0.94111000  1.0
  C  C188  1  0.16699000  0.47792000  0.53685000  1.0
  C  C189  1  0.16563000  0.53703000  0.47814000  1.0
  C  C190  1  0.49928000  0.52196000  0.05889000  1.0
  C  C191  1  0.83295000  0.94108000  0.46315000  1.0
  C  C192  1  0.81743000  0.17789000  0.61944000  1.0
  C  C193  1  0.48417000  0.44157000  0.82214000  1.0
  C  C194  1  0.15070000  0.38057000  0.55853000  1.0
  C  C195  1  0.18255000  0.55843000  0.38055000  1.0
  C  C196  1  0.51589000  0.61943000  0.17787000  1.0
  C  C197  1  0.84933000  0.82204000  0.44148000  1.0
  C  C198  1  0.93184000  0.19677000  0.66296000  1.0
  C  C199  1  0.59855000  0.46624000  0.80327000  1.0
  C  C200  1  0.26507000  0.33702000  0.53382000  1.0
  C  C201  1  0.06813000  0.53380000  0.33703000  1.0
  C  C202  1  0.40151000  0.66297000  0.19673000  1.0
  C  C203  1  0.73495000  0.80319000  0.46617000  1.0
  C  C204  1  0.87836000  0.22394000  0.71673000  1.0
  C  C205  1  0.54502000  0.49283000  0.77609000  1.0
  C  C206  1  0.21153000  0.28326000  0.50719000  1.0
  C  C207  1  0.12160000  0.50721000  0.28327000  1.0
  C  C208  1  0.45503000  0.71674000  0.22391000  1.0
  C  C209  1  0.78848000  0.77605000  0.49280000  1.0
  C  C210  1  0.70784000  0.23408000  0.72941000  1.0
  C  C211  1  0.37448000  0.49534000  0.76594000  1.0
  C  C212  1  0.04099000  0.27059000  0.50468000  1.0
  C  C213  1  0.29212000  0.50467000  0.27059000  1.0
  C  C214  1  0.62557000  0.72940000  0.23406000  1.0
  C  C215  1  0.95903000  0.76590000  0.49532000  1.0
  C  C216  1  0.59537000  0.20428000  0.68625000  1.0
  C  C217  1  0.26204000  0.48198000  0.79576000  1.0
  C  C218  1  0.92855000  0.31378000  0.51809000  1.0
  C  C219  1  0.40460000  0.51801000  0.31375000  1.0
  C  C220  1  0.73802000  0.68622000  0.20426000  1.0
  C  C221  1  0.07146000  0.79569000  0.48191000  1.0
  C  C222  1  0.64877000  0.17660000  0.63243000  1.0
  C  C223  1  0.31549000  0.45584000  0.82344000  1.0
  C  C224  1  0.98201000  0.36760000  0.54427000  1.0
  C  C225  1  0.35121000  0.54414000  0.36756000  1.0
  C  C226  1  0.68457000  0.63239000  0.17658000  1.0
  C  C227  1  0.01801000  0.82333000  0.45573000  1.0
  C  C228  1  0.65017000  0.28428000  0.77798000  1.0
  C  C229  1  0.31676000  0.49370000  0.71574000  1.0
  C  C230  1  0.98330000  0.22199000  0.50629000  1.0
  C  C231  1  0.34982000  0.50630000  0.22202000  1.0
  C  C232  1  0.68328000  0.77796000  0.28427000  1.0
  C  C233  1  0.01671000  0.71569000  0.49370000  1.0
  C  C234  1  0.76130000  0.32845000  0.80530000  1.0
  C  C235  1  0.42786000  0.47684000  0.67157000  1.0
  C  C236  1  0.09446000  0.19468000  0.52314000  1.0
  C  C237  1  0.23871000  0.52315000  0.19470000  1.0
  C  C238  1  0.57217000  0.80527000  0.32844000  1.0
  C  C239  1  0.90555000  0.67153000  0.47686000  1.0
  C  C240  1  0.70606000  0.38195000  0.82872000  1.0
  C  C241  1  0.37259000  0.44676000  0.61810000  1.0
  C  C242  1  0.03925000  0.17128000  0.55323000  1.0
  C  C243  1  0.29398000  0.55323000  0.17129000  1.0
  C  C244  1  0.62743000  0.82867000  0.38191000  1.0
  C  C245  1  0.96076000  0.61805000  0.44678000  1.0
  C  C246  1  0.87015000  0.17462000  0.56803000  1.0
  C  C247  1  0.53695000  0.39341000  0.82539000  1.0
  C  C248  1  0.20348000  0.43196000  0.60667000  1.0
  C  C249  1  0.12985000  0.60658000  0.43196000  1.0
  C  C250  1  0.46309000  0.56801000  0.17462000  1.0
  C  C251  1  0.79654000  0.82530000  0.39334000  1.0
  C  C252  1  0.75713000  0.18936000  0.53938000  1.0
  C  C253  1  0.42395000  0.34999000  0.81064000  1.0
  C  C254  1  0.09050000  0.46063000  0.65007000  1.0
  C  C255  1  0.24289000  0.64997000  0.46061000  1.0
  C  C256  1  0.57608000  0.53935000  0.18937000  1.0
  C  C257  1  0.90952000  0.81058000  0.34995000  1.0
  C  C258  1  0.47925000  0.29665000  0.78813000  1.0
  C  C259  1  0.14583000  0.49147000  0.70339000  1.0
  C  C260  1  0.81238000  0.21185000  0.50852000  1.0
  C  C261  1  0.52075000  0.50852000  0.21188000  1.0
  C  C262  1  0.85421000  0.78810000  0.29662000  1.0
  C  C263  1  0.18764000  0.70332000  0.49146000  1.0
  O  O264  1  0.57388000  0.03418000  0.62087000  1.0
  O  O265  1  0.24051000  0.58677000  0.96589000  1.0
  O  O266  1  0.90719000  0.37917000  0.41323000  1.0
  O  O267  1  0.42612000  0.41331000  0.37912000  1.0
  O  O268  1  0.75946000  0.62088000  0.03411000  1.0
  O  O269  1  0.09280000  0.96594000  0.58677000  1.0
  O  O270  1  0.75634000  0.07419000  0.68941000  1.0
  O  O271  1  0.42304000  0.61529000  0.92588000  1.0
  O  O272  1  0.08967000  0.31063000  0.38471000  1.0
  O  O273  1  0.24366000  0.38479000  0.31059000  1.0
  O  O274  1  0.57693000  0.68940000  0.07412000  1.0
  O  O275  1  0.91032000  0.92590000  0.61527000  1.0
  O  O276  1  0.57985000  0.29781000  0.92324000  1.0
  O  O277  1  0.24663000  0.62535000  0.70214000  1.0
  O  O278  1  0.91312000  0.07676000  0.37454000  1.0
  O  O279  1  0.42016000  0.37460000  0.07676000  1.0
  O  O280  1  0.75337000  0.92322000  0.29786000  1.0
  O  O281  1  0.08684000  0.70223000  0.62548000  1.0
  O  O282  1  0.76302000  0.36510000  0.96845000  1.0
  O  O283  1  0.42982000  0.60337000  0.63489000  1.0
  O  O284  1  0.09622000  0.03156000  0.39666000  1.0
  O  O285  1  0.23696000  0.39664000  0.03153000  1.0
  O  O286  1  0.57018000  0.96847000  0.36511000  1.0
  O  O287  1  0.90375000  0.63490000  0.60334000  1.0
  O  O288  1  0.92298000  0.05676000  0.55384000  1.0
  O  O289  1  0.58957000  0.49713000  0.94325000  1.0
  O  O290  1  0.25598000  0.44603000  0.50282000  1.0
  O  O291  1  0.07704000  0.50293000  0.44617000  1.0
  O  O292  1  0.41046000  0.55389000  0.05676000  1.0
  O  O293  1  0.74401000  0.94320000  0.49717000  1.0
  O  O294  1  0.74447000  0.05757000  0.48846000  1.0
  O  O295  1  0.41094000  0.43091000  0.94239000  1.0
  O  O296  1  0.07697000  0.51127000  0.56896000  1.0
  O  O297  1  0.25531000  0.56919000  0.51160000  1.0
  O  O298  1  0.58915000  0.48854000  0.05761000  1.0
  O  O299  1  0.92292000  0.94235000  0.43104000  1.0
