# generated using pymatgen
data_ZnH12C18(N3O2)2
_symmetry_space_group_name_H-M   'P 1'
_cell_length_a   7.47878000
_cell_length_b   7.68974985
_cell_length_c   8.66150000
_cell_angle_alpha   88.17801075
_cell_angle_beta   89.98910000
_cell_angle_gamma   60.92144979
_symmetry_Int_Tables_number   1
_chemical_formula_structural   ZnH12C18(N3O2)2
_chemical_formula_sum   'Zn1 H12 C18 N6 O4'
_cell_volume   435.04967499
_cell_formula_units_Z   1
loop_
 _symmetry_equiv_pos_site_id
 _symmetry_equiv_pos_as_xyz
  1  'x, y, z'
loop_
 _atom_site_type_symbol
 _atom_site_label
 _atom_site_symmetry_multiplicity
 _atom_site_fract_x
 _atom_site_fract_y
 _atom_site_fract_z
 _atom_site_occupancy
  Zn  Zn0  1  0.57414000  0.99973000  0.49988000  1.0
  H  H1  1  0.68633000  0.71321000  0.93579000  1.0
  H  H2  1  0.40001000  0.28723000  0.06463000  1.0
  H  H3  1  0.49584000  0.66005000  0.72116000  1.0
  H  H4  1  0.15608000  0.34012000  0.27901000  1.0
  H  H5  1  0.01753000  0.74484000  0.04086000  1.0
  H  H6  1  0.76340000  0.25508000  0.95888000  1.0
  H  H7  1  0.20765000  0.80350000  0.25014000  1.0
  H  H8  1  0.01232000  0.19660000  0.74978000  1.0
  H  H9  1  0.33542000  0.49284000  0.58586000  1.0
  H  H10  1  0.82759000  0.50750000  0.41384000  1.0
  H  H11  1  0.81673000  0.93785000  0.80987000  1.0
  H  H12  1  0.75588000  0.06131000  0.18989000  1.0
  C  C13  1  0.56144000  0.82503000  0.22241000  1.0
  C  C14  1  0.38756000  0.17525000  0.77801000  1.0
  C  C15  1  0.45605000  0.76697000  0.10383000  1.0
  C  C16  1  0.22388000  0.23343000  0.89632000  1.0
  C  C17  1  0.54004000  0.71917000  0.95650000  1.0
  C  C18  1  0.25967000  0.28135000  0.04370000  1.0
  C  C19  1  0.43456000  0.68955000  0.83733000  1.0
  C  C20  1  0.12446000  0.31075000  0.16277000  1.0
  C  C21  1  0.24340000  0.70729000  0.86831000  1.0
  C  C22  1  0.95123000  0.29280000  0.13161000  1.0
  C  C23  1  0.16259000  0.74113000  0.01684000  1.0
  C  C24  1  0.90456000  0.25904000  0.98299000  1.0
  C  C25  1  0.26956000  0.77217000  0.13432000  1.0
  C  C26  1  0.04266000  0.22814000  0.86560000  1.0
  C  C27  1  0.17754000  0.60020000  0.61011000  1.0
  C  C28  1  0.77755000  0.39977000  0.38959000  1.0
  C  C29  1  0.91433000  0.82493000  0.73037000  1.0
  C  C30  1  0.74028000  0.17427000  0.26945000  1.0
  N  N31  1  0.85046000  0.79520000  0.59649000  1.0
  N  N32  1  0.64633000  0.20397000  0.40320000  1.0
  N  N33  1  0.01658000  0.65154000  0.51974000  1.0
  N  N34  1  0.66801000  0.34814000  0.47987000  1.0
  N  N35  1  0.12008000  0.70447000  0.74410000  1.0
  N  N36  1  0.82507000  0.29523000  0.25572000  1.0
  O  O37  1  0.46275000  0.89045000  0.34979000  1.0
  O  O38  1  0.35453000  0.10962000  0.65068000  1.0
  O  O39  1  0.73137000  0.81250000  0.19289000  1.0
  O  O40  1  0.54486000  0.18780000  0.80786000  1.0
