# generated using pymatgen
data_ZnH10(C5N2)3
_symmetry_space_group_name_H-M   'P 1'
_cell_length_a   14.97530000
_cell_length_b   18.22320000
_cell_length_c   18.22362877
_cell_angle_alpha   80.28218719
_cell_angle_beta   65.73791119
_cell_angle_gamma   65.74670000
_symmetry_Int_Tables_number   1
_chemical_formula_structural   ZnH10(C5N2)3
_chemical_formula_sum   'Zn8 H80 C120 N48'
_cell_volume   4133.76222951
_cell_formula_units_Z   8
loop_
 _symmetry_equiv_pos_site_id
 _symmetry_equiv_pos_as_xyz
  1  'x, y, z'
loop_
 _atom_site_type_symbol
 _atom_site_label
 _atom_site_symmetry_multiplicity
 _atom_site_fract_x
 _atom_site_fract_y
 _atom_site_fract_z
 _atom_site_occupancy
  Zn  Zn0  1  0.21505000  0.57791000  0.67260000  1.0
  Zn  Zn1  1  0.46557000  0.92211000  0.82740000  1.0
  Zn  Zn2  1  0.29297000  0.67261000  0.92209000  1.0
  Zn  Zn3  1  0.88771000  0.82742000  0.57789000  1.0
  Zn  Zn4  1  0.78495000  0.42209000  0.32740000  1.0
  Zn  Zn5  1  0.53443000  0.07789000  0.17260000  1.0
  Zn  Zn6  1  0.70703000  0.32739000  0.07791000  1.0
  Zn  Zn7  1  0.11229000  0.17258000  0.42211000  1.0
  H  H8  1  0.70062000  0.64329000  0.51329000  1.0
  H  H9  1  0.85716000  0.85671000  0.98672000  1.0
  H  H10  1  0.84390000  0.51330000  0.85673000  1.0
  H  H11  1  0.21398000  0.98670000  0.64327000  1.0
  H  H12  1  0.29938000  0.35671000  0.48671000  1.0
  H  H13  1  0.14284000  0.14329000  0.01328000  1.0
  H  H14  1  0.15610000  0.48670000  0.14327000  1.0
  H  H15  1  0.78602000  0.01330000  0.35673000  1.0
  H  H16  1  0.21547000  0.84754000  0.65214000  1.0
  H  H17  1  0.71513000  0.65245000  0.84784000  1.0
  H  H18  1  0.56298000  0.65220000  0.65243000  1.0
  H  H19  1  0.86759000  0.84785000  0.84759000  1.0
  H  H20  1  0.78453000  0.15246000  0.34786000  1.0
  H  H21  1  0.28487000  0.34755000  0.15216000  1.0
  H  H22  1  0.43702000  0.34780000  0.34757000  1.0
  H  H23  1  0.13241000  0.15215000  0.15241000  1.0
  H  H24  1  0.55631000  0.75212000  0.55608000  1.0
  H  H25  1  0.86446000  0.74788000  0.94394000  1.0
  H  H26  1  0.80845000  0.55611000  0.74780000  1.0
  H  H27  1  0.11249000  0.94384000  0.75218000  1.0
  H  H28  1  0.44369000  0.24788000  0.44392000  1.0
  H  H29  1  0.13555000  0.25212000  0.05606000  1.0
  H  H30  1  0.19155000  0.44389000  0.25220000  1.0
  H  H31  1  0.88751000  0.05616000  0.24782000  1.0
  H  H32  1  0.38840000  0.63662000  0.50329000  1.0
  H  H33  1  0.52828000  0.86340000  0.99666000  1.0
  H  H34  1  0.52504000  0.50333000  0.86333000  1.0
  H  H35  1  0.89180000  0.99669000  0.63668000  1.0
  H  H36  1  0.61160000  0.36338000  0.49671000  1.0
  H  H37  1  0.47172000  0.13660000  0.00334000  1.0
  H  H38  1  0.47496000  0.49667000  0.13667000  1.0
  H  H39  1  0.10820000  0.00331000  0.36332000  1.0
  H  H40  1  0.09857000  0.86547000  0.55121000  1.0
  H  H41  1  0.51518000  0.63453000  0.94882000  1.0
  H  H42  1  0.46406000  0.55116000  0.63451000  1.0
  H  H43  1  0.64979000  0.94882000  0.86548000  1.0
  H  H44  1  0.90143000  0.13453000  0.44879000  1.0
  H  H45  1  0.48482000  0.36547000  0.05118000  1.0
  H  H46  1  0.53594000  0.44884000  0.36549000  1.0
  H  H47  1  0.35021000  0.05118000  0.13452000  1.0
  H  H48  1  0.02329000  0.65923000  0.62207000  1.0
  H  H49  1  0.30461000  0.84076000  0.87793000  1.0
  H  H50  1  0.18258000  0.62212000  0.84071000  1.0
  H  H51  1  0.64536000  0.87790000  0.65929000  1.0
  H  H52  1  0.97671000  0.34077000  0.37793000  1.0
  H  H53  1  0.69539000  0.15924000  0.12207000  1.0
  H  H54  1  0.81742000  0.37788000  0.15929000  1.0
  H  H55  1  0.35464000  0.12210000  0.34071000  1.0
  H  H56  1  0.27978000  0.03012000  0.75493000  1.0
  H  H57  1  0.06478000  0.46990000  0.74510000  1.0
  H  H58  1  0.80996000  0.75499000  0.46989000  1.0
  H  H59  1  0.03481000  0.74503000  0.03009000  1.0
  H  H60  1  0.72022000  0.96988000  0.24507000  1.0
  H  H61  1  0.93522000  0.53010000  0.25490000  1.0
  H  H62  1  0.19003000  0.24501000  0.53012000  1.0
  H  H63  1  0.96519000  0.25497000  0.96991000  1.0
  H  H64  1  0.52147000  0.79972000  0.69682000  1.0
  H  H65  1  0.01795000  0.70031000  0.80319000  1.0
  H  H66  1  0.82124000  0.69678000  0.70029000  1.0
  H  H67  1  0.21823000  0.80326000  0.79966000  1.0
  H  H68  1  0.47853000  0.20028000  0.30318000  1.0
  H  H69  1  0.98205000  0.29969000  0.19681000  1.0
  H  H70  1  0.17876000  0.30322000  0.29971000  1.0
  H  H71  1  0.78177000  0.19674000  0.20034000  1.0
  H  H72  1  0.83874000  0.52634000  0.42039000  1.0
  H  H73  1  0.78543000  0.97367000  0.07962000  1.0
  H  H74  1  0.86502000  0.42041000  0.97370000  1.0
  H  H75  1  0.25918000  0.07961000  0.52628000  1.0
  H  H76  1  0.16126000  0.47366000  0.57961000  1.0
  H  H77  1  0.21457000  0.02633000  0.92038000  1.0
  H  H78  1  0.13498000  0.57959000  0.02630000  1.0
  H  H79  1  0.74082000  0.92039000  0.47372000  1.0
  H  H80  1  0.55154000  0.55771000  0.40601000  1.0
  H  H81  1  0.51522000  0.94231000  0.09394000  1.0
  H  H82  1  0.60925000  0.40600000  0.94227000  1.0
  H  H83  1  0.95755000  0.09396000  0.55778000  1.0
  H  H84  1  0.44846000  0.44229000  0.59399000  1.0
  H  H85  1  0.48478000  0.05769000  0.90606000  1.0
  H  H86  1  0.39075000  0.59400000  0.05773000  1.0
  H  H87  1  0.04245000  0.90604000  0.44222000  1.0
  C  C88  1  0.29175000  0.74362000  0.57614000  1.0
  C  C89  1  0.61150000  0.75641000  0.92382000  1.0
  C  C90  1  0.53540000  0.57621000  0.75635000  1.0
  C  C91  1  0.86795000  0.92381000  0.74364000  1.0
  C  C92  1  0.70825000  0.25638000  0.42386000  1.0
  C  C93  1  0.38850000  0.24360000  0.07618000  1.0
  C  C94  1  0.46460000  0.42379000  0.24365000  1.0
  C  C95  1  0.13205000  0.07619000  0.25636000  1.0
  C  C96  1  0.29123000  0.80434000  0.61455000  1.0
  C  C97  1  0.71008000  0.69569000  0.88540000  1.0
  C  C98  1  0.59553000  0.61466000  0.69565000  1.0
  C  C99  1  0.90580000  0.88541000  0.80437000  1.0
  C  C100  1  0.70877000  0.19566000  0.38545000  1.0
  C  C101  1  0.28992000  0.30431000  0.11460000  1.0
  C  C102  1  0.40447000  0.38534000  0.30435000  1.0
  C  C103  1  0.09422000  0.11459000  0.19562000  1.0
  C  C104  1  0.38593000  0.80661000  0.60977000  1.0
  C  C105  1  0.80226000  0.69342000  0.89021000  1.0
  C  C106  1  0.69253000  0.60984000  0.69336000  1.0
  C  C107  1  0.99574000  0.89017000  0.80663000  1.0
  C  C108  1  0.61407000  0.19339000  0.39023000  1.0
  C  C109  1  0.19774000  0.30658000  0.10979000  1.0
  C  C110  1  0.30747000  0.39015000  0.30664000  1.0
  C  C111  1  0.00426000  0.10983000  0.19337000  1.0
  C  C112  1  0.48239000  0.74880000  0.56243000  1.0
  C  C113  1  0.79358000  0.75122000  0.93754000  1.0
  C  C114  1  0.73118000  0.56250000  0.75116000  1.0
  C  C115  1  0.04492000  0.93749000  0.74884000  1.0
  C  C116  1  0.51761000  0.25120000  0.43757000  1.0
  C  C117  1  0.20642000  0.24878000  0.06246000  1.0
  C  C118  1  0.26882000  0.43750000  0.24884000  1.0
  C  C119  1  0.95508000  0.06251000  0.25116000  1.0
  C  C120  1  0.48456000  0.68729000  0.52388000  1.0
  C  C121  1  0.69570000  0.81276000  0.97607000  1.0
  C  C122  1  0.67187000  0.52390000  0.81267000  1.0
  C  C123  1  0.00851000  0.97612000  0.68736000  1.0
  C  C124  1  0.51544000  0.31271000  0.47612000  1.0
  C  C125  1  0.30430000  0.18724000  0.02393000  1.0
  C  C126  1  0.32814000  0.47610000  0.18732000  1.0
  C  C127  1  0.99149000  0.02388000  0.31264000  1.0
  C  C128  1  0.38849000  0.68465000  0.53178000  1.0
  C  C129  1  0.60491000  0.81540000  0.96814000  1.0
  C  C130  1  0.57315000  0.53183000  0.81531000  1.0
  C  C131  1  0.92037000  0.96818000  0.68471000  1.0
  C  C132  1  0.61151000  0.31535000  0.46822000  1.0
  C  C133  1  0.39509000  0.18460000  0.03186000  1.0
  C  C134  1  0.42685000  0.46817000  0.18469000  1.0
  C  C135  1  0.07963000  0.03182000  0.31529000  1.0
  C  C136  1  0.19096000  0.74240000  0.58395000  1.0
  C  C137  1  0.51729000  0.75759000  0.91604000  1.0
  C  C138  1  0.43339000  0.58399000  0.75755000  1.0
  C  C139  1  0.77494000  0.91603000  0.74241000  1.0
  C  C140  1  0.80904000  0.25760000  0.41605000  1.0
  C  C141  1  0.48271000  0.24241000  0.08396000  1.0
  C  C142  1  0.56661000  0.41601000  0.24245000  1.0
  C  C143  1  0.22506000  0.08397000  0.25759000  1.0
  C  C144  1  0.38416000  0.86410000  0.65797000  1.0
  C  C145  1  0.90616000  0.63591000  0.84204000  1.0
  C  C146  1  0.74826000  0.65803000  0.63587000  1.0
  C  C147  1  0.04212000  0.84197000  0.86411000  1.0
  C  C148  1  0.61584000  0.13590000  0.34203000  1.0
  C  C149  1  0.09384000  0.36409000  0.15796000  1.0
  C  C150  1  0.25174000  0.34197000  0.36413000  1.0
  C  C151  1  0.95788000  0.15803000  0.13589000  1.0
  C  C152  1  0.58449000  0.62532000  0.47710000  1.0
  C  C153  1  0.68688000  0.87468000  0.02290000  1.0
  C  C154  1  0.70984000  0.47707000  0.87463000  1.0
  C  C155  1  0.06156000  0.02299000  0.62543000  1.0
  C  C156  1  0.41551000  0.37468000  0.52290000  1.0
  C  C157  1  0.31312000  0.12532000  0.97710000  1.0
  C  C158  1  0.29016000  0.52293000  0.12537000  1.0
  C  C159  1  0.93844000  0.97701000  0.37457000  1.0
  C  C160  1  0.10717000  0.80402000  0.56977000  1.0
  C  C161  1  0.48090000  0.69600000  0.93026000  1.0
  C  C162  1  0.41121000  0.56977000  0.69596000  1.0
  C  C163  1  0.67694000  0.93025000  0.80403000  1.0
  C  C164  1  0.89283000  0.19598000  0.43023000  1.0
  C  C165  1  0.51910000  0.30400000  0.06974000  1.0
  C  C166  1  0.58879000  0.43023000  0.30404000  1.0
  C  C167  1  0.32306000  0.06975000  0.19597000  1.0
  C  C168  1  0.06760000  0.69797000  0.60533000  1.0
  C  C169  1  0.37090000  0.80202000  0.89468000  1.0
  C  C170  1  0.26562000  0.60539000  0.80198000  1.0
  C  C171  1  0.67296000  0.89462000  0.69801000  1.0
  C  C172  1  0.93240000  0.30203000  0.39467000  1.0
  C  C173  1  0.62910000  0.19798000  0.10532000  1.0
  C  C174  1  0.73438000  0.39461000  0.19802000  1.0
  C  C175  1  0.32703000  0.10538000  0.30199000  1.0
  C  C176  1  0.32661000  0.97030000  0.72859000  1.0
  C  C177  1  0.02545000  0.52972000  0.77144000  1.0
  C  C178  1  0.79696000  0.72864000  0.52970000  1.0
  C  C179  1  0.05527000  0.77137000  0.97027000  1.0
  C  C180  1  0.67339000  0.02970000  0.27141000  1.0
  C  C181  1  0.97455000  0.47028000  0.22856000  1.0
  C  C182  1  0.20304000  0.27136000  0.47030000  1.0
  C  C183  1  0.94473000  0.22863000  0.02973000  1.0
  C  C184  1  0.45255000  0.85238000  0.69610000  1.0
  C  C185  1  0.00095000  0.64767000  0.80390000  1.0
  C  C186  1  0.80498000  0.69609000  0.64762000  1.0
  C  C187  1  0.14865000  0.80391000  0.85233000  1.0
  C  C188  1  0.54745000  0.14762000  0.30390000  1.0
  C  C189  1  0.99906000  0.35233000  0.19609000  1.0
  C  C190  1  0.19501000  0.30391000  0.35238000  1.0
  C  C191  1  0.85135000  0.19609000  0.14767000  1.0
  C  C192  1  0.75553000  0.55005000  0.42974000  1.0
  C  C193  1  0.73527000  0.94996000  0.07027000  1.0
  C  C194  1  0.80555000  0.42973000  0.94996000  1.0
  C  C195  1  0.18530000  0.07028000  0.55003000  1.0
  C  C196  1  0.24447000  0.44995000  0.57026000  1.0
  C  C197  1  0.26474000  0.05004000  0.92973000  1.0
  C  C198  1  0.19445000  0.57027000  0.05004000  1.0
  C  C199  1  0.81470000  0.92972000  0.44997000  1.0
  C  C200  1  0.60531000  0.56750000  0.42526000  1.0
  C  C201  1  0.59803000  0.93252000  0.07471000  1.0
  C  C202  1  0.67284000  0.42524000  0.93246000  1.0
  C  C203  1  0.03052000  0.07481000  0.56762000  1.0
  C  C204  1  0.39469000  0.43250000  0.57474000  1.0
  C  C205  1  0.40197000  0.06748000  0.92529000  1.0
  C  C206  1  0.32716000  0.57476000  0.06754000  1.0
  C  C207  1  0.96948000  0.92519000  0.43238000  1.0
  N  N208  1  0.16450000  0.67502000  0.60687000  1.0
  N  N209  1  0.44641000  0.82497000  0.89310000  1.0
  N  N210  1  0.33956000  0.60694000  0.82493000  1.0
  N  N211  1  0.77142000  0.89308000  0.67504000  1.0
  N  N212  1  0.83551000  0.32498000  0.39312000  1.0
  N  N213  1  0.55359000  0.17503000  0.10690000  1.0
  N  N214  1  0.66044000  0.39306000  0.17507000  1.0
  N  N215  1  0.22858000  0.10692000  0.32496000  1.0
  N  N216  1  0.02980000  0.77528000  0.58303000  1.0
  N  N217  1  0.38807000  0.72472000  0.91701000  1.0
  N  N218  1  0.30512000  0.58305000  0.72468000  1.0
  N  N219  1  0.61284000  0.91696000  0.77531000  1.0
  N  N220  1  0.97020000  0.22472000  0.41697000  1.0
  N  N221  1  0.61193000  0.27528000  0.08299000  1.0
  N  N222  1  0.69488000  0.41695000  0.27532000  1.0
  N  N223  1  0.38716000  0.08304000  0.22469000  1.0
  N  N224  1  0.30401000  0.93946000  0.67964000  1.0
  N  N225  1  0.92306000  0.56054000  0.82037000  1.0
  N  N226  1  0.74346000  0.67972000  0.56052000  1.0
  N  N227  1  0.98367000  0.82028000  0.93946000  1.0
  N  N228  1  0.69600000  0.06054000  0.32035000  1.0
  N  N229  1  0.07694000  0.43946000  0.17963000  1.0
  N  N230  1  0.25654000  0.32028000  0.43948000  1.0
  N  N231  1  0.01633000  0.17972000  0.06054000  1.0
  N  N232  1  0.41535000  0.91982000  0.74117000  1.0
  N  N233  1  0.07629000  0.58022000  0.75885000  1.0
  N  N234  1  0.83528000  0.74115000  0.58018000  1.0
  N  N235  1  0.15656000  0.75885000  0.91978000  1.0
  N  N236  1  0.58465000  0.08018000  0.25883000  1.0
  N  N237  1  0.92371000  0.41978000  0.24115000  1.0
  N  N238  1  0.16472000  0.25885000  0.41982000  1.0
  N  N239  1  0.84343000  0.24115000  0.08022000  1.0
  N  N240  1  0.68167000  0.61277000  0.47822000  1.0
  N  N241  1  0.77263000  0.88723000  0.02180000  1.0
  N  N242  1  0.79446000  0.47819000  0.88722000  1.0
  N  N243  1  0.15991000  0.02183000  0.61280000  1.0
  N  N244  1  0.31833000  0.38723000  0.52178000  1.0
  N  N245  1  0.22737000  0.11277000  0.97820000  1.0
  N  N246  1  0.20554000  0.52181000  0.11278000  1.0
  N  N247  1  0.84009000  0.97817000  0.38720000  1.0
  N  N248  1  0.71211000  0.52102000  0.39621000  1.0
  N  N249  1  0.62930000  0.97901000  0.10375000  1.0
  N  N250  1  0.73309000  0.39622000  0.97899000  1.0
  N  N251  1  0.10832000  0.10379000  0.52104000  1.0
  N  N252  1  0.28789000  0.47898000  0.60379000  1.0
  N  N253  1  0.37069000  0.02099000  0.89625000  1.0
  N  N254  1  0.26691000  0.60378000  0.02101000  1.0
  N  N255  1  0.89168000  0.89620000  0.47896000  1.0
