# generated using pymatgen
data_Ni5H22C16(N2O9)2
_symmetry_space_group_name_H-M   'P 1'
_cell_length_a   11.68650000
_cell_length_b   18.19680000
_cell_length_c   18.19680000
_cell_angle_alpha   90.00320000
_cell_angle_beta   90.00000000
_cell_angle_gamma   90.00000000
_symmetry_Int_Tables_number   1
_chemical_formula_structural   Ni5H22C16(N2O9)2
_chemical_formula_sum   'Ni20 H88 C64 N16 O72'
_cell_volume   3869.67513011
_cell_formula_units_Z   4
loop_
 _symmetry_equiv_pos_site_id
 _symmetry_equiv_pos_as_xyz
  1  'x, y, z'
loop_
 _atom_site_type_symbol
 _atom_site_label
 _atom_site_symmetry_multiplicity
 _atom_site_fract_x
 _atom_site_fract_y
 _atom_site_fract_z
 _atom_site_occupancy
  Ni  Ni0  1  0.16107000  0.54214000  0.94123000  1.0
  Ni  Ni1  1  0.93805000  0.59314000  0.87517000  1.0
  Ni  Ni2  1  0.66107000  0.45786000  0.05877000  1.0
  Ni  Ni3  1  0.43805000  0.40686000  0.12483000  1.0
  Ni  Ni4  1  0.91109000  0.55879000  0.04216000  1.0
  Ni  Ni5  1  0.68807000  0.62481000  0.09314000  1.0
  Ni  Ni6  1  0.41109000  0.44121000  0.95784000  1.0
  Ni  Ni7  1  0.18807000  0.37519000  0.90686000  1.0
  Ni  Ni8  1  0.58891000  0.95784000  0.44121000  1.0
  Ni  Ni9  1  0.81193000  0.90686000  0.37519000  1.0
  Ni  Ni10  1  0.08891000  0.04216000  0.55879000  1.0
  Ni  Ni11  1  0.31193000  0.09314000  0.62481000  1.0
  Ni  Ni12  1  0.83893000  0.94123000  0.54214000  1.0
  Ni  Ni13  1  0.06195000  0.87517000  0.59314000  1.0
  Ni  Ni14  1  0.33893000  0.05877000  0.45786000  1.0
  Ni  Ni15  1  0.56195000  0.12483000  0.40686000  1.0
  Ni  Ni16  1  0.00000000  0.74316000  0.74316000  1.0
  Ni  Ni17  1  0.50000000  0.25684000  0.25684000  1.0
  Ni  Ni18  1  0.75000000  0.75685000  0.24315000  1.0
  Ni  Ni19  1  0.25000000  0.24315000  0.75685000  1.0
  H  H20  1  0.92027000  0.56520000  0.74021000  1.0
  H  H21  1  0.78975000  0.55489000  0.76536000  1.0
  H  H22  1  0.10982000  0.83085000  0.83662000  1.0
  H  H23  1  0.16818000  0.83536000  0.75330000  1.0
  H  H24  1  0.89308000  0.43400000  0.74061000  1.0
  H  H25  1  0.81681000  0.36947000  0.84553000  1.0
  H  H26  1  0.71747000  0.43794000  0.82030000  1.0
  H  H27  1  0.27293000  0.76219000  0.85915000  1.0
  H  H28  1  0.35698000  0.76546000  0.73900000  1.0
  H  H29  1  0.34262000  0.67246000  0.76345000  1.0
  H  H30  1  0.30227000  0.49230000  0.85142000  1.0
  H  H31  1  0.42027000  0.43480000  0.25979000  1.0
  H  H32  1  0.28975000  0.44511000  0.23464000  1.0
  H  H33  1  0.60983000  0.16915000  0.16338000  1.0
  H  H34  1  0.66818000  0.16464000  0.24670000  1.0
  H  H35  1  0.39308000  0.56600000  0.25939000  1.0
  H  H36  1  0.31681000  0.63053000  0.15447000  1.0
  H  H37  1  0.21747000  0.56206000  0.17969000  1.0
  H  H38  1  0.77294000  0.23781000  0.14085000  1.0
  H  H39  1  0.85698000  0.23454000  0.26100000  1.0
  H  H40  1  0.84262000  0.32754000  0.23655000  1.0
  H  H41  1  0.80227000  0.50770000  0.14858000  1.0
  H  H42  1  0.67026000  0.75978000  0.06520000  1.0
  H  H43  1  0.53976000  0.73462000  0.05489000  1.0
  H  H44  1  0.85985000  0.66340000  0.33081000  1.0
  H  H45  1  0.91817000  0.74672000  0.33538000  1.0
  H  H46  1  0.64309000  0.75937000  0.93401000  1.0
  H  H47  1  0.56681000  0.65449000  0.86945000  1.0
  H  H48  1  0.46748000  0.67970000  0.93792000  1.0
  H  H49  1  0.02302000  0.64092000  0.26221000  1.0
  H  H50  1  0.10706000  0.76106000  0.26546000  1.0
  H  H51  1  0.09266000  0.73659000  0.17246000  1.0
  H  H52  1  0.05226000  0.64858000  0.99230000  1.0
  H  H53  1  0.17026000  0.24022000  0.93480000  1.0
  H  H54  1  0.03976000  0.26538000  0.94511000  1.0
  H  H55  1  0.35986000  0.33660000  0.66919000  1.0
  H  H56  1  0.41817000  0.25328000  0.66462000  1.0
  H  H57  1  0.14309000  0.24063000  0.06599000  1.0
  H  H58  1  0.06681000  0.34551000  0.13055000  1.0
  H  H59  1  0.96748000  0.32030000  0.06208000  1.0
  H  H60  1  0.52302000  0.35908000  0.73779000  1.0
  H  H61  1  0.60706000  0.23894000  0.73454000  1.0
  H  H62  1  0.59266000  0.26341000  0.82754000  1.0
  H  H63  1  0.55226000  0.35142000  0.00770000  1.0
  H  H64  1  0.82973000  0.93480000  0.24022000  1.0
  H  H65  1  0.96024000  0.94511000  0.26538000  1.0
  H  H66  1  0.64015000  0.66919000  0.33660000  1.0
  H  H67  1  0.58183000  0.66462000  0.25328000  1.0
  H  H68  1  0.85691000  0.06599000  0.24063000  1.0
  H  H69  1  0.93319000  0.13055000  0.34551000  1.0
  H  H70  1  0.03252000  0.06208000  0.32030000  1.0
  H  H71  1  0.47698000  0.73779000  0.35908000  1.0
  H  H72  1  0.39294000  0.73454000  0.23894000  1.0
  H  H73  1  0.40734000  0.82754000  0.26341000  1.0
  H  H74  1  0.44774000  0.00770000  0.35142000  1.0
  H  H75  1  0.32974000  0.06520000  0.75978000  1.0
  H  H76  1  0.46024000  0.05489000  0.73462000  1.0
  H  H77  1  0.14015000  0.33081000  0.66340000  1.0
  H  H78  1  0.08183000  0.33537000  0.74672000  1.0
  H  H79  1  0.35691000  0.93401000  0.75937000  1.0
  H  H80  1  0.43319000  0.86945000  0.65449000  1.0
  H  H81  1  0.53252000  0.93792000  0.67970000  1.0
  H  H82  1  0.97698000  0.26221000  0.64092000  1.0
  H  H83  1  0.89294000  0.26546000  0.76106000  1.0
  H  H84  1  0.90734000  0.17246000  0.73659000  1.0
  H  H85  1  0.94774000  0.99230000  0.64858000  1.0
  H  H86  1  0.07973000  0.74021000  0.56520000  1.0
  H  H87  1  0.21025000  0.76536000  0.55489000  1.0
  H  H88  1  0.89018000  0.83662000  0.83085000  1.0
  H  H89  1  0.83182000  0.75330000  0.83536000  1.0
  H  H90  1  0.10692000  0.74061000  0.43400000  1.0
  H  H91  1  0.18319000  0.84553000  0.36947000  1.0
  H  H92  1  0.28253000  0.82031000  0.43794000  1.0
  H  H93  1  0.72707000  0.85915000  0.76219000  1.0
  H  H94  1  0.64302000  0.73900000  0.76546000  1.0
  H  H95  1  0.65738000  0.76345000  0.67246000  1.0
  H  H96  1  0.69773000  0.85142000  0.49230000  1.0
  H  H97  1  0.57973000  0.25979000  0.43480000  1.0
  H  H98  1  0.71025000  0.23464000  0.44511000  1.0
  H  H99  1  0.39017000  0.16338000  0.16915000  1.0
  H  H100  1  0.33182000  0.24670000  0.16464000  1.0
  H  H101  1  0.60692000  0.25939000  0.56600000  1.0
  H  H102  1  0.68319000  0.15447000  0.63053000  1.0
  H  H103  1  0.78253000  0.17970000  0.56206000  1.0
  H  H104  1  0.22707000  0.14085000  0.23781000  1.0
  H  H105  1  0.14301000  0.26100000  0.23454000  1.0
  H  H106  1  0.15738000  0.23655000  0.32754000  1.0
  H  H107  1  0.19773000  0.14858000  0.50770000  1.0
  C  C108  1  0.01303000  0.45572000  0.82726000  1.0
  C  C109  1  0.89391000  0.46459000  0.79306000  1.0
  C  C110  1  0.80362000  0.42926000  0.84348000  1.0
  C  C111  1  0.79975000  0.45631000  0.92279000  1.0
  C  C112  1  0.15424000  0.67581000  0.84434000  1.0
  C  C113  1  0.21721000  0.74325000  0.81410000  1.0
  C  C114  1  0.29350000  0.72198000  0.74906000  1.0
  C  C115  1  0.23245000  0.70754000  0.67562000  1.0
  C  C116  1  0.51303000  0.54428000  0.17274000  1.0
  C  C117  1  0.39391000  0.53541000  0.20694000  1.0
  C  C118  1  0.30362000  0.57074000  0.15652000  1.0
  C  C119  1  0.29975000  0.54369000  0.07721000  1.0
  C  C120  1  0.65424000  0.32419000  0.15566000  1.0
  C  C121  1  0.71721000  0.25675000  0.18590000  1.0
  C  C122  1  0.79350000  0.27802000  0.25095000  1.0
  C  C123  1  0.73245000  0.29246000  0.32438000  1.0
  C  C124  1  0.76304000  0.67272000  0.95574000  1.0
  C  C125  1  0.64392000  0.70691000  0.96459000  1.0
  C  C126  1  0.55362000  0.65651000  0.92924000  1.0
  C  C127  1  0.54972000  0.57721000  0.95629000  1.0
  C  C128  1  0.90434000  0.65568000  0.17581000  1.0
  C  C129  1  0.96726000  0.68595000  0.24326000  1.0
  C  C130  1  0.04355000  0.75099000  0.22199000  1.0
  C  C131  1  0.98248000  0.82442000  0.20753000  1.0
  C  C132  1  0.26304000  0.32728000  0.04426000  1.0
  C  C133  1  0.14392000  0.29309000  0.03541000  1.0
  C  C134  1  0.05362000  0.34349000  0.07076000  1.0
  C  C135  1  0.04972000  0.42279000  0.04371000  1.0
  C  C136  1  0.40434000  0.34432000  0.82419000  1.0
  C  C137  1  0.46726000  0.31405000  0.75674000  1.0
  C  C138  1  0.54355000  0.24901000  0.77801000  1.0
  C  C139  1  0.48248000  0.17558000  0.79247000  1.0
  C  C140  1  0.73696000  0.04426000  0.32728000  1.0
  C  C141  1  0.85608000  0.03541000  0.29309000  1.0
  C  C142  1  0.94638000  0.07076000  0.34349000  1.0
  C  C143  1  0.95028000  0.04371000  0.42279000  1.0
  C  C144  1  0.59566000  0.82419000  0.34432000  1.0
  C  C145  1  0.53274000  0.75674000  0.31405000  1.0
  C  C146  1  0.45645000  0.77801000  0.24901000  1.0
  C  C147  1  0.51752000  0.79246000  0.17558000  1.0
  C  C148  1  0.23696000  0.95574000  0.67272000  1.0
  C  C149  1  0.35608000  0.96459000  0.70691000  1.0
  C  C150  1  0.44638000  0.92924000  0.65651000  1.0
  C  C151  1  0.45028000  0.95629000  0.57721000  1.0
  C  C152  1  0.09566000  0.17581000  0.65568000  1.0
  C  C153  1  0.03274000  0.24326000  0.68595000  1.0
  C  C154  1  0.95645000  0.22199000  0.75099000  1.0
  C  C155  1  0.01752000  0.20753000  0.82442000  1.0
  C  C156  1  0.98697000  0.82726000  0.45572000  1.0
  C  C157  1  0.10609000  0.79306000  0.46459000  1.0
  C  C158  1  0.19638000  0.84348000  0.42926000  1.0
  C  C159  1  0.20025000  0.92279000  0.45631000  1.0
  C  C160  1  0.84576000  0.84434000  0.67581000  1.0
  C  C161  1  0.78279000  0.81410000  0.74325000  1.0
  C  C162  1  0.70650000  0.74906000  0.72198000  1.0
  C  C163  1  0.76755000  0.67562000  0.70754000  1.0
  C  C164  1  0.48697000  0.17274000  0.54428000  1.0
  C  C165  1  0.60609000  0.20694000  0.53541000  1.0
  C  C166  1  0.69638000  0.15652000  0.57074000  1.0
  C  C167  1  0.70025000  0.07721000  0.54369000  1.0
  C  C168  1  0.34576000  0.15566000  0.32419000  1.0
  C  C169  1  0.28279000  0.18590000  0.25675000  1.0
  C  C170  1  0.20650000  0.25094000  0.27802000  1.0
  C  C171  1  0.26755000  0.32438000  0.29246000  1.0
  N  N172  1  0.87247000  0.54336000  0.78224000  1.0
  N  N173  1  0.13441000  0.80042000  0.79224000  1.0
  N  N174  1  0.37247000  0.45664000  0.21776000  1.0
  N  N175  1  0.63441000  0.19958000  0.20776000  1.0
  N  N176  1  0.62248000  0.71773000  0.04335000  1.0
  N  N177  1  0.88443000  0.70779000  0.30040000  1.0
  N  N178  1  0.12248000  0.28227000  0.95665000  1.0
  N  N179  1  0.38443000  0.29221000  0.69960000  1.0
  N  N180  1  0.87752000  0.95665000  0.28227000  1.0
  N  N181  1  0.61557000  0.69960000  0.29221000  1.0
  N  N182  1  0.37752000  0.04335000  0.71773000  1.0
  N  N183  1  0.11557000  0.30040000  0.70779000  1.0
  N  N184  1  0.12753000  0.78224000  0.54336000  1.0
  N  N185  1  0.86559000  0.79224000  0.80042000  1.0
  N  N186  1  0.62753000  0.21776000  0.45664000  1.0
  N  N187  1  0.36559000  0.20776000  0.19958000  1.0
  O  O188  1  0.05859000  0.51475000  0.85133000  1.0
  O  O189  1  0.05791000  0.39251000  0.83148000  1.0
  O  O190  1  0.74070000  0.41918000  0.96712000  1.0
  O  O191  1  0.85505000  0.51491000  0.94034000  1.0
  O  O192  1  0.04666000  0.67034000  0.82892000  1.0
  O  O193  1  0.21397000  0.63225000  0.88195000  1.0
  O  O194  1  0.12258000  0.69955000  0.67466000  1.0
  O  O195  1  0.29536000  0.70481000  0.61988000  1.0
  O  O196  1  0.27561000  0.47299000  0.89821000  1.0
  O  O197  1  0.55859000  0.48525000  0.14867000  1.0
  O  O198  1  0.55791000  0.60749000  0.16852000  1.0
  O  O199  1  0.24070000  0.58082000  0.03288000  1.0
  O  O200  1  0.35505000  0.48509000  0.05966000  1.0
  O  O201  1  0.54666000  0.32966000  0.17108000  1.0
  O  O202  1  0.71397000  0.36775000  0.11805000  1.0
  O  O203  1  0.62258000  0.30045000  0.32534000  1.0
  O  O204  1  0.79536000  0.29519000  0.38012000  1.0
  O  O205  1  0.77562000  0.52701000  0.10179000  1.0
  O  O206  1  0.80861000  0.64867000  0.01477000  1.0
  O  O207  1  0.80794000  0.66853000  0.89253000  1.0
  O  O208  1  0.49063000  0.53290000  0.91915000  1.0
  O  O209  1  0.60505000  0.55965000  0.01487000  1.0
  O  O210  1  0.79674000  0.67105000  0.17033000  1.0
  O  O211  1  0.96411000  0.61807000  0.13225000  1.0
  O  O212  1  0.87261000  0.82539000  0.19955000  1.0
  O  O213  1  0.04537000  0.88018000  0.20479000  1.0
  O  O214  1  0.02562000  0.60177000  0.97299000  1.0
  O  O215  1  0.30861000  0.35133000  0.98523000  1.0
  O  O216  1  0.30794000  0.33147000  0.10747000  1.0
  O  O217  1  0.99063000  0.46710000  0.08085000  1.0
  O  O218  1  0.10505000  0.44035000  0.98513000  1.0
  O  O219  1  0.29674000  0.32895000  0.82967000  1.0
  O  O220  1  0.46411000  0.38193000  0.86775000  1.0
  O  O221  1  0.37261000  0.17461000  0.80045000  1.0
  O  O222  1  0.54537000  0.11982000  0.79521000  1.0
  O  O223  1  0.52562000  0.39823000  0.02701000  1.0
  O  O224  1  0.69139000  0.98523000  0.35133000  1.0
  O  O225  1  0.69206000  0.10747000  0.33147000  1.0
  O  O226  1  0.00937000  0.08085000  0.46710000  1.0
  O  O227  1  0.89495000  0.98513000  0.44035000  1.0
  O  O228  1  0.70326000  0.82967000  0.32895000  1.0
  O  O229  1  0.53589000  0.86775000  0.38193000  1.0
  O  O230  1  0.62739000  0.80045000  0.17461000  1.0
  O  O231  1  0.45463000  0.79521000  0.11982000  1.0
  O  O232  1  0.47438000  0.02701000  0.39823000  1.0
  O  O233  1  0.19139000  0.01477000  0.64867000  1.0
  O  O234  1  0.19206000  0.89253000  0.66853000  1.0
  O  O235  1  0.50937000  0.91915000  0.53290000  1.0
  O  O236  1  0.39495000  0.01487000  0.55965000  1.0
  O  O237  1  0.20326000  0.17033000  0.67105000  1.0
  O  O238  1  0.03589000  0.13225000  0.61807000  1.0
  O  O239  1  0.12739000  0.19955000  0.82539000  1.0
  O  O240  1  0.95463000  0.20479000  0.88018000  1.0
  O  O241  1  0.97438000  0.97299000  0.60177000  1.0
  O  O242  1  0.94141000  0.85133000  0.51475000  1.0
  O  O243  1  0.94209000  0.83148000  0.39251000  1.0
  O  O244  1  0.25930000  0.96712000  0.41918000  1.0
  O  O245  1  0.14495000  0.94034000  0.51491000  1.0
  O  O246  1  0.95334000  0.82892000  0.67034000  1.0
  O  O247  1  0.78603000  0.88195000  0.63225000  1.0
  O  O248  1  0.87742000  0.67466000  0.69955000  1.0
  O  O249  1  0.70464000  0.61988000  0.70481000  1.0
  O  O250  1  0.72439000  0.89821000  0.47299000  1.0
  O  O251  1  0.44141000  0.14868000  0.48525000  1.0
  O  O252  1  0.44208000  0.16852000  0.60749000  1.0
  O  O253  1  0.75930000  0.03288000  0.58082000  1.0
  O  O254  1  0.64495000  0.05966000  0.48509000  1.0
  O  O255  1  0.45334000  0.17108000  0.32966000  1.0
  O  O256  1  0.28603000  0.11805000  0.36775000  1.0
  O  O257  1  0.37742000  0.32534000  0.30045000  1.0
  O  O258  1  0.20463000  0.38012000  0.29519000  1.0
  O  O259  1  0.22438000  0.10179000  0.52701000  1.0
