# generated using pymatgen
data_CoH12C12(NCl)2
_symmetry_space_group_name_H-M   'P 1'
_cell_length_a   5.35175000
_cell_length_b   8.86032000
_cell_length_c   13.61170000
_cell_angle_alpha   84.95690000
_cell_angle_beta   82.80180000
_cell_angle_gamma   83.35170000
_symmetry_Int_Tables_number   1
_chemical_formula_structural   CoH12C12(NCl)2
_chemical_formula_sum   'Co2 H24 C24 N4 Cl4'
_cell_volume   634.28279935
_cell_formula_units_Z   2
loop_
 _symmetry_equiv_pos_site_id
 _symmetry_equiv_pos_as_xyz
  1  'x, y, z'
loop_
 _atom_site_type_symbol
 _atom_site_label
 _atom_site_symmetry_multiplicity
 _atom_site_fract_x
 _atom_site_fract_y
 _atom_site_fract_z
 _atom_site_occupancy
  Co  Co0  1  0.85969000  0.53740000  0.74222000  1.0
  Co  Co1  1  0.14032000  0.46259000  0.25778000  1.0
  H  H2  1  0.44519000  0.52501000  0.61710000  1.0
  H  H3  1  0.55481000  0.47499000  0.38290000  1.0
  H  H4  1  0.26464000  0.32726000  0.53837000  1.0
  H  H5  1  0.73536000  0.67275000  0.46163000  1.0
  H  H6  1  0.80634000  0.99198000  0.66666667  1.0
  H  H7  1  0.19365000  0.00803000  0.33326000  1.0
  H  H8  1  0.97181000  0.20657000  0.74002000  1.0
  H  H9  1  0.02818000  0.79342000  0.25998000  1.0
  H  H10  1  0.22180000  0.05288000  0.53497000  1.0
  H  H11  1  0.77820000  0.94714000  0.46502000  1.0
  H  H12  1  0.41994000  0.91378000  0.59919000  1.0
  H  H13  1  0.58003000  0.08623000  0.40081000  1.0
  H  H14  1  0.39339000  0.73905000  0.71342000  1.0
  H  H15  1  0.60662000  0.26095000  0.28659000  1.0
  H  H16  1  0.06161000  0.89109000  0.81500000  1.0
  H  H17  1  0.93840000  0.10890000  0.18501000  1.0
  H  H18  1  0.45437000  0.73384000  0.07018000  1.0
  H  H19  1  0.54564000  0.26616000  0.92982000  1.0
  H  H20  1  0.77564000  0.58834000  0.95700000  1.0
  H  H21  1  0.22436000  0.41166000  0.04300000  1.0
  H  H22  1  0.85438000  0.85951000  0.02630000  1.0
  H  H23  1  0.14563000  0.14049000  0.97370000  1.0
  H  H24  1  0.08692000  0.90867000  0.09396000  1.0
  H  H25  1  0.91308000  0.09132000  0.90605000  1.0
  C  C26  1  0.52263000  0.40601000  0.62642000  1.0
  C  C27  1  0.47736000  0.59399000  0.37358000  1.0
  C  C28  1  0.42079000  0.29464000  0.58300000  1.0
  C  C29  1  0.57920000  0.70537000  0.41700000  1.0
  C  C30  1  0.51865000  0.14185000  0.59704000  1.0
  C  C31  1  0.48134000  0.85816000  0.40296000  1.0
  C  C32  1  0.72036000  0.10908000  0.65483000  1.0
  C  C33  1  0.27963000  0.89092000  0.34516000  1.0
  C  C34  1  0.81376000  0.22642000  0.69539000  1.0
  C  C35  1  0.18624000  0.77358000  0.30460000  1.0
  C  C36  1  0.41857000  0.01831000  0.54943000  1.0
  C  C37  1  0.58142000  0.98170000  0.45057000  1.0
  C  C38  1  0.40439000  0.74327000  0.79246000  1.0
  C  C39  1  0.59562000  0.25672000  0.20754000  1.0
  C  C40  1  0.21805000  0.82849000  0.85045000  1.0
  C  C41  1  0.78195000  0.17150000  0.14956000  1.0
  C  C42  1  0.22935000  0.82889000  0.95280000  1.0
  C  C43  1  0.77066000  0.17110000  0.04721000  1.0
  C  C44  1  0.43430000  0.74064000  0.99109000  1.0
  C  C45  1  0.56571000  0.25935000  0.00891000  1.0
  C  C46  1  0.61506000  0.65816000  0.92863000  1.0
  C  C47  1  0.38495000  0.34184000  0.07137000  1.0
  C  C48  1  0.02877000  0.91644000  0.01903000  1.0
  C  C49  1  0.97124000  0.08355000  0.98098000  1.0
  N  N50  1  0.71641000  0.37356000  0.68204000  1.0
  N  N51  1  0.28359000  0.62643000  0.31796000  1.0
  N  N52  1  0.60185000  0.65930000  0.83018000  1.0
  N  N53  1  0.39815000  0.34070000  0.16982000  1.0
  Cl  Cl54  1  0.98773000  0.70179000  0.61753000  1.0
  Cl  Cl55  1  0.01227000  0.29821000  0.38247000  1.0
  Cl  Cl56  1  0.13097000  0.41680000  0.84048000  1.0
  Cl  Cl57  1  0.86904000  0.58319000  0.15952000  1.0
