# generated using pymatgen
data_LiMoH25C21S(N3O4)2
_symmetry_space_group_name_H-M   'P 1'
_cell_length_a   10.44760000
_cell_length_b   10.75920000
_cell_length_c   11.68500000
_cell_angle_alpha   90.15650000
_cell_angle_beta   99.51960000
_cell_angle_gamma   94.36960000
_symmetry_Int_Tables_number   1
_chemical_formula_structural   LiMoH25C21S(N3O4)2
_chemical_formula_sum   'Li2 Mo2 H50 C42 S2 N12 O16'
_cell_volume   1291.47514165
_cell_formula_units_Z   2
loop_
 _symmetry_equiv_pos_site_id
 _symmetry_equiv_pos_as_xyz
  1  'x, y, z'
loop_
 _atom_site_type_symbol
 _atom_site_label
 _atom_site_symmetry_multiplicity
 _atom_site_fract_x
 _atom_site_fract_y
 _atom_site_fract_z
 _atom_site_occupancy
  Li  Li0  1  0.88783000  0.21124000  0.63108000  1.0
  Li  Li1  1  0.11217000  0.78876000  0.36892000  1.0
  Mo  Mo2  1  0.70242000  0.55938000  0.81409000  1.0
  Mo  Mo3  1  0.29758000  0.44062000  0.18591000  1.0
  H  H4  1  0.01991000  0.64447000  0.92937000  1.0
  H  H5  1  0.98009000  0.35553000  0.07063000  1.0
  H  H6  1  0.92563000  0.02268000  0.84721000  1.0
  H  H7  1  0.07437000  0.97732000  0.15279000  1.0
  H  H8  1  0.12445000  0.88751000  0.95134000  1.0
  H  H9  1  0.87555000  0.11249000  0.04866000  1.0
  H  H10  1  0.61676000  0.53901000  0.51753000  1.0
  H  H11  1  0.38324000  0.46099000  0.48247000  1.0
  H  H12  1  0.61435000  0.94111000  0.52907000  1.0
  H  H13  1  0.38565000  0.05888000  0.47093000  1.0
  H  H14  1  0.56937000  0.74301000  0.37743000  1.0
  H  H15  1  0.43063000  0.25699000  0.62257000  1.0
  H  H16  1  0.46701000  0.60744000  0.97644000  1.0
  H  H17  1  0.53299000  0.39256000  0.02356000  1.0
  H  H18  1  0.50537000  0.99292000  0.87371000  1.0
  H  H19  1  0.49462000  0.00708000  0.12629000  1.0
  H  H20  1  0.37035000  0.83419000  0.00343000  1.0
  H  H21  1  0.62965000  0.16581000  0.99656000  1.0
  H  H22  1  0.97651000  0.24051000  0.33523000  1.0
  H  H23  1  0.02349000  0.75949000  0.66477000  1.0
  H  H24  1  0.04014000  0.31868000  0.47061000  1.0
  H  H25  1  0.95986000  0.68132000  0.52939000  1.0
  H  H26  1  0.88676000  0.48035000  0.42898000  1.0
  H  H27  1  0.11324000  0.51965000  0.57102000  1.0
  H  H28  1  0.92385000  0.45413000  0.28761000  1.0
  H  H29  1  0.07615000  0.54587000  0.71239000  1.0
  H  H30  1  0.73326000  0.31122000  0.23380000  1.0
  H  H31  1  0.26674000  0.68878000  0.76620000  1.0
  H  H32  1  0.66933000  0.42107000  0.31729000  1.0
  H  H33  1  0.33068000  0.57893000  0.68271000  1.0
  H  H34  1  0.67779000  0.28349000  0.48098000  1.0
  H  H35  1  0.32221000  0.71651000  0.51902000  1.0
  H  H36  1  0.67490000  0.16530000  0.37289000  1.0
  H  H37  1  0.32511000  0.83470000  0.62711000  1.0
  H  H38  1  0.09099000  0.30995000  0.82844000  1.0
  H  H39  1  0.90901000  0.69005000  0.17156000  1.0
  H  H40  1  0.22038000  0.32200000  0.74480000  1.0
  H  H41  1  0.77962000  0.67800000  0.25520000  1.0
  H  H42  1  0.16212000  0.11531000  0.91274000  1.0
  H  H43  1  0.83788000  0.88469000  0.08726000  1.0
  H  H44  1  0.31560000  0.19420000  0.90103000  1.0
  H  H45  1  0.68440000  0.80580000  0.09897000  1.0
  H  H46  1  0.33228000  0.08398000  0.72697000  1.0
  H  H47  1  0.66772000  0.91602000  0.27303000  1.0
  H  H48  1  0.23955000  0.96593000  0.78954000  1.0
  H  H49  1  0.76045000  0.03408000  0.21046000  1.0
  H  H50  1  0.15554000  0.08809000  0.57449000  1.0
  H  H51  1  0.84446000  0.91192000  0.42551000  1.0
  H  H52  1  0.04881000  0.99948000  0.65369000  1.0
  H  H53  1  0.95119000  0.00052000  0.34631000  1.0
  C  C54  1  0.75899000  0.48798000  0.96413000  1.0
  C  C55  1  0.24101000  0.51202000  0.03587000  1.0
  C  C56  1  0.55646000  0.43442000  0.79420000  1.0
  C  C57  1  0.44354000  0.56558000  0.20580000  1.0
  C  C58  1  0.79585000  0.43812000  0.74837000  1.0
  C  C59  1  0.20415000  0.56188000  0.25163000  1.0
  C  C60  1  0.69064000  0.86627000  0.76624000  1.0
  C  C61  1  0.30936000  0.13373000  0.23376000  1.0
  C  C62  1  0.97445000  0.72890000  0.90127000  1.0
  C  C63  1  0.02555000  0.27110000  0.09873000  1.0
  C  C64  1  0.92880000  0.92338000  0.85874000  1.0
  C  C65  1  0.07120000  0.07662000  0.14126000  1.0
  C  C66  1  0.02741000  0.85333000  0.91040000  1.0
  C  C67  1  0.97259000  0.14667000  0.08960000  1.0
  C  C68  1  0.62254000  0.63718000  0.54095000  1.0
  C  C69  1  0.37746000  0.36282000  0.45905000  1.0
  C  C70  1  0.62159000  0.84307000  0.54552000  1.0
  C  C71  1  0.37841000  0.15693000  0.45448000  1.0
  C  C72  1  0.59954000  0.74147000  0.47055000  1.0
  C  C73  1  0.40046000  0.25853000  0.52945000  1.0
  C  C74  1  0.49372000  0.69655000  0.94067000  1.0
  C  C75  1  0.50628000  0.30345000  0.05933000  1.0
  C  C76  1  0.51167000  0.89454000  0.88912000  1.0
  C  C77  1  0.48833000  0.10546000  0.11088000  1.0
  C  C78  1  0.44384000  0.81272000  0.95251000  1.0
  C  C79  1  0.55616000  0.18728000  0.04749000  1.0
  C  C80  1  0.95200000  0.29743000  0.40613000  1.0
  C  C81  1  0.04800000  0.70257000  0.59387000  1.0
  C  C82  1  0.88242000  0.41039000  0.35929000  1.0
  C  C83  1  0.11758000  0.58962000  0.64071000  1.0
  C  C84  1  0.74276000  0.35286000  0.32092000  1.0
  C  C85  1  0.25724000  0.64714000  0.67908000  1.0
  C  C86  1  0.72717000  0.25219000  0.41105000  1.0
  C  C87  1  0.27283000  0.74781000  0.58895000  1.0
  C  C88  1  0.15176000  0.25689000  0.78125000  1.0
  C  C89  1  0.84824000  0.74311000  0.21875000  1.0
  C  C90  1  0.22227000  0.15662000  0.85170000  1.0
  C  C91  1  0.77773000  0.84338000  0.14831000  1.0
  C  C92  1  0.23965000  0.06175000  0.75766000  1.0
  C  C93  1  0.76035000  0.93825000  0.24234000  1.0
  C  C94  1  0.12461000  0.07699000  0.65970000  1.0
  C  C95  1  0.87539000  0.92301000  0.34030000  1.0
  S  S96  1  0.68334000  0.04282000  0.74012000  1.0
  S  S97  1  0.31666000  0.95718000  0.25988000  1.0
  N  N98  1  0.85091000  0.72180000  0.84712000  1.0
  N  N99  1  0.14909000  0.27820000  0.15288000  1.0
  N  N100  1  0.82279000  0.84188000  0.82082000  1.0
  N  N101  1  0.17722000  0.15812000  0.17918000  1.0
  N  N102  1  0.65571000  0.67114000  0.65293000  1.0
  N  N103  1  0.34429000  0.32886000  0.34707000  1.0
  N  N104  1  0.65602000  0.79863000  0.65523000  1.0
  N  N105  1  0.34398000  0.20137000  0.34477000  1.0
  N  N106  1  0.58657000  0.70530000  0.87446000  1.0
  N  N107  1  0.41343000  0.29470000  0.12554000  1.0
  N  N108  1  0.59785000  0.82766000  0.84276000  1.0
  N  N109  1  0.40215000  0.17234000  0.15724000  1.0
  O  O110  1  0.79676000  0.44768000  0.05701000  1.0
  O  O111  1  0.20324000  0.55232000  0.94299000  1.0
  O  O112  1  0.46657000  0.35881000  0.78737000  1.0
  O  O113  1  0.53343000  0.64119000  0.21263000  1.0
  O  O114  1  0.84916000  0.35958000  0.70554000  1.0
  O  O115  1  0.15084000  0.64042000  0.29446000  1.0
  O  O116  1  0.72248000  0.09700000  0.85563000  1.0
  O  O117  1  0.27753000  0.90299000  0.14437000  1.0
  O  O118  1  0.77886000  0.06587000  0.66235000  1.0
  O  O119  1  0.22114000  0.93413000  0.33765000  1.0
  O  O120  1  0.54943000  0.05316000  0.68622000  1.0
  O  O121  1  0.45057000  0.94684000  0.31378000  1.0
  O  O122  1  0.85886000  0.22517000  0.46397000  1.0
  O  O123  1  0.14115000  0.77483000  0.53603000  1.0
  O  O124  1  0.06545000  0.18898000  0.68767000  1.0
  O  O125  1  0.93455000  0.81102000  0.31233000  1.0
