# generated using pymatgen
data_MnH9C5SNO5
_symmetry_space_group_name_H-M   'P 1'
_cell_length_a   5.02003000
_cell_length_b   8.62013000
_cell_length_c   9.54779000
_cell_angle_alpha   89.99940000
_cell_angle_beta   89.99960000
_cell_angle_gamma   85.14810000
_symmetry_Int_Tables_number   1
_chemical_formula_structural   MnH9C5SNO5
_chemical_formula_sum   'Mn2 H18 C10 S2 N2 O10'
_cell_volume   411.68397617
_cell_formula_units_Z   2
loop_
 _symmetry_equiv_pos_site_id
 _symmetry_equiv_pos_as_xyz
  1  'x, y, z'
loop_
 _atom_site_type_symbol
 _atom_site_label
 _atom_site_symmetry_multiplicity
 _atom_site_fract_x
 _atom_site_fract_y
 _atom_site_fract_z
 _atom_site_occupancy
  Mn  Mn0  1  0.80118000  0.41776000  0.54389000  1.0
  Mn  Mn1  1  0.19879000  0.58226000  0.04390000  1.0
  H  H2  1  0.25663000  0.53337000  0.43426000  1.0
  H  H3  1  0.74335000  0.46662000  0.93427000  1.0
  H  H4  1  0.00902000  0.63081000  0.37252000  1.0
  H  H5  1  0.99096000  0.36919000  0.87253000  1.0
  H  H6  1  0.75204000  0.13739000  0.44045000  1.0
  H  H7  1  0.24797000  0.86260000  0.94045000  1.0
  H  H8  1  0.06720000  0.16186000  0.39582000  1.0
  H  H9  1  0.93282000  0.83815000  0.89581000  1.0
  H  H10  1  0.96042000  0.30602000  0.20265000  1.0
  H  H11  1  0.03961000  0.69399000  0.70266000  1.0
  H  H12  1  0.89271000  0.02576000  0.16352000  1.0
  H  H13  1  0.10733000  0.97424000  0.66352000  1.0
  H  H14  1  0.69588000  0.15714000  0.05434000  1.0
  H  H15  1  0.30419000  0.84287000  0.55434000  1.0
  H  H16  1  0.68086000  0.86472000  0.38372000  1.0
  H  H17  1  0.31911000  0.13528000  0.88373000  1.0
  H  H18  1  0.37737000  0.79079000  0.32502000  1.0
  H  H19  1  0.62258000  0.20923000  0.82504000  1.0
  C  C20  1  0.56324000  0.38482000  0.25415000  1.0
  C  C21  1  0.43677000  0.61516000  0.75416000  1.0
  C  C22  1  0.79154000  0.25396000  0.25329000  1.0
  C  C23  1  0.20848000  0.74605000  0.75330000  1.0
  C  C24  1  0.72600000  0.11675000  0.16236000  1.0
  C  C25  1  0.27403000  0.88325000  0.66237000  1.0
  C  C26  1  0.55589000  0.84645000  0.29192000  1.0
  C  C27  1  0.44409000  0.15354000  0.79193000  1.0
  C  C28  1  0.70411000  0.74221000  0.18393000  1.0
  C  C29  1  0.29590000  0.25779000  0.68392000  1.0
  S  S30  1  0.42392000  0.03025000  0.21654000  1.0
  S  S31  1  0.57609000  0.96976000  0.71655000  1.0
  N  N32  1  0.87553000  0.21360000  0.39740000  1.0
  N  N33  1  0.12447000  0.78639000  0.89740000  1.0
  O  O34  1  0.07388000  0.57780000  0.46014000  1.0
  O  O35  1  0.92610000  0.42220000  0.96015000  1.0
  O  O36  1  0.56044000  0.48397000  0.35322000  1.0
  O  O37  1  0.43955000  0.51602000  0.85324000  1.0
  O  O38  1  0.39632000  0.38992000  0.15412000  1.0
  O  O39  1  0.60368000  0.61006000  0.65414000  1.0
  O  O40  1  0.58109000  0.69985000  0.07768000  1.0
  O  O41  1  0.41889000  0.30015000  0.57768000  1.0
  O  O42  1  0.95548000  0.70570000  0.20564000  1.0
  O  O43  1  0.04451000  0.29429000  0.70565000  1.0
