# generated using pymatgen
data_La2H24C51(O2F3)6
_symmetry_space_group_name_H-M   'P 1'
_cell_length_a   7.66838000
_cell_length_b   21.35810000
_cell_length_c   36.89330000
_cell_angle_alpha   90.00000000
_cell_angle_beta   89.99990000
_cell_angle_gamma   90.00000000
_symmetry_Int_Tables_number   1
_chemical_formula_structural   La2H24C51(O2F3)6
_chemical_formula_sum   'La8 H96 C204 O48 F72'
_cell_volume   6042.45945221
_cell_formula_units_Z   4
loop_
 _symmetry_equiv_pos_site_id
 _symmetry_equiv_pos_as_xyz
  1  'x, y, z'
loop_
 _atom_site_type_symbol
 _atom_site_label
 _atom_site_symmetry_multiplicity
 _atom_site_fract_x
 _atom_site_fract_y
 _atom_site_fract_z
 _atom_site_occupancy
  La  La0  1  0.70038000  0.50045000  0.33752000  1.0
  La  La1  1  0.79962000  0.50045000  0.66248000  1.0
  La  La2  1  0.79962000  0.99955000  0.83752000  1.0
  La  La3  1  0.70038000  0.99955000  0.16248000  1.0
  La  La4  1  0.29962000  0.49955000  0.66248000  1.0
  La  La5  1  0.20038000  0.49955000  0.33752000  1.0
  La  La6  1  0.20038000  0.00045000  0.16248000  1.0
  La  La7  1  0.29962000  0.00045000  0.83752000  1.0
  H  H8  1  0.21067000  0.33920000  0.31880000  1.0
  H  H9  1  0.28933000  0.33920000  0.68120000  1.0
  H  H10  1  0.28933000  0.16080000  0.81880000  1.0
  H  H11  1  0.21067000  0.16080000  0.18120000  1.0
  H  H12  1  0.78933000  0.66079000  0.68120000  1.0
  H  H13  1  0.71067000  0.66080000  0.31880000  1.0
  H  H14  1  0.71066000  0.83920000  0.18120000  1.0
  H  H15  1  0.78933000  0.83920000  0.81880000  1.0
  H  H16  1  0.74368000  0.27924000  0.37348000  1.0
  H  H17  1  0.75632000  0.27924000  0.62652000  1.0
  H  H18  1  0.75632000  0.22076000  0.87348000  1.0
  H  H19  1  0.74368000  0.22076000  0.12652000  1.0
  H  H20  1  0.25632000  0.72076000  0.62652000  1.0
  H  H21  1  0.24367000  0.72076000  0.37348000  1.0
  H  H22  1  0.24368000  0.77924000  0.12652000  1.0
  H  H23  1  0.25633000  0.77924000  0.87348000  1.0
  H  H24  1  0.87453000  0.17558000  0.38440000  1.0
  H  H25  1  0.62547000  0.17558000  0.61560000  1.0
  H  H26  1  0.62547000  0.32442000  0.88440000  1.0
  H  H27  1  0.87453000  0.32442000  0.11560000  1.0
  H  H28  1  0.12547000  0.82442000  0.61560000  1.0
  H  H29  1  0.37453000  0.82442000  0.38440000  1.0
  H  H30  1  0.37453000  0.67558000  0.11560000  1.0
  H  H31  1  0.12547000  0.67558000  0.88440000  1.0
  H  H32  1  0.54167000  0.08053000  0.35066000  1.0
  H  H33  1  0.95833000  0.08053000  0.64934000  1.0
  H  H34  1  0.95833000  0.41947000  0.85066000  1.0
  H  H35  1  0.54167000  0.41947000  0.14933000  1.0
  H  H36  1  0.45833000  0.91947000  0.64934000  1.0
  H  H37  1  0.04167000  0.91947000  0.35066000  1.0
  H  H38  1  0.04167000  0.58053000  0.14934000  1.0
  H  H39  1  0.45833000  0.58053000  0.85066000  1.0
  H  H40  1  0.66334000  0.04735000  0.29184000  1.0
  H  H41  1  0.83666000  0.04735000  0.70816000  1.0
  H  H42  1  0.83666000  0.45265000  0.79184000  1.0
  H  H43  1  0.66334000  0.45265000  0.20816000  1.0
  H  H44  1  0.33666000  0.95265000  0.70816000  1.0
  H  H45  1  0.16334000  0.95265000  0.29184000  1.0
  H  H46  1  0.16334000  0.54735000  0.20816000  1.0
  H  H47  1  0.33666000  0.54735000  0.79184000  1.0
  H  H48  1  0.19099000  0.10399000  0.23807000  1.0
  H  H49  1  0.30901000  0.10399000  0.76193000  1.0
  H  H50  1  0.30901000  0.39601000  0.73807000  1.0
  H  H51  1  0.19099000  0.39602000  0.26193000  1.0
  H  H52  1  0.80901000  0.89601000  0.76193000  1.0
  H  H53  1  0.69099000  0.89601000  0.23807000  1.0
  H  H54  1  0.69099000  0.60398000  0.26193000  1.0
  H  H55  1  0.80901000  0.60398000  0.73807000  1.0
  H  H56  1  0.06937000  0.13936000  0.29649000  1.0
  H  H57  1  0.43063000  0.13936000  0.70351000  1.0
  H  H58  1  0.43063000  0.36064000  0.79649000  1.0
  H  H59  1  0.06938000  0.36064000  0.20351000  1.0
  H  H60  1  0.93063000  0.86064000  0.70351000  1.0
  H  H61  1  0.56937000  0.86064000  0.29649000  1.0
  H  H62  1  0.56937000  0.63936000  0.20351000  1.0
  H  H63  1  0.93063000  0.63936000  0.79649000  1.0
  H  H64  1  0.76811000  0.67606000  0.42542000  1.0
  H  H65  1  0.73190000  0.67606000  0.57458000  1.0
  H  H66  1  0.73189000  0.82394000  0.92542000  1.0
  H  H67  1  0.76811000  0.82394000  0.07458000  1.0
  H  H68  1  0.23189000  0.32394000  0.57458000  1.0
  H  H69  1  0.26811000  0.32394000  0.42542000  1.0
  H  H70  1  0.26810000  0.17606000  0.07458000  1.0
  H  H71  1  0.23190000  0.17606000  0.92542000  1.0
  H  H72  1  0.91478000  0.74425000  0.46982000  1.0
  H  H73  1  0.58522000  0.74426000  0.53018000  1.0
  H  H74  1  0.58522000  0.75575000  0.96982000  1.0
  H  H75  1  0.91478000  0.75575000  0.03018000  1.0
  H  H76  1  0.08522000  0.25575000  0.53018000  1.0
  H  H77  1  0.41478000  0.25575000  0.46982000  1.0
  H  H78  1  0.41478000  0.24426000  0.03018000  1.0
  H  H79  1  0.08522000  0.24425000  0.96982000  1.0
  H  H80  1  0.36260000  0.62129000  0.46823000  1.0
  H  H81  1  0.13740000  0.62129000  0.53177000  1.0
  H  H82  1  0.13740000  0.87871000  0.96823000  1.0
  H  H83  1  0.36259000  0.87871000  0.03177000  1.0
  H  H84  1  0.63740000  0.37871000  0.53177000  1.0
  H  H85  1  0.86260000  0.37871000  0.46823000  1.0
  H  H86  1  0.86259000  0.12129000  0.03177000  1.0
  H  H87  1  0.63741000  0.12129000  0.96823000  1.0
  H  H88  1  0.21278000  0.55324000  0.42428000  1.0
  H  H89  1  0.28722000  0.55324000  0.57572000  1.0
  H  H90  1  0.28722000  0.94676000  0.92428000  1.0
  H  H91  1  0.21278000  0.94676000  0.07572000  1.0
  H  H92  1  0.78722000  0.44676000  0.57572000  1.0
  H  H93  1  0.71278000  0.44676000  0.42428000  1.0
  H  H94  1  0.71277000  0.05324000  0.07572000  1.0
  H  H95  1  0.78722000  0.05324000  0.92428000  1.0
  H  H96  1  0.34125000  0.23523000  0.32848000  1.0
  H  H97  1  0.15875000  0.23523000  0.67152000  1.0
  H  H98  1  0.15875000  0.26477000  0.82848000  1.0
  H  H99  1  0.34125000  0.26477000  0.17152000  1.0
  H  H100  1  0.65875000  0.76477000  0.67152000  1.0
  H  H101  1  0.84125000  0.76477000  0.32848000  1.0
  H  H102  1  0.84125000  0.73523000  0.17152000  1.0
  H  H103  1  0.65875000  0.73523000  0.82848000  1.0
  C  C104  1  0.88502000  0.37771000  0.34005000  1.0
  C  C105  1  0.61498000  0.37771000  0.65995000  1.0
  C  C106  1  0.61498000  0.12229000  0.84005000  1.0
  C  C107  1  0.88502000  0.12229000  0.15995000  1.0
  C  C108  1  0.11498000  0.62229000  0.65995000  1.0
  C  C109  1  0.38502000  0.62229000  0.34005000  1.0
  C  C110  1  0.38502000  0.87771000  0.15995000  1.0
  C  C111  1  0.11498000  0.87771000  0.84005000  1.0
  C  C112  1  0.96720000  0.31552000  0.34515000  1.0
  C  C113  1  0.53280000  0.31551000  0.65485000  1.0
  C  C114  1  0.53280000  0.18448000  0.84515000  1.0
  C  C115  1  0.96720000  0.18448000  0.15485000  1.0
  C  C116  1  0.03280000  0.68448000  0.65485000  1.0
  C  C117  1  0.46720000  0.68448000  0.34515000  1.0
  C  C118  1  0.46720000  0.81552000  0.15485000  1.0
  C  C119  1  0.03280000  0.81551000  0.84515000  1.0
  C  C120  1  0.13637000  0.30304000  0.33275000  1.0
  C  C121  1  0.36363000  0.30304000  0.66725000  1.0
  C  C122  1  0.36363000  0.19696000  0.83274000  1.0
  C  C123  1  0.13637000  0.19696000  0.16725000  1.0
  C  C124  1  0.86363000  0.69696000  0.66725000  1.0
  C  C125  1  0.63637000  0.69696000  0.33275000  1.0
  C  C126  1  0.63637000  0.80304000  0.16725000  1.0
  C  C127  1  0.86363000  0.80304000  0.83275000  1.0
  C  C128  1  0.87442000  0.26892000  0.36356000  1.0
  C  C129  1  0.62558000  0.26892000  0.63644000  1.0
  C  C130  1  0.62558000  0.23108000  0.86356000  1.0
  C  C131  1  0.87442000  0.23108000  0.13644000  1.0
  C  C132  1  0.12558000  0.73108000  0.63644000  1.0
  C  C133  1  0.37442000  0.73108000  0.36356000  1.0
  C  C134  1  0.37442000  0.76892000  0.13644000  1.0
  C  C135  1  0.12558000  0.76892000  0.86356000  1.0
  C  C136  1  0.94921000  0.21046000  0.36963000  1.0
  C  C137  1  0.55079000  0.21046000  0.63037000  1.0
  C  C138  1  0.55079000  0.28954000  0.86963000  1.0
  C  C139  1  0.94921000  0.28953000  0.13037000  1.0
  C  C140  1  0.05079000  0.78953000  0.63037000  1.0
  C  C141  1  0.44921000  0.78954000  0.36963000  1.0
  C  C142  1  0.44921000  0.71046000  0.13037000  1.0
  C  C143  1  0.05079000  0.71046000  0.86963000  1.0
  C  C144  1  0.11766000  0.19764000  0.35709000  1.0
  C  C145  1  0.38234000  0.19764000  0.64291000  1.0
  C  C146  1  0.38234000  0.30236000  0.85709000  1.0
  C  C147  1  0.11766000  0.30236000  0.14291000  1.0
  C  C148  1  0.88234000  0.80236000  0.64291000  1.0
  C  C149  1  0.61766000  0.80236000  0.35709000  1.0
  C  C150  1  0.61766000  0.69764000  0.14291000  1.0
  C  C151  1  0.88234000  0.69764000  0.85709000  1.0
  C  C152  1  0.34387000  0.14583000  0.39480000  1.0
  C  C153  1  0.15613000  0.14583000  0.60520000  1.0
  C  C154  1  0.15613000  0.35417000  0.89480000  1.0
  C  C155  1  0.34387000  0.35417000  0.10520000  1.0
  C  C156  1  0.65614000  0.85417000  0.60520000  1.0
  C  C157  1  0.84387000  0.85417000  0.39480000  1.0
  C  C158  1  0.84387000  0.64583000  0.10520000  1.0
  C  C159  1  0.65613000  0.64583000  0.89480000  1.0
  C  C160  1  0.29706000  0.11320000  0.32779000  1.0
  C  C161  1  0.20294000  0.11320000  0.67221000  1.0
  C  C162  1  0.20294000  0.38680000  0.82779000  1.0
  C  C163  1  0.29706000  0.38680000  0.17221000  1.0
  C  C164  1  0.70294000  0.88680000  0.67221000  1.0
  C  C165  1  0.79706000  0.88680000  0.32779000  1.0
  C  C166  1  0.79706000  0.61320000  0.17221000  1.0
  C  C167  1  0.70294000  0.61320000  0.82779000  1.0
  C  C168  1  0.46404000  0.08684000  0.32630000  1.0
  C  C169  1  0.03596000  0.08684000  0.67370000  1.0
  C  C170  1  0.03596000  0.41316000  0.82630000  1.0
  C  C171  1  0.46404000  0.41316000  0.17370000  1.0
  C  C172  1  0.53596000  0.91316000  0.67370000  1.0
  C  C173  1  0.96404000  0.91316000  0.32630000  1.0
  C  C174  1  0.96404000  0.58684000  0.17370000  1.0
  C  C175  1  0.53596000  0.58684000  0.82630000  1.0
  C  C176  1  0.53346000  0.06793000  0.29320000  1.0
  C  C177  1  0.96654000  0.06793000  0.70680000  1.0
  C  C178  1  0.96654000  0.43207000  0.79320000  1.0
  C  C179  1  0.53346000  0.43207000  0.20679000  1.0
  C  C180  1  0.46654000  0.93207000  0.70680000  1.0
  C  C181  1  0.03346000  0.93207000  0.29320000  1.0
  C  C182  1  0.03346000  0.56793000  0.20680000  1.0
  C  C183  1  0.46654000  0.56793000  0.79320000  1.0
  C  C184  1  0.43662000  0.07453000  0.26124000  1.0
  C  C185  1  0.06338000  0.07453000  0.73876000  1.0
  C  C186  1  0.06338000  0.42547000  0.76124000  1.0
  C  C187  1  0.43662000  0.42547000  0.23876000  1.0
  C  C188  1  0.56339000  0.92547000  0.73876000  1.0
  C  C189  1  0.93662000  0.92547000  0.26124000  1.0
  C  C190  1  0.93662000  0.57453000  0.23876000  1.0
  C  C191  1  0.56338000  0.57453000  0.76124000  1.0
  C  C192  1  0.26830000  0.09982000  0.26271000  1.0
  C  C193  1  0.23170000  0.09982000  0.73729000  1.0
  C  C194  1  0.23170000  0.40019000  0.76271000  1.0
  C  C195  1  0.26830000  0.40019000  0.23729000  1.0
  C  C196  1  0.73170000  0.90018000  0.73729000  1.0
  C  C197  1  0.76830000  0.90018000  0.26271000  1.0
  C  C198  1  0.76830000  0.59982000  0.23729000  1.0
  C  C199  1  0.73170000  0.59981000  0.76271000  1.0
  C  C200  1  0.19967000  0.11913000  0.29569000  1.0
  C  C201  1  0.30033000  0.11913000  0.70431000  1.0
  C  C202  1  0.30033000  0.38087000  0.79569000  1.0
  C  C203  1  0.19967000  0.38087000  0.20431000  1.0
  C  C204  1  0.80033000  0.88087000  0.70431000  1.0
  C  C205  1  0.69967000  0.88087000  0.29569000  1.0
  C  C206  1  0.69967000  0.61913000  0.20431000  1.0
  C  C207  1  0.80033000  0.61913000  0.79569000  1.0
  C  C208  1  0.88723000  0.57084000  0.39525000  1.0
  C  C209  1  0.61278000  0.57084000  0.60475000  1.0
  C  C210  1  0.61277000  0.92916000  0.89525000  1.0
  C  C211  1  0.88723000  0.92916000  0.10475000  1.0
  C  C212  1  0.11277000  0.42916000  0.60475000  1.0
  C  C213  1  0.38723000  0.42916000  0.39525000  1.0
  C  C214  1  0.38722000  0.07084000  0.10475000  1.0
  C  C215  1  0.11277000  0.07084000  0.89525000  1.0
  C  C216  1  0.97959000  0.61010000  0.42230000  1.0
  C  C217  1  0.52042000  0.61010000  0.57770000  1.0
  C  C218  1  0.52041000  0.88990000  0.92230000  1.0
  C  C219  1  0.97958000  0.88990000  0.07770000  1.0
  C  C220  1  0.02042000  0.38990000  0.57770000  1.0
  C  C221  1  0.47959000  0.38990000  0.42230000  1.0
  C  C222  1  0.47958000  0.11010000  0.07770000  1.0
  C  C223  1  0.02042000  0.11010000  0.92230000  1.0
  C  C224  1  0.89779000  0.66417000  0.43533000  1.0
  C  C225  1  0.60221000  0.66417000  0.56467000  1.0
  C  C226  1  0.60221000  0.83583000  0.93533000  1.0
  C  C227  1  0.89779000  0.83583000  0.06467000  1.0
  C  C228  1  0.10221000  0.33583000  0.56467000  1.0
  C  C229  1  0.39779000  0.33583000  0.43533000  1.0
  C  C230  1  0.39779000  0.16417000  0.06467000  1.0
  C  C231  1  0.10221000  0.16417000  0.93533000  1.0
  C  C232  1  0.98156000  0.70243000  0.46042000  1.0
  C  C233  1  0.51844000  0.70243000  0.53958000  1.0
  C  C234  1  0.51843000  0.79757000  0.96042000  1.0
  C  C235  1  0.98156000  0.79757000  0.03958000  1.0
  C  C236  1  0.01844000  0.29757000  0.53958000  1.0
  C  C237  1  0.48156000  0.29757000  0.46042000  1.0
  C  C238  1  0.48156000  0.20243000  0.03958000  1.0
  C  C239  1  0.01843000  0.20243000  0.96042000  1.0
  C  C240  1  0.14888000  0.68722000  0.47286000  1.0
  C  C241  1  0.35112000  0.68722000  0.52714000  1.0
  C  C242  1  0.35112000  0.81278000  0.97286000  1.0
  C  C243  1  0.14888000  0.81278000  0.02714000  1.0
  C  C244  1  0.85112000  0.31278000  0.52714000  1.0
  C  C245  1  0.64887000  0.31278000  0.47286000  1.0
  C  C246  1  0.64887000  0.18722000  0.02714000  1.0
  C  C247  1  0.85112000  0.18722000  0.97286000  1.0
  C  C248  1  0.23179000  0.63350000  0.45918000  1.0
  C  C249  1  0.26821000  0.63350000  0.54082000  1.0
  C  C250  1  0.26821000  0.86650000  0.95918000  1.0
  C  C251  1  0.23179000  0.86650000  0.04082000  1.0
  C  C252  1  0.76821000  0.36650000  0.54082000  1.0
  C  C253  1  0.73179000  0.36650000  0.45918000  1.0
  C  C254  1  0.73179000  0.13350000  0.04082000  1.0
  C  C255  1  0.76821000  0.13350000  0.95918000  1.0
  C  C256  1  0.25000000  0.72824000  0.50000000  1.0
  C  C257  1  0.25000000  0.77176000  0.00000000  1.0
  C  C258  1  0.75000000  0.27176000  0.50000000  1.0
  C  C259  1  0.75000000  0.22824000  0.00000000  1.0
  C  C260  1  0.51487000  0.05338000  0.22658000  1.0
  C  C261  1  0.98513000  0.05338000  0.77342000  1.0
  C  C262  1  0.98513000  0.44662000  0.72658000  1.0
  C  C263  1  0.51487000  0.44662000  0.27342000  1.0
  C  C264  1  0.48513000  0.94662000  0.77342000  1.0
  C  C265  1  0.01487000  0.94662000  0.22658000  1.0
  C  C266  1  0.01487000  0.55338000  0.27342000  1.0
  C  C267  1  0.48513000  0.55338000  0.72658000  1.0
  C  C268  1  0.14765000  0.59507000  0.43435000  1.0
  C  C269  1  0.35235000  0.59507000  0.56565000  1.0
  C  C270  1  0.35235000  0.90493000  0.93435000  1.0
  C  C271  1  0.14765000  0.90493000  0.06565000  1.0
  C  C272  1  0.85235000  0.40493000  0.56565000  1.0
  C  C273  1  0.64765000  0.40493000  0.43435000  1.0
  C  C274  1  0.64765000  0.09507000  0.06565000  1.0
  C  C275  1  0.85235000  0.09507000  0.93435000  1.0
  C  C276  1  0.21035000  0.24457000  0.33855000  1.0
  C  C277  1  0.28965000  0.24457000  0.66145000  1.0
  C  C278  1  0.28965000  0.25543000  0.83855000  1.0
  C  C279  1  0.21035000  0.25543000  0.16145000  1.0
  C  C280  1  0.78965000  0.75543000  0.66145000  1.0
  C  C281  1  0.71035000  0.75543000  0.33855000  1.0
  C  C282  1  0.71035000  0.74457000  0.16145000  1.0
  C  C283  1  0.78965000  0.74457000  0.83855000  1.0
  C  C284  1  0.08437000  0.08085000  0.37495000  1.0
  C  C285  1  0.41563000  0.08085000  0.62505000  1.0
  C  C286  1  0.41563000  0.41915000  0.87495000  1.0
  C  C287  1  0.08437000  0.41915000  0.12505000  1.0
  C  C288  1  0.91563000  0.91915000  0.62505000  1.0
  C  C289  1  0.58437000  0.91915000  0.37495000  1.0
  C  C290  1  0.58437000  0.58085000  0.12505000  1.0
  C  C291  1  0.91562000  0.58085000  0.87495000  1.0
  C  C292  1  0.12810000  0.77103000  0.52326000  1.0
  C  C293  1  0.37190000  0.77104000  0.47674000  1.0
  C  C294  1  0.37190000  0.72897000  0.02326000  1.0
  C  C295  1  0.12810000  0.72897000  0.97674000  1.0
  C  C296  1  0.87190000  0.22897000  0.47674000  1.0
  C  C297  1  0.62810000  0.22897000  0.52326000  1.0
  C  C298  1  0.62810000  0.27103000  0.97674000  1.0
  C  C299  1  0.87190000  0.27103000  0.02326000  1.0
  C  C300  1  0.21064000  0.13472000  0.36328000  1.0
  C  C301  1  0.28936000  0.13472000  0.63672000  1.0
  C  C302  1  0.28936000  0.36528000  0.86328000  1.0
  C  C303  1  0.21064000  0.36528000  0.13672000  1.0
  C  C304  1  0.78936000  0.86528000  0.63672000  1.0
  C  C305  1  0.71064000  0.86528000  0.36328000  1.0
  C  C306  1  0.71064000  0.63472000  0.13672000  1.0
  C  C307  1  0.78936000  0.63472000  0.86328000  1.0
  O  O308  1  0.73056000  0.38692000  0.35116000  1.0
  O  O309  1  0.76944000  0.38692000  0.64884000  1.0
  O  O310  1  0.76944000  0.11308000  0.85116000  1.0
  O  O311  1  0.73056000  0.11308000  0.14884000  1.0
  O  O312  1  0.26944000  0.61308000  0.64884000  1.0
  O  O313  1  0.23056000  0.61308000  0.35116000  1.0
  O  O314  1  0.23056000  0.88692000  0.14884000  1.0
  O  O315  1  0.26944000  0.88692000  0.85116000  1.0
  O  O316  1  0.96396000  0.52131000  0.38212000  1.0
  O  O317  1  0.53604000  0.52131000  0.61788000  1.0
  O  O318  1  0.53604000  0.97869000  0.88212000  1.0
  O  O319  1  0.96396000  0.97869000  0.11788000  1.0
  O  O320  1  0.03604000  0.47869000  0.61788000  1.0
  O  O321  1  0.46396000  0.47869000  0.38212000  1.0
  O  O322  1  0.46396000  0.02131000  0.11788000  1.0
  O  O323  1  0.03604000  0.02131000  0.88212000  1.0
  O  O324  1  0.42694000  0.05729000  0.19663000  1.0
  O  O325  1  0.07306000  0.05729000  0.80337000  1.0
  O  O326  1  0.07306000  0.44271000  0.69663000  1.0
  O  O327  1  0.42694000  0.44271000  0.30337000  1.0
  O  O328  1  0.57306000  0.94271000  0.80337000  1.0
  O  O329  1  0.92694000  0.94271000  0.19663000  1.0
  O  O330  1  0.92694000  0.55729000  0.30337000  1.0
  O  O331  1  0.57306000  0.55729000  0.69663000  1.0
  O  O332  1  0.66857000  0.03144000  0.22675000  1.0
  O  O333  1  0.83143000  0.03144000  0.77325000  1.0
  O  O334  1  0.83143000  0.46856000  0.72675000  1.0
  O  O335  1  0.66857000  0.46856000  0.27325000  1.0
  O  O336  1  0.33143000  0.96856000  0.77325000  1.0
  O  O337  1  0.16857000  0.96856000  0.22675000  1.0
  O  O338  1  0.16857000  0.53144000  0.27325000  1.0
  O  O339  1  0.33142000  0.53144000  0.72675000  1.0
  O  O340  1  0.73501000  0.58531000  0.38508000  1.0
  O  O341  1  0.76499000  0.58531000  0.61492000  1.0
  O  O342  1  0.76499000  0.91469000  0.88508000  1.0
  O  O343  1  0.73501000  0.91469000  0.11492000  1.0
  O  O344  1  0.26499000  0.41469000  0.61492000  1.0
  O  O345  1  0.23501000  0.41469000  0.38508000  1.0
  O  O346  1  0.23501000  0.08531000  0.11493000  1.0
  O  O347  1  0.26499000  0.08531000  0.88507000  1.0
  O  O348  1  0.97165000  0.42248000  0.32449000  1.0
  O  O349  1  0.52835000  0.42248000  0.67551000  1.0
  O  O350  1  0.52835000  0.07752000  0.82449000  1.0
  O  O351  1  0.97165000  0.07752000  0.17551000  1.0
  O  O352  1  0.02835000  0.57752000  0.67551000  1.0
  O  O353  1  0.47165000  0.57752000  0.32449000  1.0
  O  O354  1  0.47165000  0.92248000  0.17551000  1.0
  O  O355  1  0.02835000  0.92248000  0.82449000  1.0
  F  F356  1  0.94712000  0.07620000  0.35155000  1.0
  F  F357  1  0.55288000  0.07620000  0.64845000  1.0
  F  F358  1  0.55288000  0.42380000  0.85155000  1.0
  F  F359  1  0.94711000  0.42380000  0.14845000  1.0
  F  F360  1  0.05289000  0.92380000  0.64845000  1.0
  F  F361  1  0.44712000  0.92380000  0.35155000  1.0
  F  F362  1  0.44712000  0.57620000  0.14845000  1.0
  F  F363  1  0.05288000  0.57620000  0.85155000  1.0
  F  F364  1  0.01685000  0.08847000  0.40876000  1.0
  F  F365  1  0.48315000  0.08847000  0.59124000  1.0
  F  F366  1  0.48315000  0.41153000  0.90876000  1.0
  F  F367  1  0.01685000  0.41153000  0.09124000  1.0
  F  F368  1  0.98314000  0.91153000  0.59124000  1.0
  F  F369  1  0.51685000  0.91153000  0.40876000  1.0
  F  F370  1  0.51685000  0.58847000  0.09124000  1.0
  F  F371  1  0.98315000  0.58847000  0.90876000  1.0
  F  F372  1  0.26629000  0.17517000  0.42329000  1.0
  F  F373  1  0.23371000  0.17517000  0.57671000  1.0
  F  F374  1  0.23371000  0.32483000  0.92329000  1.0
  F  F375  1  0.26629000  0.32483000  0.07671000  1.0
  F  F376  1  0.73371000  0.82483000  0.57671000  1.0
  F  F377  1  0.76629000  0.82483000  0.42329000  1.0
  F  F378  1  0.76630000  0.67517000  0.07671000  1.0
  F  F379  1  0.73371000  0.67517000  0.92329000  1.0
  F  F380  1  0.47798000  0.18335000  0.38378000  1.0
  F  F381  1  0.02201000  0.18335000  0.61622000  1.0
  F  F382  1  0.02201000  0.31666000  0.88378000  1.0
  F  F383  1  0.47799000  0.31666000  0.11622000  1.0
  F  F384  1  0.52201000  0.81665000  0.61622000  1.0
  F  F385  1  0.97799000  0.81666000  0.38378000  1.0
  F  F386  1  0.97799000  0.68334000  0.11622000  1.0
  F  F387  1  0.52201000  0.68335000  0.88378000  1.0
  F  F388  1  0.16716000  0.02451000  0.37459000  1.0
  F  F389  1  0.33284000  0.02451000  0.62541000  1.0
  F  F390  1  0.33283000  0.47549000  0.87459000  1.0
  F  F391  1  0.16716000  0.47549000  0.12541000  1.0
  F  F392  1  0.83284000  0.97549000  0.62541000  1.0
  F  F393  1  0.66716000  0.97549000  0.37459000  1.0
  F  F394  1  0.66716000  0.52451000  0.12541000  1.0
  F  F395  1  0.83284000  0.52451000  0.87459000  1.0
  F  F396  1  0.41622000  0.09226000  0.40789000  1.0
  F  F397  1  0.08377000  0.09226000  0.59211000  1.0
  F  F398  1  0.08378000  0.40774000  0.90789000  1.0
  F  F399  1  0.41622000  0.40774000  0.09211000  1.0
  F  F400  1  0.58378000  0.90774000  0.59211000  1.0
  F  F401  1  0.91622000  0.90774000  0.40789000  1.0
  F  F402  1  0.91622000  0.59226000  0.09211000  1.0
  F  F403  1  0.58377000  0.59226000  0.90789000  1.0
  F  F404  1  0.05118000  0.81799000  0.50412000  1.0
  F  F405  1  0.44882000  0.81799000  0.49588000  1.0
  F  F406  1  0.44882000  0.68201000  0.00412000  1.0
  F  F407  1  0.05118000  0.68201000  0.99588000  1.0
  F  F408  1  0.94882000  0.18201000  0.49588000  1.0
  F  F409  1  0.55118000  0.18201000  0.50412000  1.0
  F  F410  1  0.55118000  0.31799000  0.99588000  1.0
  F  F411  1  0.94883000  0.31798000  0.00412000  1.0
  F  F412  1  0.21803000  0.79857000  0.55075000  1.0
  F  F413  1  0.28196000  0.79857000  0.44925000  1.0
  F  F414  1  0.28197000  0.70143000  0.05075000  1.0
  F  F415  1  0.21803000  0.70143000  0.94925000  1.0
  F  F416  1  0.78196000  0.20143000  0.44925000  1.0
  F  F417  1  0.71804000  0.20143000  0.55075000  1.0
  F  F418  1  0.71804000  0.29857000  0.94925000  1.0
  F  F419  1  0.78197000  0.29857000  0.05075000  1.0
  F  F420  1  0.99789000  0.73658000  0.53866000  1.0
  F  F421  1  0.50211000  0.73658000  0.46134000  1.0
  F  F422  1  0.50211000  0.76342000  0.03866000  1.0
  F  F423  1  0.99789000  0.76342000  0.96135000  1.0
  F  F424  1  0.00211000  0.26342000  0.46134000  1.0
  F  F425  1  0.49789000  0.26342000  0.53866000  1.0
  F  F426  1  0.49789000  0.23658000  0.96134000  1.0
  F  F427  1  0.00211000  0.23657000  0.03866000  1.0
