# generated using pymatgen
data_CoH24C34N4O5
_symmetry_space_group_name_H-M   'P 1'
_cell_length_a   9.15346000
_cell_length_b   11.48550000
_cell_length_c   13.02450000
_cell_angle_alpha   89.85550000
_cell_angle_beta   91.44150000
_cell_angle_gamma   89.87600000
_symmetry_Int_Tables_number   1
_chemical_formula_structural   CoH24C34N4O5
_chemical_formula_sum   'Co2 H48 C68 N8 O10'
_cell_volume   1368.85148787
_cell_formula_units_Z   2
loop_
 _symmetry_equiv_pos_site_id
 _symmetry_equiv_pos_as_xyz
  1  'x, y, z'
loop_
 _atom_site_type_symbol
 _atom_site_label
 _atom_site_symmetry_multiplicity
 _atom_site_fract_x
 _atom_site_fract_y
 _atom_site_fract_z
 _atom_site_occupancy
  Co  Co0  1  0.75010000  0.55318000  0.50037000  1.0
  Co  Co1  1  0.24991000  0.44682000  0.49963000  1.0
  H  H2  1  0.23947000  0.44895000  0.24128000  1.0
  H  H3  1  0.25929000  0.44965000  0.75934000  1.0
  H  H4  1  0.76051000  0.55105000  0.75872000  1.0
  H  H5  1  0.74071000  0.55035000  0.24066000  1.0
  H  H6  1  0.34797000  0.53904000  0.08607000  1.0
  H  H7  1  0.15186000  0.54014000  0.91464000  1.0
  H  H8  1  0.65202000  0.46096000  0.91394000  1.0
  H  H9  1  0.84814000  0.45986000  0.08536000  1.0
  H  H10  1  0.02015000  0.80876000  0.09056000  1.0
  H  H11  1  0.48122000  0.80733000  0.90897000  1.0
  H  H12  1  0.97986000  0.19124000  0.90944000  1.0
  H  H13  1  0.51878000  0.19268000  0.09103000  1.0
  H  H14  1  0.91114000  0.71593000  0.24507000  1.0
  H  H15  1  0.58930000  0.71418000  0.75455000  1.0
  H  H16  1  0.08885000  0.28407000  0.75493000  1.0
  H  H17  1  0.41070000  0.28584000  0.24545000  1.0
  H  H18  1  0.94082000  0.75207000  0.41948000  1.0
  H  H19  1  0.55971000  0.75156000  0.58140000  1.0
  H  H20  1  0.05919000  0.24793000  0.58053000  1.0
  H  H21  1  0.44029000  0.24844000  0.41860000  1.0
  H  H22  1  0.94411000  0.96884000  0.40990000  1.0
  H  H23  1  0.55501000  0.96831000  0.59079000  1.0
  H  H24  1  0.05591000  0.03117000  0.59010000  1.0
  H  H25  1  0.44498000  0.03169000  0.40921000  1.0
  H  H26  1  0.85286000  0.13776000  0.35244000  1.0
  H  H27  1  0.64520000  0.13675000  0.64820000  1.0
  H  H28  1  0.14713000  0.86224000  0.64755000  1.0
  H  H29  1  0.35482000  0.86324000  0.35180000  1.0
  H  H30  1  0.84170000  0.35236000  0.35776000  1.0
  H  H31  1  0.65706000  0.35136000  0.64378000  1.0
  H  H32  1  0.15831000  0.64764000  0.64224000  1.0
  H  H33  1  0.34295000  0.64864000  0.35622000  1.0
  H  H34  1  0.13336000  0.94160000  0.24909000  1.0
  H  H35  1  0.36615000  0.94197000  0.75128000  1.0
  H  H36  1  0.86663000  0.05839000  0.75091000  1.0
  H  H37  1  0.63385000  0.05803000  0.24872000  1.0
  H  H38  1  0.25944000  0.93950000  0.08326000  1.0
  H  H39  1  0.24024000  0.93973000  0.91717000  1.0
  H  H40  1  0.74055000  0.06050000  0.91674000  1.0
  H  H41  1  0.75976000  0.06026000  0.08282000  1.0
  H  H42  1  0.15592000  0.30610000  0.05357000  1.0
  H  H43  1  0.34406000  0.30581000  0.94635000  1.0
  H  H44  1  0.84408000  0.69390000  0.94644000  1.0
  H  H45  1  0.65594000  0.69419000  0.05365000  1.0
  H  H46  1  0.04101000  0.29339000  0.22357000  1.0
  H  H47  1  0.45889000  0.29324000  0.77636000  1.0
  H  H48  1  0.95899000  0.70661000  0.77643000  1.0
  H  H49  1  0.54110000  0.70676000  0.22363000  1.0
  C  C50  1  0.01042000  0.52561000  0.34948000  1.0
  C  C51  1  0.48827000  0.52411000  0.65091000  1.0
  C  C52  1  0.98958000  0.47439000  0.65052000  1.0
  C  C53  1  0.51173000  0.47590000  0.34909000  1.0
  C  C54  1  0.06832000  0.57602000  0.25236000  1.0
  C  C55  1  0.43123000  0.57531000  0.74784000  1.0
  C  C56  1  0.93167000  0.42398000  0.74764000  1.0
  C  C57  1  0.56877000  0.42470000  0.25216000  1.0
  C  C58  1  0.18988000  0.52589000  0.20599000  1.0
  C  C59  1  0.30936000  0.52612000  0.79448000  1.0
  C  C60  1  0.81012000  0.47411000  0.79401000  1.0
  C  C61  1  0.69063000  0.47389000  0.20553000  1.0
  C  C62  1  0.25123000  0.57684000  0.12021000  1.0
  C  C63  1  0.24869000  0.57729000  0.88025000  1.0
  C  C64  1  0.74876000  0.42315000  0.87979000  1.0
  C  C65  1  0.75132000  0.42272000  0.11976000  1.0
  C  C66  1  0.18915000  0.67928000  0.08016000  1.0
  C  C67  1  0.31157000  0.67908000  0.92006000  1.0
  C  C68  1  0.81084000  0.32072000  0.91985000  1.0
  C  C69  1  0.68843000  0.32093000  0.07995000  1.0
  C  C70  1  0.06635000  0.72943000  0.12393000  1.0
  C  C71  1  0.43453000  0.72837000  0.87590000  1.0
  C  C72  1  0.93365000  0.27058000  0.87608000  1.0
  C  C73  1  0.56547000  0.27163000  0.12410000  1.0
  C  C74  1  0.00632000  0.67744000  0.20966000  1.0
  C  C75  1  0.49404000  0.67618000  0.79018000  1.0
  C  C76  1  0.99368000  0.32256000  0.79035000  1.0
  C  C77  1  0.50597000  0.32383000  0.20982000  1.0
  C  C78  1  0.85564000  0.80356000  0.45450000  1.0
  C  C79  1  0.64453000  0.80330000  0.54630000  1.0
  C  C80  1  0.14437000  0.19644000  0.54551000  1.0
  C  C81  1  0.35547000  0.19670000  0.45370000  1.0
  C  C82  1  0.85730000  0.92447000  0.45017000  1.0
  C  C83  1  0.64200000  0.92419000  0.55046000  1.0
  C  C84  1  0.14271000  0.07553000  0.54982000  1.0
  C  C85  1  0.35800000  0.07581000  0.44954000  1.0
  C  C86  1  0.74944000  0.98799000  0.50027000  1.0
  C  C87  1  0.25056000  0.01201000  0.49972000  1.0
  C  C88  1  0.74917000  0.11658000  0.50034000  1.0
  C  C89  1  0.25083000  0.88342000  0.49966000  1.0
  C  C90  1  0.80437000  0.18049000  0.41808000  1.0
  C  C91  1  0.69381000  0.17994000  0.58273000  1.0
  C  C92  1  0.19564000  0.81951000  0.58191000  1.0
  C  C93  1  0.30619000  0.82006000  0.41727000  1.0
  C  C94  1  0.80068000  0.30148000  0.42111000  1.0
  C  C95  1  0.69778000  0.30093000  0.58017000  1.0
  C  C96  1  0.19932000  0.69852000  0.57889000  1.0
  C  C97  1  0.30224000  0.69907000  0.41982000  1.0
  C  C98  1  0.14009000  0.02152000  0.20372000  1.0
  C  C99  1  0.35954000  0.02171000  0.79658000  1.0
  C  C100  1  0.85990000  0.97847000  0.79627000  1.0
  C  C101  1  0.64045000  0.97828000  0.20342000  1.0
  C  C102  1  0.20999000  0.01997000  0.10988000  1.0
  C  C103  1  0.28968000  0.02013000  0.89043000  1.0
  C  C104  1  0.79000000  0.98002000  0.89012000  1.0
  C  C105  1  0.71031000  0.97987000  0.10956000  1.0
  C  C106  1  0.21617000  0.12256000  0.05117000  1.0
  C  C107  1  0.28362000  0.12255000  0.94900000  1.0
  C  C108  1  0.78383000  0.87744000  0.94883000  1.0
  C  C109  1  0.71638000  0.87745000  0.05100000  1.0
  C  C110  1  0.15495000  0.22299000  0.09415000  1.0
  C  C111  1  0.34500000  0.22286000  0.90588000  1.0
  C  C112  1  0.84505000  0.77700000  0.90584000  1.0
  C  C113  1  0.65500000  0.77714000  0.09411000  1.0
  C  C114  1  0.08842000  0.21575000  0.18920000  1.0
  C  C115  1  0.41146000  0.21566000  0.81083000  1.0
  C  C116  1  0.91158000  0.78424000  0.81080000  1.0
  C  C117  1  0.58853000  0.78434000  0.18916000  1.0
  N  N118  1  0.75024000  0.74257000  0.50041000  1.0
  N  N119  1  0.24976000  0.25743000  0.49959000  1.0
  N  N120  1  0.74943000  0.36245000  0.50078000  1.0
  N  N121  1  0.25058000  0.63756000  0.49922000  1.0
  N  N122  1  0.07804000  0.11670000  0.24363000  1.0
  N  N123  1  0.42165000  0.11679000  0.75652000  1.0
  N  N124  1  0.92195000  0.88329000  0.75636000  1.0
  N  N125  1  0.57834000  0.88320000  0.24347000  1.0
  O  O126  1  0.89029000  0.56798000  0.37933000  1.0
  O  O127  1  0.60936000  0.56426000  0.62084000  1.0
  O  O128  1  0.10972000  0.43202000  0.62068000  1.0
  O  O129  1  0.39064000  0.43574000  0.37917000  1.0
  O  O130  1  0.08230000  0.44434000  0.39452000  1.0
  O  O131  1  0.41437000  0.44416000  0.60638000  1.0
  O  O132  1  0.91771000  0.55567000  0.60548000  1.0
  O  O133  1  0.58563000  0.55584000  0.39363000  1.0
  O  O134  1  0.25078000  0.73995000  0.00014000  1.0
  O  O135  1  0.74922000  0.26005000  0.99987000  1.0
