# generated using pymatgen
data_H17PbC21S2N3O8
_symmetry_space_group_name_H-M   'P 1'
_cell_length_a   8.31042000
_cell_length_b   11.72770000
_cell_length_c   12.17170000
_cell_angle_alpha   99.29920000
_cell_angle_beta   99.37830000
_cell_angle_gamma   98.51640000
_symmetry_Int_Tables_number   1
_chemical_formula_structural   H17PbC21S2N3O8
_chemical_formula_sum   'H34 Pb2 C42 S4 N6 O16'
_cell_volume   1136.35730201
_cell_formula_units_Z   2
loop_
 _symmetry_equiv_pos_site_id
 _symmetry_equiv_pos_as_xyz
  1  'x, y, z'
loop_
 _atom_site_type_symbol
 _atom_site_label
 _atom_site_symmetry_multiplicity
 _atom_site_fract_x
 _atom_site_fract_y
 _atom_site_fract_z
 _atom_site_occupancy
  H  H0  1  0.09901000  0.21998000  0.61524000  1.0
  H  H1  1  0.90099000  0.78002000  0.38476000  1.0
  H  H2  1  0.23017000  0.32660000  0.81147000  1.0
  H  H3  1  0.76983000  0.67340000  0.18853000  1.0
  H  H4  1  0.93046000  0.59195000  0.75604000  1.0
  H  H5  1  0.06954000  0.40805000  0.24396000  1.0
  H  H6  1  0.81191000  0.47550000  0.56647000  1.0
  H  H7  1  0.18809000  0.52450000  0.43353000  1.0
  H  H8  1  0.07964000  0.69637000  0.89984000  1.0
  H  H9  1  0.92037000  0.30363000  0.10016000  1.0
  H  H10  1  0.35222000  0.67782000  0.22610000  1.0
  H  H11  1  0.64778000  0.32218000  0.77390000  1.0
  H  H12  1  0.39528000  0.31064000  0.02376000  1.0
  H  H13  1  0.60472000  0.68937000  0.97625000  1.0
  H  H14  1  0.56880000  0.20187000  0.14093000  1.0
  H  H15  1  0.43120000  0.79813000  0.85907000  1.0
  H  H16  1  0.62765000  0.46190000  0.42686000  1.0
  H  H17  1  0.37235000  0.53810000  0.57314000  1.0
  H  H18  1  0.46280000  0.58116000  0.32403000  1.0
  H  H19  1  0.53720000  0.41884000  0.67597000  1.0
  H  H20  1  0.39360000  0.08229000  0.28780000  1.0
  H  H21  1  0.60640000  0.91771000  0.71220000  1.0
  H  H22  1  0.87624000  0.97841000  0.13762000  1.0
  H  H23  1  0.12377000  0.02159000  0.86238000  1.0
  H  H24  1  0.93226000  0.78772000  0.04401000  1.0
  H  H25  1  0.06775000  0.21228000  0.95599000  1.0
  H  H26  1  0.80834000  0.97733000  0.53859000  1.0
  H  H27  1  0.19166000  0.02267000  0.46141000  1.0
  H  H28  1  0.65031000  0.95168000  0.44319000  1.0
  H  H29  1  0.34969000  0.04831000  0.55681000  1.0
  H  H30  1  0.41868000  0.25763000  0.45559000  1.0
  H  H31  1  0.58132000  0.74237000  0.54441000  1.0
  H  H32  1  0.49480000  0.22228000  0.57167000  1.0
  H  H33  1  0.50519000  0.77772000  0.42833000  1.0
  Pb  Pb34  1  0.75403000  0.19050000  0.41135000  1.0
  Pb  Pb35  1  0.24597000  0.80950000  0.58865000  1.0
  C  C36  1  0.06424000  0.30234000  0.65063000  1.0
  C  C37  1  0.93576000  0.69765000  0.34937000  1.0
  C  C38  1  0.13743000  0.36209000  0.75963000  1.0
  C  C39  1  0.86257000  0.63791000  0.24036000  1.0
  C  C40  1  0.08996000  0.46811000  0.80215000  1.0
  C  C41  1  0.91004000  0.53189000  0.19785000  1.0
  C  C42  1  0.97244000  0.51006000  0.73001000  1.0
  C  C43  1  0.02756000  0.48994000  0.26999000  1.0
  C  C44  1  0.90554000  0.44471000  0.62243000  1.0
  C  C45  1  0.09445000  0.55529000  0.37757000  1.0
  C  C46  1  0.16132000  0.53153000  0.91955000  1.0
  C  C47  1  0.83868000  0.46847000  0.08045000  1.0
  C  C48  1  0.14217000  0.64761000  0.95741000  1.0
  C  C49  1  0.85783000  0.35239000  0.04259000  1.0
  C  C50  1  0.21270000  0.70251000  0.06926000  1.0
  C  C51  1  0.78730000  0.29749000  0.93074000  1.0
  C  C52  1  0.29789000  0.63803000  0.13838000  1.0
  C  C53  1  0.70211000  0.36197000  0.86162000  1.0
  C  C54  1  0.31473000  0.52373000  0.09377000  1.0
  C  C55  1  0.68527000  0.47627000  0.90623000  1.0
  C  C56  1  0.41259000  0.45566000  0.16284000  1.0
  C  C57  1  0.58741000  0.54434000  0.83716000  1.0
  C  C58  1  0.44355000  0.34667000  0.11307000  1.0
  C  C59  1  0.55645000  0.65333000  0.88693000  1.0
  C  C60  1  0.54145000  0.28634000  0.17804000  1.0
  C  C61  1  0.45855000  0.71367000  0.82197000  1.0
  C  C62  1  0.57574000  0.43113000  0.33677000  1.0
  C  C63  1  0.42425000  0.56888000  0.66323000  1.0
  C  C64  1  0.48096000  0.49784000  0.27813000  1.0
  C  C65  1  0.51904000  0.50217000  0.72187000  1.0
  C  C66  1  0.19392000  0.82349000  0.11576000  1.0
  C  C67  1  0.80608000  0.17651000  0.88424000  1.0
  C  C68  1  0.32523000  0.90937000  0.18351000  1.0
  C  C69  1  0.67477000  0.09063000  0.81649000  1.0
  C  C70  1  0.29347000  0.01671000  0.23459000  1.0
  C  C71  1  0.70653000  0.98329000  0.76541000  1.0
  C  C72  1  0.13305000  0.03994000  0.22041000  1.0
  C  C73  1  0.86695000  0.96006000  0.77959000  1.0
  C  C74  1  0.00188000  0.95954000  0.14908000  1.0
  C  C75  1  0.99812000  0.04046000  0.85091000  1.0
  C  C76  1  0.03448000  0.85286000  0.09695000  1.0
  C  C77  1  0.96552000  0.14714000  0.90305000  1.0
  S  S78  1  0.54017000  0.89438000  0.21305000  1.0
  S  S79  1  0.45983000  0.10562000  0.78695000  1.0
  S  S80  1  0.09868000  0.16492000  0.31151000  1.0
  S  S81  1  0.90132000  0.83508000  0.68849000  1.0
  N  N82  1  0.94858000  0.34190000  0.58276000  1.0
  N  N83  1  0.05142000  0.65810000  0.41724000  1.0
  N  N84  1  0.24638000  0.47144000  0.98632000  1.0
  N  N85  1  0.75362000  0.52856000  0.01368000  1.0
  N  N86  1  0.60743000  0.32765000  0.28844000  1.0
  N  N87  1  0.39257000  0.67235000  0.71156000  1.0
  O  O88  1  0.56198000  0.84765000  0.32035000  1.0
  O  O89  1  0.43803000  0.15235000  0.67965000  1.0
  O  O90  1  0.70991000  0.01061000  0.51111000  1.0
  O  O91  1  0.29009000  0.98939000  0.48889000  1.0
  O  O92  1  0.52287000  0.26461000  0.51154000  1.0
  O  O93  1  0.47713000  0.73539000  0.48846000  1.0
  O  O94  1  0.57467000  0.81640000  0.11795000  1.0
  O  O95  1  0.42533000  0.18360000  0.88205000  1.0
  O  O96  1  0.63233000  0.01555000  0.23112000  1.0
  O  O97  1  0.36767000  0.98445000  0.76889000  1.0
  O  O98  1  0.25385000  0.25047000  0.34239000  1.0
  O  O99  1  0.74614000  0.74953000  0.65761000  1.0
  O  O100  1  0.05338000  0.11635000  0.41080000  1.0
  O  O101  1  0.94662000  0.88364000  0.58920000  1.0
  O  O102  1  0.95849000  0.20889000  0.25267000  1.0
  O  O103  1  0.04151000  0.79111000  0.74733000  1.0
