# generated using pymatgen
data_SmH8C8NO9
_symmetry_space_group_name_H-M   'P 1'
_cell_length_a   7.24817000
_cell_length_b   12.02770000
_cell_length_c   13.40620000
_cell_angle_alpha   95.55710000
_cell_angle_beta   90.00000000
_cell_angle_gamma   89.99970000
_symmetry_Int_Tables_number   1
_chemical_formula_structural   SmH8C8NO9
_chemical_formula_sum   'Sm4 H32 C32 N4 O36'
_cell_volume   1163.24377545
_cell_formula_units_Z   4
loop_
 _symmetry_equiv_pos_site_id
 _symmetry_equiv_pos_as_xyz
  1  'x, y, z'
loop_
 _atom_site_type_symbol
 _atom_site_label
 _atom_site_symmetry_multiplicity
 _atom_site_fract_x
 _atom_site_fract_y
 _atom_site_fract_z
 _atom_site_occupancy
  Sm  Sm0  1  0.26426000  0.71795000  0.29290000  1.0
  Sm  Sm1  1  0.76426000  0.28205000  0.20710000  1.0
  Sm  Sm2  1  0.73574000  0.28205000  0.70710000  1.0
  Sm  Sm3  1  0.23574000  0.71795000  0.79290000  1.0
  H  H4  1  0.28587000  0.87674000  0.49657000  1.0
  H  H5  1  0.78587000  0.12326000  0.00343000  1.0
  H  H6  1  0.71413000  0.12326000  0.50343000  1.0
  H  H7  1  0.21414000  0.87674000  0.99657000  1.0
  H  H8  1  0.15965000  0.93638000  0.41979000  1.0
  H  H9  1  0.65965000  0.06362000  0.08021000  1.0
  H  H10  1  0.84035000  0.06362000  0.58021000  1.0
  H  H11  1  0.34035000  0.93638000  0.91979000  1.0
  H  H12  1  0.94720000  0.88113000  0.30510000  1.0
  H  H13  1  0.44720000  0.11887000  0.19490000  1.0
  H  H14  1  0.05280000  0.11887000  0.69490000  1.0
  H  H15  1  0.55280000  0.88113000  0.80510000  1.0
  H  H16  1  0.83767000  0.76872000  0.30096000  1.0
  H  H17  1  0.33767000  0.23128000  0.19904000  1.0
  H  H18  1  0.16233000  0.23128000  0.69904000  1.0
  H  H19  1  0.66233000  0.76872000  0.80096000  1.0
  H  H20  1  0.09759000  0.63512000  0.07653000  1.0
  H  H21  1  0.59758000  0.36488000  0.42347000  1.0
  H  H22  1  0.90241000  0.36488000  0.92347000  1.0
  H  H23  1  0.40241000  0.63512000  0.57653000  1.0
  H  H24  1  0.02576000  0.56261000  0.16528000  1.0
  H  H25  1  0.52576000  0.43739000  0.33472000  1.0
  H  H26  1  0.97424000  0.43739000  0.83472000  1.0
  H  H27  1  0.47424000  0.56261000  0.66528000  1.0
  H  H28  1  0.77943000  0.52506000  0.02382000  1.0
  H  H29  1  0.27943000  0.47494000  0.47618000  1.0
  H  H30  1  0.22057000  0.47494000  0.97618000  1.0
  H  H31  1  0.72057000  0.52506000  0.52382000  1.0
  H  H32  1  0.70341000  0.87918000  0.00105000  1.0
  H  H33  1  0.20342000  0.12082000  0.49895000  1.0
  H  H34  1  0.29658000  0.12082000  0.99895000  1.0
  H  H35  1  0.79658000  0.87918000  0.50105000  1.0
  C  C36  1  0.57350000  0.61119000  0.11781000  1.0
  C  C37  1  0.07351000  0.38881000  0.38218000  1.0
  C  C38  1  0.42650000  0.38881000  0.88219000  1.0
  C  C39  1  0.92649000  0.61119000  0.61782000  1.0
  C  C40  1  0.71220000  0.60474000  0.04544000  1.0
  C  C41  1  0.21219000  0.39526000  0.45456000  1.0
  C  C42  1  0.28780000  0.39526000  0.95456000  1.0
  C  C43  1  0.78780000  0.60474000  0.54544000  1.0
  C  C44  1  0.76135000  0.70247000  0.00335000  1.0
  C  C45  1  0.26136000  0.29753000  0.49665000  1.0
  C  C46  1  0.23864000  0.29753000  0.99665000  1.0
  C  C47  1  0.73865000  0.70247000  0.50335000  1.0
  C  C48  1  0.66972000  0.80220000  0.03352000  1.0
  C  C49  1  0.16973000  0.19780000  0.46648000  1.0
  C  C50  1  0.33028000  0.19780000  0.96648000  1.0
  C  C51  1  0.83027000  0.80220000  0.53352000  1.0
  C  C52  1  0.53484000  0.80131000  0.10746000  1.0
  C  C53  1  0.03484000  0.19869000  0.39254000  1.0
  C  C54  1  0.46515000  0.19869000  0.89254000  1.0
  C  C55  1  0.96515000  0.80131000  0.60746000  1.0
  C  C56  1  0.52030000  0.51369000  0.17440000  1.0
  C  C57  1  0.02030000  0.48631000  0.32559000  1.0
  C  C58  1  0.47970000  0.48631000  0.82560000  1.0
  C  C59  1  0.97970000  0.51369000  0.67441000  1.0
  C  C60  1  0.91755000  0.70491000  0.93068000  1.0
  C  C61  1  0.41755000  0.29508000  0.56932000  1.0
  C  C62  1  0.08245000  0.29509000  0.06932000  1.0
  C  C63  1  0.58245000  0.70492000  0.43068000  1.0
  C  C64  1  0.43120000  0.90407000  0.15044000  1.0
  C  C65  1  0.93121000  0.09593000  0.34956000  1.0
  C  C66  1  0.56880000  0.09593000  0.84956000  1.0
  C  C67  1  0.06879000  0.90407000  0.65044000  1.0
  N  N68  1  0.48878000  0.70764000  0.14779000  1.0
  N  N69  1  0.98879000  0.29235000  0.35221000  1.0
  N  N70  1  0.51121000  0.29235000  0.85221000  1.0
  N  N71  1  0.01121000  0.70765000  0.64779000  1.0
  O  O72  1  0.42886000  0.53575000  0.25517000  1.0
  O  O73  1  0.92885000  0.46425000  0.24483000  1.0
  O  O74  1  0.57114000  0.46425000  0.74483000  1.0
  O  O75  1  0.07115000  0.53575000  0.75517000  1.0
  O  O76  1  0.57487000  0.41742000  0.14062000  1.0
  O  O77  1  0.07487000  0.58258000  0.35938000  1.0
  O  O78  1  0.42513000  0.58258000  0.85939000  1.0
  O  O79  1  0.92513000  0.41742000  0.64062000  1.0
  O  O80  1  0.07398000  0.66660000  0.95548000  1.0
  O  O81  1  0.57399000  0.33333333  0.54452000  1.0
  O  O82  1  0.92602000  0.33333333  0.04452000  1.0
  O  O83  1  0.42601000  0.66661000  0.45548000  1.0
  O  O84  1  0.89416000  0.74835000  0.84912000  1.0
  O  O85  1  0.39416000  0.25165000  0.65088000  1.0
  O  O86  1  0.10584000  0.25165000  0.15088000  1.0
  O  O87  1  0.60584000  0.74835000  0.34912000  1.0
  O  O88  1  0.47388000  0.99759000  0.12085000  1.0
  O  O89  1  0.97389000  0.00241000  0.37915000  1.0
  O  O90  1  0.52612000  0.00241000  0.87915000  1.0
  O  O91  1  0.02611000  0.99759000  0.62085000  1.0
  O  O92  1  0.30404000  0.88802000  0.21265000  1.0
  O  O93  1  0.80403000  0.11198000  0.28735000  1.0
  O  O94  1  0.69596000  0.11198000  0.78735000  1.0
  O  O95  1  0.19597000  0.88802000  0.71265000  1.0
  O  O96  1  0.25428000  0.87696000  0.42629000  1.0
  O  O97  1  0.75428000  0.12304000  0.07372000  1.0
  O  O98  1  0.74572000  0.12304000  0.57372000  1.0
  O  O99  1  0.24572000  0.87696000  0.92628000  1.0
  O  O100  1  0.95545000  0.80050000  0.27951000  1.0
  O  O101  1  0.45544000  0.19950000  0.22049000  1.0
  O  O102  1  0.04456000  0.19950000  0.72049000  1.0
  O  O103  1  0.54456000  0.80050000  0.77951000  1.0
  O  O104  1  0.12302000  0.61373000  0.14516000  1.0
  O  O105  1  0.62302000  0.38627000  0.35484000  1.0
  O  O106  1  0.87698000  0.38627000  0.85484000  1.0
  O  O107  1  0.37698000  0.61373000  0.64516000  1.0
