# generated using pymatgen
data_NaH9C4N8O3
_symmetry_space_group_name_H-M   'P 1'
_cell_length_a   6.30177000
_cell_length_b   6.61705000
_cell_length_c   12.49660000
_cell_angle_alpha   80.32620000
_cell_angle_beta   83.83970000
_cell_angle_gamma   69.88420000
_symmetry_Int_Tables_number   1
_chemical_formula_structural   NaH9C4N8O3
_chemical_formula_sum   'Na2 H18 C8 N16 O6'
_cell_volume   481.66159112
_cell_formula_units_Z   2
loop_
 _symmetry_equiv_pos_site_id
 _symmetry_equiv_pos_as_xyz
  1  'x, y, z'
loop_
 _atom_site_type_symbol
 _atom_site_label
 _atom_site_symmetry_multiplicity
 _atom_site_fract_x
 _atom_site_fract_y
 _atom_site_fract_z
 _atom_site_occupancy
  Na  Na0  1  0.27506000  0.45006000  0.94345000  1.0
  Na  Na1  1  0.72495000  0.54994000  0.05655000  1.0
  H  H2  1  0.19549000  0.37458000  0.17226000  1.0
  H  H3  1  0.80452000  0.62542000  0.82774000  1.0
  H  H4  1  0.11395000  0.19964000  0.13836000  1.0
  H  H5  1  0.88605000  0.80037000  0.86163000  1.0
  H  H6  1  0.25519000  0.79972000  0.08407000  1.0
  H  H7  1  0.74481000  0.20028000  0.91593000  1.0
  H  H8  1  0.33333333  0.87499000  0.96524000  1.0
  H  H9  1  0.66666667  0.12501000  0.03476000  1.0
  H  H10  1  0.48430000  0.07888000  0.83519000  1.0
  H  H11  1  0.51570000  0.92112000  0.16481000  1.0
  H  H12  1  0.22902000  0.11514000  0.82361000  1.0
  H  H13  1  0.77098000  0.88486000  0.17639000  1.0
  H  H14  1  0.31732000  0.74088000  0.51310000  1.0
  H  H15  1  0.68267000  0.25912000  0.48690000  1.0
  H  H16  1  0.93207000  0.70983000  0.59549000  1.0
  H  H17  1  0.06793000  0.29017000  0.40451000  1.0
  H  H18  1  0.64002000  0.78893000  0.39722000  1.0
  H  H19  1  0.35997000  0.21108000  0.60278000  1.0
  C  C20  1  0.97024000  0.81597000  0.37300000  1.0
  C  C21  1  0.02975000  0.18402000  0.62700000  1.0
  C  C22  1  0.78606000  0.72571000  0.55101000  1.0
  C  C23  1  0.21392000  0.27429000  0.44899000  1.0
  C  C24  1  0.78583000  0.77488000  0.44166000  1.0
  C  C25  1  0.21416000  0.22512000  0.55834000  1.0
  C  C26  1  0.60153000  0.68530000  0.61915000  1.0
  C  C27  1  0.39846000  0.31470000  0.38085000  1.0
  N  N28  1  0.60509000  0.62734000  0.72750000  1.0
  N  N29  1  0.39491000  0.37266000  0.27250000  1.0
  N  N30  1  0.39894000  0.69177000  0.58923000  1.0
  N  N31  1  0.60105000  0.30823000  0.41078000  1.0
  N  N32  1  0.95940000  0.87031000  0.26433000  1.0
  N  N33  1  0.04060000  0.12969000  0.73567000  1.0
  N  N34  1  0.17176000  0.81415000  0.40292000  1.0
  N  N35  1  0.82823000  0.18584000  0.59708000  1.0
  N  N36  1  0.28257000  0.86845000  0.31154000  1.0
  N  N37  1  0.71743000  0.13155000  0.68846000  1.0
  N  N38  1  0.40451000  0.59961000  0.76054000  1.0
  N  N39  1  0.59549000  0.40038000  0.23946000  1.0
  N  N40  1  0.15421000  0.90252000  0.22825000  1.0
  N  N41  1  0.84580000  0.09748000  0.77175000  1.0
  N  N42  1  0.27865000  0.63829000  0.67803000  1.0
  N  N43  1  0.72135000  0.36170000  0.32197000  1.0
  O  O44  1  0.11121000  0.34985000  0.11555000  1.0
  O  O45  1  0.88880000  0.65016000  0.88445000  1.0
  O  O46  1  0.32204000  0.74429000  0.01564000  1.0
  O  O47  1  0.67796000  0.25571000  0.98436000  1.0
  O  O48  1  0.34136000  0.10357000  0.87834000  1.0
  O  O49  1  0.65865000  0.89642000  0.12166000  1.0
