# generated using pymatgen
data_Cu3H8(C2N13)2
_symmetry_space_group_name_H-M   'P 1'
_cell_length_a   8.37684000
_cell_length_b   10.04110000
_cell_length_c   11.10060000
_cell_angle_alpha   89.97960000
_cell_angle_beta   89.99970000
_cell_angle_gamma   99.42270000
_symmetry_Int_Tables_number   1
_chemical_formula_structural   Cu3H8(C2N13)2
_chemical_formula_sum   'Cu6 H16 C8 N52'
_cell_volume   921.10316495
_cell_formula_units_Z   2
loop_
 _symmetry_equiv_pos_site_id
 _symmetry_equiv_pos_as_xyz
  1  'x, y, z'
loop_
 _atom_site_type_symbol
 _atom_site_label
 _atom_site_symmetry_multiplicity
 _atom_site_fract_x
 _atom_site_fract_y
 _atom_site_fract_z
 _atom_site_occupancy
  Cu  Cu0  1  0.38943000  0.05444000  0.88105000  1.0
  Cu  Cu1  1  0.38970000  0.55439000  0.61901000  1.0
  Cu  Cu2  1  0.61051000  0.94553000  0.11961000  1.0
  Cu  Cu3  1  0.61144000  0.44550000  0.38086000  1.0
  Cu  Cu4  1  0.99988000  0.00015000  0.00007000  1.0
  Cu  Cu5  1  0.99971000  0.49913000  0.49897000  1.0
  H  H6  1  0.17589000  0.54599000  0.10834000  1.0
  H  H7  1  0.17604000  0.04600000  0.39324000  1.0
  H  H8  1  0.82340000  0.45308000  0.89528000  1.0
  H  H9  1  0.82380000  0.95329000  0.60657000  1.0
  H  H10  1  0.35425000  0.53120000  0.17103000  1.0
  H  H11  1  0.35341000  0.03093000  0.32911000  1.0
  H  H12  1  0.64760000  0.46886000  0.82907000  1.0
  H  H13  1  0.64692000  0.96897000  0.67106000  1.0
  H  H14  1  0.00825000  0.31118000  0.11268000  1.0
  H  H15  1  0.00824000  0.80988000  0.38719000  1.0
  H  H16  1  0.99174000  0.68891000  0.88815000  1.0
  H  H17  1  0.99216000  0.18801000  0.61203000  1.0
  H  H18  1  0.49357000  0.36119000  0.98690000  1.0
  H  H19  1  0.49358000  0.86097000  0.51355000  1.0
  H  H20  1  0.50621000  0.63919000  0.01365000  1.0
  H  H21  1  0.50672000  0.13914000  0.48685000  1.0
  C  C22  1  0.11951000  0.28969000  0.07295000  1.0
  C  C23  1  0.11965000  0.78902000  0.42714000  1.0
  C  C24  1  0.88034000  0.71042000  0.92761000  1.0
  C  C25  1  0.88099000  0.20994000  0.57248000  1.0
  C  C26  1  0.36894000  0.31645000  0.00685000  1.0
  C  C27  1  0.36899000  0.81613000  0.49361000  1.0
  C  C28  1  0.63083000  0.68387000  0.99359000  1.0
  C  C29  1  0.63137000  0.18385000  0.50680000  1.0
  N  N30  1  0.14395000  0.17472000  0.02351000  1.0
  N  N31  1  0.14433000  0.67415000  0.47670000  1.0
  N  N32  1  0.85588000  0.82546000  0.97678000  1.0
  N  N33  1  0.85694000  0.32532000  0.52355000  1.0
  N  N34  1  0.29962000  0.19091000  0.98373000  1.0
  N  N35  1  0.29973000  0.69060000  0.51668000  1.0
  N  N36  1  0.70018000  0.80939000  0.01649000  1.0
  N  N37  1  0.70033000  0.30954000  0.48387000  1.0
  N  N38  1  0.25879000  0.38056000  0.06309000  1.0
  N  N39  1  0.25878000  0.88005000  0.43717000  1.0
  N  N40  1  0.74101000  0.61963000  0.93754000  1.0
  N  N41  1  0.74154000  0.11943000  0.56265000  1.0
  N  N42  1  0.28631000  0.51742000  0.09248000  1.0
  N  N43  1  0.28634000  0.01700000  0.40800000  1.0
  N  N44  1  0.71318000  0.48263000  0.90856000  1.0
  N  N45  1  0.71360000  0.98255000  0.59198000  1.0
  N  N46  1  0.15914000  0.95665000  0.86720000  1.0
  N  N47  1  0.15976000  0.45714000  0.63187000  1.0
  N  N48  1  0.84048000  0.04335000  0.13295000  1.0
  N  N49  1  0.84237000  0.54658000  0.36517000  1.0
  N  N50  1  0.10453000  0.94143000  0.76581000  1.0
  N  N51  1  0.10510000  0.44153000  0.73337000  1.0
  N  N52  1  0.89522000  0.05839000  0.23435000  1.0
  N  N53  1  0.89706000  0.55849000  0.26395000  1.0
  N  N54  1  0.05101000  0.92554000  0.66946000  1.0
  N  N55  1  0.05147000  0.42533000  0.82957000  1.0
  N  N56  1  0.94892000  0.07408000  0.33063000  1.0
  N  N57  1  0.95009000  0.57231000  0.16711000  1.0
  N  N58  1  0.47875000  0.91569000  0.79035000  1.0
  N  N59  1  0.47855000  0.41586000  0.70951000  1.0
  N  N60  1  0.52083000  0.08466000  0.20953000  1.0
  N  N61  1  0.51993000  0.58466000  0.29114000  1.0
  N  N62  1  0.41407000  0.79961000  0.79542000  1.0
  N  N63  1  0.41362000  0.29981000  0.70427000  1.0
  N  N64  1  0.58549000  0.20076000  0.20457000  1.0
  N  N65  1  0.58440000  0.70070000  0.29576000  1.0
  N  N66  1  0.35602000  0.18556000  0.70223000  1.0
  N  N67  1  0.35635000  0.68535000  0.79763000  1.0
  N  N68  1  0.64239000  0.81496000  0.29800000  1.0
  N  N69  1  0.64304000  0.31506000  0.20252000  1.0
  N  N70  1  0.60741000  0.15678000  0.91859000  1.0
  N  N71  1  0.60731000  0.65621000  0.58102000  1.0
  N  N72  1  0.39260000  0.84496000  0.08000000  1.0
  N  N73  1  0.39222000  0.34425000  0.41951000  1.0
  N  N74  1  0.72990000  0.12776000  0.87851000  1.0
  N  N75  1  0.72964000  0.62695000  0.62126000  1.0
  N  N76  1  0.27017000  0.87315000  0.12101000  1.0
  N  N77  1  0.26959000  0.37261000  0.37917000  1.0
  N  N78  1  0.85348000  0.10223000  0.84305000  1.0
  N  N79  1  0.85297000  0.60112000  0.65682000  1.0
  N  N80  1  0.14664000  0.89805000  0.15709000  1.0
  N  N81  1  0.14585000  0.39779000  0.34357000  1.0
