# generated using pymatgen
data_AlH27C45(SO5)3
_symmetry_space_group_name_H-M   'P 1'
_cell_length_a   4.27032000
_cell_length_b   23.40390000
_cell_length_c   23.41020000
_cell_angle_alpha   60.07050000
_cell_angle_beta   87.09900000
_cell_angle_gamma   87.28600000
_symmetry_Int_Tables_number   1
_chemical_formula_structural   AlH27C45(SO5)3
_chemical_formula_sum   'Al1 H27 C45 S3 O15'
_cell_volume   2024.38901366
_cell_formula_units_Z   1
loop_
 _symmetry_equiv_pos_site_id
 _symmetry_equiv_pos_as_xyz
  1  'x, y, z'
loop_
 _atom_site_type_symbol
 _atom_site_label
 _atom_site_symmetry_multiplicity
 _atom_site_fract_x
 _atom_site_fract_y
 _atom_site_fract_z
 _atom_site_occupancy
  Al  Al0  1  0.95039000  0.49972000  0.50038000  1.0
  H  H1  1  0.49842000  0.32402000  0.67096000  1.0
  H  H2  1  0.53837000  0.20221000  0.73666000  1.0
  H  H3  1  0.23134000  0.11036000  0.77018000  1.0
  H  H4  1  0.21182000  0.98927000  0.83178000  1.0
  H  H5  1  0.47726000  0.74950000  0.19328000  1.0
  H  H6  1  0.79623000  0.77534000  0.10197000  1.0
  H  H7  1  0.78398000  0.83428000  0.98102000  1.0
  H  H8  1  0.50083000  0.89486000  0.89415000  1.0
  H  H9  1  0.50714000  0.50487000  0.32412000  1.0
  H  H10  1  0.54277000  0.56073000  0.20220000  1.0
  H  H11  1  0.24235000  0.62170000  0.11047000  1.0
  H  H12  1  0.22511000  0.68137000  0.98960000  1.0
  H  H13  1  0.42646000  0.55900000  0.74901000  1.0
  H  H14  1  0.77119000  0.61783000  0.77280000  1.0
  H  H15  1  0.77364000  0.67956000  0.83243000  1.0
  H  H16  1  0.48767000  0.71091000  0.89492000  1.0
  H  H17  1  0.47110000  0.67118000  0.50427000  1.0
  H  H18  1  0.51322000  0.73663000  0.56012000  1.0
  H  H19  1  0.20839000  0.77323000  0.62300000  1.0
  H  H20  1  0.20556000  0.83423000  0.68338000  1.0
  H  H21  1  0.51135000  0.19218000  0.55786000  1.0
  H  H22  1  0.82851000  0.10116000  0.62064000  1.0
  H  H23  1  0.81091000  0.98001000  0.68270000  1.0
  H  H24  1  0.49457000  0.89397000  0.71116000  1.0
  H  H25  1  0.90652000  0.43922000  0.69136000  1.0
  H  H26  1  0.99040000  0.37166000  0.43836000  1.0
  H  H27  1  0.94318000  0.68948000  0.37341000  1.0
  C  C28  1  0.46661000  0.40092000  0.54098000  1.0
  C  C29  1  0.42604000  0.54100000  0.55804000  1.0
  C  C30  1  0.46376000  0.55792000  0.40153000  1.0
  C  C31  1  0.50798000  0.29471000  0.64643000  1.0
  C  C32  1  0.52840000  0.22622000  0.68311000  1.0
  C  C33  1  0.36500000  0.08197000  0.75139000  1.0
  C  C34  1  0.35398000  0.01349000  0.78626000  1.0
  C  C35  1  0.48590000  0.66420000  0.28968000  1.0
  C  C36  1  0.50132000  0.69593000  0.22102000  1.0
  C  C37  1  0.66655000  0.75491000  0.07758000  1.0
  C  C38  1  0.65841000  0.78836000  0.00918000  1.0
  C  C39  1  0.49684000  0.32712000  0.57755000  1.0
  C  C40  1  0.53398000  0.18764000  0.65241000  1.0
  C  C41  1  0.53205000  0.11499000  0.69075000  1.0
  C  C42  1  0.50971000  0.97537000  0.76194000  1.0
  C  C43  1  0.49813000  0.90268000  0.79856000  1.0
  C  C44  1  0.49704000  0.86769000  0.86760000  1.0
  C  C45  1  0.50893000  0.55859000  0.29497000  1.0
  C  C46  1  0.52674000  0.59028000  0.22645000  1.0
  C  C47  1  0.36779000  0.66768000  0.08228000  1.0
  C  C48  1  0.35819000  0.70145000  0.01383000  1.0
  C  C49  1  0.43158000  0.54747000  0.66371000  1.0
  C  C50  1  0.45098000  0.58411000  0.69542000  1.0
  C  C51  1  0.64311000  0.66498000  0.75340000  1.0
  C  C52  1  0.64306000  0.69973000  0.78723000  1.0
  C  C53  1  0.48959000  0.59505000  0.32771000  1.0
  C  C54  1  0.52205000  0.65947000  0.18816000  1.0
  C  C55  1  0.52118000  0.69389000  0.11552000  1.0
  C  C56  1  0.50302000  0.76253000  0.97580000  1.0
  C  C57  1  0.49445000  0.79861000  0.90309000  1.0
  C  C58  1  0.48929000  0.76462000  0.86798000  1.0
  C  C59  1  0.46673000  0.64680000  0.55801000  1.0
  C  C60  1  0.48878000  0.68334000  0.58966000  1.0
  C  C61  1  0.33843000  0.75302000  0.66830000  1.0
  C  C62  1  0.33684000  0.78750000  0.70247000  1.0
  C  C63  1  0.50754000  0.28882000  0.54658000  1.0
  C  C64  1  0.52428000  0.22016000  0.58340000  1.0
  C  C65  1  0.68884000  0.07687000  0.66653000  1.0
  C  C66  1  0.67825000  0.00847000  0.70150000  1.0
  C  C67  1  0.43988000  0.57817000  0.59459000  1.0
  C  C68  1  0.48130000  0.65279000  0.65883000  1.0
  C  C69  1  0.49023000  0.69092000  0.69332000  1.0
  C  C70  1  0.48877000  0.76157000  0.76265000  1.0
  C  C71  1  0.48873000  0.79819000  0.79891000  1.0
  C  C72  1  0.49304000  0.86726000  0.76490000  1.0
  S  S73  1  0.34497000  0.46233000  0.71580000  1.0
  S  S74  1  0.44308000  0.32313000  0.46055000  1.0
  S  S75  1  0.39406000  0.71607000  0.32451000  1.0
  O  O76  1  0.68395000  0.56459000  0.43236000  1.0
  O  O77  1  0.69720000  0.43221000  0.50307000  1.0
  O  O78  1  0.65961000  0.50242000  0.56447000  1.0
  O  O79  1  0.22768000  0.52129000  0.42613000  1.0
  O  O80  1  0.18968000  0.55305000  0.52265000  1.0
  O  O81  1  0.21662000  0.42496000  0.55328000  1.0
  O  O82  1  0.62515000  0.41996000  0.72698000  1.0
  O  O83  1  0.18122000  0.45545000  0.77392000  1.0
  O  O84  1  0.13935000  0.44861000  0.67173000  1.0
  O  O85  1  0.72489000  0.35303000  0.42026000  1.0
  O  O86  1  0.30659000  0.27327000  0.45175000  1.0
  O  O87  1  0.21696000  0.38220000  0.44591000  1.0
  O  O88  1  0.66461000  0.72625000  0.35377000  1.0
  O  O89  1  0.24071000  0.77476000  0.27510000  1.0
  O  O90  1  0.17678000  0.67210000  0.38423000  1.0
