# generated using pymatgen
data_CdH20C23N4O5
_symmetry_space_group_name_H-M   'P 1'
_cell_length_a   8.62379000
_cell_length_b   10.82120000
_cell_length_c   12.51940000
_cell_angle_alpha   90.60810000
_cell_angle_beta   105.23200000
_cell_angle_gamma   95.58930000
_symmetry_Int_Tables_number   1
_chemical_formula_structural   CdH20C23N4O5
_chemical_formula_sum   'Cd2 H40 C46 N8 O10'
_cell_volume   1121.10762016
_cell_formula_units_Z   2
loop_
 _symmetry_equiv_pos_site_id
 _symmetry_equiv_pos_as_xyz
  1  'x, y, z'
loop_
 _atom_site_type_symbol
 _atom_site_label
 _atom_site_symmetry_multiplicity
 _atom_site_fract_x
 _atom_site_fract_y
 _atom_site_fract_z
 _atom_site_occupancy
  Cd  Cd0  1  0.86016000  0.40121000  0.21175000  1.0
  Cd  Cd1  1  0.13984000  0.59879000  0.78824000  1.0
  H  H2  1  0.06647000  0.29755000  0.03317000  1.0
  H  H3  1  0.93353000  0.70245000  0.96683000  1.0
  H  H4  1  0.60116000  0.17181000  0.06048000  1.0
  H  H5  1  0.39883000  0.82818000  0.93952000  1.0
  H  H6  1  0.66783000  0.03150000  0.89303000  1.0
  H  H7  1  0.33216000  0.96850000  0.10696000  1.0
  H  H8  1  0.12197000  0.28716000  0.86734000  1.0
  H  H9  1  0.87803000  0.71283000  0.13266000  1.0
  H  H10  1  0.26838000  0.21508000  0.74221000  1.0
  H  H11  1  0.73161000  0.78492000  0.25779000  1.0
  H  H12  1  0.99105000  0.85398000  0.70852000  1.0
  H  H13  1  0.00894000  0.14603000  0.29147000  1.0
  H  H14  1  0.84940000  0.92418000  0.84156000  1.0
  H  H15  1  0.15059000  0.07582000  0.15844000  1.0
  H  H16  1  0.52508000  0.96681000  0.71656000  1.0
  H  H17  1  0.47492000  0.03319000  0.28344000  1.0
  H  H18  1  0.73903000  0.08304000  0.64505000  1.0
  H  H19  1  0.26097000  0.91696000  0.35495000  1.0
  H  H20  1  0.37106000  0.27778000  0.42717000  1.0
  H  H21  1  0.62894000  0.72223000  0.57284000  1.0
  H  H22  1  0.16290000  0.15854000  0.49725000  1.0
  H  H23  1  0.83711000  0.84146000  0.50275000  1.0
  H  H24  1  0.89533000  0.27305000  0.63920000  1.0
  H  H25  1  0.10469000  0.72695000  0.36080000  1.0
  H  H26  1  0.05415000  0.37457000  0.48874000  1.0
  H  H27  1  0.94586000  0.62543000  0.51125000  1.0
  H  H28  1  0.56789000  0.27022000  0.31863000  1.0
  H  H29  1  0.43211000  0.72980000  0.68137000  1.0
  H  H30  1  0.45196000  0.45460000  0.32523000  1.0
  H  H31  1  0.54805000  0.54540000  0.67478000  1.0
  H  H32  1  0.38426000  0.57014000  0.39639000  1.0
  H  H33  1  0.61573000  0.42986000  0.60361000  1.0
  H  H34  1  0.51951000  0.67774000  0.27032000  1.0
  H  H35  1  0.48049000  0.32226000  0.72968000  1.0
  H  H36  1  0.30927000  0.68618000  0.21644000  1.0
  H  H37  1  0.69073000  0.31382000  0.78356000  1.0
  H  H38  1  0.29849000  0.50149000  0.08631000  1.0
  H  H39  1  0.70151000  0.49850000  0.91370000  1.0
  H  H40  1  0.42594000  0.63291000  0.06460000  1.0
  H  H41  1  0.57407000  0.36709000  0.93540000  1.0
  C  C42  1  0.94837000  0.24559000  0.01839000  1.0
  C  C43  1  0.05162000  0.75441000  0.98161000  1.0
  C  C44  1  0.70867000  0.17460000  0.03083000  1.0
  C  C45  1  0.29132000  0.82540000  0.96917000  1.0
  C  C46  1  0.74008000  0.10542000  0.94802000  1.0
  C  C47  1  0.25992000  0.89458000  0.05197000  1.0
  C  C48  1  0.97544000  0.11032000  0.86426000  1.0
  C  C49  1  0.02456000  0.88968000  0.13574000  1.0
  C  C50  1  0.09347000  0.19117000  0.83572000  1.0
  C  C51  1  0.90653000  0.80883000  0.16428000  1.0
  C  C52  1  0.17638000  0.15049000  0.76258000  1.0
  C  C53  1  0.82361000  0.84951000  0.23742000  1.0
  C  C54  1  0.13846000  0.02958000  0.71639000  1.0
  C  C55  1  0.86154000  0.97042000  0.28361000  1.0
  C  C56  1  0.01875000  0.94874000  0.74348000  1.0
  C  C57  1  0.98124000  0.05126000  0.25652000  1.0
  C  C58  1  0.93875000  0.98900000  0.81826000  1.0
  C  C59  1  0.06124000  0.01100000  0.18174000  1.0
  C  C60  1  0.33323000  0.05713000  0.61156000  1.0
  C  C61  1  0.66677000  0.94287000  0.38844000  1.0
  C  C62  1  0.49454000  0.03695000  0.65487000  1.0
  C  C63  1  0.50546000  0.96305000  0.34513000  1.0
  C  C64  1  0.61359000  0.10223000  0.61513000  1.0
  C  C65  1  0.38641000  0.89777000  0.38487000  1.0
  C  C66  1  0.57022000  0.18875000  0.53347000  1.0
  C  C67  1  0.42979000  0.81125000  0.46653000  1.0
  C  C68  1  0.40858000  0.21079000  0.49120000  1.0
  C  C69  1  0.59143000  0.78922000  0.50881000  1.0
  C  C70  1  0.28962000  0.14396000  0.53036000  1.0
  C  C71  1  0.71039000  0.85605000  0.46964000  1.0
  C  C72  1  0.85332000  0.28413000  0.55076000  1.0
  C  C73  1  0.14668000  0.71587000  0.44924000  1.0
  C  C74  1  0.92956000  0.33639000  0.47638000  1.0
  C  C75  1  0.07045000  0.66361000  0.52362000  1.0
  C  C76  1  0.67841000  0.28518000  0.38500000  1.0
  C  C77  1  0.32160000  0.71483000  0.61500000  1.0
  C  C78  1  0.19560000  0.46405000  0.27906000  1.0
  C  C79  1  0.80440000  0.53595000  0.72094000  1.0
  C  C80  1  0.36788000  0.52633000  0.31390000  1.0
  C  C81  1  0.63212000  0.47368000  0.68610000  1.0
  C  C82  1  0.40364000  0.62248000  0.23286000  1.0
  C  C83  1  0.59637000  0.37752000  0.76714000  1.0
  C  C84  1  0.41064000  0.56127000  0.12324000  1.0
  C  C85  1  0.58936000  0.43873000  0.87677000  1.0
  C  C86  1  0.55414000  0.48603000  0.14425000  1.0
  C  C87  1  0.44587000  0.51397000  0.85576000  1.0
  N  N88  1  0.81931000  0.33626000  0.37379000  1.0
  N  N89  1  0.18069000  0.66374000  0.62622000  1.0
  N  N90  1  0.69347000  0.25192000  0.49178000  1.0
  N  N91  1  0.30654000  0.74809000  0.50822000  1.0
  N  N92  1  0.83949000  0.26105000  0.07383000  1.0
  N  N93  1  0.16050000  0.73895000  0.92617000  1.0
  N  N94  1  0.89252000  0.15162000  0.94022000  1.0
  N  N95  1  0.10747000  0.84838000  0.05977000  1.0
  O  O96  1  0.16418000  0.35382000  0.30602000  1.0
  O  O97  1  0.83582000  0.64618000  0.69397000  1.0
  O  O98  1  0.08652000  0.52997000  0.22492000  1.0
  O  O99  1  0.91348000  0.47003000  0.77508000  1.0
  O  O100  1  0.53670000  0.36869000  0.14727000  1.0
  O  O101  1  0.46330000  0.63131000  0.85274000  1.0
  O  O102  1  0.69368000  0.55030000  0.16433000  1.0
  O  O103  1  0.30633000  0.44969000  0.83568000  1.0
  O  O104  1  0.21565000  0.98118000  0.64445000  1.0
  O  O105  1  0.78435000  0.01882000  0.35555000  1.0
