# generated using pymatgen
data_CuH30C16S2I
_symmetry_space_group_name_H-M   'P 1'
_cell_length_a   8.35419000
_cell_length_b   10.25700000
_cell_length_c   10.97410000
_cell_angle_alpha   74.90990000
_cell_angle_beta   77.22340000
_cell_angle_gamma   87.04670000
_symmetry_Int_Tables_number   1
_chemical_formula_structural   CuH30C16S2I
_chemical_formula_sum   'Cu2 H60 C32 S4 I2'
_cell_volume   885.43411613
_cell_formula_units_Z   2
loop_
 _symmetry_equiv_pos_site_id
 _symmetry_equiv_pos_as_xyz
  1  'x, y, z'
loop_
 _atom_site_type_symbol
 _atom_site_label
 _atom_site_symmetry_multiplicity
 _atom_site_fract_x
 _atom_site_fract_y
 _atom_site_fract_z
 _atom_site_occupancy
  Cu  Cu0  1  0.54252000  0.15913000  0.97253000  1.0
  Cu  Cu1  1  0.45748000  0.84088000  0.02747000  1.0
  H  H2  1  0.42409000  0.51047000  0.68132000  1.0
  H  H3  1  0.57591000  0.48953000  0.31868000  1.0
  H  H4  1  0.72247000  0.32407000  0.67816000  1.0
  H  H5  1  0.27752000  0.67593000  0.32183000  1.0
  H  H6  1  0.58055000  0.34237000  0.57817000  1.0
  H  H7  1  0.41945000  0.65763000  0.42182000  1.0
  H  H8  1  0.83923000  0.47517000  0.46389000  1.0
  H  H9  1  0.16077000  0.52483000  0.53611000  1.0
  H  H10  1  0.66614000  0.58120000  0.47354000  1.0
  H  H11  1  0.33386000  0.41881000  0.52646000  1.0
  H  H12  1  0.89308000  0.68432000  0.52922000  1.0
  H  H13  1  0.10692000  0.31568000  0.47078000  1.0
  H  H14  1  0.91258000  0.53596000  0.65005000  1.0
  H  H15  1  0.08742000  0.46404000  0.34995000  1.0
  H  H16  1  0.61059000  0.71855000  0.64881000  1.0
  H  H17  1  0.38941000  0.28145000  0.35119000  1.0
  H  H18  1  0.75017000  0.70755000  0.74983000  1.0
  H  H19  1  0.24983000  0.29245000  0.25017000  1.0
  H  H20  1  0.50095000  0.56860000  0.86785000  1.0
  H  H21  1  0.49906000  0.43139000  0.13215000  1.0
  H  H22  1  0.67543000  0.46435000  0.85345000  1.0
  H  H23  1  0.32457000  0.53565000  0.14654000  1.0
  H  H24  1  0.19835000  0.30277000  0.02379000  1.0
  H  H25  1  0.80165000  0.69723000  0.97621000  1.0
  H  H26  1  0.27590000  0.46777000  0.94582000  1.0
  H  H27  1  0.72410000  0.53223000  0.05418000  1.0
  H  H28  1  0.99215000  0.46145000  0.91808000  1.0
  H  H29  1  0.00785000  0.53855000  0.08192000  1.0
  H  H30  1  0.12662000  0.47801000  0.76684000  1.0
  H  H31  1  0.87338000  0.52199000  0.23316000  1.0
  H  H32  1  0.91891000  0.31183000  0.78598000  1.0
  H  H33  1  0.08109000  0.68817000  0.21402000  1.0
  H  H34  1  0.10781000  0.22976000  0.79158000  1.0
  H  H35  1  0.89219000  0.77023000  0.20842000  1.0
  H  H36  1  0.01583000  0.16397000  0.04147000  1.0
  H  H37  1  0.98417000  0.83603000  0.95853000  1.0
  H  H38  1  0.91208000  0.08475000  0.95412000  1.0
  H  H39  1  0.08792000  0.91525000  0.04588000  1.0
  H  H40  1  0.58421000  0.16565000  0.25507000  1.0
  H  H41  1  0.41579000  0.83435000  0.74493000  1.0
  H  H42  1  0.87726000  0.98501000  0.19489000  1.0
  H  H43  1  0.12274000  0.01499000  0.80511000  1.0
  H  H44  1  0.67278000  0.95897000  0.18327000  1.0
  H  H45  1  0.32722000  0.04103000  0.81673000  1.0
  H  H46  1  0.72941000  0.81966000  0.39228000  1.0
  H  H47  1  0.27059000  0.18034000  0.60772000  1.0
  H  H48  1  0.57655000  0.94047000  0.41911000  1.0
  H  H49  1  0.42345000  0.05953000  0.58089000  1.0
  H  H50  1  0.78273000  0.93791000  0.55546000  1.0
  H  H51  1  0.21726000  0.06209000  0.44455000  1.0
  H  H52  1  0.94244000  0.96763000  0.41495000  1.0
  H  H53  1  0.05756000  0.03237000  0.58506000  1.0
  H  H54  1  0.86677000  0.18145000  0.47869000  1.0
  H  H55  1  0.13323000  0.81855000  0.52131000  1.0
  H  H56  1  0.65981000  0.15916000  0.47668000  1.0
  H  H57  1  0.34019000  0.84084000  0.52332000  1.0
  H  H58  1  0.79137000  0.32156000  0.27366000  1.0
  H  H59  1  0.20863000  0.67844000  0.72634000  1.0
  H  H60  1  0.95043000  0.20581000  0.24287000  1.0
  H  H61  1  0.04957000  0.79419000  0.75713000  1.0
  C  C62  1  0.51497000  0.44786000  0.72952000  1.0
  C  C63  1  0.48502000  0.55214000  0.27048000  1.0
  C  C64  1  0.64218000  0.39788000  0.62829000  1.0
  C  C65  1  0.35782000  0.60212000  0.37171000  1.0
  C  C66  1  0.74492000  0.51504000  0.53179000  1.0
  C  C67  1  0.25508000  0.48497000  0.46821000  1.0
  C  C68  1  0.82353000  0.59873000  0.60014000  1.0
  C  C69  1  0.17647000  0.40127000  0.39986000  1.0
  C  C70  1  0.69386000  0.64868000  0.69939000  1.0
  C  C71  1  0.30614000  0.35132000  0.30061000  1.0
  C  C72  1  0.59437000  0.53068000  0.79780000  1.0
  C  C73  1  0.40563000  0.46932000  0.20220000  1.0
  C  C74  1  0.23085000  0.37649000  0.92934000  1.0
  C  C75  1  0.76916000  0.62351000  0.07066000  1.0
  C  C76  1  0.08610000  0.40753000  0.86243000  1.0
  C  C77  1  0.91391000  0.59246000  0.13757000  1.0
  C  C78  1  0.01101000  0.28230000  0.84582000  1.0
  C  C79  1  0.98899000  0.71769000  0.15418000  1.0
  C  C80  1  0.93512000  0.18170000  0.97212000  1.0
  C  C81  1  0.06488000  0.81830000  0.02787000  1.0
  C  C82  1  0.71577000  0.15112000  0.21700000  1.0
  C  C83  1  0.28423000  0.84888000  0.78300000  1.0
  C  C84  1  0.74696000  0.00042000  0.23547000  1.0
  C  C85  1  0.25303000  0.99958000  0.76453000  1.0
  C  C86  1  0.70835000  0.92876000  0.37947000  1.0
  C  C87  1  0.29165000  0.07124000  0.62053000  1.0
  C  C88  1  0.81193000  0.98729000  0.45145000  1.0
  C  C89  1  0.18807000  0.01271000  0.54855000  1.0
  C  C90  1  0.78694000  0.13979000  0.43048000  1.0
  C  C91  1  0.21306000  0.86021000  0.56952000  1.0
  C  C92  1  0.81909000  0.21356000  0.28650000  1.0
  C  C93  1  0.18091000  0.78644000  0.71350000  1.0
  S  S94  1  0.40060000  0.29898000  0.83786000  1.0
  S  S95  1  0.59940000  0.70102000  0.16214000  1.0
  S  S96  1  0.73839000  0.24223000  0.04671000  1.0
  S  S97  1  0.26161000  0.75777000  0.95329000  1.0
  I  I98  1  0.31299000  0.01908000  0.16157000  1.0
  I  I99  1  0.68701000  0.98092000  0.83843000  1.0
