# generated using pymatgen
data_AlH7C11NO7
_symmetry_space_group_name_H-M   'P 1'
_cell_length_a   6.77673000
_cell_length_b   11.07141277
_cell_length_c   16.92770000
_cell_angle_alpha   89.91760992
_cell_angle_beta   82.77650000
_cell_angle_gamma   73.40693093
_symmetry_Int_Tables_number   1
_chemical_formula_structural   AlH7C11NO7
_chemical_formula_sum   'Al2 H14 C22 N2 O14'
_cell_volume   1206.70824957
_cell_formula_units_Z   2
loop_
 _symmetry_equiv_pos_site_id
 _symmetry_equiv_pos_as_xyz
  1  'x, y, z'
loop_
 _atom_site_type_symbol
 _atom_site_label
 _atom_site_symmetry_multiplicity
 _atom_site_fract_x
 _atom_site_fract_y
 _atom_site_fract_z
 _atom_site_occupancy
  Al  Al0  1  0.00001000  0.50000000  0.50000000  1.0
  Al  Al1  1  0.50000000  0.50000000  0.50000000  1.0
  H  H2  1  0.16468000  0.63033000  0.57123000  1.0
  H  H3  1  0.83533000  0.36967000  0.42877000  1.0
  H  H4  1  0.64211000  0.49978000  0.26271000  1.0
  H  H5  1  0.70536000  0.50125000  0.11469000  1.0
  H  H6  1  0.07014000  0.50857000  0.10367000  1.0
  H  H7  1  0.92985000  0.49143000  0.89633000  1.0
  H  H8  1  0.29464000  0.49874000  0.88530000  1.0
  H  H9  1  0.35790000  0.50021000  0.73729000  1.0
  H  H10  1  0.87454000  0.88799000  0.49990000  1.0
  H  H11  1  0.12546000  0.11201000  0.50011000  1.0
  H  H12  1  0.96974000  0.51540000  0.31590000  1.0
  H  H13  1  0.03026000  0.48460000  0.68410000  1.0
  H  H14  1  0.71280000  0.21982000  0.51821000  1.0
  H  H15  1  0.28720000  0.78019000  0.48179000  1.0
  C  C16  1  0.64262000  0.72829000  0.49208000  1.0
  C  C17  1  0.70663000  0.49983000  0.64494000  1.0
  C  C18  1  0.35738000  0.27171000  0.50792000  1.0
  C  C19  1  0.29337000  0.50017000  0.35506000  1.0
  C  C20  1  0.32159000  0.50362000  0.26778000  1.0
  C  C21  1  0.51805000  0.50141000  0.22754000  1.0
  C  C22  1  0.55443000  0.50210000  0.14565000  1.0
  C  C23  1  0.39100000  0.50365000  0.10114000  1.0
  C  C24  1  0.19432000  0.50671000  0.13920000  1.0
  C  C25  1  0.15684000  0.50797000  0.22258000  1.0
  C  C26  1  0.80567000  0.49329000  0.86080000  1.0
  C  C27  1  0.60899000  0.49635000  0.89886000  1.0
  C  C28  1  0.44557000  0.49789000  0.85435000  1.0
  C  C29  1  0.48195000  0.49858000  0.77246000  1.0
  C  C30  1  0.67841000  0.49638000  0.73222000  1.0
  C  C31  1  0.84316000  0.49203000  0.77742000  1.0
  C  C32  1  0.43142000  0.13260000  0.50548000  1.0
  C  C33  1  0.56860000  0.86740000  0.49453000  1.0
  C  C34  1  0.64574000  0.06768000  0.50610000  1.0
  C  C35  1  0.35427000  0.93232000  0.49391000  1.0
  C  C36  1  0.71046000  0.93637000  0.50021000  1.0
  C  C37  1  0.28955000  0.06363000  0.49980000  1.0
  N  N38  1  0.40986000  0.50261000  0.01684000  1.0
  N  N39  1  0.59013000  0.49738000  0.98316000  1.0
  O  O40  1  0.83122000  0.67254000  0.49909000  1.0
  O  O41  1  0.55018000  0.51254000  0.60783000  1.0
  O  O42  1  0.49463000  0.33043000  0.51578000  1.0
  O  O43  1  0.10769000  0.50867000  0.39025000  1.0
  O  O44  1  0.16878000  0.32746000  0.50091000  1.0
  O  O45  1  0.44983000  0.48746000  0.39217000  1.0
  O  O46  1  0.50538000  0.66957000  0.48422000  1.0
  O  O47  1  0.89231000  0.49133000  0.60975000  1.0
  O  O48  1  0.21159000  0.55885000  0.53359000  1.0
  O  O49  1  0.78842000  0.44115000  0.46641000  1.0
  O  O50  1  0.96399000  0.51281000  0.25714000  1.0
  O  O51  1  0.03601000  0.48718000  0.74286000  1.0
  O  O52  1  0.79104000  0.12853000  0.51216000  1.0
  O  O53  1  0.20896000  0.87148000  0.48785000  1.0
