# generated using pymatgen
data_KInH8(CO3)4
_symmetry_space_group_name_H-M   'P 1'
_cell_length_a   8.80834000
_cell_length_b   9.07597000
_cell_length_c   9.07587876
_cell_angle_alpha   76.37966785
_cell_angle_beta   60.97028664
_cell_angle_gamma   60.97080000
_symmetry_Int_Tables_number   1
_chemical_formula_structural   KInH8(CO3)4
_chemical_formula_sum   'K2 In2 H16 C8 O24'
_cell_volume   554.71082976
_cell_formula_units_Z   2
loop_
 _symmetry_equiv_pos_site_id
 _symmetry_equiv_pos_as_xyz
  1  'x, y, z'
loop_
 _atom_site_type_symbol
 _atom_site_label
 _atom_site_symmetry_multiplicity
 _atom_site_fract_x
 _atom_site_fract_y
 _atom_site_fract_z
 _atom_site_occupancy
  K  K0  1  0.87499000  0.75001000  0.25000000  1.0
  K  K1  1  0.12498000  0.24999000  0.75001000  1.0
  In  In2  1  0.37502000  0.75000000  0.25000000  1.0
  In  In3  1  0.62498000  0.25000000  0.75000000  1.0
  H  H4  1  0.18005000  0.32533000  0.32624000  1.0
  H  H5  1  0.00539000  0.32624000  0.17466000  1.0
  H  H6  1  0.83163000  0.17466000  0.17376000  1.0
  H  H7  1  0.50629000  0.17376000  0.32533000  1.0
  H  H8  1  0.81995000  0.67467000  0.67376000  1.0
  H  H9  1  0.99461000  0.67376000  0.82534000  1.0
  H  H10  1  0.16837000  0.82533000  0.82624000  1.0
  H  H11  1  0.49371000  0.82624000  0.67466000  1.0
  H  H12  1  0.95201000  0.39778000  0.41482000  1.0
  H  H13  1  0.84980000  0.41482000  0.10221000  1.0
  H  H14  1  0.76462000  0.10221000  0.08518000  1.0
  H  H15  1  0.36682000  0.08519000  0.39779000  1.0
  H  H16  1  0.04799000  0.60221000  0.58518000  1.0
  H  H17  1  0.15020000  0.58518000  0.89779000  1.0
  H  H18  1  0.23538000  0.89779000  0.91482000  1.0
  H  H19  1  0.63318000  0.91481000  0.60220000  1.0
  C  C20  1  0.57866000  0.98040000  0.02621000  1.0
  C  C21  1  0.05907000  0.02619000  0.51959000  1.0
  C  C22  1  0.58526000  0.51960000  0.47380000  1.0
  C  C23  1  0.60486000  0.47381000  0.98040000  1.0
  C  C24  1  0.42135000  0.01961000  0.97379000  1.0
  C  C25  1  0.94094000  0.97379000  0.48041000  1.0
  C  C26  1  0.41473000  0.48040000  0.52621000  1.0
  C  C27  1  0.39513000  0.52621000  0.01960000  1.0
  O  O28  1  0.59235000  0.87410000  0.14167000  1.0
  O  O29  1  0.96645000  0.14167000  0.62591000  1.0
  O  O30  1  0.60810000  0.62590000  0.35835000  1.0
  O  O31  1  0.73403000  0.35833000  0.87409000  1.0
  O  O32  1  0.40766000  0.12589000  0.85834000  1.0
  O  O33  1  0.03355000  0.85833000  0.37410000  1.0
  O  O34  1  0.39188000  0.37410000  0.64166000  1.0
  O  O35  1  0.26599000  0.64167000  0.12589000  1.0
  O  O36  1  0.68339000  0.05913000  0.94927000  1.0
  O  O37  1  0.24251000  0.94927000  0.44087000  1.0
  O  O38  1  0.69177000  0.44087000  0.55074000  1.0
  O  O39  1  0.63266000  0.55074000  0.05912000  1.0
  O  O40  1  0.31662000  0.94087000  0.05073000  1.0
  O  O41  1  0.75749000  0.05073000  0.55914000  1.0
  O  O42  1  0.30822000  0.55913000  0.44926000  1.0
  O  O43  1  0.36736000  0.44927000  0.94087000  1.0
  O  O44  1  0.06304000  0.38852000  0.30543000  1.0
  O  O45  1  0.95156000  0.30543000  0.11148000  1.0
  O  O46  1  0.75700000  0.11148000  0.19456000  1.0
  O  O47  1  0.36847000  0.19457000  0.38852000  1.0
  O  O48  1  0.93695000  0.61148000  0.69457000  1.0
  O  O49  1  0.04844000  0.69456000  0.88852000  1.0
  O  O50  1  0.24299000  0.88852000  0.80544000  1.0
  O  O51  1  0.63153000  0.80543000  0.61147000  1.0
