# generated using pymatgen
data_DyCuH10C16N5O9
_symmetry_space_group_name_H-M   'P 1'
_cell_length_a   10.45320000
_cell_length_b   10.52084906
_cell_length_c   11.62970000
_cell_angle_alpha   99.31620506
_cell_angle_beta   98.26350000
_cell_angle_gamma   117.55130826
_symmetry_Int_Tables_number   1
_chemical_formula_structural   DyCuH10C16N5O9
_chemical_formula_sum   'Dy2 Cu2 H20 C32 N10 O18'
_cell_volume   1083.50304511
_cell_formula_units_Z   2
loop_
 _symmetry_equiv_pos_site_id
 _symmetry_equiv_pos_as_xyz
  1  'x, y, z'
loop_
 _atom_site_type_symbol
 _atom_site_label
 _atom_site_symmetry_multiplicity
 _atom_site_fract_x
 _atom_site_fract_y
 _atom_site_fract_z
 _atom_site_occupancy
  Dy  Dy0  1  0.55710000  0.99250000  0.82326000  1.0
  Dy  Dy1  1  0.44290000  0.00750000  0.17673000  1.0
  Cu  Cu2  1  0.00000000  0.00000000  0.00000000  1.0
  Cu  Cu3  1  0.00000000  0.00000000  0.50000000  1.0
  H  H4  1  0.30288000  0.23025000  0.48824000  1.0
  H  H5  1  0.69710000  0.76973000  0.51176000  1.0
  H  H6  1  0.47727000  0.50388000  0.58389000  1.0
  H  H7  1  0.52273000  0.49611000  0.41610000  1.0
  H  H8  1  0.14863000  0.50716000  0.76507000  1.0
  H  H9  1  0.85137000  0.49285000  0.23494000  1.0
  H  H10  1  0.98348000  0.23355000  0.66219000  1.0
  H  H11  1  0.01653000  0.76647000  0.33782000  1.0
  H  H12  1  0.72840000  0.74699000  0.82008000  1.0
  H  H13  1  0.27161000  0.25301000  0.17991000  1.0
  H  H14  1  0.59650000  0.46713000  0.76740000  1.0
  H  H15  1  0.40350000  0.53286000  0.23259000  1.0
  H  H16  1  0.91776000  0.49966000  0.06267000  1.0
  H  H17  1  0.08223000  0.50033000  0.93733000  1.0
  H  H18  1  0.04145000  0.77766000  0.10394000  1.0
  H  H19  1  0.95855000  0.22234000  0.89607000  1.0
  H  H20  1  0.80660000  0.01893000  0.71952000  1.0
  H  H21  1  0.19341000  0.98108000  0.28048000  1.0
  H  H22  1  0.72235000  0.05539000  0.61965000  1.0
  H  H23  1  0.27766000  0.94461000  0.38036000  1.0
  C  C24  1  0.16748000  0.97127000  0.70820000  1.0
  C  C25  1  0.83250000  0.02872000  0.29180000  1.0
  C  C26  1  0.17080000  0.98475000  0.83078000  1.0
  C  C27  1  0.82920000  0.01525000  0.16922000  1.0
  C  C28  1  0.26133000  0.95443000  0.62634000  1.0
  C  C29  1  0.73868000  0.04557000  0.37366000  1.0
  C  C30  1  0.27821000  0.00838000  0.94097000  1.0
  C  C31  1  0.72179000  0.99162000  0.05903000  1.0
  C  C32  1  0.27257000  0.29562000  0.54962000  1.0
  C  C33  1  0.72742000  0.70437000  0.45038000  1.0
  C  C34  1  0.36855000  0.44641000  0.60266000  1.0
  C  C35  1  0.63144000  0.55358000  0.39733000  1.0
  C  C36  1  0.32499000  0.52426000  0.68198000  1.0
  C  C37  1  0.67500000  0.47573000  0.31801000  1.0
  C  C38  1  0.18464000  0.44794000  0.70412000  1.0
  C  C39  1  0.81536000  0.55207000  0.29588000  1.0
  C  C40  1  0.09404000  0.29758000  0.64787000  1.0
  C  C41  1  0.90596000  0.70242000  0.35214000  1.0
  C  C42  1  0.42447000  0.68693000  0.74295000  1.0
  C  C43  1  0.57552000  0.31306000  0.25705000  1.0
  C  C44  1  0.76717000  0.68799000  0.87144000  1.0
  C  C45  1  0.23283000  0.31200000  0.12857000  1.0
  C  C46  1  0.69425000  0.53372000  0.84278000  1.0
  C  C47  1  0.30575000  0.46628000  0.15722000  1.0
  C  C48  1  0.74886000  0.46369000  0.91143000  1.0
  C  C49  1  0.25114000  0.53631000  0.08857000  1.0
  C  C50  1  0.87343000  0.55189000  0.00823000  1.0
  C  C51  1  0.12658000  0.44811000  0.99176000  1.0
  C  C52  1  0.94131000  0.70553000  0.03163000  1.0
  C  C53  1  0.05868000  0.29446000  0.96837000  1.0
  C  C54  1  0.67882000  0.29744000  0.87948000  1.0
  C  C55  1  0.32118000  0.70256000  0.12051000  1.0
  N  N56  1  0.04036000  0.96906000  0.65832000  1.0
  N  N57  1  0.95963000  0.03094000  0.34167000  1.0
  N  N58  1  0.96662000  0.97808000  0.74050000  1.0
  N  N59  1  0.03337000  0.02192000  0.25950000  1.0
  N  N60  1  0.04515000  0.98738000  0.84438000  1.0
  N  N61  1  0.95485000  0.01262000  0.15562000  1.0
  N  N62  1  0.13811000  0.22328000  0.57283000  1.0
  N  N63  1  0.86188000  0.77672000  0.42718000  1.0
  N  N64  1  0.88918000  0.77164000  0.96384000  1.0
  N  N65  1  0.11082000  0.22836000  0.03617000  1.0
  O  O66  1  0.22629000  0.96490000  0.52075000  1.0
  O  O67  1  0.77372000  0.03511000  0.47925000  1.0
  O  O68  1  0.36198000  0.92585000  0.66567000  1.0
  O  O69  1  0.63803000  0.07415000  0.33433000  1.0
  O  O70  1  0.40419000  0.02375000  0.93609000  1.0
  O  O71  1  0.59581000  0.97625000  0.06391000  1.0
  O  O72  1  0.24126000  0.01669000  0.04104000  1.0
  O  O73  1  0.75875000  0.98333000  0.95896000  1.0
  O  O74  1  0.53952000  0.76293000  0.70655000  1.0
  O  O75  1  0.46048000  0.23707000  0.29344000  1.0
  O  O76  1  0.38807000  0.74431000  0.82804000  1.0
  O  O77  1  0.61194000  0.25570000  0.17196000  1.0
  O  O78  1  0.73589000  0.23909000  0.94247000  1.0
  O  O79  1  0.26411000  0.76091000  0.05753000  1.0
  O  O80  1  0.56703000  0.21973000  0.78938000  1.0
  O  O81  1  0.43297000  0.78027000  0.21061000  1.0
  O  O82  1  0.74128000  0.06300000  0.70758000  1.0
  O  O83  1  0.25873000  0.93701000  0.29242000  1.0
