# generated using pymatgen
data_Zn2P2H22C19(NO4)2
_symmetry_space_group_name_H-M   'P 1'
_cell_length_a   9.71721000
_cell_length_b   9.94963000
_cell_length_c   22.78000000
_cell_angle_alpha   90.00000000
_cell_angle_beta   90.79640000
_cell_angle_gamma   89.99990000
_symmetry_Int_Tables_number   1
_chemical_formula_structural   Zn2P2H22C19(NO4)2
_chemical_formula_sum   'Zn8 P8 H88 C76 N8 O32'
_cell_volume   2202.21787700
_cell_formula_units_Z   4
loop_
 _symmetry_equiv_pos_site_id
 _symmetry_equiv_pos_as_xyz
  1  'x, y, z'
loop_
 _atom_site_type_symbol
 _atom_site_label
 _atom_site_symmetry_multiplicity
 _atom_site_fract_x
 _atom_site_fract_y
 _atom_site_fract_z
 _atom_site_occupancy
  Zn  Zn0  1  0.89238000  0.31768000  0.98925000  1.0
  Zn  Zn1  1  0.60762000  0.81768000  0.01075000  1.0
  Zn  Zn2  1  0.10762000  0.68232000  0.01075000  1.0
  Zn  Zn3  1  0.39238000  0.18232000  0.98925000  1.0
  Zn  Zn4  1  0.65498000  0.35892000  0.49568000  1.0
  Zn  Zn5  1  0.84502000  0.85893000  0.50432000  1.0
  Zn  Zn6  1  0.34502000  0.64107000  0.50432000  1.0
  Zn  Zn7  1  0.15498000  0.14107000  0.49568000  1.0
  P  P8  1  0.36790000  0.33497000  0.55536000  1.0
  P  P9  1  0.13210000  0.83497000  0.44464000  1.0
  P  P10  1  0.63210000  0.66503000  0.44464000  1.0
  P  P11  1  0.86790000  0.16503000  0.55536000  1.0
  P  P12  1  0.17388000  0.41361000  0.93830000  1.0
  P  P13  1  0.32612000  0.91361000  0.06170000  1.0
  P  P14  1  0.82612000  0.58639000  0.06170000  1.0
  P  P15  1  0.67388000  0.08639000  0.93830000  1.0
  H  H16  1  0.48339000  0.43754000  0.39402000  1.0
  H  H17  1  0.01660000  0.93754000  0.60598000  1.0
  H  H18  1  0.51661000  0.56246000  0.60598000  1.0
  H  H19  1  0.98339000  0.06246000  0.39402000  1.0
  H  H20  1  0.33083000  0.32808000  0.32103000  1.0
  H  H21  1  0.16917000  0.82808000  0.67897000  1.0
  H  H22  1  0.66917000  0.67192000  0.67897000  1.0
  H  H23  1  0.83083000  0.17192000  0.32103000  1.0
  H  H24  1  0.45678000  0.94531000  0.39388000  1.0
  H  H25  1  0.04322000  0.44531000  0.60612000  1.0
  H  H26  1  0.54322000  0.05469000  0.60612000  1.0
  H  H27  1  0.95678000  0.55469000  0.39388000  1.0
  H  H28  1  0.61130000  0.07054000  0.46262000  1.0
  H  H29  1  0.88870000  0.57054000  0.53738000  1.0
  H  H30  1  0.38870000  0.92946000  0.53738000  1.0
  H  H31  1  0.11130000  0.42946000  0.46262000  1.0
  H  H32  1  0.18892000  0.02429000  0.33603000  1.0
  H  H33  1  0.31108000  0.52429000  0.66397000  1.0
  H  H34  1  0.81108000  0.97571000  0.66397000  1.0
  H  H35  1  0.68892000  0.47571000  0.33603000  1.0
  H  H36  1  0.32856000  0.95417000  0.29955000  1.0
  H  H37  1  0.17144000  0.45417000  0.70045000  1.0
  H  H38  1  0.67144000  0.04583000  0.70045000  1.0
  H  H39  1  0.82856000  0.54583000  0.29955000  1.0
  H  H40  1  0.18835000  0.22245000  0.26634000  1.0
  H  H41  1  0.31165000  0.72245000  0.73366000  1.0
  H  H42  1  0.81165000  0.77755000  0.73366000  1.0
  H  H43  1  0.68836000  0.27755000  0.26634000  1.0
  H  H44  1  0.32780000  0.14843000  0.22885000  1.0
  H  H45  1  0.17220000  0.64843000  0.77116000  1.0
  H  H46  1  0.67220000  0.85157000  0.77115000  1.0
  H  H47  1  0.82780000  0.35157000  0.22885000  1.0
  H  H48  1  0.17908000  0.94365000  0.20845000  1.0
  H  H49  1  0.32092000  0.44365000  0.79155000  1.0
  H  H50  1  0.82092000  0.05635000  0.79155000  1.0
  H  H51  1  0.67908000  0.55635000  0.20845000  1.0
  H  H52  1  0.04252000  0.01860000  0.24469000  1.0
  H  H53  1  0.45748000  0.51860000  0.75531000  1.0
  H  H54  1  0.95748000  0.98140000  0.75531000  1.0
  H  H55  1  0.54252000  0.48140000  0.24469000  1.0
  H  H56  1  0.20290000  0.29158000  0.16842000  1.0
  H  H57  1  0.29710000  0.79159000  0.83158000  1.0
  H  H58  1  0.79710000  0.70841000  0.83158000  1.0
  H  H59  1  0.70290000  0.20841000  0.16842000  1.0
  H  H60  1  0.10910000  0.38492000  0.07566000  1.0
  H  H61  1  0.39090000  0.88492000  0.92434000  1.0
  H  H62  1  0.89090000  0.61508000  0.92434000  1.0
  H  H63  1  0.60910000  0.11508000  0.07566000  1.0
  H  H64  1  0.95390000  0.93791000  0.13696000  1.0
  H  H65  1  0.54610000  0.43791000  0.86304000  1.0
  H  H66  1  0.04610000  0.06209000  0.86304000  1.0
  H  H67  1  0.45390000  0.56209000  0.13696000  1.0
  H  H68  1  0.86716000  0.04710000  0.04539000  1.0
  H  H69  1  0.63284000  0.54709000  0.95461000  1.0
  H  H70  1  0.13284000  0.95290000  0.95460000  1.0
  H  H71  1  0.36716000  0.45290000  0.04539000  1.0
  H  H72  1  0.31701000  0.33448000  0.61302000  1.0
  H  H73  1  0.18299000  0.83448000  0.38698000  1.0
  H  H74  1  0.68299000  0.66552000  0.38698000  1.0
  H  H75  1  0.81701000  0.16552000  0.61302000  1.0
  H  H76  1  0.21276000  0.47376000  0.88520000  1.0
  H  H77  1  0.28724000  0.97376000  0.11480000  1.0
  H  H78  1  0.78724000  0.52624000  0.11480000  1.0
  H  H79  1  0.71277000  0.02624000  0.88520000  1.0
  H  H80  1  0.77386000  0.29871000  0.85196000  1.0
  H  H81  1  0.72614000  0.79871000  0.14804000  1.0
  H  H82  1  0.22614000  0.70129000  0.14804000  1.0
  H  H83  1  0.27386000  0.20130000  0.85196000  1.0
  H  H84  1  0.59518000  0.20578000  0.78372000  1.0
  H  H85  1  0.90482000  0.70578000  0.21628000  1.0
  H  H86  1  0.40482000  0.79422000  0.21628000  1.0
  H  H87  1  0.09518000  0.29422000  0.78372000  1.0
  H  H88  1  0.75121000  0.45056000  0.64380000  1.0
  H  H89  1  0.74878000  0.95056000  0.35619000  1.0
  H  H90  1  0.24878000  0.54944000  0.35620000  1.0
  H  H91  1  0.25122000  0.04944000  0.64380000  1.0
  H  H92  1  0.92571000  0.54714000  0.71275000  1.0
  H  H93  1  0.57429000  0.04714000  0.28725000  1.0
  H  H94  1  0.07429000  0.45286000  0.28725000  1.0
  H  H95  1  0.42571000  0.95286000  0.71275000  1.0
  H  H96  1  0.97022000  0.43535000  0.85979000  1.0
  H  H97  1  0.52978000  0.93535000  0.14021000  1.0
  H  H98  1  0.02978000  0.56465000  0.14021000  1.0
  H  H99  1  0.47022000  0.06465000  0.85979000  1.0
  H  H100  1  0.56648000  0.30165000  0.63347000  1.0
  H  H101  1  0.93352000  0.80165000  0.36653000  1.0
  H  H102  1  0.43352000  0.69835000  0.36653000  1.0
  H  H103  1  0.06648000  0.19834000  0.63347000  1.0
  C  C104  1  0.47716000  0.32827000  0.39165000  1.0
  C  C105  1  0.02283000  0.82827000  0.60835000  1.0
  C  C106  1  0.52284000  0.67173000  0.60835000  1.0
  C  C107  1  0.97716000  0.17173000  0.39165000  1.0
  C  C108  1  0.38963000  0.26555000  0.35153000  1.0
  C  C109  1  0.11037000  0.76555000  0.64847000  1.0
  C  C110  1  0.61037000  0.73445000  0.64847000  1.0
  C  C111  1  0.88963000  0.23445000  0.35153000  1.0
  C  C112  1  0.37747000  0.12526000  0.35151000  1.0
  C  C113  1  0.12253000  0.62526000  0.64849000  1.0
  C  C114  1  0.62253000  0.87474000  0.64849000  1.0
  C  C115  1  0.87746000  0.37474000  0.35151000  1.0
  C  C116  1  0.45941000  0.05471000  0.39241000  1.0
  C  C117  1  0.04059000  0.55471000  0.60759000  1.0
  C  C118  1  0.54059000  0.94529000  0.60759000  1.0
  C  C119  1  0.95941000  0.44529000  0.39241000  1.0
  C  C120  1  0.54645000  0.12339000  0.43071000  1.0
  C  C121  1  0.95355000  0.62339000  0.56929000  1.0
  C  C122  1  0.45356000  0.87661000  0.56929000  1.0
  C  C123  1  0.04644000  0.37661000  0.43071000  1.0
  C  C124  1  0.28105000  0.05100000  0.31071000  1.0
  C  C125  1  0.21895000  0.55100000  0.68929000  1.0
  C  C126  1  0.71895000  0.94900000  0.68929000  1.0
  C  C127  1  0.78105000  0.44900000  0.31071000  1.0
  C  C128  1  0.23615000  0.12564000  0.25503000  1.0
  C  C129  1  0.26385000  0.62564000  0.74497000  1.0
  C  C130  1  0.76385000  0.87436000  0.74497000  1.0
  C  C131  1  0.73615000  0.37436000  0.25503000  1.0
  C  C132  1  0.13414000  0.04267000  0.21853000  1.0
  C  C133  1  0.36586000  0.54267000  0.78147000  1.0
  C  C134  1  0.86586000  0.95733000  0.78147000  1.0
  C  C135  1  0.63414000  0.45733000  0.21853000  1.0
  C  C136  1  0.08532000  0.10586000  0.16193000  1.0
  C  C137  1  0.41468000  0.60586000  0.83807000  1.0
  C  C138  1  0.91468000  0.89414000  0.83807000  1.0
  C  C139  1  0.58532000  0.39414000  0.16193000  1.0
  C  C140  1  0.12970000  0.23209000  0.14286000  1.0
  C  C141  1  0.37031000  0.73209000  0.85714000  1.0
  C  C142  1  0.87030000  0.76791000  0.85714000  1.0
  C  C143  1  0.62970000  0.26791000  0.14286000  1.0
  C  C144  1  0.07717000  0.28615000  0.09096000  1.0
  C  C145  1  0.42283000  0.78615000  0.90904000  1.0
  C  C146  1  0.92283000  0.71385000  0.90904000  1.0
  C  C147  1  0.57717000  0.21385000  0.09096000  1.0
  C  C148  1  0.99090000  0.03763000  0.12525000  1.0
  C  C149  1  0.50910000  0.53763000  0.87475000  1.0
  C  C150  1  0.00910000  0.96237000  0.87475000  1.0
  C  C151  1  0.49090000  0.46237000  0.12525000  1.0
  C  C152  1  0.94203000  0.09727000  0.07411000  1.0
  C  C153  1  0.55797000  0.59727000  0.92589000  1.0
  C  C154  1  0.05797000  0.90273000  0.92589000  1.0
  C  C155  1  0.44203000  0.40273000  0.07411000  1.0
  C  C156  1  0.86177000  0.42916000  0.78631000  1.0
  C  C157  1  0.63823000  0.92916000  0.21369000  1.0
  C  C158  1  0.13823000  0.57084000  0.21369000  1.0
  C  C159  1  0.36177000  0.07084000  0.78631000  1.0
  C  C160  1  0.76793000  0.33333333  0.80651000  1.0
  C  C161  1  0.73207000  0.83336000  0.19349000  1.0
  C  C162  1  0.23207000  0.66666667  0.19349000  1.0
  C  C163  1  0.26794000  0.16664000  0.80651000  1.0
  C  C164  1  0.66767000  0.28124000  0.76843000  1.0
  C  C165  1  0.83233000  0.78124000  0.23157000  1.0
  C  C166  1  0.33233000  0.71876000  0.23157000  1.0
  C  C167  1  0.16767000  0.21876000  0.76843000  1.0
  C  C168  1  0.66052000  0.32266000  0.70967000  1.0
  C  C169  1  0.83948000  0.82266000  0.29033000  1.0
  C  C170  1  0.33947000  0.67734000  0.29032000  1.0
  C  C171  1  0.16052000  0.17734000  0.70968000  1.0
  C  C172  1  0.75317000  0.42000000  0.68984000  1.0
  C  C173  1  0.74683000  0.92000000  0.31016000  1.0
  C  C174  1  0.24683000  0.58000000  0.31016000  1.0
  C  C175  1  0.25317000  0.08000000  0.68984000  1.0
  C  C176  1  0.85172000  0.47358000  0.72822000  1.0
  C  C177  1  0.64828000  0.97358000  0.27178000  1.0
  C  C178  1  0.14828000  0.52642000  0.27178000  1.0
  C  C179  1  0.35172000  0.02642000  0.72822000  1.0
  N  N180  1  0.55533000  0.25919000  0.43064000  1.0
  N  N181  1  0.94467000  0.75919000  0.56936000  1.0
  N  N182  1  0.44467000  0.74081000  0.56936000  1.0
  N  N183  1  0.05533000  0.24081000  0.43064000  1.0
  N  N184  1  0.98307000  0.22155000  0.05733000  1.0
  N  N185  1  0.51693000  0.72155000  0.94267000  1.0
  N  N186  1  0.01693000  0.77845000  0.94267000  1.0
  N  N187  1  0.48307000  0.27844000  0.05733000  1.0
  O  O188  1  0.01880000  0.38280000  0.92826000  1.0
  O  O189  1  0.48120000  0.88280000  0.07173000  1.0
  O  O190  1  0.98120000  0.61720000  0.07173000  1.0
  O  O191  1  0.51880000  0.11720000  0.92827000  1.0
  O  O192  1  0.52621000  0.34945000  0.56368000  1.0
  O  O193  1  0.97379000  0.84945000  0.43632000  1.0
  O  O194  1  0.47379000  0.65055000  0.43632000  1.0
  O  O195  1  0.02621000  0.15055000  0.56368000  1.0
  O  O196  1  0.33032000  0.19968000  0.52746000  1.0
  O  O197  1  0.16968000  0.69968000  0.47254000  1.0
  O  O198  1  0.66968000  0.80032000  0.47254000  1.0
  O  O199  1  0.83032000  0.30032000  0.52746000  1.0
  O  O200  1  0.30321000  0.45432000  0.52269000  1.0
  O  O201  1  0.19679000  0.95432000  0.47731000  1.0
  O  O202  1  0.69679000  0.54568000  0.47731000  1.0
  O  O203  1  0.80321000  0.04568000  0.52269000  1.0
  O  O204  1  0.25807000  0.28531000  0.94543000  1.0
  O  O205  1  0.24193000  0.78531000  0.05457000  1.0
  O  O206  1  0.74193000  0.71469000  0.05457000  1.0
  O  O207  1  0.75807000  0.21469000  0.94543000  1.0
  O  O208  1  0.20097000  0.51480000  0.98805000  1.0
  O  O209  1  0.29902000  0.01479000  0.01195000  1.0
  O  O210  1  0.79903000  0.48520000  0.01195000  1.0
  O  O211  1  0.70098000  0.98520000  0.98805000  1.0
  O  O212  1  0.56416000  0.26343000  0.67387000  1.0
  O  O213  1  0.93584000  0.76344000  0.32613000  1.0
  O  O214  1  0.43584000  0.73657000  0.32613000  1.0
  O  O215  1  0.06416000  0.23656000  0.67387000  1.0
  O  O216  1  0.96630000  0.47996000  0.82058000  1.0
  O  O217  1  0.53370000  0.97996000  0.17942000  1.0
  O  O218  1  0.03370000  0.52004000  0.17942000  1.0
  O  O219  1  0.46630000  0.02004000  0.82058000  1.0
