# generated using pymatgen
data_Na2ZnH10C6S2(NO5)2
_symmetry_space_group_name_H-M   'P 1'
_cell_length_a   6.18457000
_cell_length_b   8.54079000
_cell_length_c   13.12370000
_cell_angle_alpha   82.67100000
_cell_angle_beta   89.99990000
_cell_angle_gamma   89.99970000
_symmetry_Int_Tables_number   1
_chemical_formula_structural   Na2ZnH10C6S2(NO5)2
_chemical_formula_sum   'Na4 Zn2 H20 C12 S4 N4 O20'
_cell_volume   687.54493729
_cell_formula_units_Z   2
loop_
 _symmetry_equiv_pos_site_id
 _symmetry_equiv_pos_as_xyz
  1  'x, y, z'
loop_
 _atom_site_type_symbol
 _atom_site_label
 _atom_site_symmetry_multiplicity
 _atom_site_fract_x
 _atom_site_fract_y
 _atom_site_fract_z
 _atom_site_occupancy
  Na  Na0  1  0.61456000  0.69158000  0.96047000  1.0
  Na  Na1  1  0.11456000  0.80842000  0.03952000  1.0
  Na  Na2  1  0.38545000  0.30842000  0.03952000  1.0
  Na  Na3  1  0.88545000  0.19158000  0.96048000  1.0
  Zn  Zn4  1  0.00000000  0.50000000  0.50000000  1.0
  Zn  Zn5  1  0.50000000  0.00000000  0.50000000  1.0
  H  H6  1  0.73037000  0.60345000  0.61749000  1.0
  H  H7  1  0.23037000  0.89656000  0.38251000  1.0
  H  H8  1  0.26963000  0.39656000  0.38251000  1.0
  H  H9  1  0.76962000  0.10345000  0.61749000  1.0
  H  H10  1  0.87367000  0.47981000  0.70270000  1.0
  H  H11  1  0.37367000  0.02019000  0.29730000  1.0
  H  H12  1  0.12634000  0.52019000  0.29730000  1.0
  H  H13  1  0.62633000  0.97981000  0.70270000  1.0
  H  H14  1  0.29469000  0.75431000  0.74914000  1.0
  H  H15  1  0.79468000  0.74569000  0.25086000  1.0
  H  H16  1  0.70532000  0.24569000  0.25086000  1.0
  H  H17  1  0.20531000  0.25431000  0.74914000  1.0
  H  H18  1  0.29566000  0.56067000  0.70798000  1.0
  H  H19  1  0.79566000  0.93933000  0.29202000  1.0
  H  H20  1  0.70434000  0.43933000  0.29201000  1.0
  H  H21  1  0.20434000  0.06067000  0.70799000  1.0
  H  H22  1  0.90542000  0.78323000  0.70192000  1.0
  H  H23  1  0.40542000  0.71677000  0.29808000  1.0
  H  H24  1  0.09458000  0.21677000  0.29808000  1.0
  H  H25  1  0.59458000  0.28323000  0.70192000  1.0
  C  C26  1  0.19615000  0.65093000  0.73830000  1.0
  C  C27  1  0.69615000  0.84907000  0.26170000  1.0
  C  C28  1  0.80385000  0.34907000  0.26170000  1.0
  C  C29  1  0.30385000  0.15093000  0.73830000  1.0
  C  C30  1  0.00805000  0.70059000  0.66559000  1.0
  C  C31  1  0.50805000  0.79941000  0.33441000  1.0
  C  C32  1  0.99195000  0.29941000  0.33441000  1.0
  C  C33  1  0.49195000  0.20059000  0.66559000  1.0
  C  C34  1  0.10451000  0.79566000  0.56794000  1.0
  C  C35  1  0.60452000  0.70433000  0.43206000  1.0
  C  C36  1  0.89549000  0.20434000  0.43206000  1.0
  C  C37  1  0.39548000  0.29567000  0.56794000  1.0
  S  S38  1  0.10913000  0.57030000  0.86358000  1.0
  S  S39  1  0.60913000  0.92970000  0.13642000  1.0
  S  S40  1  0.89088000  0.42970000  0.13642000  1.0
  S  S41  1  0.39088000  0.07030000  0.86358000  1.0
  N  N42  1  0.88253000  0.56442000  0.64011000  1.0
  N  N43  1  0.38253000  0.93559000  0.35989000  1.0
  N  N44  1  0.11747000  0.43559000  0.35989000  1.0
  N  N45  1  0.61747000  0.06441000  0.64011000  1.0
  O  O46  1  0.30697000  0.54724000  0.92696000  1.0
  O  O47  1  0.80697000  0.95276000  0.07304000  1.0
  O  O48  1  0.69304000  0.45276000  0.07304000  1.0
  O  O49  1  0.19304000  0.04724000  0.92696000  1.0
  O  O50  1  0.96430000  0.68899000  0.90020000  1.0
  O  O51  1  0.46430000  0.81101000  0.09979000  1.0
  O  O52  1  0.03571000  0.31101000  0.09979000  1.0
  O  O53  1  0.53570000  0.18899000  0.90020000  1.0
  O  O54  1  0.99791000  0.42055000  0.85264000  1.0
  O  O55  1  0.49791000  0.07945000  0.14736000  1.0
  O  O56  1  0.00209000  0.57945000  0.14735000  1.0
  O  O57  1  0.50209000  0.92055000  0.85265000  1.0
  O  O58  1  0.09595000  0.73685000  0.48370000  1.0
  O  O59  1  0.59594000  0.76316000  0.51630000  1.0
  O  O60  1  0.90405000  0.26315000  0.51629000  1.0
  O  O61  1  0.40405000  0.23684000  0.48370000  1.0
  O  O62  1  0.19059000  0.92594000  0.58031000  1.0
  O  O63  1  0.69059000  0.57407000  0.41969000  1.0
  O  O64  1  0.80940000  0.07406000  0.41969000  1.0
  O  O65  1  0.30941000  0.42593000  0.58031000  1.0
