# generated using pymatgen
data_NiP2H18C18(NO3)2
_symmetry_space_group_name_H-M   'P 1'
_cell_length_a   8.01912000
_cell_length_b   10.40670000
_cell_length_c   10.72880000
_cell_angle_alpha   95.50330000
_cell_angle_beta   91.23350000
_cell_angle_gamma   93.50930000
_symmetry_Int_Tables_number   1
_chemical_formula_structural   NiP2H18C18(NO3)2
_chemical_formula_sum   'Ni2 P4 H36 C36 N4 O12'
_cell_volume   889.20963077
_cell_formula_units_Z   2
loop_
 _symmetry_equiv_pos_site_id
 _symmetry_equiv_pos_as_xyz
  1  'x, y, z'
loop_
 _atom_site_type_symbol
 _atom_site_label
 _atom_site_symmetry_multiplicity
 _atom_site_fract_x
 _atom_site_fract_y
 _atom_site_fract_z
 _atom_site_occupancy
  Ni  Ni0  1  0.25827000  0.33047000  0.02965000  1.0
  Ni  Ni1  1  0.74173000  0.66954000  0.97037000  1.0
  P  P2  1  0.81263000  0.37823000  0.85531000  1.0
  P  P3  1  0.18740000  0.62175000  0.14466000  1.0
  P  P4  1  0.65841000  0.45770000  0.16908000  1.0
  P  P5  1  0.34158000  0.54229000  0.83091000  1.0
  H  H6  1  0.54215000  0.34552000  0.88159000  1.0
  H  H7  1  0.45786000  0.65443000  0.11835000  1.0
  H  H8  1  0.88948000  0.39008000  0.08529000  1.0
  H  H9  1  0.11051000  0.60992000  0.91470000  1.0
  H  H10  1  0.33068000  0.23967000  0.76322000  1.0
  H  H11  1  0.66932000  0.76030000  0.23679000  1.0
  H  H12  1  0.37256000  0.02113000  0.65386000  1.0
  H  H13  1  0.62738000  0.97883000  0.34617000  1.0
  H  H14  1  0.34843000  0.82628000  0.77840000  1.0
  H  H15  1  0.65146000  0.17369000  0.22161000  1.0
  H  H16  1  0.26175000  0.85622000  0.99760000  1.0
  H  H17  1  0.73822000  0.14377000  0.00243000  1.0
  H  H18  1  0.15271000  0.90266000  0.17638000  1.0
  H  H19  1  0.84728000  0.09735000  0.82365000  1.0
  H  H20  1  0.03733000  0.97858000  0.38517000  1.0
  H  H21  1  0.96259000  0.02144000  0.61483000  1.0
  H  H22  1  0.00685000  0.21803000  0.43574000  1.0
  H  H23  1  0.99307000  0.78199000  0.56423000  1.0
  H  H24  1  0.10492000  0.36937000  0.27973000  1.0
  H  H25  1  0.89508000  0.63064000  0.72027000  1.0
  H  H26  1  0.95897000  0.24057000  0.71155000  1.0
  H  H27  1  0.04106000  0.75945000  0.28843000  1.0
  H  H28  1  0.99921000  0.40593000  0.69061000  1.0
  H  H29  1  0.00082000  0.59408000  0.30940000  1.0
  H  H30  1  0.71200000  0.59464000  0.36224000  1.0
  H  H31  1  0.28806000  0.40538000  0.63770000  1.0
  H  H32  1  0.49730000  0.54725000  0.33381000  1.0
  H  H33  1  0.50273000  0.45279000  0.66620000  1.0
  H  H34  1  0.42180000  0.29486000  0.33493000  1.0
  H  H35  1  0.57823000  0.70518000  0.66507000  1.0
  H  H36  1  0.85182000  0.49770000  0.52330000  1.0
  H  H37  1  0.14823000  0.50232000  0.47670000  1.0
  H  H38  1  0.43822000  0.12039000  0.47676000  1.0
  H  H39  1  0.56177000  0.87966000  0.52325000  1.0
  H  H40  1  0.66083000  0.13574000  0.64401000  1.0
  H  H41  1  0.33917000  0.86430000  0.35600000  1.0
  C  C42  1  0.31441000  0.15259000  0.81102000  1.0
  C  C43  1  0.68558000  0.84738000  0.18898000  1.0
  C  C44  1  0.33906000  0.03061000  0.75193000  1.0
  C  C45  1  0.66090000  0.96935000  0.24808000  1.0
  C  C46  1  0.32350000  0.92269000  0.81931000  1.0
  C  C47  1  0.67644000  0.07729000  0.18070000  1.0
  C  C48  1  0.27608000  0.93940000  0.94350000  1.0
  C  C49  1  0.72390000  0.06057000  0.05652000  1.0
  C  C50  1  0.24899000  0.06367000  0.99677000  1.0
  C  C51  1  0.75102000  0.93629000  0.00324000  1.0
  C  C52  1  0.18903000  0.09513000  0.12222000  1.0
  C  C53  1  0.81098000  0.90486000  0.87781000  1.0
  C  C54  1  0.14138000  0.00482000  0.20486000  1.0
  C  C55  1  0.85860000  0.99518000  0.79517000  1.0
  C  C56  1  0.07697000  0.04771000  0.31978000  1.0
  C  C57  1  0.92299000  0.95231000  0.68022000  1.0
  C  C58  1  0.06151000  0.18000000  0.34878000  1.0
  C  C59  1  0.93844000  0.82002000  0.65122000  1.0
  C  C60  1  0.11310000  0.26548000  0.26300000  1.0
  C  C61  1  0.88687000  0.73452000  0.73702000  1.0
  C  C62  1  0.89902000  0.33143000  0.70161000  1.0
  C  C63  1  0.10103000  0.66856000  0.29837000  1.0
  C  C64  1  0.77263000  0.31760000  0.59489000  1.0
  C  C65  1  0.22742000  0.68242000  0.40510000  1.0
  C  C66  1  0.62378000  0.51186000  0.33267000  1.0
  C  C67  1  0.37624000  0.48816000  0.66732000  1.0
  C  C68  1  0.63627000  0.40709000  0.41876000  1.0
  C  C69  1  0.36377000  0.59293000  0.58124000  1.0
  C  C70  1  0.51940000  0.30059000  0.40760000  1.0
  C  C71  1  0.48063000  0.69944000  0.59240000  1.0
  C  C72  1  0.76189000  0.41387000  0.51252000  1.0
  C  C73  1  0.23817000  0.58615000  0.48749000  1.0
  C  C74  1  0.53053000  0.20266000  0.48688000  1.0
  C  C75  1  0.46950000  0.79737000  0.51312000  1.0
  C  C76  1  0.65624000  0.21032000  0.57957000  1.0
  C  C77  1  0.34380000  0.78972000  0.42043000  1.0
  N  N78  1  0.27354000  0.16994000  0.93215000  1.0
  N  N79  1  0.72647000  0.83003000  0.06785000  1.0
  N  N80  1  0.17584000  0.22435000  0.15200000  1.0
  N  N81  1  0.82417000  0.77565000  0.84802000  1.0
  O  O82  1  0.63667000  0.58100000  0.09921000  1.0
  O  O83  1  0.36330000  0.41896000  0.90078000  1.0
  O  O84  1  0.77544000  0.52071000  0.85811000  1.0
  O  O85  1  0.22452000  0.47926000  0.14188000  1.0
  O  O86  1  0.54511000  0.34167000  0.12465000  1.0
  O  O87  1  0.45492000  0.65828000  0.87537000  1.0
  O  O88  1  0.92997000  0.33694000  0.95447000  1.0
  O  O89  1  0.07003000  0.66305000  0.04553000  1.0
  O  O90  1  0.63949000  0.29378000  0.85328000  1.0
  O  O91  1  0.36052000  0.70617000  0.14669000  1.0
  O  O92  1  0.84978000  0.42754000  0.17229000  1.0
  O  O93  1  0.15024000  0.57247000  0.82770000  1.0
