# generated using pymatgen
data_MnH10C5O7
_symmetry_space_group_name_H-M   'P 1'
_cell_length_a   7.01799000
_cell_length_b   9.53642000
_cell_length_c   12.21030000
_cell_angle_alpha   102.18000000
_cell_angle_beta   95.21790000
_cell_angle_gamma   94.57420000
_symmetry_Int_Tables_number   1
_chemical_formula_structural   MnH10C5O7
_chemical_formula_sum   'Mn4 H40 C20 O28'
_cell_volume   791.36771184
_cell_formula_units_Z   4
loop_
 _symmetry_equiv_pos_site_id
 _symmetry_equiv_pos_as_xyz
  1  'x, y, z'
loop_
 _atom_site_type_symbol
 _atom_site_label
 _atom_site_symmetry_multiplicity
 _atom_site_fract_x
 _atom_site_fract_y
 _atom_site_fract_z
 _atom_site_occupancy
  Mn  Mn0  1  0.54553000  0.21411000  0.41674000  1.0
  Mn  Mn1  1  0.45424000  0.78573000  0.58324000  1.0
  Mn  Mn2  1  0.18015000  0.26064000  0.21581000  1.0
  Mn  Mn3  1  0.81951000  0.73903000  0.78424000  1.0
  H  H4  1  0.70250000  0.16492000  0.61662000  1.0
  H  H5  1  0.29746000  0.83505000  0.38334000  1.0
  H  H6  1  0.88136000  0.15734000  0.53740000  1.0
  H  H7  1  0.11858000  0.84267000  0.46254000  1.0
  H  H8  1  0.17526000  0.12121000  0.40086000  1.0
  H  H9  1  0.82511000  0.87916000  0.59921000  1.0
  H  H10  1  0.28214000  0.01610000  0.30063000  1.0
  H  H11  1  0.71826000  0.98420000  0.69936000  1.0
  H  H12  1  0.98742000  0.42073000  0.38319000  1.0
  H  H13  1  0.01245000  0.57930000  0.61682000  1.0
  H  H14  1  0.20548000  0.46157000  0.43463000  1.0
  H  H15  1  0.79446000  0.53829000  0.56530000  1.0
  H  H16  1  0.42381000  0.13847000  0.05663000  1.0
  H  H17  1  0.57608000  0.86151000  0.94342000  1.0
  H  H18  1  0.29267000  0.00278000  0.07059000  1.0
  H  H19  1  0.70730000  0.99710000  0.92930000  1.0
  H  H20  1  0.15751000  0.48478000  0.09119000  1.0
  H  H21  1  0.84251000  0.51510000  0.90895000  1.0
  H  H22  1  0.98015000  0.36550000  0.04521000  1.0
  H  H23  1  0.01988000  0.63441000  0.95487000  1.0
  H  H24  1  0.79711000  0.17588000  0.11298000  1.0
  H  H25  1  0.20291000  0.82398000  0.88696000  1.0
  H  H26  1  0.81088000  0.11662000  0.22689000  1.0
  H  H27  1  0.18890000  0.88324000  0.77307000  1.0
  H  H28  1  0.77801000  0.47618000  0.18036000  1.0
  H  H29  1  0.22198000  0.52385000  0.81962000  1.0
  H  H30  1  0.97226000  0.63376000  0.32691000  1.0
  H  H31  1  0.02775000  0.36628000  0.67309000  1.0
  H  H32  1  0.94507000  0.87687000  0.28084000  1.0
  H  H33  1  0.05495000  0.12312000  0.71912000  1.0
  H  H34  1  0.94916000  0.73144000  0.16485000  1.0
  H  H35  1  0.05077000  0.26855000  0.83509000  1.0
  H  H36  1  0.72219000  0.88006000  0.11214000  1.0
  H  H37  1  0.27775000  0.11991000  0.88783000  1.0
  H  H38  1  0.63611000  0.63093000  0.04098000  1.0
  H  H39  1  0.36386000  0.36904000  0.95906000  1.0
  H  H40  1  0.43950000  0.47221000  0.12929000  1.0
  H  H41  1  0.56044000  0.52781000  0.87081000  1.0
  H  H42  1  0.41418000  0.61532000  0.24324000  1.0
  H  H43  1  0.58586000  0.38473000  0.75685000  1.0
  C  C44  1  0.69448000  0.53680000  0.24380000  1.0
  C  C45  1  0.30555000  0.46322000  0.75622000  1.0
  C  C46  1  0.83034000  0.66926000  0.30659000  1.0
  C  C47  1  0.16968000  0.33077000  0.69340000  1.0
  C  C48  1  0.86164000  0.77818000  0.23095000  1.0
  C  C49  1  0.13835000  0.22182000  0.76901000  1.0
  C  C50  1  0.67551000  0.81747000  0.17280000  1.0
  C  C51  1  0.32444000  0.18253000  0.82720000  1.0
  C  C52  1  0.55078000  0.68046000  0.10799000  1.0
  C  C53  1  0.44918000  0.31953000  0.89204000  1.0
  C  C54  1  0.51163000  0.57297000  0.18182000  1.0
  C  C55  1  0.48835000  0.42704000  0.81823000  1.0
  C  C56  1  0.64326000  0.43070000  0.31577000  1.0
  C  C57  1  0.35679000  0.56930000  0.68425000  1.0
  C  C58  1  0.77071000  0.74315000  0.41944000  1.0
  C  C59  1  0.22931000  0.25698000  0.58052000  1.0
  C  C60  1  0.56376000  0.91798000  0.25129000  1.0
  C  C61  1  0.43622000  0.08208000  0.74867000  1.0
  C  C62  1  0.36598000  0.71279000  0.04579000  1.0
  C  C63  1  0.63399000  0.28716000  0.95423000  1.0
  O  O64  1  0.48669000  0.34681000  0.28905000  1.0
  O  O65  1  0.51344000  0.65309000  0.71088000  1.0
  O  O66  1  0.75702000  0.41561000  0.39996000  1.0
  O  O67  1  0.24295000  0.58446000  0.60010000  1.0
  O  O68  1  0.60519000  0.70676000  0.44564000  1.0
  O  O69  1  0.39482000  0.29347000  0.55435000  1.0
  O  O70  1  0.89376000  0.83897000  0.48278000  1.0
  O  O71  1  0.10632000  0.16120000  0.51710000  1.0
  O  O72  1  0.64983000  0.04262000  0.29954000  1.0
  O  O73  1  0.35020000  0.95742000  0.70042000  1.0
  O  O74  1  0.39051000  0.87770000  0.26171000  1.0
  O  O75  1  0.60937000  0.12248000  0.73819000  1.0
  O  O76  1  0.37524000  0.81706000  0.99408000  1.0
  O  O77  1  0.62472000  0.18288000  0.00593000  1.0
  O  O78  1  0.21123000  0.63304000  0.04255000  1.0
  O  O79  1  0.78878000  0.36690000  0.95749000  1.0
  O  O80  1  0.74018000  0.16726000  0.54129000  1.0
  O  O81  1  0.25977000  0.83274000  0.45868000  1.0
  O  O82  1  0.24533000  0.11679000  0.32992000  1.0
  O  O83  1  0.75553000  0.88366000  0.67026000  1.0
  O  O84  1  0.12323000  0.42029000  0.36425000  1.0
  O  O85  1  0.87661000  0.57965000  0.63570000  1.0
  O  O86  1  0.30249000  0.10855000  0.08723000  1.0
  O  O87  1  0.69739000  0.89134000  0.91275000  1.0
  O  O88  1  0.10085000  0.38858000  0.09940000  1.0
  O  O89  1  0.89914000  0.61131000  0.90072000  1.0
  O  O90  1  0.88751000  0.16550000  0.17827000  1.0
  O  O91  1  0.11245000  0.83420000  0.82166000  1.0
