# generated using pymatgen
data_Zn5H38C46S2(N3O5)4
_symmetry_space_group_name_H-M   'P 1'
_cell_length_a   10.55850000
_cell_length_b   12.46045438
_cell_length_c   14.56860000
_cell_angle_alpha   79.91442546
_cell_angle_beta   68.95350000
_cell_angle_gamma   65.17768961
_symmetry_Int_Tables_number   1
_chemical_formula_structural   Zn5H38C46S2(N3O5)4
_chemical_formula_sum   'Zn5 H38 C46 S2 N12 O20'
_cell_volume   1622.90022777
_cell_formula_units_Z   1
loop_
 _symmetry_equiv_pos_site_id
 _symmetry_equiv_pos_as_xyz
  1  'x, y, z'
loop_
 _atom_site_type_symbol
 _atom_site_label
 _atom_site_symmetry_multiplicity
 _atom_site_fract_x
 _atom_site_fract_y
 _atom_site_fract_z
 _atom_site_occupancy
  Zn  Zn0  1  0.68663000  0.55895000  0.95589000  1.0
  Zn  Zn1  1  0.31338000  0.44105000  0.04411000  1.0
  Zn  Zn2  1  0.41870000  0.79702000  0.09244000  1.0
  Zn  Zn3  1  0.58130000  0.20298000  0.90756000  1.0
  Zn  Zn4  1  0.00000000  0.50000000  0.00000000  1.0
  H  H5  1  0.23235000  0.30240000  0.00653000  1.0
  H  H6  1  0.76765000  0.69760000  0.99347000  1.0
  H  H7  1  0.40912000  0.64229000  0.00475000  1.0
  H  H8  1  0.59088000  0.35771000  0.99525000  1.0
  H  H9  1  0.61297000  0.88462000  0.07263000  1.0
  H  H10  1  0.38702000  0.11539000  0.92738000  1.0
  H  H11  1  0.58820000  0.88766000  0.96429000  1.0
  H  H12  1  0.41180000  0.11234000  0.03571000  1.0
  H  H13  1  0.72908000  0.73651000  0.32568000  1.0
  H  H14  1  0.27092000  0.26349000  0.67432000  1.0
  H  H15  1  0.80198000  0.70318000  0.14657000  1.0
  H  H16  1  0.19801000  0.29683000  0.85343000  1.0
  H  H17  1  0.98842000  0.33939000  0.18680000  1.0
  H  H18  1  0.01157000  0.66061000  0.81321000  1.0
  H  H19  1  0.69450000  0.70328000  0.60436000  1.0
  H  H20  1  0.30550000  0.29673000  0.39563000  1.0
  H  H21  1  0.61142000  0.24453000  0.11309000  1.0
  H  H22  1  0.38859000  0.75547000  0.88691000  1.0
  H  H23  1  0.07528000  0.14629000  0.05655000  1.0
  H  H24  1  0.92472000  0.85371000  0.94345000  1.0
  H  H25  1  0.84520000  0.35469000  0.82074000  1.0
  H  H26  1  0.15480000  0.64531000  0.17926000  1.0
  H  H27  1  0.92253000  0.35712000  0.36996000  1.0
  H  H28  1  0.07745000  0.64289000  0.63004000  1.0
  H  H29  1  0.37019000  0.78175000  0.46189000  1.0
  H  H30  1  0.62980000  0.21824000  0.53812000  1.0
  H  H31  1  0.54882000  0.44509000  0.32605000  1.0
  H  H32  1  0.45119000  0.55490000  0.67395000  1.0
  H  H33  1  0.87807000  0.89386000  0.19139000  1.0
  H  H34  1  0.12194000  0.10613000  0.80861000  1.0
  H  H35  1  0.36441000  0.88039000  0.29636000  1.0
  H  H36  1  0.63559000  0.11960000  0.70364000  1.0
  H  H37  1  0.63547000  0.71972000  0.78499000  1.0
  H  H38  1  0.36454000  0.28028000  0.21501000  1.0
  H  H39  1  0.92031000  0.32531000  0.64124000  1.0
  H  H40  1  0.07969000  0.67469000  0.35875000  1.0
  H  H41  1  0.52928000  0.55744000  0.16669000  1.0
  H  H42  1  0.47073000  0.44255000  0.83330000  1.0
  C  C43  1  0.83335000  0.32638000  0.03172000  1.0
  C  C44  1  0.16665000  0.67362000  0.96827000  1.0
  C  C45  1  0.78697000  0.64732000  0.29749000  1.0
  C  C46  1  0.21303000  0.35268000  0.70251000  1.0
  C  C47  1  0.82671000  0.62851000  0.19788000  1.0
  C  C48  1  0.17329000  0.37149000  0.80212000  1.0
  C  C49  1  0.84174000  0.20912000  0.08152000  1.0
  C  C50  1  0.15827000  0.79087000  0.91848000  1.0
  C  C51  1  0.92993000  0.42506000  0.22159000  1.0
  C  C52  1  0.07006000  0.57494000  0.77841000  1.0
  C  C53  1  0.72942000  0.62453000  0.65005000  1.0
  C  C54  1  0.27058000  0.37547000  0.34995000  1.0
  C  C55  1  0.71725000  0.18055000  0.11835000  1.0
  C  C56  1  0.28274000  0.81945000  0.88166000  1.0
  C  C57  1  0.97795000  0.12488000  0.08682000  1.0
  C  C58  1  0.02205000  0.87512000  0.91318000  1.0
  C  C59  1  0.99003000  0.01234000  0.12807000  1.0
  C  C60  1  0.00998000  0.98766000  0.87193000  1.0
  C  C61  1  0.81495000  0.43006000  0.77095000  1.0
  C  C62  1  0.18505000  0.56995000  0.22904000  1.0
  C  C63  1  0.73026000  0.06752000  0.15754000  1.0
  C  C64  1  0.26974000  0.93249000  0.84247000  1.0
  C  C65  1  0.46019000  0.60620000  0.40554000  1.0
  C  C66  1  0.53981000  0.39378000  0.59446000  1.0
  C  C67  1  0.89563000  0.43490000  0.32188000  1.0
  C  C68  1  0.10437000  0.56510000  0.67812000  1.0
  C  C69  1  0.40600000  0.72990000  0.39773000  1.0
  C  C70  1  0.59400000  0.27009000  0.60227000  1.0
  C  C71  1  0.13594000  0.91921000  0.13027000  1.0
  C  C72  1  0.86407000  0.08078000  0.86974000  1.0
  C  C73  1  0.50739000  0.54121000  0.32173000  1.0
  C  C74  1  0.49262000  0.45877000  0.67827000  1.0
  C  C75  1  0.81070000  0.51170000  0.60964000  1.0
  C  C76  1  0.18930000  0.48830000  0.39036000  1.0
  C  C77  1  0.86580000  0.98324000  0.16284000  1.0
  C  C78  1  0.13420000  0.01676000  0.83716000  1.0
  C  C79  1  0.40221000  0.78455000  0.30631000  1.0
  C  C80  1  0.59780000  0.21544000  0.69369000  1.0
  C  C81  1  0.69531000  0.63374000  0.75027000  1.0
  C  C82  1  0.30469000  0.36626000  0.24973000  1.0
  C  C83  1  0.82454000  0.54880000  0.36025000  1.0
  C  C84  1  0.17546000  0.45120000  0.63975000  1.0
  C  C85  1  0.85613000  0.41357000  0.67087000  1.0
  C  C86  1  0.14387000  0.58644000  0.32913000  1.0
  C  C87  1  0.49738000  0.60268000  0.23399000  1.0
  C  C88  1  0.50262000  0.39731000  0.76601000  1.0
  S  S89  1  0.57133000  0.03042000  0.19918000  1.0
  S  S90  1  0.42867000  0.96958000  0.80083000  1.0
  N  N91  1  0.89688000  0.51986000  0.16060000  1.0
  N  N92  1  0.10312000  0.48014000  0.83940000  1.0
  N  N93  1  0.73543000  0.53791000  0.80986000  1.0
  N  N94  1  0.26456000  0.46210000  0.19013000  1.0
  N  N95  1  0.44568000  0.72209000  0.22624000  1.0
  N  N96  1  0.55432000  0.27791000  0.77376000  1.0
  N  N97  1  0.85371000  0.48867000  0.50873000  1.0
  N  N98  1  0.14628000  0.51134000  0.49126000  1.0
  N  N99  1  0.78259000  0.57191000  0.46082000  1.0
  N  N100  1  0.21741000  0.42809000  0.53918000  1.0
  N  N101  1  0.46046000  0.55468000  0.50029000  1.0
  N  N102  1  0.53954000  0.44531000  0.49971000  1.0
  O  O103  1  0.47380000  0.10914000  0.14260000  1.0
  O  O104  1  0.52620000  0.89086000  0.85740000  1.0
  O  O105  1  0.50807000  0.04750000  0.30494000  1.0
  O  O106  1  0.49192000  0.95251000  0.69507000  1.0
  O  O107  1  0.63027000  0.90478000  0.17257000  1.0
  O  O108  1  0.36972000  0.09522000  0.82743000  1.0
  O  O109  1  0.70578000  0.40032000  0.02545000  1.0
  O  O110  1  0.29421000  0.59969000  0.97455000  1.0
  O  O111  1  0.94843000  0.34718000  0.99773000  1.0
  O  O112  1  0.05157000  0.65282000  0.00227000  1.0
  O  O113  1  0.18034000  0.38316000  0.03036000  1.0
  O  O114  1  0.81966000  0.61684000  0.96965000  1.0
  O  O115  1  0.48368000  0.65732000  0.02037000  1.0
  O  O116  1  0.51632000  0.34268000  0.97963000  1.0
  O  O117  1  0.59767000  0.84308000  0.02616000  1.0
  O  O118  1  0.40233000  0.15692000  0.97384000  1.0
  O  O119  1  0.24990000  0.94786000  0.09295000  1.0
  O  O120  1  0.75010000  0.05214000  0.90705000  1.0
  O  O121  1  0.14538000  0.81760000  0.16528000  1.0
  O  O122  1  0.85461000  0.18241000  0.83472000  1.0
