# generated using pymatgen
data_Cd2CuH20C26N4(ClO7)2
_symmetry_space_group_name_H-M   'P 1'
_cell_length_a   5.45735000
_cell_length_b   10.08650000
_cell_length_c   13.93140000
_cell_angle_alpha   80.62540000
_cell_angle_beta   86.35070000
_cell_angle_gamma   84.99960000
_symmetry_Int_Tables_number   1
_chemical_formula_structural   Cd2CuH20C26N4(ClO7)2
_chemical_formula_sum   'Cd2 Cu1 H20 C26 N4 Cl2 O14'
_cell_volume   752.78566595
_cell_formula_units_Z   1
loop_
 _symmetry_equiv_pos_site_id
 _symmetry_equiv_pos_as_xyz
  1  'x, y, z'
loop_
 _atom_site_type_symbol
 _atom_site_label
 _atom_site_symmetry_multiplicity
 _atom_site_fract_x
 _atom_site_fract_y
 _atom_site_fract_z
 _atom_site_occupancy
  Cd  Cd0  1  0.73229000  0.02656000  0.09565000  1.0
  Cd  Cd1  1  0.26769000  0.97344000  0.90435000  1.0
  Cu  Cu2  1  0.99998000  0.00001000  0.49999000  1.0
  H  H3  1  0.20034000  0.23382000  0.33722000  1.0
  H  H4  1  0.79969000  0.76616000  0.66277000  1.0
  H  H5  1  0.22088000  0.87556000  0.12127000  1.0
  H  H6  1  0.77913000  0.12445000  0.87873000  1.0
  H  H7  1  0.02752000  0.79901000  0.06456000  1.0
  H  H8  1  0.97245000  0.20100000  0.93545000  1.0
  H  H9  1  0.77827000  0.47720000  0.25995000  1.0
  H  H10  1  0.22177000  0.52279000  0.74005000  1.0
  H  H11  1  0.42920000  0.61394000  0.17318000  1.0
  H  H12  1  0.57080000  0.38605000  0.82684000  1.0
  H  H13  1  0.19167000  0.50228000  0.06138000  1.0
  H  H14  1  0.80837000  0.49774000  0.93861000  1.0
  H  H15  1  0.47643000  0.40781000  0.53508000  1.0
  H  H16  1  0.52355000  0.59218000  0.46492000  1.0
  H  H17  1  0.74200000  0.49692000  0.64931000  1.0
  H  H18  1  0.25799000  0.50306000  0.35070000  1.0
  H  H19  1  0.11164000  0.34515000  0.71443000  1.0
  H  H20  1  0.88831000  0.65483000  0.28558000  1.0
  H  H21  1  0.21604000  0.13008000  0.65249000  1.0
  H  H22  1  0.78396000  0.86991000  0.34750000  1.0
  C  C23  1  0.95182000  0.21954000  0.23924000  1.0
  C  C24  1  0.04816000  0.78046000  0.76074000  1.0
  C  C25  1  0.74006000  0.30499000  0.19154000  1.0
  C  C26  1  0.25997000  0.69502000  0.80845000  1.0
  C  C27  1  0.67431000  0.43592000  0.20941000  1.0
  C  C28  1  0.32572000  0.56406000  0.79059000  1.0
  C  C29  1  0.47776000  0.51015000  0.16178000  1.0
  C  C30  1  0.52226000  0.48985000  0.83823000  1.0
  C  C31  1  0.34877000  0.44963000  0.09973000  1.0
  C  C32  1  0.65124000  0.55037000  0.90027000  1.0
  C  C33  1  0.42567000  0.31764000  0.08591000  1.0
  C  C34  1  0.57433000  0.68237000  0.91409000  1.0
  C  C35  1  0.29133000  0.24609000  0.02021000  1.0
  C  C36  1  0.70867000  0.75391000  0.97980000  1.0
  C  C37  1  0.59350000  0.17613000  0.45276000  1.0
  C  C38  1  0.40649000  0.82389000  0.54724000  1.0
  C  C39  1  0.72066000  0.23275000  0.52819000  1.0
  C  C40  1  0.27933000  0.76724000  0.47180000  1.0
  C  C41  1  0.64624000  0.35334000  0.56086000  1.0
  C  C42  1  0.35371000  0.64665000  0.43914000  1.0
  C  C43  1  0.79071000  0.39961000  0.62588000  1.0
  C  C44  1  0.20927000  0.60039000  0.37413000  1.0
  C  C45  1  0.99659000  0.31875000  0.66044000  1.0
  C  C46  1  0.00338000  0.68124000  0.33955000  1.0
  C  C47  1  0.05762000  0.19674000  0.62684000  1.0
  C  C48  1  0.94237000  0.80325000  0.37315000  1.0
  N  N49  1  0.61890000  0.24796000  0.13024000  1.0
  N  N50  1  0.38114000  0.75204000  0.86977000  1.0
  N  N51  1  0.92399000  0.15764000  0.56084000  1.0
  N  N52  1  0.07600000  0.84237000  0.43915000  1.0
  Cl  Cl53  1  0.50021000  0.86054000  0.21633000  1.0
  Cl  Cl54  1  0.49979000  0.13946000  0.78367000  1.0
  O  O55  1  0.05368000  0.28267000  0.30135000  1.0
  O  O56  1  0.94637000  0.71731000  0.69866000  1.0
  O  O57  1  0.01788000  0.10638000  0.22056000  1.0
  O  O58  1  0.98211000  0.89361000  0.77944000  1.0
  O  O59  1  0.37138000  0.12532000  0.01430000  1.0
  O  O60  1  0.62864000  0.87468000  0.98569000  1.0
  O  O61  1  0.10901000  0.31063000  0.97755000  1.0
  O  O62  1  0.89097000  0.68939000  0.02246000  1.0
  O  O63  1  0.09293000  0.88839000  0.07161000  1.0
  O  O64  1  0.90706000  0.11162000  0.92838000  1.0
  O  O65  1  0.70022000  0.06729000  0.42730000  1.0
  O  O66  1  0.29977000  0.93273000  0.57268000  1.0
  O  O67  1  0.40011000  0.23694000  0.41868000  1.0
  O  O68  1  0.59990000  0.76309000  0.58131000  1.0
