# generated using pymatgen
data_FeH5C8O5
_symmetry_space_group_name_H-M   'P 1'
_cell_length_a   6.06998000
_cell_length_b   6.94452000
_cell_length_c   10.21760000
_cell_angle_alpha   100.12800000
_cell_angle_beta   107.17000000
_cell_angle_gamma   90.12860000
_symmetry_Int_Tables_number   1
_chemical_formula_structural   FeH5C8O5
_chemical_formula_sum   'Fe2 H10 C16 O10'
_cell_volume   404.42388252
_cell_formula_units_Z   2
loop_
 _symmetry_equiv_pos_site_id
 _symmetry_equiv_pos_as_xyz
  1  'x, y, z'
loop_
 _atom_site_type_symbol
 _atom_site_label
 _atom_site_symmetry_multiplicity
 _atom_site_fract_x
 _atom_site_fract_y
 _atom_site_fract_z
 _atom_site_occupancy
  Fe  Fe0  1  0.99980000  0.00014000  0.00017000  1.0
  Fe  Fe1  1  0.00020000  0.50011000  0.00020000  1.0
  H  H2  1  0.63799000  0.35096000  0.55879000  1.0
  H  H3  1  0.50731000  0.81910000  0.69097000  1.0
  H  H4  1  0.67764000  0.74814000  0.99676000  1.0
  H  H5  1  0.08055000  0.14952000  0.44188000  1.0
  H  H6  1  0.81490000  0.67945000  0.30923000  1.0
  H  H7  1  0.36227000  0.64892000  0.44158000  1.0
  H  H8  1  0.49305000  0.18082000  0.30934000  1.0
  H  H9  1  0.31966000  0.25000000  0.99790000  1.0
  H  H10  1  0.91978000  0.85059000  0.55849000  1.0
  H  H11  1  0.18536000  0.32063000  0.69106000  1.0
  C  C12  1  0.58075000  0.09506000  0.63922000  1.0
  C  C13  1  0.57807000  0.19726000  0.53195000  1.0
  C  C14  1  0.68270000  0.19147000  0.78791000  1.0
  C  C15  1  0.50161000  0.89737000  0.60668000  1.0
  C  C16  1  0.94175000  0.40465000  0.36118000  1.0
  C  C17  1  0.04699000  0.30307000  0.46851000  1.0
  C  C18  1  0.89511000  0.30813000  0.21249000  1.0
  C  C19  1  0.89424000  0.60187000  0.39360000  1.0
  C  C20  1  0.41941000  0.90492000  0.36111000  1.0
  C  C21  1  0.42230000  0.80260000  0.46837000  1.0
  C  C22  1  0.31671000  0.80869000  0.21247000  1.0
  C  C23  1  0.49874000  0.10252000  0.39362000  1.0
  C  C24  1  0.05868000  0.59554000  0.63917000  1.0
  C  C25  1  0.95330000  0.69706000  0.53181000  1.0
  C  C26  1  0.10563000  0.69222000  0.78786000  1.0
  C  C27  1  0.10602000  0.39828000  0.60673000  1.0
  O  O28  1  0.70345000  0.08432000  0.88090000  1.0
  O  O29  1  0.74917000  0.37184000  0.81508000  1.0
  O  O30  1  0.82276000  0.41496000  0.11944000  1.0
  O  O31  1  0.93446000  0.12796000  0.18539000  1.0
  O  O32  1  0.29551000  0.91587000  0.11951000  1.0
  O  O33  1  0.25002000  0.62837000  0.18532000  1.0
  O  O34  1  0.17789000  0.58525000  0.88087000  1.0
  O  O35  1  0.06659000  0.87246000  0.81499000  1.0
  O  O36  1  0.83945000  0.74955000  0.99959000  1.0
  O  O37  1  0.16019000  0.25033000  0.99985000  1.0
