# generated using pymatgen
data_CuH18(C5O2)2
_symmetry_space_group_name_H-M   'P 1'
_cell_length_a   5.22588000
_cell_length_b   10.47990000
_cell_length_c   10.87900000
_cell_angle_alpha   82.60400000
_cell_angle_beta   86.65420000
_cell_angle_gamma   86.41020000
_symmetry_Int_Tables_number   1
_chemical_formula_structural   CuH18(C5O2)2
_chemical_formula_sum   'Cu2 H36 C20 O8'
_cell_volume   588.92849500
_cell_formula_units_Z   2
loop_
 _symmetry_equiv_pos_site_id
 _symmetry_equiv_pos_as_xyz
  1  'x, y, z'
loop_
 _atom_site_type_symbol
 _atom_site_label
 _atom_site_symmetry_multiplicity
 _atom_site_fract_x
 _atom_site_fract_y
 _atom_site_fract_z
 _atom_site_occupancy
  Cu  Cu0  1  0.20484000  0.04859000  0.95315000  1.0
  Cu  Cu1  1  0.79520000  0.95141000  0.04683000  1.0
  H  H2  1  0.77810000  0.23789000  0.31283000  1.0
  H  H3  1  0.22189000  0.76210000  0.68717000  1.0
  H  H4  1  0.11906000  0.23453000  0.30740000  1.0
  H  H5  1  0.88092000  0.76547000  0.69259000  1.0
  H  H6  1  0.12127000  0.41092000  0.13387000  1.0
  H  H7  1  0.87870000  0.58907000  0.86612000  1.0
  H  H8  1  0.94274000  0.58681000  0.25503000  1.0
  H  H9  1  0.05726000  0.41318000  0.74497000  1.0
  H  H10  1  0.11080000  0.46348000  0.35257000  1.0
  H  H11  1  0.88920000  0.53652000  0.64742000  1.0
  H  H12  1  0.76997000  0.47337000  0.35740000  1.0
  H  H13  1  0.23004000  0.52662000  0.64260000  1.0
  H  H14  1  0.71722000  0.37211000  0.03652000  1.0
  H  H15  1  0.28274000  0.62788000  0.96348000  1.0
  H  H16  1  0.71216000  0.53334000  0.07150000  1.0
  H  H17  1  0.28782000  0.46665000  0.92849000  1.0
  H  H18  1  0.53351000  0.41683000  0.16805000  1.0
  H  H19  1  0.46645000  0.58317000  0.83195000  1.0
  H  H20  1  0.42611000  0.28127000  0.78424000  1.0
  H  H21  1  0.57394000  0.71873000  0.21578000  1.0
  H  H22  1  0.72033000  0.32426000  0.70222000  1.0
  H  H23  1  0.27969000  0.67575000  0.29777000  1.0
  H  H24  1  0.39692000  0.09755000  0.67379000  1.0
  H  H25  1  0.60309000  0.90246000  0.32624000  1.0
  H  H26  1  0.72619000  0.04338000  0.50681000  1.0
  H  H27  1  0.27381000  0.95663000  0.49319000  1.0
  H  H28  1  0.85368000  0.01827000  0.65626000  1.0
  H  H29  1  0.14633000  0.98174000  0.34374000  1.0
  H  H30  1  0.92966000  0.15637000  0.55235000  1.0
  H  H31  1  0.07033000  0.84364000  0.44766000  1.0
  H  H32  1  0.37677000  0.20918000  0.45478000  1.0
  H  H33  1  0.62322000  0.79081000  0.54524000  1.0
  H  H34  1  0.55628000  0.33442000  0.49555000  1.0
  H  H35  1  0.44369000  0.66559000  0.50445000  1.0
  H  H36  1  0.24403000  0.30992000  0.56497000  1.0
  H  H37  1  0.75595000  0.69008000  0.43505000  1.0
  C  C38  1  0.96649000  0.16214000  0.15608000  1.0
  C  C39  1  0.03350000  0.83786000  0.84392000  1.0
  C  C40  1  0.94938000  0.25622000  0.25137000  1.0
  C  C41  1  0.05060000  0.74378000  0.74862000  1.0
  C  C42  1  0.94466000  0.39776000  0.19328000  1.0
  C  C43  1  0.05531000  0.60224000  0.80672000  1.0
  C  C44  1  0.94307000  0.48519000  0.29532000  1.0
  C  C45  1  0.05692000  0.51480000  0.70467000  1.0
  C  C46  1  0.71450000  0.43190000  0.11256000  1.0
  C  C47  1  0.28547000  0.56810000  0.88744000  1.0
  C  C48  1  0.75476000  0.16074000  0.83941000  1.0
  C  C49  1  0.24531000  0.83927000  0.16058000  1.0
  C  C50  1  0.60508000  0.24331000  0.74097000  1.0
  C  C51  1  0.39496000  0.75671000  0.25903000  1.0
  C  C52  1  0.54010000  0.16669000  0.63552000  1.0
  C  C53  1  0.45992000  0.83331000  0.36448000  1.0
  C  C54  1  0.77525000  0.09191000  0.58529000  1.0
  C  C55  1  0.22476000  0.90810000  0.41471000  1.0
  C  C56  1  0.42142000  0.26047000  0.53218000  1.0
  C  C57  1  0.57856000  0.73954000  0.46783000  1.0
  O  O58  1  0.15488000  0.17191000  0.07619000  1.0
  O  O59  1  0.84509000  0.82810000  0.92380000  1.0
  O  O60  1  0.20725000  0.91941000  0.83570000  1.0
  O  O61  1  0.79275000  0.08057000  0.16431000  1.0
  O  O62  1  0.99658000  0.17052000  0.83678000  1.0
  O  O63  1  0.00351000  0.82948000  0.16319000  1.0
  O  O64  1  0.37100000  0.91737000  0.08284000  1.0
  O  O65  1  0.62906000  0.08264000  0.91715000  1.0
