# generated using pymatgen
data_Zn2H25C22NO9
_symmetry_space_group_name_H-M   'P 1'
_cell_length_a   10.36830000
_cell_length_b   11.63320000
_cell_length_c   20.45140000
_cell_angle_alpha   89.99990000
_cell_angle_beta   90.00000000
_cell_angle_gamma   89.99990000
_symmetry_Int_Tables_number   1
_chemical_formula_structural   Zn2H25C22NO9
_chemical_formula_sum   'Zn8 H100 C88 N4 O36'
_cell_volume   2466.77644271
_cell_formula_units_Z   4
loop_
 _symmetry_equiv_pos_site_id
 _symmetry_equiv_pos_as_xyz
  1  'x, y, z'
loop_
 _atom_site_type_symbol
 _atom_site_label
 _atom_site_symmetry_multiplicity
 _atom_site_fract_x
 _atom_site_fract_y
 _atom_site_fract_z
 _atom_site_occupancy
  Zn  Zn0  1  0.15449000  0.32693000  0.01244000  1.0
  Zn  Zn1  1  0.34551000  0.67306000  0.51244000  1.0
  Zn  Zn2  1  0.84551000  0.82694000  0.48756000  1.0
  Zn  Zn3  1  0.65449000  0.17306000  0.98756000  1.0
  Zn  Zn4  1  0.46604000  0.41903000  0.00769000  1.0
  Zn  Zn5  1  0.03396000  0.58097000  0.50768000  1.0
  Zn  Zn6  1  0.53396000  0.91903000  0.49232000  1.0
  Zn  Zn7  1  0.96604000  0.08097000  0.99232000  1.0
  H  H8  1  0.05519000  0.43390000  0.82836000  1.0
  H  H9  1  0.44481000  0.56610000  0.32836000  1.0
  H  H10  1  0.94481000  0.93390000  0.67164000  1.0
  H  H11  1  0.55519000  0.06610000  0.17164000  1.0
  H  H12  1  0.45386000  0.53035000  0.81028000  1.0
  H  H13  1  0.04614000  0.46965000  0.31028000  1.0
  H  H14  1  0.54614000  0.03035000  0.68972000  1.0
  H  H15  1  0.95386000  0.96965000  0.18972000  1.0
  H  H16  1  0.02038000  0.48139000  0.71009000  1.0
  H  H17  1  0.47962000  0.51861000  0.21009000  1.0
  H  H18  1  0.97962000  0.98139000  0.78991000  1.0
  H  H19  1  0.52038000  0.01861000  0.28991000  1.0
  H  H20  1  0.41819000  0.57778000  0.69199000  1.0
  H  H21  1  0.08180000  0.42222000  0.19199000  1.0
  H  H22  1  0.58181000  0.07778000  0.80801000  1.0
  H  H23  1  0.91819000  0.92222000  0.30801000  1.0
  H  H24  1  0.24587000  0.01665000  0.98874000  1.0
  H  H25  1  0.25413000  0.98335000  0.48874000  1.0
  H  H26  1  0.75413000  0.51665000  0.51126000  1.0
  H  H27  1  0.74587000  0.48335000  0.01126000  1.0
  H  H28  1  0.14587000  0.04672000  0.87897000  1.0
  H  H29  1  0.35413000  0.95328000  0.37897000  1.0
  H  H30  1  0.85413000  0.54672000  0.62103000  1.0
  H  H31  1  0.64587000  0.45328000  0.12103000  1.0
  H  H32  1  0.31826000  0.04817000  0.87391000  1.0
  H  H33  1  0.18174000  0.95183000  0.37391000  1.0
  H  H34  1  0.68174000  0.54817000  0.62609000  1.0
  H  H35  1  0.81826000  0.45183000  0.12609000  1.0
  H  H36  1  0.22911000  0.17952000  0.87037000  1.0
  H  H37  1  0.27089000  0.82048000  0.37037000  1.0
  H  H38  1  0.77089000  0.67951000  0.62963000  1.0
  H  H39  1  0.72911000  0.32049000  0.12963000  1.0
  H  H40  1  0.44523000  0.64115000  0.92072000  1.0
  H  H41  1  0.05476000  0.35885000  0.42072000  1.0
  H  H42  1  0.55476000  0.14115000  0.57928000  1.0
  H  H43  1  0.94524000  0.85885000  0.07928000  1.0
  H  H44  1  0.44356000  0.80783000  0.87741000  1.0
  H  H45  1  0.05644000  0.19217000  0.37741000  1.0
  H  H46  1  0.55644000  0.30783000  0.62259000  1.0
  H  H47  1  0.94356000  0.69217000  0.12259000  1.0
  H  H48  1  0.60218000  0.86720000  0.87366000  1.0
  H  H49  1  0.89782000  0.13280000  0.37366000  1.0
  H  H50  1  0.39782000  0.36721000  0.62634000  1.0
  H  H51  1  0.10218000  0.63279000  0.12634000  1.0
  H  H52  1  0.48704000  0.92834000  0.92807000  1.0
  H  H53  1  0.01296000  0.07167000  0.42807000  1.0
  H  H54  1  0.51296000  0.42833000  0.57193000  1.0
  H  H55  1  0.98704000  0.57167000  0.07193000  1.0
  H  H56  1  0.67682000  0.73953000  0.03905000  1.0
  H  H57  1  0.82318000  0.26047000  0.53905000  1.0
  H  H58  1  0.32318000  0.23953000  0.46095000  1.0
  H  H59  1  0.17682000  0.76047000  0.96095000  1.0
  H  H60  1  0.62557000  0.88609000  0.02825000  1.0
  H  H61  1  0.87443000  0.11391000  0.52825000  1.0
  H  H62  1  0.37443000  0.38609000  0.47175000  1.0
  H  H63  1  0.12557000  0.61391000  0.97175000  1.0
  H  H64  1  0.74824000  0.82819000  0.97691000  1.0
  H  H65  1  0.75176000  0.17181000  0.47691000  1.0
  H  H66  1  0.25176000  0.32819000  0.52309000  1.0
  H  H67  1  0.24824000  0.67181000  0.02309000  1.0
  H  H68  1  0.04418000  0.13642000  0.14649000  1.0
  H  H69  1  0.45582000  0.86358000  0.64649000  1.0
  H  H70  1  0.95582000  0.63642000  0.35351000  1.0
  H  H71  1  0.54418000  0.36358000  0.85351000  1.0
  H  H72  1  0.14729000  0.88308000  0.26109000  1.0
  H  H73  1  0.35271000  0.11691000  0.76109000  1.0
  H  H74  1  0.85272000  0.38309000  0.23891000  1.0
  H  H75  1  0.64728000  0.61692000  0.73891000  1.0
  H  H76  1  0.25686000  0.71179000  0.21550000  1.0
  H  H77  1  0.24314000  0.28821000  0.71550000  1.0
  H  H78  1  0.74314000  0.21179000  0.28450000  1.0
  H  H79  1  0.75686000  0.78821000  0.78450000  1.0
  H  H80  1  0.39547000  0.72971000  0.11644000  1.0
  H  H81  1  0.10453000  0.27029000  0.61644000  1.0
  H  H82  1  0.60454000  0.22971000  0.38356000  1.0
  H  H83  1  0.89547000  0.77029000  0.88356000  1.0
  H  H84  1  0.42008000  0.92207000  0.06260000  1.0
  H  H85  1  0.07992000  0.07793000  0.56260000  1.0
  H  H86  1  0.57992000  0.42207000  0.43740000  1.0
  H  H87  1  0.92008000  0.57793000  0.93740000  1.0
  H  H88  1  0.31082000  0.09334000  0.10943000  1.0
  H  H89  1  0.18918000  0.90666000  0.60943000  1.0
  H  H90  1  0.68918000  0.59334000  0.39057000  1.0
  H  H91  1  0.81083000  0.40666000  0.89057000  1.0
  H  H92  1  0.09134000  0.07742000  0.25566000  1.0
  H  H93  1  0.40865000  0.92258000  0.75566000  1.0
  H  H94  1  0.90865000  0.57742000  0.24435000  1.0
  H  H95  1  0.59135000  0.42258000  0.74435000  1.0
  H  H96  1  0.22368000  0.25146000  0.27916000  1.0
  H  H97  1  0.27632000  0.74854000  0.77916000  1.0
  H  H98  1  0.77632000  0.75145000  0.22084000  1.0
  H  H99  1  0.72368000  0.24854000  0.72084000  1.0
  H  H100  1  0.34213000  0.20476000  0.22213000  1.0
  H  H101  1  0.15787000  0.79524000  0.72213000  1.0
  H  H102  1  0.65787000  0.70476000  0.27787000  1.0
  H  H103  1  0.84213000  0.29524000  0.77787000  1.0
  H  H104  1  0.31203000  0.12225000  0.29401000  1.0
  H  H105  1  0.18797000  0.87775000  0.79401000  1.0
  H  H106  1  0.68797000  0.62224000  0.20599000  1.0
  H  H107  1  0.81203000  0.37775000  0.70599000  1.0
  C  C108  1  0.27997000  0.44250000  0.89550000  1.0
  C  C109  1  0.22004000  0.55749000  0.39549000  1.0
  C  C110  1  0.72003000  0.94251000  0.60450000  1.0
  C  C111  1  0.77996000  0.05750000  0.10450000  1.0
  C  C112  1  0.25766000  0.47536000  0.82573000  1.0
  C  C113  1  0.24234000  0.52464000  0.32573000  1.0
  C  C114  1  0.74234000  0.97536000  0.67427000  1.0
  C  C115  1  0.75766000  0.02464000  0.17427000  1.0
  C  C116  1  0.13452000  0.46403000  0.79799000  1.0
  C  C117  1  0.36548000  0.53597000  0.29799000  1.0
  C  C118  1  0.86548000  0.96403000  0.70201000  1.0
  C  C119  1  0.63452000  0.03597000  0.20201000  1.0
  C  C120  1  0.35988000  0.51732000  0.78773000  1.0
  C  C121  1  0.14012000  0.48268000  0.28772000  1.0
  C  C122  1  0.64012000  0.01732000  0.71227000  1.0
  C  C123  1  0.85987000  0.98268000  0.21227000  1.0
  C  C124  1  0.11527000  0.49056000  0.73233000  1.0
  C  C125  1  0.38473000  0.50944000  0.23233000  1.0
  C  C126  1  0.88473000  0.99056000  0.76767000  1.0
  C  C127  1  0.61527000  0.00944000  0.26767000  1.0
  C  C128  1  0.34082000  0.54328000  0.72217000  1.0
  C  C129  1  0.15918000  0.45672000  0.22217000  1.0
  C  C130  1  0.65918000  0.04329000  0.77783000  1.0
  C  C131  1  0.84082000  0.95672000  0.27783000  1.0
  C  C132  1  0.21885000  0.52814000  0.69383000  1.0
  C  C133  1  0.28115000  0.47186000  0.19383000  1.0
  C  C134  1  0.78115000  0.02814000  0.80617000  1.0
  C  C135  1  0.71886000  0.97186000  0.30617000  1.0
  C  C136  1  0.20259000  0.55247000  0.62242000  1.0
  C  C137  1  0.29741000  0.44754000  0.12242000  1.0
  C  C138  1  0.79741000  0.05247000  0.87758000  1.0
  C  C139  1  0.70259000  0.94753000  0.37757000  1.0
  C  C140  1  0.36425000  0.16585000  0.98659000  1.0
  C  C141  1  0.13575000  0.83415000  0.48659000  1.0
  C  C142  1  0.63575000  0.66585000  0.51341000  1.0
  C  C143  1  0.86425000  0.33414000  0.01341000  1.0
  C  C144  1  0.24017000  0.10374000  0.96758000  1.0
  C  C145  1  0.25983000  0.89626000  0.46758000  1.0
  C  C146  1  0.75984000  0.60374000  0.53242000  1.0
  C  C147  1  0.74016000  0.39626000  0.03242000  1.0
  C  C148  1  0.23343000  0.09376000  0.89283000  1.0
  C  C149  1  0.26657000  0.90624000  0.39283000  1.0
  C  C150  1  0.76657000  0.59376000  0.60716000  1.0
  C  C151  1  0.73343000  0.40624000  0.10717000  1.0
  C  C152  1  0.51480000  0.66155000  0.95981000  1.0
  C  C153  1  0.98520000  0.33845000  0.45981000  1.0
  C  C154  1  0.48520000  0.16155000  0.54019000  1.0
  C  C155  1  0.01480000  0.83845000  0.04019000  1.0
  C  C156  1  0.52094000  0.84751000  0.90620000  1.0
  C  C157  1  0.97906000  0.15249000  0.40620000  1.0
  C  C158  1  0.47905000  0.34751000  0.59380000  1.0
  C  C159  1  0.02095000  0.65249000  0.09380000  1.0
  C  C160  1  0.65877000  0.80785000  0.00338000  1.0
  C  C161  1  0.84123000  0.19215000  0.50337000  1.0
  C  C162  1  0.34123000  0.30785000  0.49663000  1.0
  C  C163  1  0.15877000  0.69215000  0.99663000  1.0
  C  C164  1  0.22325000  0.99992000  0.18863000  1.0
  C  C165  1  0.27676000  0.00008000  0.68863000  1.0
  C  C166  1  0.77676000  0.49992000  0.31137000  1.0
  C  C167  1  0.72325000  0.50008000  0.81137000  1.0
  C  C168  1  0.20735000  0.89170000  0.21750000  1.0
  C  C169  1  0.29265000  0.10829000  0.71750000  1.0
  C  C170  1  0.79265000  0.39171000  0.28250000  1.0
  C  C171  1  0.70735000  0.60829000  0.78250000  1.0
  C  C172  1  0.26882000  0.79492000  0.19173000  1.0
  C  C173  1  0.23118000  0.20508000  0.69173000  1.0
  C  C174  1  0.73118000  0.29492000  0.30827000  1.0
  C  C175  1  0.76882000  0.70508000  0.80827000  1.0
  C  C176  1  0.34609000  0.80511000  0.13607000  1.0
  C  C177  1  0.15391000  0.19489000  0.63607000  1.0
  C  C178  1  0.65391000  0.30511000  0.36393000  1.0
  C  C179  1  0.84609000  0.69489000  0.86393000  1.0
  C  C180  1  0.36021000  0.91251000  0.10611000  1.0
  C  C181  1  0.13979000  0.08749000  0.60611000  1.0
  C  C182  1  0.63979000  0.41251000  0.39389000  1.0
  C  C183  1  0.86022000  0.58749000  0.89389000  1.0
  C  C184  1  0.29951000  0.00920000  0.13229000  1.0
  C  C185  1  0.20049000  0.99079000  0.63229000  1.0
  C  C186  1  0.70049000  0.50920000  0.36771000  1.0
  C  C187  1  0.79951000  0.49080000  0.86771000  1.0
  C  C188  1  0.16449000  0.10614000  0.21974000  1.0
  C  C189  1  0.33552000  0.89386000  0.71974000  1.0
  C  C190  1  0.83552000  0.60614000  0.28026000  1.0
  C  C191  1  0.66449000  0.39386000  0.78026000  1.0
  C  C192  1  0.26680000  0.17550000  0.25606000  1.0
  C  C193  1  0.23320000  0.82450000  0.75606000  1.0
  C  C194  1  0.73320000  0.67550000  0.24394000  1.0
  C  C195  1  0.76680000  0.32450000  0.74394000  1.0
  N  N196  1  0.56155000  0.76817000  0.95726000  1.0
  N  N197  1  0.93845000  0.23183000  0.45726000  1.0
  N  N198  1  0.43845000  0.26817000  0.54274000  1.0
  N  N199  1  0.06155000  0.73183000  0.04274000  1.0
  O  O200  1  0.18120000  0.42210000  0.93021000  1.0
  O  O201  1  0.31881000  0.57790000  0.43021000  1.0
  O  O202  1  0.81880000  0.92210000  0.56979000  1.0
  O  O203  1  0.68120000  0.07790000  0.06979000  1.0
  O  O204  1  0.39779000  0.43838000  0.91492000  1.0
  O  O205  1  0.10221000  0.56162000  0.41492000  1.0
  O  O206  1  0.60221000  0.93838000  0.58508000  1.0
  O  O207  1  0.89779000  0.06162000  0.08508000  1.0
  O  O208  1  0.08993000  0.54034000  0.59827000  1.0
  O  O209  1  0.41007000  0.45967000  0.09827000  1.0
  O  O210  1  0.91006000  0.04034000  0.90173000  1.0
  O  O211  1  0.58993000  0.95966000  0.40173000  1.0
  O  O212  1  0.30402000  0.58009000  0.59151000  1.0
  O  O213  1  0.19598000  0.41992000  0.09151000  1.0
  O  O214  1  0.69598000  0.08009000  0.90849000  1.0
  O  O215  1  0.80402000  0.91992000  0.40849000  1.0
  O  O216  1  0.35265000  0.26564000  0.01217000  1.0
  O  O217  1  0.14735000  0.73437000  0.51217000  1.0
  O  O218  1  0.64735000  0.76564000  0.48783000  1.0
  O  O219  1  0.85265000  0.23436000  0.98783000  1.0
  O  O220  1  0.46962000  0.11538000  0.97495000  1.0
  O  O221  1  0.03037000  0.88463000  0.47495000  1.0
  O  O222  1  0.53037000  0.61538000  0.52505000  1.0
  O  O223  1  0.96962000  0.38462000  0.02505000  1.0
  O  O224  1  0.13123000  0.16162000  0.99325000  1.0
  O  O225  1  0.36877000  0.83838000  0.49325000  1.0
  O  O226  1  0.86877000  0.66162000  0.50675000  1.0
  O  O227  1  0.63122000  0.33838000  0.00675000  1.0
  O  O228  1  0.54494000  0.58863000  0.00244000  1.0
  O  O229  1  0.95505000  0.41137000  0.50243000  1.0
  O  O230  1  0.45505000  0.08862000  0.49756000  1.0
  O  O231  1  0.04495000  0.91137000  0.99756000  1.0
  O  O232  1  0.10539000  0.18113000  0.17275000  1.0
  O  O233  1  0.39461000  0.81886000  0.67275000  1.0
  O  O234  1  0.89461000  0.68114000  0.32725000  1.0
  O  O235  1  0.60539000  0.31886000  0.82725000  1.0
