# generated using pymatgen
data_AlHC7N3O11
_symmetry_space_group_name_H-M   'P 1'
_cell_length_a   7.02128000
_cell_length_b   16.19010000
_cell_length_c   19.28790000
_cell_angle_alpha   76.03390000
_cell_angle_beta   79.51550000
_cell_angle_gamma   77.48740000
_symmetry_Int_Tables_number   1
_chemical_formula_structural   AlHC7N3O11
_chemical_formula_sum   'Al4 H4 C28 N12 O44'
_cell_volume   2057.65228783
_cell_formula_units_Z   4
loop_
 _symmetry_equiv_pos_site_id
 _symmetry_equiv_pos_as_xyz
  1  'x, y, z'
loop_
 _atom_site_type_symbol
 _atom_site_label
 _atom_site_symmetry_multiplicity
 _atom_site_fract_x
 _atom_site_fract_y
 _atom_site_fract_z
 _atom_site_occupancy
  Al  Al0  1  0.38747000  0.24997000  0.75177000  1.0
  Al  Al1  1  0.61254000  0.75003000  0.24821000  1.0
  Al  Al2  1  0.88922000  0.25003000  0.74820000  1.0
  Al  Al3  1  0.11079000  0.74996000  0.25180000  1.0
  H  H4  1  0.09428000  0.36464000  0.72405000  1.0
  H  H5  1  0.90575000  0.63536000  0.27592000  1.0
  H  H6  1  0.68301000  0.13536000  0.77603000  1.0
  H  H7  1  0.31699000  0.86464000  0.22398000  1.0
  C  C8  1  0.22879000  0.15487000  0.66950000  1.0
  C  C9  1  0.77122000  0.84512000  0.33050000  1.0
  C  C10  1  0.55344000  0.34528000  0.83038000  1.0
  C  C11  1  0.44657000  0.65471000  0.16961000  1.0
  C  C12  1  0.13060000  0.14877000  0.86146000  1.0
  C  C13  1  0.86937000  0.85125000  0.13854000  1.0
  C  C14  1  0.64084000  0.35116000  0.63846000  1.0
  C  C15  1  0.35919000  0.64883000  0.36153000  1.0
  C  C16  1  0.64809000  0.41572000  0.56725000  1.0
  C  C17  1  0.35193000  0.58426000  0.43274000  1.0
  C  C18  1  0.13125000  0.08420000  0.93268000  1.0
  C  C19  1  0.86871000  0.91584000  0.06734000  1.0
  C  C20  1  0.49863000  0.46619000  0.53250000  1.0
  C  C21  1  0.50138000  0.53379000  0.46749000  1.0
  C  C22  1  0.99744000  0.03378000  0.96748000  1.0
  C  C23  1  0.00252000  0.96625000  0.03253000  1.0
  C  C24  1  0.50921000  0.39278000  0.88734000  1.0
  C  C25  1  0.49079000  0.60721000  0.11266000  1.0
  C  C26  1  0.28910000  0.10752000  0.61244000  1.0
  C  C27  1  0.71094000  0.89246000  0.38756000  1.0
  C  C28  1  0.44069000  0.47639000  0.99173000  1.0
  C  C29  1  0.55931000  0.52359000  0.00827000  1.0
  C  C30  1  0.40891000  0.02368000  0.50822000  1.0
  C  C31  1  0.59110000  0.97634000  0.49177000  1.0
  C  C32  1  0.51891000  0.56882000  0.06359000  1.0
  C  C33  1  0.48107000  0.43117000  0.93641000  1.0
  C  C34  1  0.65109000  0.93096000  0.43654000  1.0
  C  C35  1  0.34892000  0.06904000  0.56345000  1.0
  N  N36  1  0.69525000  0.55523000  0.42873000  1.0
  N  N37  1  0.30478000  0.44475000  0.57126000  1.0
  N  N38  1  0.17915000  0.94476000  0.07124000  1.0
  N  N39  1  0.82082000  0.05526000  0.92877000  1.0
  N  N40  1  0.14970000  0.57416000  0.45953000  1.0
  N  N41  1  0.85033000  0.42583000  0.54046000  1.0
  N  N42  1  0.68320000  0.92592000  0.04055000  1.0
  N  N43  1  0.31672000  0.07415000  0.95949000  1.0
  N  N44  1  0.75449000  0.53029000  0.96142000  1.0
  N  N45  1  0.24551000  0.46970000  0.03857000  1.0
  N  N46  1  0.74619000  0.96972000  0.53856000  1.0
  N  N47  1  0.25384000  0.03029000  0.46142000  1.0
  O  O48  1  0.97458000  0.17049000  0.83280000  1.0
  O  O49  1  0.02542000  0.82952000  0.16720000  1.0
  O  O50  1  0.47790000  0.32942000  0.66714000  1.0
  O  O51  1  0.52212000  0.67057000  0.33285000  1.0
  O  O52  1  0.36915000  0.17196000  0.69409000  1.0
  O  O53  1  0.63087000  0.82803000  0.30590000  1.0
  O  O54  1  0.73547000  0.32815000  0.80583000  1.0
  O  O55  1  0.26453000  0.67184000  0.19417000  1.0
  O  O56  1  0.29466000  0.17297000  0.83762000  1.0
  O  O57  1  0.70533000  0.82705000  0.16238000  1.0
  O  O58  1  0.80518000  0.32702000  0.66233000  1.0
  O  O59  1  0.19484000  0.67297000  0.33766000  1.0
  O  O60  1  0.40724000  0.32655000  0.81074000  1.0
  O  O61  1  0.59277000  0.67344000  0.18925000  1.0
  O  O62  1  0.04427000  0.17348000  0.68919000  1.0
  O  O63  1  0.95574000  0.82651000  0.31081000  1.0
  O  O64  1  0.11705000  0.30209000  0.74059000  1.0
  O  O65  1  0.88296000  0.69792000  0.25939000  1.0
  O  O66  1  0.65978000  0.19790000  0.75940000  1.0
  O  O67  1  0.34023000  0.80209000  0.24059000  1.0
  O  O68  1  0.74206000  0.61726000  0.44310000  1.0
  O  O69  1  0.77931000  0.51307000  0.38297000  1.0
  O  O70  1  0.25795000  0.38273000  0.55689000  1.0
  O  O71  1  0.22075000  0.48691000  0.61703000  1.0
  O  O72  1  0.30231000  0.88274000  0.05683000  1.0
  O  O73  1  0.17542000  0.98691000  0.11699000  1.0
  O  O74  1  0.69768000  0.11728000  0.94317000  1.0
  O  O75  1  0.82452000  0.01310000  0.88302000  1.0
  O  O76  1  0.05304000  0.62225000  0.49888000  1.0
  O  O77  1  0.09772000  0.51929000  0.43603000  1.0
  O  O78  1  0.90231000  0.48069000  0.56397000  1.0
  O  O79  1  0.94699000  0.37774000  0.50111000  1.0
  O  O80  1  0.67402000  0.87781000  0.00121000  1.0
  O  O81  1  0.55283000  0.98076000  0.06406000  1.0
  O  O82  1  0.44709000  0.01930000  0.93599000  1.0
  O  O83  1  0.32588000  0.12226000  0.99883000  1.0
  O  O84  1  0.78627000  0.60461000  0.93828000  1.0
  O  O85  1  0.86355000  0.46272000  0.95067000  1.0
  O  O86  1  0.21374000  0.39537000  0.06173000  1.0
  O  O87  1  0.13645000  0.53727000  0.04932000  1.0
  O  O88  1  0.82812000  0.89538000  0.56217000  1.0
  O  O89  1  0.77805000  0.03736000  0.54879000  1.0
  O  O90  1  0.17192000  0.10463000  0.43781000  1.0
  O  O91  1  0.22199000  0.96265000  0.45120000  1.0
