# generated using pymatgen
data_MgNiH18C24N4O9
_symmetry_space_group_name_H-M   'P 1'
_cell_length_a   8.72835000
_cell_length_b   13.73330000
_cell_length_c   20.59120000
_cell_angle_alpha   86.13090000
_cell_angle_beta   89.99970000
_cell_angle_gamma   89.99930000
_symmetry_Int_Tables_number   1
_chemical_formula_structural   MgNiH18C24N4O9
_chemical_formula_sum   'Mg4 Ni4 H72 C96 N16 O36'
_cell_volume   2462.62196950
_cell_formula_units_Z   4
loop_
 _symmetry_equiv_pos_site_id
 _symmetry_equiv_pos_as_xyz
  1  'x, y, z'
loop_
 _atom_site_type_symbol
 _atom_site_label
 _atom_site_symmetry_multiplicity
 _atom_site_fract_x
 _atom_site_fract_y
 _atom_site_fract_z
 _atom_site_occupancy
  Mg  Mg0  1  0.51806000  0.91534000  0.72658000  1.0
  Mg  Mg1  1  0.01806000  0.58466000  0.77342000  1.0
  Mg  Mg2  1  0.48193000  0.08465000  0.27342000  1.0
  Mg  Mg3  1  0.98194000  0.41534000  0.22658000  1.0
  Ni  Ni4  1  0.45425000  0.18394000  0.89185000  1.0
  Ni  Ni5  1  0.95424000  0.31606000  0.60815000  1.0
  Ni  Ni6  1  0.54576000  0.81605000  0.10815000  1.0
  Ni  Ni7  1  0.04577000  0.68393000  0.39185000  1.0
  H  H8  1  0.68510000  0.88604000  0.90634000  1.0
  H  H9  1  0.18509000  0.61396000  0.59365000  1.0
  H  H10  1  0.31493000  0.11396000  0.09365000  1.0
  H  H11  1  0.81495000  0.38603000  0.40636000  1.0
  H  H12  1  0.86343000  0.82241000  0.99108000  1.0
  H  H13  1  0.36342000  0.67760000  0.50892000  1.0
  H  H14  1  0.13659000  0.17760000  0.00892000  1.0
  H  H15  1  0.63660000  0.32241000  0.49108000  1.0
  H  H16  1  0.94650000  0.92844000  0.07904000  1.0
  H  H17  1  0.44650000  0.57155000  0.42096000  1.0
  H  H18  1  0.05350000  0.07156000  0.92096000  1.0
  H  H19  1  0.55350000  0.42845000  0.57904000  1.0
  H  H20  1  0.83709000  0.09226000  0.08359000  1.0
  H  H21  1  0.33709000  0.40774000  0.41641000  1.0
  H  H22  1  0.16292000  0.90775000  0.91641000  1.0
  H  H23  1  0.66291000  0.59226000  0.58359000  1.0
  H  H24  1  0.78635000  0.37215000  0.99837000  1.0
  H  H25  1  0.28633000  0.12786000  0.50163000  1.0
  H  H26  1  0.21365000  0.62785000  0.00163000  1.0
  H  H27  1  0.71366000  0.87214000  0.49837000  1.0
  H  H28  1  0.76052000  0.54962000  0.97851000  1.0
  H  H29  1  0.26051000  0.95039000  0.52150000  1.0
  H  H30  1  0.23948000  0.45039000  0.02149000  1.0
  H  H31  1  0.73946000  0.04960000  0.47850000  1.0
  H  H32  1  0.55172000  0.61961000  0.90516000  1.0
  H  H33  1  0.05170000  0.88039000  0.59484000  1.0
  H  H34  1  0.44828000  0.38039000  0.09484000  1.0
  H  H35  1  0.94827000  0.11961000  0.40516000  1.0
  H  H36  1  0.36683000  0.51085000  0.85647000  1.0
  H  H37  1  0.86680000  0.98915000  0.64352000  1.0
  H  H38  1  0.63317000  0.48915000  0.14353000  1.0
  H  H39  1  0.13318000  0.01085000  0.35648000  1.0
  H  H40  1  0.91423000  0.33785000  0.85771000  1.0
  H  H41  1  0.41423000  0.16218000  0.64230000  1.0
  H  H42  1  0.08577000  0.66215000  0.14229000  1.0
  H  H43  1  0.58579000  0.83782000  0.35772000  1.0
  H  H44  1  0.73295000  0.22741000  0.80828000  1.0
  H  H45  1  0.23295000  0.27263000  0.69172000  1.0
  H  H46  1  0.26705000  0.77260000  0.19172000  1.0
  H  H47  1  0.76706000  0.72738000  0.30828000  1.0
  H  H48  1  0.83095000  0.07724000  0.76005000  1.0
  H  H49  1  0.33094000  0.42280000  0.73995000  1.0
  H  H50  1  0.16906000  0.92277000  0.23995000  1.0
  H  H51  1  0.66906000  0.57722000  0.26005000  1.0
  H  H52  1  0.10635000  0.03642000  0.76626000  1.0
  H  H53  1  0.60636000  0.46359000  0.73375000  1.0
  H  H54  1  0.89366000  0.96357000  0.23374000  1.0
  H  H55  1  0.39365000  0.53641000  0.26625000  1.0
  H  H56  1  0.47300000  0.95157000  0.60730000  1.0
  H  H57  1  0.97301000  0.54845000  0.89270000  1.0
  H  H58  1  0.52700000  0.04843000  0.39270000  1.0
  H  H59  1  0.02699000  0.45155000  0.10730000  1.0
  H  H60  1  0.30651000  0.92413000  0.63123000  1.0
  H  H61  1  0.80651000  0.57587000  0.86877000  1.0
  H  H62  1  0.69349000  0.07587000  0.36877000  1.0
  H  H63  1  0.19349000  0.42413000  0.13122000  1.0
  H  H64  1  0.51472000  0.74778000  0.75669000  1.0
  H  H65  1  0.01472000  0.75222000  0.74331000  1.0
  H  H66  1  0.48526000  0.25221000  0.24331000  1.0
  H  H67  1  0.98525000  0.24778000  0.25669000  1.0
  H  H68  1  0.43853000  0.77810000  0.82480000  1.0
  H  H69  1  0.93853000  0.72190000  0.67520000  1.0
  H  H70  1  0.56145000  0.22190000  0.17520000  1.0
  H  H71  1  0.06145000  0.27809000  0.32480000  1.0
  H  H72  1  0.67122000  0.79298000  0.65225000  1.0
  H  H73  1  0.17121000  0.70703000  0.84775000  1.0
  H  H74  1  0.32877000  0.20703000  0.34775000  1.0
  H  H75  1  0.82878000  0.29298000  0.15225000  1.0
  H  H76  1  0.76578000  0.78397000  0.71869000  1.0
  H  H77  1  0.26578000  0.71604000  0.78131000  1.0
  H  H78  1  0.23420000  0.21603000  0.28131000  1.0
  H  H79  1  0.73421000  0.28397000  0.21869000  1.0
  C  C80  1  0.38839000  0.05601000  0.80482000  1.0
  C  C81  1  0.88839000  0.44399000  0.69518000  1.0
  C  C82  1  0.61161000  0.94398000  0.19517000  1.0
  C  C83  1  0.11162000  0.55600000  0.30482000  1.0
  C  C84  1  0.53152000  0.01964000  0.84056000  1.0
  C  C85  1  0.03151000  0.48036000  0.65944000  1.0
  C  C86  1  0.46849000  0.98035000  0.15943000  1.0
  C  C87  1  0.96850000  0.51963000  0.34056000  1.0
  C  C88  1  0.65962000  0.02797000  0.94394000  1.0
  C  C89  1  0.15960000  0.47203000  0.55606000  1.0
  C  C90  1  0.34040000  0.97203000  0.05605000  1.0
  C  C91  1  0.84041000  0.52797000  0.44395000  1.0
  C  C92  1  0.71905000  0.93221000  0.94443000  1.0
  C  C93  1  0.21903000  0.56780000  0.55556000  1.0
  C  C94  1  0.28098000  0.06780000  0.05556000  1.0
  C  C95  1  0.78099000  0.43220000  0.44444000  1.0
  C  C96  1  0.81825000  0.89622000  0.99298000  1.0
  C  C97  1  0.31824000  0.60379000  0.50701000  1.0
  C  C98  1  0.18177000  0.10379000  0.00701000  1.0
  C  C99  1  0.68177000  0.39620000  0.49299000  1.0
  C  C100  1  0.86282000  0.95444000  0.04279000  1.0
  C  C101  1  0.36281000  0.54556000  0.45721000  1.0
  C  C102  1  0.13720000  0.04556000  0.95720000  1.0
  C  C103  1  0.63719000  0.45444000  0.54279000  1.0
  C  C104  1  0.80111000  0.04675000  0.04507000  1.0
  C  C105  1  0.30110000  0.45325000  0.45493000  1.0
  C  C106  1  0.19890000  0.95325000  0.95492000  1.0
  C  C107  1  0.69890000  0.54675000  0.54507000  1.0
  C  C108  1  0.69995000  0.08637000  0.99635000  1.0
  C  C109  1  0.19994000  0.41363000  0.50365000  1.0
  C  C110  1  0.30006000  0.91364000  0.00365000  1.0
  C  C111  1  0.80006000  0.58636000  0.49635000  1.0
  C  C112  1  0.65525000  0.18728000  0.99956000  1.0
  C  C113  1  0.15524000  0.31272000  0.50044000  1.0
  C  C114  1  0.34475000  0.81272000  0.00044000  1.0
  C  C115  1  0.84476000  0.68728000  0.49957000  1.0
  C  C116  1  0.68324000  0.23141000  0.06521000  1.0
  C  C117  1  0.18324000  0.26859000  0.43479000  1.0
  C  C118  1  0.31675000  0.76859000  0.93478000  1.0
  C  C119  1  0.81675000  0.73141000  0.56522000  1.0
  C  C120  1  0.57918000  0.34022000  0.94582000  1.0
  C  C121  1  0.07918000  0.15979000  0.55418000  1.0
  C  C122  1  0.42083000  0.65978000  0.05418000  1.0
  C  C123  1  0.92082000  0.84021000  0.44582000  1.0
  C  C124  1  0.68977000  0.40172000  0.97015000  1.0
  C  C125  1  0.18975000  0.09827000  0.52985000  1.0
  C  C126  1  0.31024000  0.59828000  0.02985000  1.0
  C  C127  1  0.81023000  0.90172000  0.47014000  1.0
  C  C128  1  0.67699000  0.50240000  0.95692000  1.0
  C  C129  1  0.17698000  0.99761000  0.54308000  1.0
  C  C130  1  0.32301000  0.49760000  0.04308000  1.0
  C  C131  1  0.82299000  0.00238000  0.45692000  1.0
  C  C132  1  0.56087000  0.54095000  0.91617000  1.0
  C  C133  1  0.06085000  0.95906000  0.58383000  1.0
  C  C134  1  0.43913000  0.45906000  0.08384000  1.0
  C  C135  1  0.93913000  0.04094000  0.41617000  1.0
  C  C136  1  0.45284000  0.47954000  0.88980000  1.0
  C  C137  1  0.95282000  0.02046000  0.61019000  1.0
  C  C138  1  0.54716000  0.52046000  0.11020000  1.0
  C  C139  1  0.04717000  0.97954000  0.38981000  1.0
  C  C140  1  0.45884000  0.37919000  0.90618000  1.0
  C  C141  1  0.95882000  0.12082000  0.59381000  1.0
  C  C142  1  0.54117000  0.62081000  0.09382000  1.0
  C  C143  1  0.04117000  0.87918000  0.40619000  1.0
  C  C144  1  0.21561000  0.32249000  0.86798000  1.0
  C  C145  1  0.71559000  0.17752000  0.63203000  1.0
  C  C146  1  0.78439000  0.67752000  0.13202000  1.0
  C  C147  1  0.28441000  0.82247000  0.36798000  1.0
  C  C148  1  0.14267000  0.42367000  0.86827000  1.0
  C  C149  1  0.64265000  0.07634000  0.63172000  1.0
  C  C150  1  0.85734000  0.57633000  0.13172000  1.0
  C  C151  1  0.35734000  0.92366000  0.36828000  1.0
  C  C152  1  0.11535000  0.24954000  0.84295000  1.0
  C  C153  1  0.61533000  0.25048000  0.65706000  1.0
  C  C154  1  0.88466000  0.75047000  0.15705000  1.0
  C  C155  1  0.38467000  0.74952000  0.34295000  1.0
  C  C156  1  0.95699000  0.27126000  0.83823000  1.0
  C  C157  1  0.45699000  0.22877000  0.66177000  1.0
  C  C158  1  0.04300000  0.72875000  0.16177000  1.0
  C  C159  1  0.54301000  0.77123000  0.33824000  1.0
  C  C160  1  0.85463000  0.20965000  0.81015000  1.0
  C  C161  1  0.35461000  0.29038000  0.68984000  1.0
  C  C162  1  0.14538000  0.79035000  0.18985000  1.0
  C  C163  1  0.64539000  0.70962000  0.31016000  1.0
  C  C164  1  0.91000000  0.12543000  0.78342000  1.0
  C  C165  1  0.40999000  0.37460000  0.71658000  1.0
  C  C166  1  0.09000000  0.87457000  0.21659000  1.0
  C  C167  1  0.59002000  0.62541000  0.28342000  1.0
  C  C168  1  0.06483000  0.10215000  0.78688000  1.0
  C  C169  1  0.56483000  0.39788000  0.71312000  1.0
  C  C170  1  0.93516000  0.89786000  0.21312000  1.0
  C  C171  1  0.43517000  0.60213000  0.28688000  1.0
  C  C172  1  0.17017000  0.16078000  0.81894000  1.0
  C  C173  1  0.67017000  0.33923000  0.68106000  1.0
  C  C174  1  0.82984000  0.83922000  0.18106000  1.0
  C  C175  1  0.32983000  0.66077000  0.31894000  1.0
  N  N176  1  0.31997000  0.13101000  0.83170000  1.0
  N  N177  1  0.81998000  0.36899000  0.66830000  1.0
  N  N178  1  0.68003000  0.86898000  0.16830000  1.0
  N  N179  1  0.18003000  0.63101000  0.33170000  1.0
  N  N180  1  0.55710000  0.06320000  0.89622000  1.0
  N  N181  1  0.05709000  0.43681000  0.60378000  1.0
  N  N182  1  0.44291000  0.93681000  0.10377000  1.0
  N  N183  1  0.94292000  0.56319000  0.39623000  1.0
  N  N184  1  0.58285000  0.23728000  0.95214000  1.0
  N  N185  1  0.08284000  0.26273000  0.54786000  1.0
  N  N186  1  0.41716000  0.76272000  0.04785000  1.0
  N  N187  1  0.91716000  0.73727000  0.45214000  1.0
  N  N188  1  0.35839000  0.30620000  0.88530000  1.0
  N  N189  1  0.85837000  0.19381000  0.61470000  1.0
  N  N190  1  0.64161000  0.69380000  0.11470000  1.0
  N  N191  1  0.14163000  0.80619000  0.38530000  1.0
  O  O192  1  0.34612000  0.00981000  0.75693000  1.0
  O  O193  1  0.84612000  0.49019000  0.74308000  1.0
  O  O194  1  0.65388000  0.99019000  0.24307000  1.0
  O  O195  1  0.15389000  0.50980000  0.25693000  1.0
  O  O196  1  0.60429000  0.95121000  0.81679000  1.0
  O  O197  1  0.10428000  0.54880000  0.68321000  1.0
  O  O198  1  0.39570000  0.04879000  0.18321000  1.0
  O  O199  1  0.89572000  0.45120000  0.31679000  1.0
  O  O200  1  0.81474000  0.25981000  0.08039000  1.0
  O  O201  1  0.31474000  0.24019000  0.41960000  1.0
  O  O202  1  0.18525000  0.74019000  0.91960000  1.0
  O  O203  1  0.68526000  0.75981000  0.58040000  1.0
  O  O204  1  0.56193000  0.22800000  0.09936000  1.0
  O  O205  1  0.06192000  0.27198000  0.40064000  1.0
  O  O206  1  0.43807000  0.77199000  0.90064000  1.0
  O  O207  1  0.93807000  0.72800000  0.59936000  1.0
  O  O208  1  0.08617000  0.45115000  0.92000000  1.0
  O  O209  1  0.58614000  0.04887000  0.58001000  1.0
  O  O210  1  0.91384000  0.54885000  0.08000000  1.0
  O  O211  1  0.41386000  0.95114000  0.42000000  1.0
  O  O212  1  0.14173000  0.46857000  0.81216000  1.0
  O  O213  1  0.64172000  0.03143000  0.68784000  1.0
  O  O214  1  0.85828000  0.53143000  0.18784000  1.0
  O  O215  1  0.35827000  0.96857000  0.31216000  1.0
  O  O216  1  0.41332000  0.90471000  0.63741000  1.0
  O  O217  1  0.91332000  0.59530000  0.86259000  1.0
  O  O218  1  0.58668000  0.09529000  0.36259000  1.0
  O  O219  1  0.08668000  0.40470000  0.13741000  1.0
  O  O220  1  0.42860000  0.78318000  0.77496000  1.0
  O  O221  1  0.92860000  0.71682000  0.72504000  1.0
  O  O222  1  0.57138000  0.21683000  0.22503000  1.0
  O  O223  1  0.07138000  0.28317000  0.27497000  1.0
  O  O224  1  0.66847000  0.81042000  0.69971000  1.0
  O  O225  1  0.16848000  0.68958000  0.80029000  1.0
  O  O226  1  0.33151000  0.18957000  0.30029000  1.0
  O  O227  1  0.83152000  0.31042000  0.19971000  1.0
