# generated using pymatgen
data_H12PbC15(NO2)2
_symmetry_space_group_name_H-M   'P 1'
_cell_length_a   8.88565000
_cell_length_b   8.88637000
_cell_length_c   11.26350000
_cell_angle_alpha   106.87100000
_cell_angle_beta   106.84800000
_cell_angle_gamma   105.25900000
_symmetry_Int_Tables_number   1
_chemical_formula_structural   H12PbC15(NO2)2
_chemical_formula_sum   'H24 Pb2 C30 N4 O8'
_cell_volume   753.73490104
_cell_formula_units_Z   2
loop_
 _symmetry_equiv_pos_site_id
 _symmetry_equiv_pos_as_xyz
  1  'x, y, z'
loop_
 _atom_site_type_symbol
 _atom_site_label
 _atom_site_symmetry_multiplicity
 _atom_site_fract_x
 _atom_site_fract_y
 _atom_site_fract_z
 _atom_site_occupancy
  H  H0  1  0.97580000  0.31980000  0.97788000  1.0
  H  H1  1  0.34162000  0.99700000  0.02197000  1.0
  H  H2  1  0.24685000  0.09186000  0.52183000  1.0
  H  H3  1  0.57047000  0.72494000  0.47807000  1.0
  H  H4  1  0.80624000  0.31205000  0.12026000  1.0
  H  H5  1  0.19116000  0.68540000  0.87974000  1.0
  H  H6  1  0.93530000  0.94159000  0.37958000  1.0
  H  H7  1  0.56246000  0.55584000  0.62073000  1.0
  H  H8  1  0.24577000  0.33217000  0.42911000  1.0
  H  H9  1  0.90300000  0.81707000  0.57119000  1.0
  H  H10  1  0.06683000  0.65284000  0.07109000  1.0
  H  H11  1  0.58164000  0.99574000  0.92877000  1.0
  H  H12  1  0.79420000  0.31468000  0.33609000  1.0
  H  H13  1  0.97806000  0.45802000  0.66386000  1.0
  H  H14  1  0.70779000  0.72755000  0.16400000  1.0
  H  H15  1  0.56397000  0.54420000  0.83643000  1.0
  H  H16  1  0.94081000  0.24739000  0.43349000  1.0
  H  H17  1  0.81350000  0.50750000  0.56660000  1.0
  H  H18  1  0.75756000  0.56335000  0.06652000  1.0
  H  H19  1  0.49687000  0.69120000  0.93377000  1.0
  H  H20  1  0.00398000  0.61227000  0.45519000  1.0
  H  H21  1  0.15667000  0.54906000  0.54473000  1.0
  H  H22  1  0.79861000  0.90665000  0.04503000  1.0
  H  H23  1  0.86167000  0.75400000  0.95517000  1.0
  Pb  Pb24  1  0.63076000  0.13063000  0.49972000  1.0
  Pb  Pb25  1  0.38077000  0.38049000  0.99985000  1.0
  C  C26  1  0.02941000  0.32129000  0.07879000  1.0
  C  C27  1  0.24218000  0.94995000  0.92117000  1.0
  C  C28  1  0.19983000  0.99245000  0.42101000  1.0
  C  C29  1  0.57175000  0.77877000  0.57889000  1.0
  C  C30  1  0.93622000  0.31784000  0.15914000  1.0
  C  C31  1  0.15820000  0.77659000  0.84088000  1.0
  C  C32  1  0.02648000  0.90852000  0.34072000  1.0
  C  C33  1  0.56813000  0.68580000  0.65939000  1.0
  C  C34  1  0.01310000  0.32486000  0.28916000  1.0
  C  C35  1  0.03521000  0.72382000  0.71098000  1.0
  C  C36  1  0.97362000  0.78532000  0.21086000  1.0
  C  C37  1  0.57454000  0.76286000  0.78920000  1.0
  C  C38  1  0.17914000  0.32836000  0.32982000  1.0
  C  C39  1  0.99828000  0.84939000  0.67043000  1.0
  C  C40  1  0.09920000  0.74835000  0.17027000  1.0
  C  C41  1  0.57802000  0.92889000  0.82957000  1.0
  C  C42  1  0.26354000  0.32909000  0.24357000  1.0
  C  C43  1  0.08541000  0.01980000  0.75662000  1.0
  C  C44  1  0.26964000  0.83553000  0.25642000  1.0
  C  C45  1  0.57905000  0.01305000  0.74322000  1.0
  C  C46  1  0.44235000  0.32877000  0.28521000  1.0
  C  C47  1  0.04352000  0.15702000  0.71495000  1.0
  C  C48  1  0.40679000  0.79350000  0.21467000  1.0
  C  C49  1  0.57881000  0.19191000  0.78490000  1.0
  C  C50  1  0.92945000  0.33982000  0.38745000  1.0
  C  C51  1  0.95189000  0.54211000  0.61260000  1.0
  C  C52  1  0.79188000  0.70169000  0.11263000  1.0
  C  C53  1  0.58923000  0.67953000  0.88768000  1.0
  C  C54  1  0.01910000  0.51941000  0.49997000  1.0
  C  C55  1  0.76891000  0.76908000  0.00012000  1.0
  N  N56  1  0.18955000  0.32844000  0.12054000  1.0
  N  N57  1  0.20780000  0.06853000  0.87949000  1.0
  N  N58  1  0.31842000  0.95796000  0.37932000  1.0
  N  N59  1  0.57869000  0.93888000  0.62031000  1.0
  O  O60  1  0.51358000  0.34245000  0.40463000  1.0
  O  O61  1  0.93783000  0.10906000  0.59561000  1.0
  O  O62  1  0.35865000  0.68752000  0.09538000  1.0
  O  O63  1  0.59235000  0.26311000  0.90430000  1.0
  O  O64  1  0.50695000  0.31305000  0.19671000  1.0
  O  O65  1  0.11640000  0.30996000  0.80332000  1.0
  O  O66  1  0.55980000  0.86638000  0.30290000  1.0
  O  O67  1  0.56338000  0.25663000  0.69650000  1.0
