# generated using pymatgen
data_CuH12C6SIN2
_symmetry_space_group_name_H-M   'P 1'
_cell_length_a   5.50575000
_cell_length_b   13.17030000
_cell_length_c   13.49960000
_cell_angle_alpha   89.99950000
_cell_angle_beta   89.99960000
_cell_angle_gamma   98.57160000
_symmetry_Int_Tables_number   1
_chemical_formula_structural   CuH12C6SIN2
_chemical_formula_sum   'Cu4 H48 C24 S4 I4 N8'
_cell_volume   967.95430653
_cell_formula_units_Z   4
loop_
 _symmetry_equiv_pos_site_id
 _symmetry_equiv_pos_as_xyz
  1  'x, y, z'
loop_
 _atom_site_type_symbol
 _atom_site_label
 _atom_site_symmetry_multiplicity
 _atom_site_fract_x
 _atom_site_fract_y
 _atom_site_fract_z
 _atom_site_occupancy
  Cu  Cu0  1  0.75788000  0.49673000  0.49233000  1.0
  Cu  Cu1  1  0.74214000  0.00327000  0.99234000  1.0
  Cu  Cu2  1  0.24214000  0.50328000  0.50766000  1.0
  Cu  Cu3  1  0.25787000  0.99673000  0.00767000  1.0
  H  H4  1  0.30791000  0.56947000  0.71749000  1.0
  H  H5  1  0.19208000  0.93053000  0.21750000  1.0
  H  H6  1  0.69210000  0.43054000  0.28251000  1.0
  H  H7  1  0.80790000  0.06947000  0.78251000  1.0
  H  H8  1  0.56607000  0.59312000  0.87905000  1.0
  H  H9  1  0.93390000  0.90686000  0.37904000  1.0
  H  H10  1  0.43393000  0.40688000  0.12095000  1.0
  H  H11  1  0.06606000  0.09313000  0.62096000  1.0
  H  H12  1  0.44609000  0.71017000  0.85743000  1.0
  H  H13  1  0.05388000  0.78982000  0.35744000  1.0
  H  H14  1  0.55391000  0.28983000  0.14256000  1.0
  H  H15  1  0.94609000  0.21017000  0.64256000  1.0
  H  H16  1  0.96705000  0.67023000  0.82514000  1.0
  H  H17  1  0.53294000  0.82975000  0.32513000  1.0
  H  H18  1  0.03295000  0.32977000  0.17486000  1.0
  H  H19  1  0.46704000  0.17024000  0.67487000  1.0
  H  H20  1  0.85270000  0.79027000  0.83219000  1.0
  H  H21  1  0.64730000  0.70972000  0.33218000  1.0
  H  H22  1  0.14731000  0.20973000  0.16781000  1.0
  H  H23  1  0.35267000  0.29028000  0.66781000  1.0
  H  H24  1  0.02957000  0.71646000  0.56583000  1.0
  H  H25  1  0.47042000  0.78355000  0.06582000  1.0
  H  H26  1  0.97044000  0.28355000  0.43418000  1.0
  H  H27  1  0.52956000  0.21646000  0.93417000  1.0
  H  H28  1  0.19128000  0.74954000  0.67739000  1.0
  H  H29  1  0.30873000  0.75046000  0.17739000  1.0
  H  H30  1  0.80874000  0.25047000  0.32261000  1.0
  H  H31  1  0.69125000  0.24954000  0.82261000  1.0
  H  H32  1  0.87587000  0.88535000  0.56659000  1.0
  H  H33  1  0.62412000  0.61466000  0.06658000  1.0
  H  H34  1  0.12414000  0.11465000  0.43341000  1.0
  H  H35  1  0.37588000  0.38535000  0.93341000  1.0
  H  H36  1  0.01892000  0.91633000  0.68263000  1.0
  H  H37  1  0.48111000  0.58367000  0.18262000  1.0
  H  H38  1  0.98110000  0.08367000  0.31737000  1.0
  H  H39  1  0.51890000  0.41633000  0.81738000  1.0
  H  H40  1  0.43323000  0.90965000  0.60946000  1.0
  H  H41  1  0.06679000  0.59035000  0.10945000  1.0
  H  H42  1  0.56678000  0.09035000  0.39054000  1.0
  H  H43  1  0.93322000  0.40965000  0.89054000  1.0
  H  H44  1  0.28588000  0.99821000  0.54180000  1.0
  H  H45  1  0.21414000  0.50180000  0.04178000  1.0
  H  H46  1  0.71414000  0.00180000  0.45821000  1.0
  H  H47  1  0.78587000  0.49820000  0.95821000  1.0
  H  H48  1  0.30009000  0.87433000  0.49246000  1.0
  H  H49  1  0.19989000  0.62568000  0.99245000  1.0
  H  H50  1  0.69991000  0.12567000  0.50754000  1.0
  H  H51  1  0.80011000  0.37432000  0.00754000  1.0
  C  C52  1  0.61431000  0.65737000  0.65575000  1.0
  C  C53  1  0.88569000  0.84262000  0.15574000  1.0
  C  C54  1  0.38570000  0.34264000  0.34426000  1.0
  C  C55  1  0.11430000  0.15737000  0.84426000  1.0
  C  C56  1  0.56137000  0.65630000  0.82662000  1.0
  C  C57  1  0.93861000  0.84369000  0.32661000  1.0
  C  C58  1  0.43864000  0.34370000  0.17339000  1.0
  C  C59  1  0.06137000  0.15630000  0.67339000  1.0
  C  C60  1  0.81950000  0.71260000  0.80070000  1.0
  C  C61  1  0.68050000  0.78738000  0.30069000  1.0
  C  C62  1  0.18051000  0.28740000  0.19931000  1.0
  C  C63  1  0.31948000  0.21261000  0.69931000  1.0
  C  C64  1  0.02708000  0.76079000  0.63478000  1.0
  C  C65  1  0.47293000  0.73921000  0.13478000  1.0
  C  C66  1  0.97294000  0.23921000  0.36522000  1.0
  C  C67  1  0.52706000  0.26079000  0.86522000  1.0
  C  C68  1  0.03551000  0.87492000  0.61263000  1.0
  C  C69  1  0.46450000  0.62509000  0.11262000  1.0
  C  C70  1  0.96450000  0.12509000  0.38737000  1.0
  C  C71  1  0.53551000  0.37491000  0.88737000  1.0
  C  C72  1  0.27605000  0.91678000  0.56102000  1.0
  C  C73  1  0.22395000  0.58322000  0.06101000  1.0
  C  C74  1  0.72396000  0.08323000  0.43898000  1.0
  C  C75  1  0.77605000  0.41677000  0.93898000  1.0
  S  S76  1  0.55261000  0.63866000  0.53236000  1.0
  S  S77  1  0.94741000  0.86135000  0.03236000  1.0
  S  S78  1  0.44741000  0.36135000  0.46764000  1.0
  S  S79  1  0.05259000  0.13866000  0.96764000  1.0
  I  I80  1  0.95547000  0.43973000  0.65913000  1.0
  I  I81  1  0.54453000  0.06027000  0.15913000  1.0
  I  I82  1  0.04455000  0.56027000  0.34087000  1.0
  I  I83  1  0.45546000  0.93973000  0.84087000  1.0
  N  N84  1  0.46863000  0.61804000  0.73014000  1.0
  N  N85  1  0.03139000  0.88196000  0.23014000  1.0
  N  N86  1  0.53138000  0.38197000  0.26986000  1.0
  N  N87  1  0.96860000  0.11803000  0.76986000  1.0
  N  N88  1  0.81524000  0.71625000  0.69201000  1.0
  N  N89  1  0.68478000  0.78375000  0.19200000  1.0
  N  N90  1  0.18477000  0.28375000  0.30800000  1.0
  N  N91  1  0.31521000  0.21625000  0.80800000  1.0
