# generated using pymatgen
data_Zn4H11C28S2Br3O13
_symmetry_space_group_name_H-M   'P 1'
_cell_length_a   18.56010000
_cell_length_b   19.70050000
_cell_length_c   32.78300000
_cell_angle_alpha   86.05540000
_cell_angle_beta   73.62110000
_cell_angle_gamma   62.00410000
_symmetry_Int_Tables_number   1
_chemical_formula_structural   Zn4H11C28S2Br3O13
_chemical_formula_sum   'Zn16 H44 C112 S8 Br12 O52'
_cell_volume   10126.02698222
_cell_formula_units_Z   4
loop_
 _symmetry_equiv_pos_site_id
 _symmetry_equiv_pos_as_xyz
  1  'x, y, z'
loop_
 _atom_site_type_symbol
 _atom_site_label
 _atom_site_symmetry_multiplicity
 _atom_site_fract_x
 _atom_site_fract_y
 _atom_site_fract_z
 _atom_site_occupancy
  Zn  Zn0  1  0.87281000  0.55391000  0.51843000  1.0
  Zn  Zn1  1  0.03785000  0.48525000  0.43894000  1.0
  Zn  Zn2  1  0.04348000  0.39837000  0.52397000  1.0
  Zn  Zn3  1  0.04544000  0.56164000  0.51785000  1.0
  Zn  Zn4  1  0.62576000  0.19104000  0.73275000  1.0
  Zn  Zn5  1  0.46449000  0.34938000  0.72502000  1.0
  Zn  Zn6  1  0.45642000  0.26549000  0.81267000  1.0
  Zn  Zn7  1  0.45366000  0.19271000  0.72897000  1.0
  Zn  Zn8  1  0.46221000  0.76426000  0.31284000  1.0
  Zn  Zn9  1  0.45269000  0.69208000  0.23209000  1.0
  Zn  Zn10  1  0.62582000  0.69389000  0.22935000  1.0
  Zn  Zn11  1  0.45702000  0.85118000  0.22583000  1.0
  Zn  Zn12  1  0.03705000  0.89934000  0.02434000  1.0
  Zn  Zn13  1  0.04948000  0.05751000  0.01892000  1.0
  Zn  Zn14  1  0.87593000  0.05798000  0.01946000  1.0
  Zn  Zn15  1  0.03735000  0.98596000  0.93740000  1.0
  H  H16  1  0.80464000  0.96447000  0.65517000  1.0
  H  H17  1  0.31266000  0.97538000  0.40140000  1.0
  H  H18  1  0.81203000  0.24167000  0.65371000  1.0
  H  H19  1  0.54528000  0.48450000  0.62035000  1.0
  H  H20  1  0.55127000  0.52461000  0.66561000  1.0
  H  H21  1  0.65160000  0.56833000  0.61717000  1.0
  H  H22  1  0.64591000  0.52792000  0.57195000  1.0
  H  H23  1  0.29376000  0.60324000  0.29618000  1.0
  H  H24  1  0.35006000  0.67314000  0.43518000  1.0
  H  H25  1  0.25960000  0.76166000  0.43261000  1.0
  H  H26  1  0.16271000  0.71165000  0.47797000  1.0
  H  H27  1  0.25292000  0.62311000  0.48054000  1.0
  H  H28  1  0.80953000  0.60198000  0.29503000  1.0
  H  H29  1  0.54809000  0.76189000  0.43053000  1.0
  H  H30  1  0.54294000  0.67358000  0.43293000  1.0
  H  H31  1  0.64321000  0.62342000  0.47904000  1.0
  H  H32  1  0.64856000  0.71162000  0.47654000  1.0
  H  H33  1  0.30847000  0.45662000  0.64594000  1.0
  H  H34  1  0.32912000  0.17916000  0.62951000  1.0
  H  H35  1  0.23851000  0.22036000  0.67489000  1.0
  H  H36  1  0.14290000  0.27341000  0.62635000  1.0
  H  H37  1  0.23365000  0.23230000  0.58109000  1.0
  H  H38  1  0.18802000  0.65950000  0.96287000  1.0
  H  H39  1  0.69004000  0.14739000  0.95551000  1.0
  H  H40  1  0.95451000  0.07849000  0.81677000  1.0
  H  H41  1  0.95010000  0.98985000  0.81907000  1.0
  H  H42  1  0.84874000  0.04005000  0.77358000  1.0
  H  H43  1  0.85311000  0.12867000  0.77136000  1.0
  H  H44  1  0.19219000  0.05233000  0.84518000  1.0
  H  H45  1  0.17094000  0.21640000  0.97556000  1.0
  H  H46  1  0.26176000  0.12791000  0.97770000  1.0
  H  H47  1  0.35709000  0.17422000  0.92686000  1.0
  H  H48  1  0.26627000  0.26256000  0.92475000  1.0
  H  H49  1  0.92702000  0.28339000  0.09435000  1.0
  H  H50  1  0.19295000  0.79418000  0.10286000  1.0
  H  H51  1  0.26120000  0.03158000  0.07472000  1.0
  H  H52  1  0.17030000  0.07204000  0.12005000  1.0
  H  H53  1  0.26562000  0.01926000  0.16853000  1.0
  H  H54  1  0.35654000  0.97884000  0.12330000  1.0
  H  H55  1  0.68981000  0.00661000  0.09616000  1.0
  H  H56  1  0.95073000  0.72314000  0.08508000  1.0
  H  H57  1  0.95458000  0.76419000  0.13069000  1.0
  H  H58  1  0.85356000  0.72065000  0.17825000  1.0
  H  H59  1  0.84960000  0.67954000  0.13275000  1.0
  C  C60  1  0.86252000  0.56779000  0.43038000  1.0
  C  C61  1  0.12411000  0.31586000  0.43883000  1.0
  C  C62  1  0.86550000  0.42718000  0.56857000  1.0
  C  C63  1  0.13904000  0.43419000  0.56818000  1.0
  C  C64  1  0.87281000  0.68382000  0.56030000  1.0
  C  C65  1  0.13762000  0.56935000  0.43079000  1.0
  C  C66  1  0.64001000  0.31691000  0.68126000  1.0
  C  C67  1  0.37686000  0.43444000  0.81045000  1.0
  C  C68  1  0.63430000  0.18196000  0.82070000  1.0
  C  C69  1  0.36101000  0.18064000  0.81744000  1.0
  C  C70  1  0.62490000  0.06545000  0.68865000  1.0
  C  C71  1  0.36318000  0.31905000  0.68025000  1.0
  C  C72  1  0.36285000  0.68143000  0.32035000  1.0
  C  C73  1  0.62289000  0.56629000  0.18880000  1.0
  C  C74  1  0.63784000  0.68175000  0.31862000  1.0
  C  C75  1  0.63480000  0.82086000  0.18021000  1.0
  C  C76  1  0.37585000  0.93374000  0.31164000  1.0
  C  C77  1  0.36085000  0.81727000  0.18122000  1.0
  C  C78  1  0.13808000  0.93151000  0.06866000  1.0
  C  C79  1  0.87944000  0.18413000  0.06130000  1.0
  C  C80  1  0.86160000  0.93127000  0.06898000  1.0
  C  C81  1  0.86186000  0.06937000  0.93117000  1.0
  C  C82  1  0.12161000  0.81572000  0.93920000  1.0
  C  C83  1  0.13815000  0.06902000  0.93108000  1.0
  C  C84  1  0.73422000  0.80358000  0.60080000  1.0
  C  C85  1  0.76114000  0.94660000  0.64913000  1.0
  C  C86  1  0.82189000  0.75845000  0.58555000  1.0
  C  C87  1  0.67363000  0.99046000  0.66374000  1.0
  C  C88  1  0.78347000  0.87831000  0.62602000  1.0
  C  C89  1  0.71208000  0.87191000  0.62380000  1.0
  C  C90  1  0.20179000  0.22728000  0.36896000  1.0
  C  C91  1  0.29952000  0.02198000  0.38023000  1.0
  C  C92  1  0.17347000  0.24204000  0.41306000  1.0
  C  C93  1  0.32692000  0.00889000  0.33629000  1.0
  C  C94  1  0.25385000  0.10176000  0.39229000  1.0
  C  C95  1  0.24769000  0.14737000  0.35707000  1.0
  C  C96  1  0.69726000  0.34471000  0.65279000  1.0
  C  C97  1  0.81181000  0.39592000  0.59740000  1.0
  C  C98  1  0.66739000  0.41668000  0.63617000  1.0
  C  C99  1  0.84166000  0.32273000  0.61475000  1.0
  C  C100  1  0.72310000  0.44062000  0.60952000  1.0
  C  C101  1  0.78612000  0.29832000  0.64134000  1.0
  C  C102  1  0.58868000  0.49080000  0.63482000  1.0
  C  C103  1  0.65155000  0.51812000  0.60455000  1.0
  C  C104  1  0.30597000  0.65310000  0.34855000  1.0
  C  C105  1  0.19431000  0.59656000  0.40117000  1.0
  C  C106  1  0.28000000  0.66431000  0.39285000  1.0
  C  C107  1  0.22103000  0.58557000  0.35587000  1.0
  C  C108  1  0.22623000  0.63680000  0.41781000  1.0
  C  C109  1  0.27498000  0.61293000  0.33072000  1.0
  C  C110  1  0.28607000  0.69866000  0.43089000  1.0
  C  C111  1  0.22530000  0.66739000  0.45930000  1.0
  C  C112  1  0.69480000  0.65287000  0.34691000  1.0
  C  C113  1  0.80894000  0.59529000  0.40036000  1.0
  C  C114  1  0.66472000  0.66409000  0.39121000  1.0
  C  C115  1  0.83911000  0.58411000  0.35506000  1.0
  C  C116  1  0.72028000  0.63612000  0.41657000  1.0
  C  C117  1  0.78361000  0.61204000  0.32953000  1.0
  C  C118  1  0.58593000  0.69888000  0.42894000  1.0
  C  C119  1  0.64870000  0.66741000  0.45779000  1.0
  C  C120  1  0.30602000  0.34827000  0.65210000  1.0
  C  C121  1  0.19595000  0.40843000  0.59661000  1.0
  C  C122  1  0.27234000  0.30603000  0.63938000  1.0
  C  C123  1  0.23057000  0.45109000  0.60987000  1.0
  C  C124  1  0.21949000  0.33559000  0.61264000  1.0
  C  C125  1  0.28354000  0.42180000  0.63662000  1.0
  C  C126  1  0.26817000  0.23083000  0.64271000  1.0
  C  C127  1  0.20835000  0.26405000  0.61240000  1.0
  C  C128  1  0.29809000  0.58378000  0.82045000  1.0
  C  C129  1  0.20054000  0.66844000  0.92903000  1.0
  C  C130  1  0.32732000  0.50999000  0.83470000  1.0
  C  C131  1  0.17190000  0.74113000  0.91388000  1.0
  C  C132  1  0.24651000  0.61075000  0.89495000  1.0
  C  C133  1  0.25190000  0.64123000  0.85465000  1.0
  C  C134  1  0.80430000  0.09773000  0.90318000  1.0
  C  C135  1  0.68852000  0.15480000  0.85049000  1.0
  C  C136  1  0.83351000  0.08689000  0.85888000  1.0
  C  C137  1  0.65934000  0.16535000  0.89578000  1.0
  C  C138  1  0.77722000  0.11467000  0.83387000  1.0
  C  C139  1  0.71546000  0.13775000  0.92098000  1.0
  C  C140  1  0.91182000  0.05285000  0.82091000  1.0
  C  C141  1  0.84835000  0.08425000  0.79244000  1.0
  C  C142  1  0.19465000  0.09732000  0.90239000  1.0
  C  C143  1  0.30412000  0.15100000  0.84455000  1.0
  C  C144  1  0.22794000  0.13793000  0.91713000  1.0
  C  C145  1  0.26962000  0.10965000  0.82983000  1.0
  C  C146  1  0.28056000  0.16343000  0.88897000  1.0
  C  C147  1  0.21699000  0.08388000  0.85790000  1.0
  C  C148  1  0.23196000  0.17079000  0.95636000  1.0
  C  C149  1  0.29166000  0.19973000  0.92457000  1.0
  C  C150  1  0.64278000  0.44697000  0.14890000  1.0
  C  C151  1  0.85946000  0.30211000  0.10060000  1.0
  C  C152  1  0.67141000  0.49161000  0.16375000  1.0
  C  C153  1  0.82908000  0.25897000  0.08625000  1.0
  C  C154  1  0.79154000  0.37091000  0.12353000  1.0
  C  C155  1  0.71107000  0.37824000  0.12601000  1.0
  C  C156  1  0.19499000  0.90264000  0.09691000  1.0
  C  C157  1  0.30456000  0.84286000  0.15256000  1.0
  C  C158  1  0.22820000  0.94515000  0.10980000  1.0
  C  C159  1  0.27050000  0.79984000  0.13910000  1.0
  C  C160  1  0.28085000  0.91577000  0.13662000  1.0
  C  C161  1  0.21770000  0.82907000  0.11228000  1.0
  C  C162  1  0.23157000  0.02070000  0.10678000  1.0
  C  C163  1  0.29128000  0.98766000  0.13716000  1.0
  C  C164  1  0.80428000  0.90318000  0.09709000  1.0
  C  C165  1  0.68894000  0.85215000  0.15187000  1.0
  C  C166  1  0.83375000  0.83118000  0.11368000  1.0
  C  C167  1  0.65952000  0.92561000  0.13478000  1.0
  C  C168  1  0.77763000  0.80730000  0.14000000  1.0
  C  C169  1  0.71543000  0.94983000  0.10839000  1.0
  C  C170  1  0.91220000  0.75735000  0.11567000  1.0
  C  C171  1  0.84891000  0.73004000  0.14548000  1.0
  S  S172  1  0.87719000  0.80009000  0.59954000  1.0
  S  S173  1  0.61785000  0.94953000  0.64980000  1.0
  S  S174  1  0.20319000  0.15783000  0.43982000  1.0
  S  S175  1  0.29790000  0.09260000  0.30929000  1.0
  S  S176  1  0.29816000  0.51138000  0.89024000  1.0
  S  S177  1  0.20051000  0.74027000  0.85851000  1.0
  S  S178  1  0.78223000  0.44906000  0.14947000  1.0
  S  S179  1  0.71858000  0.30106000  0.10034000  1.0
  Br  Br180  1  0.65028000  0.78176000  0.59325000  1.0
  Br  Br181  1  0.18506000  0.29971000  0.32762000  1.0
  Br  Br182  1  0.31404000  0.61030000  0.76364000  1.0
  Br  Br183  1  0.52952000  0.46975000  0.15613000  1.0
  Br  Br184  1  0.95926000  0.24949000  0.60418000  1.0
  Br  Br185  1  0.18650000  0.53438000  0.32408000  1.0
  Br  Br186  1  0.95650000  0.53029000  0.32383000  1.0
  Br  Br187  1  0.20980000  0.55194000  0.59303000  1.0
  Br  Br188  1  0.54201000  0.21768000  0.92746000  1.0
  Br  Br189  1  0.28959000  0.08503000  0.77102000  1.0
  Br  Br190  1  0.29144000  0.69895000  0.15570000  1.0
  Br  Br191  1  0.54218000  0.99959000  0.14566000  1.0
  O  O192  1  0.99805000  0.50053000  0.50129000  1.0
  O  O193  1  0.82256000  0.58031000  0.47020000  1.0
  O  O194  1  0.10056000  0.37661000  0.41874000  1.0
  O  O195  1  0.94580000  0.38671000  0.55926000  1.0
  O  O196  1  0.94275000  0.53459000  0.41450000  1.0
  O  O197  1  0.82470000  0.49356000  0.55553000  1.0
  O  O198  1  0.10914000  0.31230000  0.47937000  1.0
  O  O199  1  0.11745000  0.38506000  0.55964000  1.0
  O  O200  1  0.95358000  0.65810000  0.55027000  1.0
  O  O201  1  0.11659000  0.50114000  0.55480000  1.0
  O  O202  1  0.83321000  0.65193000  0.55080000  1.0
  O  O203  1  0.11467000  0.52834000  0.41490000  1.0
  O  O204  1  0.11683000  0.58955000  0.47045000  1.0
  O  O205  1  0.50083000  0.24941000  0.75007000  1.0
  O  O206  1  0.67476000  0.25073000  0.69542000  1.0
  O  O207  1  0.40014000  0.43396000  0.76997000  1.0
  O  O208  1  0.55404000  0.21851000  0.83629000  1.0
  O  O209  1  0.56031000  0.36263000  0.68896000  1.0
  O  O210  1  0.67474000  0.16549000  0.78098000  1.0
  O  O211  1  0.39203000  0.37563000  0.83265000  1.0
  O  O212  1  0.38194000  0.21907000  0.83743000  1.0
  O  O213  1  0.54393000  0.09570000  0.69692000  1.0
  O  O214  1  0.38436000  0.16588000  0.77736000  1.0
  O  O215  1  0.66698000  0.09336000  0.69961000  1.0
  O  O216  1  0.39000000  0.36333000  0.68946000  1.0
  O  O217  1  0.38057000  0.25162000  0.69270000  1.0
  O  O218  1  0.50084000  0.75060000  0.25033000  1.0
  O  O219  1  0.38810000  0.71776000  0.33880000  1.0
  O  O220  1  0.54218000  0.59522000  0.20009000  1.0
  O  O221  1  0.67294000  0.66856000  0.27850000  1.0
  O  O222  1  0.38137000  0.66714000  0.28030000  1.0
  O  O223  1  0.55816000  0.71751000  0.33751000  1.0
  O  O224  1  0.66666667  0.59545000  0.19704000  1.0
  O  O225  1  0.67501000  0.75341000  0.19226000  1.0
  O  O226  1  0.39289000  0.93548000  0.27106000  1.0
  O  O227  1  0.55456000  0.86226000  0.19006000  1.0
  O  O228  1  0.39651000  0.87409000  0.33292000  1.0
  O  O229  1  0.38305000  0.75028000  0.19451000  1.0
  O  O230  1  0.38244000  0.86615000  0.19015000  1.0
  O  O231  1  0.00066000  0.00008000  0.99997000  1.0
  O  O232  1  0.11125000  0.88709000  0.05968000  1.0
  O  O233  1  0.96030000  0.15525000  0.05138000  1.0
  O  O234  1  0.82656000  0.99852000  0.05603000  1.0
  O  O235  1  0.12105000  0.99870000  0.05593000  1.0
  O  O236  1  0.94138000  0.88517000  0.06025000  1.0
  O  O237  1  0.83691000  0.15493000  0.05182000  1.0
  O  O238  1  0.82697000  0.08371000  0.97127000  1.0
  O  O239  1  0.10198000  0.87576000  0.91800000  1.0
  O  O240  1  0.94160000  0.03296000  0.91238000  1.0
  O  O241  1  0.10216000  0.81378000  0.97969000  1.0
  O  O242  1  0.12125000  0.08360000  0.97103000  1.0
  O  O243  1  0.11154000  0.03296000  0.91347000  1.0
