# generated using pymatgen
data_FeH8(C6N5)2
_symmetry_space_group_name_H-M   'P 1'
_cell_length_a   9.15484000
_cell_length_b   12.22650000
_cell_length_c   13.05300000
_cell_angle_alpha   90.00000000
_cell_angle_beta   89.99990000
_cell_angle_gamma   89.99880000
_symmetry_Int_Tables_number   1
_chemical_formula_structural   FeH8(C6N5)2
_chemical_formula_sum   'Fe4 H32 C48 N40'
_cell_volume   1461.04384357
_cell_formula_units_Z   4
loop_
 _symmetry_equiv_pos_site_id
 _symmetry_equiv_pos_as_xyz
  1  'x, y, z'
loop_
 _atom_site_type_symbol
 _atom_site_label
 _atom_site_symmetry_multiplicity
 _atom_site_fract_x
 _atom_site_fract_y
 _atom_site_fract_z
 _atom_site_occupancy
  Fe  Fe0  1  0.00000000  0.50000000  1.00000000  1.0
  Fe  Fe1  1  0.50000000  0.00000000  0.50000000  1.0
  Fe  Fe2  1  0.00000000  0.00000000  0.00000000  1.0
  Fe  Fe3  1  0.50000000  0.50000000  0.50000000  1.0
  H  H4  1  0.06651000  0.75000000  0.99972000  1.0
  H  H5  1  0.56652000  0.25000000  0.50028000  1.0
  H  H6  1  0.43348000  0.75000000  0.49972000  1.0
  H  H7  1  0.93349000  0.25000000  0.00028000  1.0
  H  H8  1  0.69508000  0.92666000  0.07537000  1.0
  H  H9  1  0.19508000  0.42666000  0.42463000  1.0
  H  H10  1  0.69507000  0.57337000  0.07537000  1.0
  H  H11  1  0.80493000  0.92663000  0.57537000  1.0
  H  H12  1  0.30492000  0.07334000  0.92463000  1.0
  H  H13  1  0.80492000  0.57335000  0.57537000  1.0
  H  H14  1  0.30493000  0.42663000  0.92462000  1.0
  H  H15  1  0.19507000  0.07337000  0.42463000  1.0
  H  H16  1  0.55770000  0.75002000  0.10617000  1.0
  H  H17  1  0.05769000  0.25001000  0.39384000  1.0
  H  H18  1  0.94231000  0.74999000  0.60616000  1.0
  H  H19  1  0.44230000  0.24998000  0.89383000  1.0
  H  H20  1  0.78912000  0.75000000  0.80543000  1.0
  H  H21  1  0.28912000  0.25000000  0.69457000  1.0
  H  H22  1  0.71087000  0.75000000  0.30543000  1.0
  H  H23  1  0.21088000  0.25000000  0.19457000  1.0
  H  H24  1  0.40618000  0.92638000  0.83889000  1.0
  H  H25  1  0.90618000  0.42638000  0.66110000  1.0
  H  H26  1  0.40618000  0.57362000  0.83888000  1.0
  H  H27  1  0.09381000  0.92638000  0.33889000  1.0
  H  H28  1  0.59382000  0.07362000  0.16111000  1.0
  H  H29  1  0.09382000  0.57362000  0.33890000  1.0
  H  H30  1  0.59382000  0.42638000  0.16112000  1.0
  H  H31  1  0.90619000  0.07362000  0.66111000  1.0
  H  H32  1  0.26393000  0.75000000  0.85714000  1.0
  H  H33  1  0.76394000  0.25000000  0.64285000  1.0
  H  H34  1  0.23606000  0.75000000  0.35715000  1.0
  H  H35  1  0.73607000  0.25000000  0.14286000  1.0
  C  C36  1  0.95222000  0.75000000  0.02278000  1.0
  C  C37  1  0.45222000  0.25000000  0.47721000  1.0
  C  C38  1  0.54778000  0.75000000  0.52279000  1.0
  C  C39  1  0.04778000  0.25000000  0.97722000  1.0
  C  C40  1  0.74641000  0.65298000  0.06550000  1.0
  C  C41  1  0.24641000  0.15298000  0.43451000  1.0
  C  C42  1  0.74641000  0.84704000  0.06550000  1.0
  C  C43  1  0.75359000  0.65296000  0.56549000  1.0
  C  C44  1  0.25359000  0.34702000  0.93450000  1.0
  C  C45  1  0.75359000  0.84702000  0.56549000  1.0
  C  C46  1  0.25359000  0.15296000  0.93450000  1.0
  C  C47  1  0.24641000  0.34704000  0.43451000  1.0
  C  C48  1  0.67104000  0.75001000  0.08143000  1.0
  C  C49  1  0.17104000  0.25001000  0.41857000  1.0
  C  C50  1  0.82896000  0.74999000  0.58143000  1.0
  C  C51  1  0.32896000  0.24999000  0.91857000  1.0
  C  C52  1  0.91703000  0.41769000  0.23085000  1.0
  C  C53  1  0.41703000  0.91769000  0.26915000  1.0
  C  C54  1  0.91704000  0.08231000  0.23085000  1.0
  C  C55  1  0.58296000  0.41769000  0.73085000  1.0
  C  C56  1  0.08297000  0.58231000  0.76915000  1.0
  C  C57  1  0.58297000  0.08231000  0.73085000  1.0
  C  C58  1  0.08296000  0.91769000  0.76914000  1.0
  C  C59  1  0.41704000  0.58231000  0.26915000  1.0
  C  C60  1  0.78868000  0.41734000  0.38253000  1.0
  C  C61  1  0.28868000  0.91734000  0.11747000  1.0
  C  C62  1  0.78869000  0.08267000  0.38253000  1.0
  C  C63  1  0.71131000  0.41734000  0.88253000  1.0
  C  C64  1  0.21132000  0.58266000  0.61747000  1.0
  C  C65  1  0.71132000  0.08266000  0.88253000  1.0
  C  C66  1  0.21131000  0.91733000  0.61747000  1.0
  C  C67  1  0.28869000  0.58266000  0.11747000  1.0
  C  C68  1  0.67046000  0.75000000  0.81497000  1.0
  C  C69  1  0.17047000  0.25000000  0.68503000  1.0
  C  C70  1  0.82953000  0.75000000  0.31497000  1.0
  C  C71  1  0.32954000  0.25000000  0.18503000  1.0
  C  C72  1  0.46033000  0.84685000  0.83459000  1.0
  C  C73  1  0.96033000  0.34685000  0.66540000  1.0
  C  C74  1  0.46033000  0.65315000  0.83459000  1.0
  C  C75  1  0.03966000  0.84685000  0.33460000  1.0
  C  C76  1  0.53967000  0.15315000  0.16541000  1.0
  C  C77  1  0.03967000  0.65315000  0.33460000  1.0
  C  C78  1  0.53967000  0.34684000  0.16541000  1.0
  C  C79  1  0.96033000  0.15315000  0.66541000  1.0
  C  C80  1  0.38129000  0.75000000  0.84386000  1.0
  C  C81  1  0.88130000  0.25000000  0.65613000  1.0
  C  C82  1  0.11870000  0.75000000  0.34388000  1.0
  C  C83  1  0.61871000  0.25000000  0.15614000  1.0
  N  N84  1  0.88749000  0.84738000  0.03585000  1.0
  N  N85  1  0.38748000  0.34738000  0.46414000  1.0
  N  N86  1  0.88748000  0.65263000  0.03586000  1.0
  N  N87  1  0.61252000  0.84737000  0.53586000  1.0
  N  N88  1  0.11252000  0.15262000  0.96415000  1.0
  N  N89  1  0.61252000  0.65262000  0.53585000  1.0
  N  N90  1  0.11252000  0.34737000  0.96414000  1.0
  N  N91  1  0.38748000  0.15263000  0.46414000  1.0
  N  N92  1  0.94642000  0.43497000  0.14444000  1.0
  N  N93  1  0.44642000  0.93497000  0.35556000  1.0
  N  N94  1  0.94642000  0.06503000  0.14445000  1.0
  N  N95  1  0.55358000  0.43497000  0.64444000  1.0
  N  N96  1  0.05358000  0.56503000  0.85556000  1.0
  N  N97  1  0.55358000  0.06503000  0.64444000  1.0
  N  N98  1  0.05358000  0.93497000  0.85555000  1.0
  N  N99  1  0.44642000  0.56503000  0.35555000  1.0
  N  N100  1  0.69457000  0.43378000  0.44233000  1.0
  N  N101  1  0.19457000  0.93378000  0.05767000  1.0
  N  N102  1  0.69458000  0.06623000  0.44233000  1.0
  N  N103  1  0.80543000  0.43377000  0.94233000  1.0
  N  N104  1  0.30543000  0.56622000  0.55767000  1.0
  N  N105  1  0.80543000  0.06622000  0.94233000  1.0
  N  N106  1  0.30542000  0.93377000  0.55767000  1.0
  N  N107  1  0.19457000  0.56622000  0.05767000  1.0
  N  N108  1  0.89798000  0.39076000  0.32561000  1.0
  N  N109  1  0.39798000  0.89076000  0.17439000  1.0
  N  N110  1  0.89799000  0.10924000  0.32562000  1.0
  N  N111  1  0.60202000  0.39076000  0.82561000  1.0
  N  N112  1  0.10202000  0.60924000  0.67439000  1.0
  N  N113  1  0.60202000  0.10924000  0.82561000  1.0
  N  N114  1  0.10201000  0.89076000  0.67438000  1.0
  N  N115  1  0.39798000  0.60924000  0.17439000  1.0
  N  N116  1  0.60551000  0.84799000  0.82018000  1.0
  N  N117  1  0.10551000  0.34799000  0.67981000  1.0
  N  N118  1  0.60551000  0.65201000  0.82018000  1.0
  N  N119  1  0.89448000  0.84799000  0.32018000  1.0
  N  N120  1  0.39449000  0.15201000  0.17982000  1.0
  N  N121  1  0.89449000  0.65201000  0.32019000  1.0
  N  N122  1  0.39449000  0.34799000  0.17982000  1.0
  N  N123  1  0.10551000  0.15201000  0.67982000  1.0
