# generated using pymatgen
data_CdH23C27N6(ClO2)2
_symmetry_space_group_name_H-M   'P 1'
_cell_length_a   8.87514000
_cell_length_b   12.09990000
_cell_length_c   13.06180000
_cell_angle_alpha   78.09760000
_cell_angle_beta   71.56920000
_cell_angle_gamma   85.53000000
_symmetry_Int_Tables_number   1
_chemical_formula_structural   CdH23C27N6(ClO2)2
_chemical_formula_sum   'Cd2 H46 C54 N12 Cl4 O8'
_cell_volume   1302.00274446
_cell_formula_units_Z   2
loop_
 _symmetry_equiv_pos_site_id
 _symmetry_equiv_pos_as_xyz
  1  'x, y, z'
loop_
 _atom_site_type_symbol
 _atom_site_label
 _atom_site_symmetry_multiplicity
 _atom_site_fract_x
 _atom_site_fract_y
 _atom_site_fract_z
 _atom_site_occupancy
  Cd  Cd0  1  0.84279000  0.43106000  0.64486000  1.0
  Cd  Cd1  1  0.15721000  0.56894000  0.35514000  1.0
  H  H2  1  0.77402000  0.49234000  0.85768000  1.0
  H  H3  1  0.22598000  0.50766000  0.14232000  1.0
  H  H4  1  0.61155000  0.45094000  0.84974000  1.0
  H  H5  1  0.38845000  0.54906000  0.15026000  1.0
  H  H6  1  0.81669000  0.23767000  0.84985000  1.0
  H  H7  1  0.18330000  0.76233000  0.15015000  1.0
  H  H8  1  0.47586000  0.12613000  0.77815000  1.0
  H  H9  1  0.52414000  0.87388000  0.22185000  1.0
  H  H10  1  0.20898000  0.34002000  0.58215000  1.0
  H  H11  1  0.79101000  0.65998000  0.41784000  1.0
  H  H12  1  0.05030000  0.81785000  0.87896000  1.0
  H  H13  1  0.94971000  0.18215000  0.12104000  1.0
  H  H14  1  0.37923000  0.18680000  0.64843000  1.0
  H  H15  1  0.62077000  0.81320000  0.35156000  1.0
  H  H16  1  0.97124000  0.08205000  0.93242000  1.0
  H  H17  1  0.02876000  0.91795000  0.06758000  1.0
  H  H18  1  0.26123000  0.78639000  0.50215000  1.0
  H  H19  1  0.73877000  0.21361000  0.49785000  1.0
  H  H20  1  0.73349000  0.08628000  0.72359000  1.0
  H  H21  1  0.26652000  0.91372000  0.27641000  1.0
  H  H22  1  0.96211000  0.96585000  0.75023000  1.0
  H  H23  1  0.03789000  0.03415000  0.24977000  1.0
  H  H24  1  0.64069000  0.73065000  0.00264000  1.0
  H  H25  1  0.35931000  0.26935000  0.99736000  1.0
  H  H26  1  0.41175000  0.85069000  0.97537000  1.0
  H  H27  1  0.58825000  0.14931000  0.02463000  1.0
  H  H28  1  0.22650000  0.73757000  0.92992000  1.0
  H  H29  1  0.77350000  0.26243000  0.07008000  1.0
  H  H30  1  0.47879000  0.63177000  0.91955000  1.0
  H  H31  1  0.52120000  0.36823000  0.08045000  1.0
  H  H32  1  0.33327000  0.36950000  0.81556000  1.0
  H  H33  1  0.66666667  0.63049000  0.18444000  1.0
  H  H34  1  0.06653000  0.46240000  0.82611000  1.0
  H  H35  1  0.93347000  0.53759000  0.17389000  1.0
  H  H36  1  0.79860000  0.69583000  0.67636000  1.0
  H  H37  1  0.20139000  0.30417000  0.32364000  1.0
  H  H38  1  0.53086000  0.48992000  0.58684000  1.0
  H  H39  1  0.46914000  0.51008000  0.41316000  1.0
  H  H40  1  0.33660000  0.64261000  0.56180000  1.0
  H  H41  1  0.66340000  0.35739000  0.43820000  1.0
  H  H42  1  0.61059000  0.86066000  0.65816000  1.0
  H  H43  1  0.38941000  0.13934000  0.34184000  1.0
  H  H44  1  0.20153000  0.07501000  0.56286000  1.0
  H  H45  1  0.79847000  0.92499000  0.43715000  1.0
  H  H46  1  0.01982000  0.80136000  0.47412000  1.0
  H  H47  1  0.98018000  0.19864000  0.52588000  1.0
  C  C48  1  0.94190000  0.22272000  0.80914000  1.0
  C  C49  1  0.05810000  0.77728000  0.19087000  1.0
  C  C50  1  0.16131000  0.28008000  0.65881000  1.0
  C  C51  1  0.83869000  0.71992000  0.34120000  1.0
  C  C52  1  0.25600000  0.19527000  0.69747000  1.0
  C  C53  1  0.74400000  0.80473000  0.30253000  1.0
  C  C54  1  0.18913000  0.12191000  0.79757000  1.0
  C  C55  1  0.81087000  0.87809000  0.20243000  1.0
  C  C56  1  0.02879000  0.13666000  0.85415000  1.0
  C  C57  1  0.97121000  0.86334000  0.14585000  1.0
  C  C58  1  0.28065000  0.02581000  0.84422000  1.0
  C  C59  1  0.71935000  0.97419000  0.15577000  1.0
  C  C60  1  0.55775000  0.97517000  0.84607000  1.0
  C  C61  1  0.44225000  0.02483000  0.15393000  1.0
  C  C62  1  0.71384000  0.00808000  0.78458000  1.0
  C  C63  1  0.28617000  0.99192000  0.21542000  1.0
  C  C64  1  0.84164000  0.94122000  0.80032000  1.0
  C  C65  1  0.15836000  0.05878000  0.19968000  1.0
  C  C66  1  0.81635000  0.84041000  0.87790000  1.0
  C  C67  1  0.18365000  0.15959000  0.12211000  1.0
  C  C68  1  0.66112000  0.80819000  0.94107000  1.0
  C  C69  1  0.33888000  0.19181000  0.05893000  1.0
  C  C70  1  0.53197000  0.87512000  0.92564000  1.0
  C  C71  1  0.46803000  0.12487000  0.07435000  1.0
  C  C72  1  0.96510000  0.66199000  0.88353000  1.0
  C  C73  1  0.03490000  0.33801000  0.11647000  1.0
  C  C74  1  0.12350000  0.60717000  0.87956000  1.0
  C  C75  1  0.87650000  0.39283000  0.12044000  1.0
  C  C76  1  0.24168000  0.65561000  0.90532000  1.0
  C  C77  1  0.75832000  0.34439000  0.09468000  1.0
  C  C78  1  0.38453000  0.59663000  0.89939000  1.0
  C  C79  1  0.61547000  0.40337000  0.10061000  1.0
  C  C80  1  0.30213000  0.45002000  0.84298000  1.0
  C  C81  1  0.69787000  0.54998000  0.15702000  1.0
  C  C82  1  0.15517000  0.50176000  0.84799000  1.0
  C  C83  1  0.84483000  0.49824000  0.15201000  1.0
  C  C84  1  0.69507000  0.68914000  0.65032000  1.0
  C  C85  1  0.30493000  0.31086000  0.34968000  1.0
  C  C86  1  0.54629000  0.57465000  0.59850000  1.0
  C  C87  1  0.45371000  0.42535000  0.40150000  1.0
  C  C88  1  0.43838000  0.66146000  0.58463000  1.0
  C  C89  1  0.56162000  0.33854000  0.41537000  1.0
  C  C90  1  0.46196000  0.76743000  0.60399000  1.0
  C  C91  1  0.53804000  0.23257000  0.39601000  1.0
  C  C92  1  0.59168000  0.78013000  0.63955000  1.0
  C  C93  1  0.40832000  0.21987000  0.36045000  1.0
  C  C94  1  0.35263000  0.86727000  0.59229000  1.0
  C  C95  1  0.64737000  0.13273000  0.40771000  1.0
  C  C96  1  0.12590000  0.93037000  0.52001000  1.0
  C  C97  1  0.87410000  0.06963000  0.47999000  1.0
  C  C98  1  0.11320000  0.04260000  0.53564000  1.0
  C  C99  1  0.88680000  0.95740000  0.46436000  1.0
  C  C100  1  0.01144000  0.88906000  0.48438000  1.0
  C  C101  1  0.98856000  0.11094000  0.51563000  1.0
  N  N102  1  0.00674000  0.29329000  0.71312000  1.0
  N  N103  1  0.99326000  0.70671000  0.28688000  1.0
  N  N104  1  0.43626000  0.04779000  0.82317000  1.0
  N  N105  1  0.56374000  0.95221000  0.17683000  1.0
  N  N106  1  0.95140000  0.77390000  0.88811000  1.0
  N  N107  1  0.04860000  0.22610000  0.11189000  1.0
  N  N108  1  0.41529000  0.49595000  0.86886000  1.0
  N  N109  1  0.58471000  0.50405000  0.13114000  1.0
  N  N110  1  0.67354000  0.58837000  0.62897000  1.0
  N  N111  1  0.32646000  0.41163000  0.37103000  1.0
  N  N112  1  0.24861000  0.85612000  0.53731000  1.0
  N  N113  1  0.75139000  0.14388000  0.46269000  1.0
  Cl  Cl114  1  0.92113000  0.42202000  0.42850000  1.0
  Cl  Cl115  1  0.07887000  0.57798000  0.57150000  1.0
  Cl  Cl116  1  0.62123000  0.28515000  0.67526000  1.0
  Cl  Cl117  1  0.37877000  0.71485000  0.32473000  1.0
  O  O118  1  0.21359000  0.93576000  0.89832000  1.0
  O  O119  1  0.78641000  0.06424000  0.10167000  1.0
  O  O120  1  0.72796000  0.43164000  0.83713000  1.0
  O  O121  1  0.27204000  0.56836000  0.16287000  1.0
  O  O122  1  0.85260000  0.60818000  0.88128000  1.0
  O  O123  1  0.14740000  0.39182000  0.11872000  1.0
  O  O124  1  0.35857000  0.95088000  0.63215000  1.0
  O  O125  1  0.64143000  0.04912000  0.36785000  1.0
