# generated using pymatgen
data_Ag5H12C22N2(O5F6)2
_symmetry_space_group_name_H-M   'P 1'
_cell_length_a   11.30870000
_cell_length_b   11.62490000
_cell_length_c   14.12650000
_cell_angle_alpha   96.22170000
_cell_angle_beta   105.28700000
_cell_angle_gamma   116.02500000
_symmetry_Int_Tables_number   1
_chemical_formula_structural   Ag5H12C22N2(O5F6)2
_chemical_formula_sum   'Ag10 H24 C44 N4 O20 F24'
_cell_volume   1555.04548617
_cell_formula_units_Z   2
loop_
 _symmetry_equiv_pos_site_id
 _symmetry_equiv_pos_as_xyz
  1  'x, y, z'
loop_
 _atom_site_type_symbol
 _atom_site_label
 _atom_site_symmetry_multiplicity
 _atom_site_fract_x
 _atom_site_fract_y
 _atom_site_fract_z
 _atom_site_occupancy
  Ag  Ag0  1  0.82048000  0.47729000  0.57791000  1.0
  Ag  Ag1  1  0.17952000  0.52271000  0.42208000  1.0
  Ag  Ag2  1  0.58414000  0.44321000  0.41311000  1.0
  Ag  Ag3  1  0.41586000  0.55678000  0.58689000  1.0
  Ag  Ag4  1  0.94443000  0.36092000  0.48383000  1.0
  Ag  Ag5  1  0.05557000  0.63908000  0.51617000  1.0
  Ag  Ag6  1  0.64984000  0.22284000  0.43158000  1.0
  Ag  Ag7  1  0.35016000  0.77716000  0.56842000  1.0
  Ag  Ag8  1  0.56808000  0.03280000  0.80128000  1.0
  Ag  Ag9  1  0.43192000  0.96720000  0.19872000  1.0
  H  H10  1  0.74038000  0.68011000  0.65259000  1.0
  H  H11  1  0.25962000  0.31988000  0.34741000  1.0
  H  H12  1  0.88541000  0.74220000  0.63256000  1.0
  H  H13  1  0.11459000  0.25780000  0.36744000  1.0
  H  H14  1  0.38036000  0.97133000  0.39472000  1.0
  H  H15  1  0.61964000  0.02866000  0.60528000  1.0
  H  H16  1  0.48934000  0.92373000  0.39739000  1.0
  H  H17  1  0.51066000  0.07627000  0.60261000  1.0
  H  H18  1  0.80109000  0.68129000  0.27152000  1.0
  H  H19  1  0.19891000  0.31871000  0.72848000  1.0
  H  H20  1  0.75696000  0.69673000  0.09268000  1.0
  H  H21  1  0.24304000  0.30327000  0.90732000  1.0
  H  H22  1  0.67627000  0.49739000  0.95351000  1.0
  H  H23  1  0.32373000  0.50262000  0.04649000  1.0
  H  H24  1  0.67222000  0.26639000  0.17392000  1.0
  H  H25  1  0.32778000  0.73361000  0.82608000  1.0
  H  H26  1  0.92593000  0.67653000  0.77938000  1.0
  H  H27  1  0.07407000  0.32347000  0.22062000  1.0
  H  H28  1  0.01464000  0.70007000  0.96288000  1.0
  H  H29  1  0.98536000  0.29993000  0.03712000  1.0
  H  H30  1  0.91498000  0.28808000  0.89027000  1.0
  H  H31  1  0.08503000  0.71192000  0.10973000  1.0
  H  H32  1  0.82740000  0.28246000  0.70970000  1.0
  H  H33  1  0.17260000  0.71754000  0.29031000  1.0
  C  C34  1  0.79882000  0.44383000  0.42328000  1.0
  C  C35  1  0.20118000  0.55618000  0.57672000  1.0
  C  C36  1  0.75913000  0.46248000  0.33694000  1.0
  C  C37  1  0.24087000  0.53752000  0.66306000  1.0
  C  C38  1  0.73746000  0.47318000  0.23477000  1.0
  C  C39  1  0.26254000  0.52683000  0.76523000  1.0
  C  C40  1  0.76224000  0.59441000  0.21050000  1.0
  C  C41  1  0.23776000  0.40559000  0.78949000  1.0
  C  C42  1  0.73878000  0.60267000  0.11018000  1.0
  C  C43  1  0.26122000  0.39734000  0.88982000  1.0
  C  C44  1  0.69402000  0.49244000  0.03230000  1.0
  C  C45  1  0.30598000  0.50757000  0.96770000  1.0
  C  C46  1  0.67393000  0.37311000  0.05732000  1.0
  C  C47  1  0.32607000  0.62690000  0.94268000  1.0
  C  C48  1  0.69227000  0.36091000  0.15687000  1.0
  C  C49  1  0.30773000  0.63910000  0.84313000  1.0
  C  C50  1  0.61915000  0.17950000  0.91764000  1.0
  C  C51  1  0.38085000  0.82050000  0.08236000  1.0
  C  C52  1  0.92521000  0.59300000  0.80757000  1.0
  C  C53  1  0.07479000  0.40701000  0.19243000  1.0
  C  C54  1  0.97507000  0.60477000  0.91089000  1.0
  C  C55  1  0.02494000  0.39523000  0.08911000  1.0
  C  C56  1  0.97370000  0.49557000  0.94528000  1.0
  C  C57  1  0.02631000  0.50444000  0.05472000  1.0
  C  C58  1  0.91975000  0.37763000  0.87081000  1.0
  C  C59  1  0.08026000  0.62238000  0.12919000  1.0
  C  C60  1  0.87106000  0.37313000  0.76876000  1.0
  C  C61  1  0.12894000  0.62687000  0.23124000  1.0
  C  C62  1  0.36240000  0.21853000  0.22199000  1.0
  C  C63  1  0.63760000  0.78147000  0.77801000  1.0
  C  C64  1  0.24920000  0.15264000  0.11302000  1.0
  C  C65  1  0.75080000  0.84736000  0.88698000  1.0
  C  C66  1  0.48286000  0.29269000  0.57639000  1.0
  C  C67  1  0.51714000  0.70730000  0.42361000  1.0
  C  C68  1  0.39773000  0.25919000  0.64906000  1.0
  C  C69  1  0.60227000  0.74080000  0.35094000  1.0
  C  C70  1  0.87552000  0.13389000  0.58634000  1.0
  C  C71  1  0.12448000  0.86610000  0.41366000  1.0
  C  C72  1  0.90753000  0.04633000  0.65370000  1.0
  C  C73  1  0.09246000  0.95366000  0.34630000  1.0
  C  C74  1  0.80749000  0.13795000  0.27663000  1.0
  C  C75  1  0.19252000  0.86205000  0.72338000  1.0
  C  C76  1  0.79759000  0.05276000  0.17820000  1.0
  C  C77  1  0.20241000  0.94725000  0.82180000  1.0
  N  N78  1  0.63973000  0.26633000  0.98188000  1.0
  N  N79  1  0.36027000  0.73368000  0.01811000  1.0
  N  N80  1  0.87420000  0.47934000  0.73703000  1.0
  N  N81  1  0.12580000  0.52067000  0.26297000  1.0
  O  O82  1  0.78752000  0.67016000  0.60539000  1.0
  O  O83  1  0.21248000  0.32984000  0.39461000  1.0
  O  O84  1  0.36906000  0.31973000  0.27125000  1.0
  O  O85  1  0.63094000  0.68027000  0.72875000  1.0
  O  O86  1  0.43984000  0.16757000  0.24760000  1.0
  O  O87  1  0.56016000  0.83243000  0.75240000  1.0
  O  O88  1  0.46078000  0.98721000  0.37142000  1.0
  O  O89  1  0.53922000  0.01279000  0.62859000  1.0
  O  O90  1  0.50477000  0.39951000  0.55170000  1.0
  O  O91  1  0.49523000  0.60048000  0.44830000  1.0
  O  O92  1  0.52103000  0.21131000  0.55082000  1.0
  O  O93  1  0.47897000  0.78869000  0.44919000  1.0
  O  O94  1  0.98169000  0.22193000  0.57470000  1.0
  O  O95  1  0.01831000  0.77807000  0.42530000  1.0
  O  O96  1  0.75000000  0.11081000  0.55556000  1.0
  O  O97  1  0.25000000  0.88918000  0.44444000  1.0
  O  O98  1  0.92945000  0.21673000  0.33851000  1.0
  O  O99  1  0.07056000  0.78327000  0.66149000  1.0
  O  O100  1  0.69205000  0.12133000  0.28175000  1.0
  O  O101  1  0.30795000  0.87867000  0.71825000  1.0
  F  F102  1  0.17512000  0.01830000  0.09431000  1.0
  F  F103  1  0.82488000  0.98170000  0.90569000  1.0
  F  F104  1  0.31419000  0.18045000  0.04274000  1.0
  F  F105  1  0.68580000  0.81955000  0.95726000  1.0
  F  F106  1  0.15491000  0.19750000  0.09491000  1.0
  F  F107  1  0.84509000  0.80250000  0.90509000  1.0
  F  F108  1  0.27224000  0.25438000  0.60823000  1.0
  F  F109  1  0.72776000  0.74561000  0.39177000  1.0
  F  F110  1  0.37143000  0.14083000  0.66947000  1.0
  F  F111  1  0.62857000  0.85916000  0.33053000  1.0
  F  F112  1  0.47008000  0.35385000  0.74005000  1.0
  F  F113  1  0.52992000  0.64614000  0.25995000  1.0
  F  F114  1  0.79019000  0.93226000  0.64335000  1.0
  F  F115  1  0.20981000  0.06774000  0.35664000  1.0
  F  F116  1  0.00099000  0.01326000  0.63400000  1.0
  F  F117  1  0.99900000  0.98674000  0.36600000  1.0
  F  F118  1  0.96358000  0.11530000  0.75427000  1.0
  F  F119  1  0.03641000  0.88470000  0.24573000  1.0
  F  F120  1  0.72405000  0.92075000  0.16931000  1.0
  F  F121  1  0.27596000  0.07925000  0.83069000  1.0
  F  F122  1  0.92527000  0.07909000  0.17332000  1.0
  F  F123  1  0.07473000  0.92091000  0.82668000  1.0
  F  F124  1  0.72985000  0.07848000  0.09431000  1.0
  F  F125  1  0.27015000  0.92152000  0.90569000  1.0
