# generated using pymatgen
data_AgH6C10SN2O3
_symmetry_space_group_name_H-M   'P 1'
_cell_length_a   8.26880000
_cell_length_b   11.13860000
_cell_length_c   11.41680000
_cell_angle_alpha   89.44200000
_cell_angle_beta   77.97260000
_cell_angle_gamma   79.22390000
_symmetry_Int_Tables_number   1
_chemical_formula_structural   AgH6C10SN2O3
_chemical_formula_sum   'Ag4 H24 C40 S4 N8 O12'
_cell_volume   1009.83344158
_cell_formula_units_Z   4
loop_
 _symmetry_equiv_pos_site_id
 _symmetry_equiv_pos_as_xyz
  1  'x, y, z'
loop_
 _atom_site_type_symbol
 _atom_site_label
 _atom_site_symmetry_multiplicity
 _atom_site_fract_x
 _atom_site_fract_y
 _atom_site_fract_z
 _atom_site_occupancy
  Ag  Ag0  1  0.44838000  0.34032000  0.46428000  1.0
  Ag  Ag1  1  0.55162000  0.65968000  0.53572000  1.0
  Ag  Ag2  1  0.24007000  0.58109000  0.45094000  1.0
  Ag  Ag3  1  0.75993000  0.41891000  0.54906000  1.0
  H  H4  1  0.56583000  0.88655000  0.66710000  1.0
  H  H5  1  0.43417000  0.11345000  0.33290000  1.0
  H  H6  1  0.50171000  0.98016000  0.86935000  1.0
  H  H7  1  0.49829000  0.01984000  0.13065000  1.0
  H  H8  1  0.38137000  0.85783000  0.04670000  1.0
  H  H9  1  0.61863000  0.14216000  0.95330000  1.0
  H  H10  1  0.33889000  0.64933000  0.00567000  1.0
  H  H11  1  0.66111000  0.35066000  0.99433000  1.0
  H  H12  1  0.21499000  0.13204000  0.87149000  1.0
  H  H13  1  0.78501000  0.86796000  0.12852000  1.0
  H  H14  1  0.11642000  0.02602000  0.05510000  1.0
  H  H15  1  0.88357000  0.97398000  0.94490000  1.0
  H  H16  1  0.05472000  0.13281000  0.25412000  1.0
  H  H17  1  0.94528000  0.86719000  0.74588000  1.0
  H  H18  1  0.18482000  0.45787000  0.08303000  1.0
  H  H19  1  0.81518000  0.54213000  0.91697000  1.0
  H  H20  1  0.96192000  0.32699000  0.76489000  1.0
  H  H21  1  0.03809000  0.67301000  0.23512000  1.0
  H  H22  1  0.02222000  0.97646000  0.58882000  1.0
  H  H23  1  0.97778000  0.02354000  0.41118000  1.0
  H  H24  1  0.32981000  0.95979000  0.54112000  1.0
  H  H25  1  0.67019000  0.04021000  0.45889000  1.0
  H  H26  1  0.45991000  0.12621000  0.61053000  1.0
  H  H27  1  0.54010000  0.87379000  0.38947000  1.0
  C  C28  1  0.50994000  0.83777000  0.74338000  1.0
  C  C29  1  0.49006000  0.16223000  0.25662000  1.0
  C  C30  1  0.47403000  0.88974000  0.85863000  1.0
  C  C31  1  0.52597000  0.11026000  0.14137000  1.0
  C  C32  1  0.40957000  0.82254000  0.95456000  1.0
  C  C33  1  0.59042000  0.17746000  0.04544000  1.0
  C  C34  1  0.38467000  0.70527000  0.93216000  1.0
  C  C35  1  0.61533000  0.29473000  0.06783000  1.0
  C  C36  1  0.42143000  0.65946000  0.81407000  1.0
  C  C37  1  0.57857000  0.34054000  0.18593000  1.0
  C  C38  1  0.39236000  0.53586000  0.78912000  1.0
  C  C39  1  0.60764000  0.46414000  0.21088000  1.0
  C  C40  1  0.29256000  0.33382000  0.73509000  1.0
  C  C41  1  0.70744000  0.66618000  0.26491000  1.0
  C  C42  1  0.26712000  0.37318000  0.85763000  1.0
  C  C43  1  0.73289000  0.62681000  0.14237000  1.0
  C  C44  1  0.20228000  0.30481000  0.96292000  1.0
  C  C45  1  0.79772000  0.69519000  0.03708000  1.0
  C  C46  1  0.18350000  0.18196000  0.95692000  1.0
  C  C47  1  0.81649000  0.81804000  0.04308000  1.0
  C  C48  1  0.12810000  0.12159000  0.06083000  1.0
  C  C49  1  0.87189000  0.87841000  0.93917000  1.0
  C  C50  1  0.09259000  0.18097000  0.17271000  1.0
  C  C51  1  0.90741000  0.81903000  0.82729000  1.0
  C  C52  1  0.11430000  0.30201000  0.17902000  1.0
  C  C53  1  0.88570000  0.69799000  0.82098000  1.0
  C  C54  1  0.16692000  0.36414000  0.07621000  1.0
  C  C55  1  0.83308000  0.63586000  0.92379000  1.0
  C  C56  1  0.21946000  0.23653000  0.69188000  1.0
  C  C57  1  0.78054000  0.76347000  0.30812000  1.0
  C  C58  1  0.04410000  0.24661000  0.71739000  1.0
  C  C59  1  0.95590000  0.75339000  0.28261000  1.0
  C  C60  1  0.97485000  0.15376000  0.67822000  1.0
  C  C61  1  0.02515000  0.84624000  0.32178000  1.0
  C  C62  1  0.07778000  0.04970000  0.61683000  1.0
  C  C63  1  0.92222000  0.95031000  0.38317000  1.0
  C  C64  1  0.25186000  0.04087000  0.59024000  1.0
  C  C65  1  0.74814000  0.95913000  0.40976000  1.0
  C  C66  1  0.32356000  0.13451000  0.62640000  1.0
  C  C67  1  0.67644000  0.86549000  0.37361000  1.0
  S  S68  1  0.07396000  0.37794000  0.32173000  1.0
  S  S69  1  0.92604000  0.62206000  0.67827000  1.0
  S  S70  1  0.75170000  0.17450000  0.69567000  1.0
  S  S71  1  0.24830000  0.82551000  0.30434000  1.0
  N  N72  1  0.48195000  0.72613000  0.72081000  1.0
  N  N73  1  0.51806000  0.27387000  0.27919000  1.0
  N  N74  1  0.45298000  0.48503000  0.67847000  1.0
  N  N75  1  0.54702000  0.51497000  0.32153000  1.0
  N  N76  1  0.39138000  0.38871000  0.65221000  1.0
  N  N77  1  0.60863000  0.61129000  0.34779000  1.0
  N  N78  1  0.30876000  0.47967000  0.87914000  1.0
  N  N79  1  0.69124000  0.52033000  0.12086000  1.0
  O  O80  1  0.13346000  0.29075000  0.40670000  1.0
  O  O81  1  0.86654000  0.70925000  0.59330000  1.0
  O  O82  1  0.16451000  0.48130000  0.29893000  1.0
  O  O83  1  0.83549000  0.51870000  0.70106000  1.0
  O  O84  1  0.88827000  0.41974000  0.35024000  1.0
  O  O85  1  0.11173000  0.58026000  0.64976000  1.0
  O  O86  1  0.67848000  0.27328000  0.78538000  1.0
  O  O87  1  0.32152000  0.72672000  0.21462000  1.0
  O  O88  1  0.70443000  0.05656000  0.72832000  1.0
  O  O89  1  0.29556000  0.94344000  0.27169000  1.0
  O  O90  1  0.72481000  0.20944000  0.57343000  1.0
  O  O91  1  0.27520000  0.79056000  0.42657000  1.0
