# generated using pymatgen
data_Zn4H23C46N4O18F5
_symmetry_space_group_name_H-M   'P 1'
_cell_length_a   9.62991000
_cell_length_b   11.08820000
_cell_length_c   26.56960000
_cell_angle_alpha   90.17980000
_cell_angle_beta   89.51110000
_cell_angle_gamma   89.91690000
_symmetry_Int_Tables_number   1
_chemical_formula_structural   Zn4H23C46N4O18F5
_chemical_formula_sum   'Zn4 H23 C46 N4 O18 F5'
_cell_volume   2836.93818066
_cell_formula_units_Z   1
loop_
 _symmetry_equiv_pos_site_id
 _symmetry_equiv_pos_as_xyz
  1  'x, y, z'
loop_
 _atom_site_type_symbol
 _atom_site_label
 _atom_site_symmetry_multiplicity
 _atom_site_fract_x
 _atom_site_fract_y
 _atom_site_fract_z
 _atom_site_occupancy
  Zn  Zn0  1  0.64098000  0.49685000  0.49944000  1.0
  Zn  Zn1  1  0.35916000  0.50204000  0.49894000  1.0
  Zn  Zn2  1  0.35951000  0.49986000  0.08333000  1.0
  Zn  Zn3  1  0.64107000  0.50421000  0.08163000  1.0
  H  H4  1  0.12764000  0.63551000  0.55433000  1.0
  H  H5  1  0.14245000  0.36421000  0.44584000  1.0
  H  H6  1  0.86049000  0.63102000  0.55219000  1.0
  H  H7  1  0.72327000  0.89181000  0.49990000  1.0
  H  H8  1  0.27676000  0.88217000  0.49923000  1.0
  H  H9  1  0.71370000  0.11832000  0.49974000  1.0
  H  H10  1  0.72476000  0.50059000  0.66035000  1.0
  H  H11  1  0.27390000  0.50164000  0.92143000  1.0
  H  H12  1  0.71820000  0.50193000  0.92033000  1.0
  H  H13  1  0.71794000  0.50095000  0.82836000  1.0
  H  H14  1  0.28051000  0.50100000  0.66130000  1.0
  H  H15  1  0.28062000  0.50074000  0.75330000  1.0
  H  H16  1  0.28120000  0.50201000  0.24359000  1.0
  H  H17  1  0.72798000  0.50428000  0.24361000  1.0
  H  H18  1  0.28166000  0.50177000  0.33815000  1.0
  H  H19  1  0.87329000  0.63667000  0.02678000  1.0
  H  H20  1  0.85699000  0.36678000  0.13512000  1.0
  H  H21  1  0.14039000  0.63226000  0.02967000  1.0
  H  H22  1  0.27658000  0.89484000  0.08174000  1.0
  H  H23  1  0.72310000  0.88433000  0.08229000  1.0
  H  H24  1  0.28601000  0.12131000  0.08173000  1.0
  H  H25  1  0.82675000  0.49775000  0.72989000  1.0
  H  H26  1  0.17183000  0.49847000  0.85187000  1.0
  C  C27  1  0.50369000  0.73728000  0.50029000  1.0
  C  C28  1  0.50547000  0.50232000  0.59811000  1.0
  C  C29  1  0.49408000  0.26311000  0.49938000  1.0
  C  C30  1  0.49549000  0.50156000  0.40056000  1.0
  C  C31  1  0.49668000  0.73987000  0.08167000  1.0
  C  C32  1  0.49413000  0.50392000  0.98360000  1.0
  C  C33  1  0.50585000  0.26563000  0.08213000  1.0
  C  C34  1  0.50640000  0.50372000  0.18121000  1.0
  C  C35  1  0.93481000  0.42399000  0.46890000  1.0
  C  C36  1  0.06971000  0.57507000  0.52988000  1.0
  C  C37  1  0.07983000  0.42425000  0.46935000  1.0
  C  C38  1  0.92565000  0.57275000  0.52876000  1.0
  C  C39  1  0.49211000  0.12782000  0.49943000  1.0
  C  C40  1  0.50099000  0.87269000  0.50003000  1.0
  C  C41  1  0.37040000  0.05808000  0.49918000  1.0
  C  C42  1  0.62439000  0.93956000  0.49997000  1.0
  C  C43  1  0.37337000  0.93298000  0.49956000  1.0
  C  C44  1  0.61900000  0.06471000  0.49975000  1.0
  C  C45  1  0.50314000  0.50185000  0.65434000  1.0
  C  C46  1  0.49561000  0.50296000  0.92740000  1.0
  C  C47  1  0.62658000  0.50114000  0.68130000  1.0
  C  C48  1  0.62820000  0.50041000  0.73381000  1.0
  C  C49  1  0.37210000  0.50207000  0.90049000  1.0
  C  C50  1  0.37041000  0.50093000  0.84796000  1.0
  C  C51  1  0.62028000  0.50229000  0.90014000  1.0
  C  C52  1  0.61902000  0.50148000  0.84795000  1.0
  C  C53  1  0.37838000  0.50145000  0.68153000  1.0
  C  C54  1  0.37955000  0.50106000  0.73373000  1.0
  C  C55  1  0.50237000  0.50080000  0.76287000  1.0
  C  C56  1  0.49613000  0.50104000  0.81883000  1.0
  C  C57  1  0.50278000  0.50221000  0.34413000  1.0
  C  C58  1  0.50421000  0.50323000  0.23765000  1.0
  C  C59  1  0.62736000  0.50284000  0.31616000  1.0
  C  C60  1  0.37811000  0.50242000  0.26440000  1.0
  C  C61  1  0.62935000  0.50347000  0.26391000  1.0
  C  C62  1  0.37851000  0.50207000  0.31666000  1.0
  C  C63  1  0.06490000  0.42699000  0.11294000  1.0
  C  C64  1  0.93089000  0.57655000  0.05137000  1.0
  C  C65  1  0.91996000  0.42662000  0.11186000  1.0
  C  C66  1  0.07495000  0.57446000  0.05296000  1.0
  C  C67  1  0.50758000  0.13038000  0.08192000  1.0
  C  C68  1  0.49888000  0.87526000  0.08165000  1.0
  C  C69  1  0.62934000  0.06041000  0.08210000  1.0
  C  C70  1  0.37545000  0.94237000  0.08162000  1.0
  C  C71  1  0.62647000  0.93531000  0.08193000  1.0
  C  C72  1  0.38074000  0.06751000  0.08171000  1.0
  N  N73  1  0.85871000  0.49622000  0.49782000  1.0
  N  N74  1  0.14443000  0.50075000  0.50008000  1.0
  N  N75  1  0.14144000  0.49881000  0.08428000  1.0
  N  N76  1  0.85581000  0.50257000  0.08090000  1.0
  O  O77  1  0.62165000  0.68546000  0.50108000  1.0
  O  O78  1  0.38598000  0.68446000  0.49959000  1.0
  O  O79  1  0.38866000  0.50096000  0.57585000  1.0
  O  O80  1  0.62434000  0.50381000  0.57638000  1.0
  O  O81  1  0.37866000  0.31858000  0.49612000  1.0
  O  O82  1  0.61286000  0.31286000  0.50262000  1.0
  O  O83  1  0.60986000  0.50053000  0.42425000  1.0
  O  O84  1  0.37500000  0.50205000  0.42074000  1.0
  O  O85  1  0.37885000  0.68783000  0.08176000  1.0
  O  O86  1  0.61456000  0.68717000  0.08170000  1.0
  O  O87  1  0.61174000  0.50323000  0.00536000  1.0
  O  O88  1  0.37606000  0.50512000  0.00594000  1.0
  O  O89  1  0.62169000  0.32050000  0.08395000  1.0
  O  O90  1  0.38691000  0.31599000  0.08050000  1.0
  O  O91  1  0.38917000  0.50397000  0.15924000  1.0
  O  O92  1  0.62465000  0.50376000  0.15935000  1.0
  O  O93  1  0.75651000  0.49917000  0.75650000  1.0
  O  O94  1  0.24212000  0.49952000  0.82528000  1.0
  F  F95  1  0.86860000  0.34829000  0.43850000  1.0
  F  F96  1  0.24257000  0.11077000  0.49868000  1.0
  F  F97  1  0.75295000  0.50299000  0.33915000  1.0
  F  F98  1  0.13071000  0.35263000  0.14400000  1.0
  F  F99  1  0.75719000  0.11272000  0.08250000  1.0
