# generated using pymatgen
data_Al4H13C39N3O20
_symmetry_space_group_name_H-M   'P 1'
_cell_length_a   6.68633000
_cell_length_b   16.67090000
_cell_length_c   18.60660000
_cell_angle_alpha   74.30960000
_cell_angle_beta   89.70250000
_cell_angle_gamma   89.74960000
_symmetry_Int_Tables_number   1
_chemical_formula_structural   Al4H13C39N3O20
_chemical_formula_sum   'Al4 H13 C39 N3 O20'
_cell_volume   1996.70384831
_cell_formula_units_Z   1
loop_
 _symmetry_equiv_pos_site_id
 _symmetry_equiv_pos_as_xyz
  1  'x, y, z'
loop_
 _atom_site_type_symbol
 _atom_site_label
 _atom_site_symmetry_multiplicity
 _atom_site_fract_x
 _atom_site_fract_y
 _atom_site_fract_z
 _atom_site_occupancy
  Al  Al0  1  0.11196000  0.50264000  0.50270000  1.0
  Al  Al1  1  0.61056000  0.50295000  0.50002000  1.0
  Al  Al2  1  0.62451000  0.00127000  0.99786000  1.0
  Al  Al3  1  0.12624000  0.00315000  0.99890000  1.0
  H  H4  1  0.59177000  0.64290000  0.26809000  1.0
  H  H5  1  0.19175000  0.89259000  0.27162000  1.0
  H  H6  1  0.33902000  0.84806000  0.21134000  1.0
  H  H7  1  0.34583000  0.71116000  0.30683000  1.0
  H  H8  1  0.08744000  0.35403000  0.73027000  1.0
  H  H9  1  0.09887000  0.23579000  0.84551000  1.0
  H  H10  1  0.71898000  0.22734000  0.62298000  1.0
  H  H11  1  0.85080000  0.29374000  0.66728000  1.0
  H  H12  1  0.86225000  0.17917000  0.78613000  1.0
  H  H13  1  0.35879000  0.60971000  0.49675000  1.0
  H  H14  1  0.86373000  0.40323000  0.48972000  1.0
  H  H15  1  0.37315000  0.89149000  0.02713000  1.0
  H  H16  1  0.86986000  0.09871000  0.01704000  1.0
  C  C17  1  0.36267000  0.41144000  0.41890000  1.0
  C  C18  1  0.36208000  0.39325000  0.61670000  1.0
  C  C19  1  0.85724000  0.59216000  0.58322000  1.0
  C  C20  1  0.86367000  0.60906000  0.38283000  1.0
  C  C21  1  0.02572000  0.73216000  0.29264000  1.0
  C  C22  1  0.86969000  0.67546000  0.31068000  1.0
  C  C23  1  0.71453000  0.68741000  0.25825000  1.0
  C  C24  1  0.71594000  0.75426000  0.19300000  1.0
  C  C25  1  0.87187000  0.81463000  0.17804000  1.0
  C  C26  1  0.02463000  0.80083000  0.23021000  1.0
  C  C27  1  0.21576000  0.83699000  0.25176000  1.0
  C  C28  1  0.23016000  0.75339000  0.31816000  1.0
  C  C29  1  0.88539000  0.86480000  0.86385000  1.0
  C  C30  1  0.88063000  0.82051000  0.82096000  1.0
  C  C31  1  0.87397000  0.77296000  0.77337000  1.0
  C  C32  1  0.86670000  0.72978000  0.72905000  1.0
  C  C33  1  0.86045000  0.68352000  0.68035000  1.0
  C  C34  1  0.85549000  0.64144000  0.63554000  1.0
  C  C35  1  0.36051000  0.36007000  0.36799000  1.0
  C  C36  1  0.36150000  0.31667000  0.32425000  1.0
  C  C37  1  0.36374000  0.26946000  0.27626000  1.0
  C  C38  1  0.36689000  0.22626000  0.23192000  1.0
  C  C39  1  0.36989000  0.17953000  0.18353000  1.0
  C  C40  1  0.37247000  0.13693000  0.13913000  1.0
  C  C41  1  0.53289000  0.27079000  0.70394000  1.0
  C  C42  1  0.37110000  0.32564000  0.68749000  1.0
  C  C43  1  0.21482000  0.31148000  0.74051000  1.0
  C  C44  1  0.22075000  0.24510000  0.80498000  1.0
  C  C45  1  0.38253000  0.18851000  0.82034000  1.0
  C  C46  1  0.53774000  0.20462000  0.76833000  1.0
  C  C47  1  0.74044000  0.17308000  0.74852000  1.0
  C  C48  1  0.72989000  0.24800000  0.67404000  1.0
  C  C49  1  0.38356000  0.11685000  0.88823000  1.0
  C  C50  1  0.36933000  0.08813000  0.08598000  1.0
  C  C51  1  0.87018000  0.88768000  0.11080000  1.0
  C  C52  1  0.88487000  0.91708000  0.91375000  1.0
  C  C53  1  0.55525000  0.75972000  0.14147000  1.0
  C  C54  1  0.25681000  0.75668000  0.39454000  1.0
  C  C55  1  0.74627000  0.09009000  0.73782000  1.0
  N  N56  1  0.42068000  0.76202000  0.10112000  1.0
  N  N57  1  0.28217000  0.75561000  0.45678000  1.0
  N  N58  1  0.75048000  0.02429000  0.72720000  1.0
  O  O59  1  0.52977000  0.41658000  0.58531000  1.0
  O  O60  1  0.19345000  0.42992000  0.44191000  1.0
  O  O61  1  0.03279000  0.58595000  0.41225000  1.0
  O  O62  1  0.19013000  0.42028000  0.59227000  1.0
  O  O63  1  0.02853000  0.57213000  0.56312000  1.0
  O  O64  1  0.53397000  0.43318000  0.43628000  1.0
  O  O65  1  0.36081000  0.55317000  0.49135000  1.0
  O  O66  1  0.68858000  0.57265000  0.56115000  1.0
  O  O67  1  0.69160000  0.58467000  0.40877000  1.0
  O  O68  1  0.86202000  0.45245000  0.50808000  1.0
  O  O69  1  0.19778000  0.06331000  0.07189000  1.0
  O  O70  1  0.55215000  0.08257000  0.90830000  1.0
  O  O71  1  0.71588000  0.92924000  0.94105000  1.0
  O  O72  1  0.53696000  0.07551000  0.05802000  1.0
  O  O73  1  0.69972000  0.91854000  0.08905000  1.0
  O  O74  1  0.21697000  0.09634000  0.92149000  1.0
  O  O75  1  0.37481000  0.95205000  0.00810000  1.0
  O  O76  1  0.03966000  0.91136000  0.08197000  1.0
  O  O77  1  0.05265000  0.94564000  0.92739000  1.0
  O  O78  1  0.87404000  0.05263000  0.99443000  1.0
