# generated using pymatgen
data_CuSiH16C24N4(O2F3)2
_symmetry_space_group_name_H-M   'P 1'
_cell_length_a   7.98107000
_cell_length_b   13.73170000
_cell_length_c   13.73160000
_cell_angle_alpha   89.90140000
_cell_angle_beta   90.20310000
_cell_angle_gamma   89.79810000
_symmetry_Int_Tables_number   1
_chemical_formula_structural   CuSiH16C24N4(O2F3)2
_chemical_formula_sum   'Cu1 Si1 H16 C24 N4 O4 F6'
_cell_volume   1504.87522788
_cell_formula_units_Z   1
loop_
 _symmetry_equiv_pos_site_id
 _symmetry_equiv_pos_as_xyz
  1  'x, y, z'
loop_
 _atom_site_type_symbol
 _atom_site_label
 _atom_site_symmetry_multiplicity
 _atom_site_fract_x
 _atom_site_fract_y
 _atom_site_fract_z
 _atom_site_occupancy
  Cu  Cu0  1  0.49999000  0.50000000  0.49999000  1.0
  Si  Si1  1  0.00000000  0.50000000  0.50000000  1.0
  H  H2  1  0.76280000  0.65175000  0.49971000  1.0
  H  H3  1  0.78238000  0.83177000  0.50004000  1.0
  H  H4  1  0.23918000  0.66116000  0.50042000  1.0
  H  H5  1  0.76078000  0.33883000  0.49962000  1.0
  H  H6  1  0.23717000  0.34823000  0.50018000  1.0
  H  H7  1  0.21759000  0.16822000  0.49989000  1.0
  H  H8  1  0.76281000  0.50039000  0.34824000  1.0
  H  H9  1  0.78238000  0.50002000  0.16822000  1.0
  H  H10  1  0.23920000  0.49958000  0.33883000  1.0
  H  H11  1  0.76078000  0.50044000  0.66116000  1.0
  H  H12  1  0.23716000  0.49950000  0.65175000  1.0
  H  H13  1  0.21759000  0.49988000  0.83177000  1.0
  H  H14  1  0.23070000  0.92064000  0.50006000  1.0
  H  H15  1  0.76928000  0.07936000  0.49997000  1.0
  H  H16  1  0.23070000  0.49992000  0.07935000  1.0
  H  H17  1  0.76928000  0.50010000  0.92064000  1.0
  C  C18  1  0.65004000  0.69635000  0.49998000  1.0
  C  C19  1  0.65986000  0.79701000  0.50007000  1.0
  C  C20  1  0.51199000  0.85297000  0.50014000  1.0
  C  C21  1  0.35711000  0.80283000  0.50016000  1.0
  C  C22  1  0.35706000  0.70103000  0.50019000  1.0
  C  C23  1  0.50953000  0.95570000  0.50008000  1.0
  C  C24  1  0.49044000  0.04428000  0.49993000  1.0
  C  C25  1  0.48797000  0.14702000  0.49985000  1.0
  C  C26  1  0.64286000  0.19716000  0.49985000  1.0
  C  C27  1  0.64289000  0.29896000  0.49982000  1.0
  C  C28  1  0.34993000  0.30364000  0.49994000  1.0
  C  C29  1  0.34010000  0.20297000  0.49987000  1.0
  C  C30  1  0.65005000  0.50009000  0.30364000  1.0
  C  C31  1  0.65987000  0.49999000  0.20298000  1.0
  C  C32  1  0.51200000  0.49988000  0.14702000  1.0
  C  C33  1  0.35712000  0.49985000  0.19716000  1.0
  C  C34  1  0.35708000  0.49984000  0.29895000  1.0
  C  C35  1  0.50954000  0.49992000  0.04429000  1.0
  C  C36  1  0.49044000  0.50004000  0.95571000  1.0
  C  C37  1  0.48797000  0.50008000  0.85298000  1.0
  C  C38  1  0.64286000  0.50015000  0.80283000  1.0
  C  C39  1  0.64290000  0.50016000  0.70104000  1.0
  C  C40  1  0.34993000  0.49984000  0.69635000  1.0
  C  C41  1  0.34011000  0.49994000  0.79701000  1.0
  N  N42  1  0.50101000  0.64992000  0.50005000  1.0
  N  N43  1  0.49896000  0.35006000  0.49993000  1.0
  N  N44  1  0.50101000  0.50001000  0.35006000  1.0
  N  N45  1  0.49896000  0.49996000  0.64992000  1.0
  O  O46  1  0.20784000  0.85055000  0.50016000  1.0
  O  O47  1  0.79214000  0.14944000  0.49987000  1.0
  O  O48  1  0.20784000  0.49983000  0.14944000  1.0
  O  O49  1  0.79213000  0.50021000  0.85055000  1.0
  F  F50  1  0.78288000  0.49525000  0.50474000  1.0
  F  F51  1  0.21712000  0.50475000  0.49525000  1.0
  F  F52  1  1.00000000  0.58792000  0.58792000  1.0
  F  F53  1  0.00000000  0.41208000  0.41208000  1.0
  F  F54  1  0.98853000  0.58796000  0.41204000  1.0
  F  F55  1  0.01147000  0.41203000  0.58796000  1.0
