# generated using pymatgen
data_LiH8C5NO3
_symmetry_space_group_name_H-M   'P 1'
_cell_length_a   4.97650000
_cell_length_b   11.88412823
_cell_length_c   13.64330000
_cell_angle_alpha   105.28007058
_cell_angle_beta   100.50000000
_cell_angle_gamma   102.08258079
_symmetry_Int_Tables_number   1
_chemical_formula_structural   LiH8C5NO3
_chemical_formula_sum   'Li4 H32 C20 N4 O12'
_cell_volume   736.61739344
_cell_formula_units_Z   4
loop_
 _symmetry_equiv_pos_site_id
 _symmetry_equiv_pos_as_xyz
  1  'x, y, z'
loop_
 _atom_site_type_symbol
 _atom_site_label
 _atom_site_symmetry_multiplicity
 _atom_site_fract_x
 _atom_site_fract_y
 _atom_site_fract_z
 _atom_site_occupancy
  Li  Li0  1  0.41372000  0.27170000  0.69368000  1.0
  Li  Li1  1  0.94827000  0.22831000  0.80626000  1.0
  Li  Li2  1  0.58628000  0.72830000  0.30632000  1.0
  Li  Li3  1  0.05173000  0.77169000  0.19374000  1.0
  H  H4  1  0.04237000  0.95473000  0.40691000  1.0
  H  H5  1  0.18081000  0.54524000  0.09312000  1.0
  H  H6  1  0.95763000  0.04527000  0.59309000  1.0
  H  H7  1  0.81919000  0.45476000  0.90688000  1.0
  H  H8  1  0.30453000  0.98949000  0.33876000  1.0
  H  H9  1  0.47629000  0.51044000  0.16124000  1.0
  H  H10  1  0.69547000  0.01051000  0.66124000  1.0
  H  H11  1  0.52371000  0.48956000  0.83876000  1.0
  H  H12  1  0.64521000  0.47860000  0.64795000  1.0
  H  H13  1  0.01847000  0.02136000  0.85195000  1.0
  H  H14  1  0.35479000  0.52140000  0.35205000  1.0
  H  H15  1  0.98154000  0.97864000  0.14805000  1.0
  H  H16  1  0.25921000  0.58998000  0.64513000  1.0
  H  H17  1  0.52422000  0.91015000  0.85501000  1.0
  H  H18  1  0.74080000  0.41002000  0.35487000  1.0
  H  H19  1  0.47579000  0.08985000  0.14499000  1.0
  H  H20  1  0.69344000  0.65983000  0.58845000  1.0
  H  H21  1  0.94511000  0.84018000  0.91159000  1.0
  H  H22  1  0.30656000  0.34017000  0.41155000  1.0
  H  H23  1  0.05489000  0.15982000  0.08841000  1.0
  H  H24  1  0.96012000  0.67168000  0.51810000  1.0
  H  H25  1  0.27027000  0.82833000  0.98195000  1.0
  H  H26  1  0.03988000  0.32832000  0.48190000  1.0
  H  H27  1  0.72972000  0.17167000  0.01805000  1.0
  H  H28  1  0.03286000  0.76685000  0.64874000  1.0
  H  H29  1  0.11742000  0.73324000  0.85128000  1.0
  H  H30  1  0.96715000  0.23315000  0.35126000  1.0
  H  H31  1  0.88258000  0.26676000  0.14872000  1.0
  H  H32  1  0.54308000  0.17101000  0.47481000  1.0
  H  H33  1  0.39725000  0.32893000  0.02512000  1.0
  H  H34  1  0.45692000  0.82899000  0.52519000  1.0
  H  H35  1  0.60275000  0.67107000  0.97488000  1.0
  C  C36  1  0.99309000  0.40186000  0.69567000  1.0
  C  C37  1  0.39547000  0.09812000  0.80426000  1.0
  C  C38  1  0.00692000  0.59814000  0.30433000  1.0
  C  C39  1  0.60453000  0.90188000  0.19574000  1.0
  C  C40  1  0.87326000  0.49099000  0.65663000  1.0
  C  C41  1  0.22553000  0.00902000  0.84333000  1.0
  C  C42  1  0.12674000  0.50901000  0.34337000  1.0
  C  C43  1  0.77447000  0.99098000  0.15667000  1.0
  C  C44  1  0.03167000  0.58247000  0.63417000  1.0
  C  C45  1  0.31506000  0.91761000  0.86592000  1.0
  C  C46  1  0.96833000  0.41753000  0.36583000  1.0
  C  C47  1  0.68494000  0.08239000  0.13408000  1.0
  C  C48  1  0.92256000  0.67448000  0.59561000  1.0
  C  C49  1  0.15250000  0.82559000  0.90443000  1.0
  C  C50  1  0.07745000  0.32552000  0.40439000  1.0
  C  C51  1  0.84750000  0.17441000  0.09557000  1.0
  C  C52  1  0.34394000  0.11465000  0.48147000  1.0
  C  C53  1  0.24793000  0.38535000  0.01848000  1.0
  C  C54  1  0.65606000  0.88535000  0.51853000  1.0
  C  C55  1  0.75206000  0.61464000  0.98151000  1.0
  N  N56  1  0.22008000  0.01376000  0.40211000  1.0
  N  N57  1  0.30429000  0.48620000  0.09790000  1.0
  N  N58  1  0.77992000  0.98624000  0.59789000  1.0
  N  N59  1  0.69571000  0.51380000  0.90210000  1.0
  O  O60  1  0.81872000  0.31670000  0.71181000  1.0
  O  O61  1  0.29014000  0.18329000  0.78811000  1.0
  O  O62  1  0.18128000  0.68330000  0.28819000  1.0
  O  O63  1  0.70986000  0.81671000  0.21189000  1.0
  O  O64  1  0.25905000  0.41184000  0.71139000  1.0
  O  O65  1  0.63574000  0.08811000  0.78854000  1.0
  O  O66  1  0.74095000  0.58816000  0.28861000  1.0
  O  O67  1  0.36426000  0.91189000  0.21146000  1.0
  O  O68  1  0.24905000  0.14768000  0.56043000  1.0
  O  O69  1  0.04118000  0.35243000  0.93951000  1.0
  O  O70  1  0.75095000  0.85232000  0.43957000  1.0
  O  O71  1  0.95881000  0.64757000  0.06049000  1.0
