# generated using pymatgen
data_CdP4H20C6(NO6)2
_symmetry_space_group_name_H-M   'P 1'
_cell_length_a   6.53385000
_cell_length_b   9.01540000
_cell_length_c   13.96150000
_cell_angle_alpha   90.00000000
_cell_angle_beta   90.00000000
_cell_angle_gamma   96.42940000
_symmetry_Int_Tables_number   1
_chemical_formula_structural   CdP4H20C6(NO6)2
_chemical_formula_sum   'Cd2 P8 H40 C12 N4 O24'
_cell_volume   817.23349746
_cell_formula_units_Z   2
loop_
 _symmetry_equiv_pos_site_id
 _symmetry_equiv_pos_as_xyz
  1  'x, y, z'
loop_
 _atom_site_type_symbol
 _atom_site_label
 _atom_site_symmetry_multiplicity
 _atom_site_fract_x
 _atom_site_fract_y
 _atom_site_fract_z
 _atom_site_occupancy
  Cd  Cd0  1  0.09327000  0.49325000  0.40727000  1.0
  Cd  Cd1  1  0.90673000  0.50675000  0.90727000  1.0
  P  P2  1  0.13756000  0.87748000  0.47382000  1.0
  P  P3  1  0.86244000  0.12252000  0.97382000  1.0
  P  P4  1  0.83671000  0.12426000  0.45554000  1.0
  P  P5  1  0.16330000  0.87574000  0.95554000  1.0
  P  P6  1  0.07875000  0.45316000  0.67645000  1.0
  P  P7  1  0.92125000  0.54684000  0.17645000  1.0
  P  P8  1  0.39771000  0.43522000  0.84723000  1.0
  P  P9  1  0.60229000  0.56478000  0.34723000  1.0
  H  H10  1  0.98360000  0.85251000  0.27677000  1.0
  H  H11  1  0.01640000  0.14749000  0.77677000  1.0
  H  H12  1  0.65436000  0.52575000  0.70826000  1.0
  H  H13  1  0.34563000  0.47425000  0.20826000  1.0
  H  H14  1  0.79581000  0.86269000  0.41286000  1.0
  H  H15  1  0.20419000  0.13731000  0.91286000  1.0
  H  H16  1  0.65786000  0.94579000  0.26344000  1.0
  H  H17  1  0.34214000  0.05421000  0.76344000  1.0
  H  H18  1  0.83338000  0.99380000  0.16721000  1.0
  H  H19  1  0.16661000  0.00620000  0.66721000  1.0
  H  H20  1  0.79437000  0.13102000  0.25612000  1.0
  H  H21  1  0.20563000  0.86898000  0.75613000  1.0
  H  H22  1  0.19532000  0.03768000  0.19839000  1.0
  H  H23  1  0.80468000  0.96231000  0.69839000  1.0
  H  H24  1  0.29755000  0.01508000  0.31629000  1.0
  H  H25  1  0.70245000  0.98492000  0.81629000  1.0
  H  H26  1  0.15673000  0.16988000  0.29210000  1.0
  H  H27  1  0.84327000  0.83012000  0.79211000  1.0
  H  H28  1  0.32097000  0.63473000  0.75150000  1.0
  H  H29  1  0.67903000  0.36527000  0.25150000  1.0
  H  H30  1  0.67189000  0.39911000  0.56646000  1.0
  H  H31  1  0.32811000  0.60089000  0.06646000  1.0
  H  H32  1  0.39944000  0.37948000  0.55286000  1.0
  H  H33  1  0.60056000  0.62052000  0.05286000  1.0
  H  H34  1  0.51238000  0.28801000  0.65101000  1.0
  H  H35  1  0.48761000  0.71198000  0.15101000  1.0
  H  H36  1  0.68606000  0.66238000  0.56513000  1.0
  H  H37  1  0.31394000  0.33762000  0.06513000  1.0
  H  H38  1  0.55529000  0.75736000  0.65559000  1.0
  H  H39  1  0.44471000  0.24264000  0.15559000  1.0
  H  H40  1  0.41167000  0.66159000  0.56017000  1.0
  H  H41  1  0.58833000  0.33841000  0.06017000  1.0
  H  H42  1  0.04190000  0.68680000  0.57017000  1.0
  H  H43  1  0.95811000  0.31320000  0.07017000  1.0
  H  H44  1  0.48052000  0.06822000  0.46274000  1.0
  H  H45  1  0.51948000  0.93178000  0.96274000  1.0
  H  H46  1  0.94417000  0.19271000  0.60764000  1.0
  H  H47  1  0.05583000  0.80729000  0.10764000  1.0
  H  H48  1  0.59701000  0.25351000  0.85503000  1.0
  H  H49  1  0.40299000  0.74649000  0.35502000  1.0
  C  C50  1  0.92512000  0.95139000  0.40720000  1.0
  C  C51  1  0.07487000  0.04861000  0.90720000  1.0
  C  C52  1  0.80054000  0.01231000  0.24257000  1.0
  C  C53  1  0.19946000  0.98769000  0.74257000  1.0
  C  C54  1  0.17133000  0.05330000  0.27509000  1.0
  C  C55  1  0.82867000  0.94670000  0.77509000  1.0
  C  C56  1  0.33374000  0.51779000  0.73180000  1.0
  C  C57  1  0.66626000  0.48221000  0.23180000  1.0
  C  C58  1  0.52489000  0.38606000  0.60470000  1.0
  C  C59  1  0.47511000  0.61394000  0.10469000  1.0
  C  C60  1  0.54500000  0.66140000  0.60718000  1.0
  C  C61  1  0.45501000  0.33860000  0.10718000  1.0
  N  N62  1  0.97283000  0.96163000  0.30076000  1.0
  N  N63  1  0.02717000  0.03837000  0.80076000  1.0
  N  N64  1  0.51961000  0.52213000  0.66604000  1.0
  N  N65  1  0.48039000  0.47787000  0.16604000  1.0
  O  O66  1  0.29699000  0.00160000  0.50605000  1.0
  O  O67  1  0.70301000  0.99840000  0.00605000  1.0
  O  O68  1  0.21259000  0.75957000  0.40710000  1.0
  O  O69  1  0.78741000  0.24044000  0.90710000  1.0
  O  O70  1  0.02412000  0.79930000  0.56298000  1.0
  O  O71  1  0.97588000  0.20071000  0.06298000  1.0
  O  O72  1  0.84716000  0.11013000  0.56624000  1.0
  O  O73  1  0.15284000  0.88987000  0.06624000  1.0
  O  O74  1  0.60775000  0.12233000  0.42430000  1.0
  O  O75  1  0.39224000  0.87767000  0.92430000  1.0
  O  O76  1  0.96799000  0.25343000  0.41173000  1.0
  O  O77  1  0.03201000  0.74657000  0.91173000  1.0
  O  O78  1  0.08208000  0.52469000  0.57579000  1.0
  O  O79  1  0.91792000  0.47531000  0.07579000  1.0
  O  O80  1  0.05653000  0.28188000  0.67348000  1.0
  O  O81  1  0.94346000  0.71812000  0.17348000  1.0
  O  O82  1  0.92138000  0.51869000  0.74056000  1.0
  O  O83  1  0.07863000  0.48132000  0.24056000  1.0
  O  O84  1  0.46511000  0.27696000  0.81910000  1.0
  O  O85  1  0.53489000  0.72304000  0.31910000  1.0
  O  O86  1  0.20724000  0.41347000  0.90888000  1.0
  O  O87  1  0.79276000  0.58653000  0.40888000  1.0
  O  O88  1  0.57817000  0.53752000  0.88669000  1.0
  O  O89  1  0.42183000  0.46248000  0.38669000  1.0
