# generated using pymatgen
data_AlH3C8(NO5)2
_symmetry_space_group_name_H-M   'P 1'
_cell_length_a   6.63465000
_cell_length_b   8.80516000
_cell_length_c   10.98896431
_cell_angle_alpha   85.92345806
_cell_angle_beta   74.06933309
_cell_angle_gamma   74.73880000
_symmetry_Int_Tables_number   1
_chemical_formula_structural   AlH3C8(NO5)2
_chemical_formula_sum   'Al2 H6 C16 N4 O20'
_cell_volume   595.54161849
_cell_formula_units_Z   2
loop_
 _symmetry_equiv_pos_site_id
 _symmetry_equiv_pos_as_xyz
  1  'x, y, z'
loop_
 _atom_site_type_symbol
 _atom_site_label
 _atom_site_symmetry_multiplicity
 _atom_site_fract_x
 _atom_site_fract_y
 _atom_site_fract_z
 _atom_site_occupancy
  Al  Al0  1  0.99071000  0.50242000  0.50242000  1.0
  Al  Al1  1  0.49002000  0.50500000  0.50472000  1.0
  H  H2  1  0.83791000  0.40553000  0.35473000  1.0
  H  H3  1  0.13465000  0.67238000  0.60289000  1.0
  H  H4  1  0.51348000  0.76979000  0.22203000  1.0
  H  H5  1  0.91353000  0.62027000  0.77571000  1.0
  H  H6  1  0.70071000  0.13057000  0.53402000  1.0
  H  H7  1  0.29082000  0.87869000  0.47734000  1.0
  C  C8  1  0.32213000  0.53803000  0.27652000  1.0
  C  C9  1  0.34819000  0.22352000  0.49432000  1.0
  C  C10  1  0.66403000  0.46287000  0.72843000  1.0
  C  C11  1  0.63450000  0.78709000  0.51741000  1.0
  C  C12  1  0.58763000  0.95938000  0.51751000  1.0
  C  C13  1  0.39706000  0.05140000  0.49502000  1.0
  C  C14  1  0.39786000  0.52962000  0.13411000  1.0
  C  C15  1  0.55139000  0.61328000  0.06635000  1.0
  C  C16  1  0.34144000  0.42531000  0.06888000  1.0
  C  C17  1  0.59961000  0.73348000  0.12497000  1.0
  C  C18  1  0.75050000  0.81042000  0.05832000  1.0
  C  C19  1  0.59241000  0.47193000  0.87106000  1.0
  C  C20  1  0.43986000  0.39516000  0.93899000  1.0
  C  C21  1  0.65417000  0.58054000  0.93479000  1.0
  C  C22  1  0.81828000  0.65622000  0.87113000  1.0
  C  C23  1  0.86817000  0.76590000  0.93214000  1.0
  N  N24  1  0.38171000  0.27767000  0.87418000  1.0
  N  N25  1  0.18763000  0.33263000  0.13906000  1.0
  N  N26  1  0.77015000  0.95030000  0.11628000  1.0
  N  N27  1  0.06408000  0.81903000  0.86836000  1.0
  O  O28  1  0.12173000  0.55967000  0.32885000  1.0
  O  O29  1  0.48872000  0.28838000  0.51544000  1.0
  O  O30  1  0.50805000  0.49544000  0.67709000  1.0
  O  O31  1  0.81160000  0.70948000  0.53923000  1.0
  O  O32  1  0.86356000  0.43749000  0.67341000  1.0
  O  O33  1  0.49178000  0.72398000  0.49587000  1.0
  O  O34  1  0.47423000  0.51544000  0.33028000  1.0
  O  O35  1  0.17164000  0.29881000  0.47118000  1.0
  O  O36  1  0.78765000  0.44494000  0.44142000  1.0
  O  O37  1  0.19020000  0.56865000  0.56347000  1.0
  O  O38  1  0.74653000  0.01399000  0.53818000  1.0
  O  O39  1  0.24154000  0.99503000  0.47109000  1.0
  O  O40  1  0.53236000  0.18442000  0.80242000  1.0
  O  O41  1  0.18674000  0.28219000  0.89799000  1.0
  O  O42  1  0.99240000  0.39874000  0.16211000  1.0
  O  O43  1  0.26907000  0.19825000  0.17030000  1.0
  O  O44  1  0.76623000  0.94301000  0.22954000  1.0
  O  O45  1  0.78106000  0.06633000  0.04662000  1.0
  O  O46  1  0.10958000  0.83237000  0.75181000  1.0
  O  O47  1  0.17551000  0.83946000  0.93667000  1.0
