# generated using pymatgen
data_CuH6C6(NO2)2
_symmetry_space_group_name_H-M   'P 1'
_cell_length_a   7.74442000
_cell_length_b   8.04460135
_cell_length_c   8.24631000
_cell_angle_alpha   90.03626702
_cell_angle_beta   117.99340000
_cell_angle_gamma   118.72063625
_symmetry_Int_Tables_number   1
_chemical_formula_structural   CuH6C6(NO2)2
_chemical_formula_sum   'Cu2 H12 C12 N4 O8'
_cell_volume   380.48418361
_cell_formula_units_Z   2
loop_
 _symmetry_equiv_pos_site_id
 _symmetry_equiv_pos_as_xyz
  1  'x, y, z'
loop_
 _atom_site_type_symbol
 _atom_site_label
 _atom_site_symmetry_multiplicity
 _atom_site_fract_x
 _atom_site_fract_y
 _atom_site_fract_z
 _atom_site_occupancy
  Cu  Cu0  1  0.50000000  0.50000000  0.00000000  1.0
  Cu  Cu1  1  0.50000000  0.00000000  0.50000000  1.0
  H  H2  1  0.05853000  0.96432000  0.21645000  1.0
  H  H3  1  0.37820000  0.53517000  0.28410000  1.0
  H  H4  1  0.94147000  0.03567000  0.78355000  1.0
  H  H5  1  0.62180000  0.46483000  0.71591000  1.0
  H  H6  1  0.14265000  0.58264000  0.95612000  1.0
  H  H7  1  0.10436000  0.91805000  0.54439000  1.0
  H  H8  1  0.85733000  0.41736000  0.04387000  1.0
  H  H9  1  0.89565000  0.08196000  0.45561000  1.0
  H  H10  1  0.95289000  0.75020000  0.75014000  1.0
  H  H11  1  0.04711000  0.24981000  0.24985000  1.0
  H  H12  1  0.58230000  0.75070000  0.75069000  1.0
  H  H13  1  0.41770000  0.24930000  0.24931000  1.0
  C  C14  1  0.04140000  0.83189000  0.15311000  1.0
  C  C15  1  0.55650000  0.66768000  0.34730000  1.0
  C  C16  1  0.95860000  0.16811000  0.84689000  1.0
  C  C17  1  0.44350000  0.33232000  0.65270000  1.0
  C  C18  1  0.19650000  0.65816000  0.86348000  1.0
  C  C19  1  0.17547000  0.84259000  0.63712000  1.0
  C  C20  1  0.80349000  0.34183000  0.13652000  1.0
  C  C21  1  0.82453000  0.15741000  0.36288000  1.0
  C  C22  1  0.09340000  0.75032000  0.75023000  1.0
  C  C23  1  0.90659000  0.24968000  0.24975000  1.0
  C  C24  1  0.44161000  0.75059000  0.75052000  1.0
  C  C25  1  0.55839000  0.24940000  0.24948000  1.0
  N  N26  1  0.36820000  0.65645000  0.86050000  1.0
  N  N27  1  0.35208000  0.84454000  0.64033000  1.0
  N  N28  1  0.63179000  0.34354000  0.13950000  1.0
  N  N29  1  0.64791000  0.15547000  0.35967000  1.0
  O  O30  1  0.85960000  0.71046000  0.99635000  1.0
  O  O31  1  0.65266000  0.78914000  0.50406000  1.0
  O  O32  1  0.14041000  0.28954000  0.00365000  1.0
  O  O33  1  0.34735000  0.21087000  0.49594000  1.0
  O  O34  1  0.21387000  0.81092000  0.24772000  1.0
  O  O35  1  0.65522000  0.68876000  0.25258000  1.0
  O  O36  1  0.78614000  0.18908000  0.75228000  1.0
  O  O37  1  0.34478000  0.31125000  0.74742000  1.0
