# generated using pymatgen
data_Cu2H4C4S(IN)2
_symmetry_space_group_name_H-M   'P 1'
_cell_length_a   7.12300000
_cell_length_b   7.93174000
_cell_length_c   8.70473000
_cell_angle_alpha   98.31990000
_cell_angle_beta   101.17200000
_cell_angle_gamma   110.02000000
_symmetry_Int_Tables_number   1
_chemical_formula_structural   Cu2H4C4S(IN)2
_chemical_formula_sum   'Cu4 H8 C8 S2 I4 N4'
_cell_volume   441.28347357
_cell_formula_units_Z   2
loop_
 _symmetry_equiv_pos_site_id
 _symmetry_equiv_pos_as_xyz
  1  'x, y, z'
loop_
 _atom_site_type_symbol
 _atom_site_label
 _atom_site_symmetry_multiplicity
 _atom_site_fract_x
 _atom_site_fract_y
 _atom_site_fract_z
 _atom_site_occupancy
  Cu  Cu0  1  0.33583000  0.91586000  0.88478000  1.0
  Cu  Cu1  1  0.66416000  0.08414000  0.11521000  1.0
  Cu  Cu2  1  0.40229000  0.27215000  0.95391000  1.0
  Cu  Cu3  1  0.59771000  0.72784000  0.04608000  1.0
  H  H4  1  0.95227000  0.78681000  0.62554000  1.0
  H  H5  1  0.04774000  0.21319000  0.37446000  1.0
  H  H6  1  0.65870000  0.48738000  0.47638000  1.0
  H  H7  1  0.34132000  0.51262000  0.52361000  1.0
  H  H8  1  0.68265000  0.19331000  0.55369000  1.0
  H  H9  1  0.31734000  0.80669000  0.44631000  1.0
  H  H10  1  0.95922000  0.22892000  0.76611000  1.0
  H  H11  1  0.04077000  0.77107000  0.23391000  1.0
  C  C12  1  0.94406000  0.65739000  0.65849000  1.0
  C  C13  1  0.05597000  0.34262000  0.34150000  1.0
  C  C14  1  0.78247000  0.49152000  0.57396000  1.0
  C  C15  1  0.21754000  0.50847000  0.42604000  1.0
  C  C16  1  0.79199000  0.33230000  0.61417000  1.0
  C  C17  1  0.20801000  0.66769000  0.38582000  1.0
  C  C18  1  0.10102000  0.51213000  0.82479000  1.0
  C  C19  1  0.89898000  0.48787000  0.17523000  1.0
  S  S20  1  0.27116000  0.50996000  0.99007000  1.0
  S  S21  1  0.72883000  0.49003000  0.00993000  1.0
  I  I22  1  0.30088000  0.07983000  0.16332000  1.0
  I  I23  1  0.69912000  0.92018000  0.83667000  1.0
  I  I24  1  0.27678000  0.11862000  0.65304000  1.0
  I  I25  1  0.72323000  0.88139000  0.34697000  1.0
  N  N26  1  0.10183000  0.66942000  0.77903000  1.0
  N  N27  1  0.89815000  0.33058000  0.22097000  1.0
  N  N28  1  0.95102000  0.34698000  0.73496000  1.0
  N  N29  1  0.04894000  0.65302000  0.26505000  1.0
