# generated using pymatgen
data_KHC6(NO2)4
_symmetry_space_group_name_H-M   'P 1'
_cell_length_a   7.32298000
_cell_length_b   8.31481000
_cell_length_c   9.16489000
_cell_angle_alpha   67.40410000
_cell_angle_beta   68.07710000
_cell_angle_gamma   72.20870000
_symmetry_Int_Tables_number   1
_chemical_formula_structural   KHC6(NO2)4
_chemical_formula_sum   'K2 H2 C12 N8 O16'
_cell_volume   469.31216644
_cell_formula_units_Z   2
loop_
 _symmetry_equiv_pos_site_id
 _symmetry_equiv_pos_as_xyz
  1  'x, y, z'
loop_
 _atom_site_type_symbol
 _atom_site_label
 _atom_site_symmetry_multiplicity
 _atom_site_fract_x
 _atom_site_fract_y
 _atom_site_fract_z
 _atom_site_occupancy
  K  K0  1  0.94956000  0.75237000  0.47164000  1.0
  K  K1  1  0.05045000  0.24763000  0.52836000  1.0
  H  H2  1  0.01505000  0.10808000  0.10259000  1.0
  H  H3  1  0.98495000  0.89193000  0.89741000  1.0
  C  C4  1  0.82815000  0.38907000  0.03182000  1.0
  C  C5  1  0.17184000  0.61094000  0.96818000  1.0
  C  C6  1  0.79606000  0.26457000  0.19559000  1.0
  C  C7  1  0.20394000  0.73543000  0.80441000  1.0
  C  C8  1  0.63119000  0.30447000  0.32834000  1.0
  C  C9  1  0.36881000  0.69553000  0.67166000  1.0
  C  C10  1  0.48416000  0.46859000  0.31167000  1.0
  C  C11  1  0.51584000  0.53141000  0.68834000  1.0
  C  C12  1  0.53721000  0.59435000  0.14535000  1.0
  C  C13  1  0.46279000  0.40564000  0.85465000  1.0
  C  C14  1  0.69740000  0.55894000  0.00760000  1.0
  C  C15  1  0.30260000  0.44106000  0.99240000  1.0
  N  N16  1  0.43168000  0.75595000  0.09486000  1.0
  N  N17  1  0.56831000  0.24406000  0.90514000  1.0
  N  N18  1  0.69708000  0.69564000  0.87076000  1.0
  N  N19  1  0.30292000  0.30436000  0.12924000  1.0
  N  N20  1  0.97534000  0.34283000  0.89903000  1.0
  N  N21  1  0.02466000  0.65717000  0.10097000  1.0
  N  N22  1  0.60380000  0.17248000  0.48732000  1.0
  N  N23  1  0.39621000  0.82751000  0.51268000  1.0
  O  O24  1  0.28057000  0.84886000  0.15594000  1.0
  O  O25  1  0.71944000  0.15114000  0.84406000  1.0
  O  O26  1  0.54038000  0.82515000  0.91059000  1.0
  O  O27  1  0.45962000  0.17485000  0.08941000  1.0
  O  O28  1  0.91552000  0.10793000  0.21919000  1.0
  O  O29  1  0.08448000  0.89207000  0.78081000  1.0
  O  O30  1  0.32973000  0.50604000  0.42061000  1.0
  O  O31  1  0.67027000  0.49396000  0.57939000  1.0
  O  O32  1  0.09239000  0.18959000  0.92257000  1.0
  O  O33  1  0.90761000  0.81041000  0.07743000  1.0
  O  O34  1  0.99422000  0.44958000  0.75591000  1.0
  O  O35  1  0.00578000  0.55042000  0.24409000  1.0
  O  O36  1  0.43078000  0.15131000  0.57418000  1.0
  O  O37  1  0.56922000  0.84869000  0.42582000  1.0
  O  O38  1  0.75556000  0.08420000  0.53389000  1.0
  O  O39  1  0.24444000  0.91580000  0.46611000  1.0
