# generated using pymatgen
data_ZnH12C24I2(NO)6
_symmetry_space_group_name_H-M   'P 1'
_cell_length_a   9.74156000
_cell_length_b   12.59040000
_cell_length_c   12.72330000
_cell_angle_alpha   101.64300000
_cell_angle_beta   94.37950000
_cell_angle_gamma   107.21500000
_symmetry_Int_Tables_number   1
_chemical_formula_structural   ZnH12C24I2(NO)6
_chemical_formula_sum   'Zn2 H24 C48 I4 N12 O12'
_cell_volume   1444.40526708
_cell_formula_units_Z   2
loop_
 _symmetry_equiv_pos_site_id
 _symmetry_equiv_pos_as_xyz
  1  'x, y, z'
loop_
 _atom_site_type_symbol
 _atom_site_label
 _atom_site_symmetry_multiplicity
 _atom_site_fract_x
 _atom_site_fract_y
 _atom_site_fract_z
 _atom_site_occupancy
  Zn  Zn0  1  0.91008000  0.66599000  0.05175000  1.0
  Zn  Zn1  1  0.08992000  0.33401000  0.94825000  1.0
  H  H2  1  0.03708000  0.86516000  0.25150000  1.0
  H  H3  1  0.96292000  0.13485000  0.74850000  1.0
  H  H4  1  0.65317000  0.74975000  0.03163000  1.0
  H  H5  1  0.34685000  0.25025000  0.96836000  1.0
  H  H6  1  0.59906000  0.31955000  0.76395000  1.0
  H  H7  1  0.40095000  0.68045000  0.23606000  1.0
  H  H8  1  0.20259000  0.16437000  0.55827000  1.0
  H  H9  1  0.79741000  0.83563000  0.44173000  1.0
  H  H10  1  0.05375000  0.58904000  0.23239000  1.0
  H  H11  1  0.94624000  0.41096000  0.76761000  1.0
  H  H12  1  0.63885000  0.47787000  0.05186000  1.0
  H  H13  1  0.36114000  0.52212000  0.94813000  1.0
  H  H14  1  0.83034000  0.08071000  0.52965000  1.0
  H  H15  1  0.16966000  0.91930000  0.47035000  1.0
  H  H16  1  0.84260000  0.41979000  0.50262000  1.0
  H  H17  1  0.15739000  0.58021000  0.49738000  1.0
  H  H18  1  0.04508000  0.22655000  0.28160000  1.0
  H  H19  1  0.95492000  0.77345000  0.71840000  1.0
  H  H20  1  0.41035000  0.92795000  0.28797000  1.0
  H  H21  1  0.58966000  0.07205000  0.71203000  1.0
  H  H22  1  0.39496000  0.26854000  0.29205000  1.0
  H  H23  1  0.60504000  0.73146000  0.70795000  1.0
  H  H24  1  0.62239000  0.11212000  0.06187000  1.0
  H  H25  1  0.37760000  0.88787000  0.93813000  1.0
  C  C26  1  0.89036000  0.96815000  0.27654000  1.0
  C  C27  1  0.10965000  0.03185000  0.72346000  1.0
  C  C28  1  0.93395000  0.87632000  0.22597000  1.0
  C  C29  1  0.06606000  0.12369000  0.77404000  1.0
  C  C30  1  0.72099000  0.81212000  0.10280000  1.0
  C  C31  1  0.27901000  0.18788000  0.89719000  1.0
  C  C32  1  0.68296000  0.90566000  0.15695000  1.0
  C  C33  1  0.31705000  0.09434000  0.84305000  1.0
  C  C34  1  0.53869000  0.27127000  0.68433000  1.0
  C  C35  1  0.46131000  0.72873000  0.31567000  1.0
  C  C36  1  0.61009000  0.23865000  0.59741000  1.0
  C  C37  1  0.38991000  0.76135000  0.40259000  1.0
  C  C38  1  0.39567000  0.15548000  0.48636000  1.0
  C  C39  1  0.60433000  0.84452000  0.51364000  1.0
  C  C40  1  0.32054000  0.18589000  0.57099000  1.0
  C  C41  1  0.67946000  0.81411000  0.42901000  1.0
  C  C42  1  0.94399000  0.52863000  0.21451000  1.0
  C  C43  1  0.05601000  0.47137000  0.78549000  1.0
  C  C44  1  0.89906000  0.43597000  0.26316000  1.0
  C  C45  1  0.10094000  0.56403000  0.73684000  1.0
  C  C46  1  0.67632000  0.37373000  0.16257000  1.0
  C  C47  1  0.32368000  0.62627000  0.83743000  1.0
  C  C48  1  0.71325000  0.46666000  0.11383000  1.0
  C  C49  1  0.28674000  0.53334000  0.88617000  1.0
  C  C50  1  0.94134000  0.14445000  0.40272000  1.0
  C  C51  1  0.05866000  0.85556000  0.59728000  1.0
  C  C52  1  0.86500000  0.15175000  0.49073000  1.0
  C  C53  1  0.13500000  0.84825000  0.50927000  1.0
  C  C54  1  0.83026000  0.25184000  0.52479000  1.0
  C  C55  1  0.16974000  0.74816000  0.47521000  1.0
  C  C56  1  0.87065000  0.34248000  0.47446000  1.0
  C  C57  1  0.12935000  0.65753000  0.52554000  1.0
  C  C58  1  0.94817000  0.33137000  0.38765000  1.0
  C  C59  1  0.05183000  0.66863000  0.61235000  1.0
  C  C60  1  0.98565000  0.23345000  0.35049000  1.0
  C  C61  1  0.01435000  0.76655000  0.64951000  1.0
  C  C62  1  0.51790000  0.01086000  0.16978000  1.0
  C  C63  1  0.48210000  0.98913000  0.83022000  1.0
  C  C64  1  0.43826000  0.00406000  0.25584000  1.0
  C  C65  1  0.56174000  0.99594000  0.74417000  1.0
  C  C66  1  0.39692000  0.09823000  0.29933000  1.0
  C  C67  1  0.60308000  0.90177000  0.70067000  1.0
  C  C68  1  0.42978000  0.19587000  0.25821000  1.0
  C  C69  1  0.57021000  0.80413000  0.74179000  1.0
  C  C70  1  0.51086000  0.19838000  0.17310000  1.0
  C  C71  1  0.48914000  0.80161000  0.82690000  1.0
  C  C72  1  0.55691000  0.10708000  0.12742000  1.0
  C  C73  1  0.44309000  0.89291000  0.87257000  1.0
  I  I74  1  0.18485000  0.74377000  0.07392000  1.0
  I  I75  1  0.81515000  0.25623000  0.92608000  1.0
  I  I76  1  0.75104000  0.58952000  0.86614000  1.0
  I  I77  1  0.24896000  0.41048000  0.13387000  1.0
  N  N78  1  0.84709000  0.80068000  0.13874000  1.0
  N  N79  1  0.15292000  0.19933000  0.86126000  1.0
  N  N80  1  0.76731000  0.98344000  0.24150000  1.0
  N  N81  1  0.23269000  0.01656000  0.75850000  1.0
  N  N82  1  0.53946000  0.18180000  0.49935000  1.0
  N  N83  1  0.46054000  0.81820000  0.50065000  1.0
  N  N84  1  0.39387000  0.24387000  0.66920000  1.0
  N  N85  1  0.60614000  0.75613000  0.33080000  1.0
  N  N86  1  0.76716000  0.35960000  0.23759000  1.0
  N  N87  1  0.23283000  0.64040000  0.76241000  1.0
  N  N88  1  0.84764000  0.54169000  0.14089000  1.0
  N  N89  1  0.15235000  0.45830000  0.85911000  1.0
  O  O90  1  0.97727000  0.04419000  0.36605000  1.0
  O  O91  1  0.02273000  0.95581000  0.63395000  1.0
  O  O92  1  0.55395000  0.91456000  0.11984000  1.0
  O  O93  1  0.44605000  0.08543000  0.88017000  1.0
  O  O94  1  0.75815000  0.26506000  0.61558000  1.0
  O  O95  1  0.24185000  0.73494000  0.38442000  1.0
  O  O96  1  0.31768000  0.09524000  0.38693000  1.0
  O  O97  1  0.68232000  0.90476000  0.61307000  1.0
  O  O98  1  0.99613000  0.42382000  0.33899000  1.0
  O  O99  1  0.00387000  0.57618000  0.66101000  1.0
  O  O100  1  0.54267000  0.29513000  0.12936000  1.0
  O  O101  1  0.45733000  0.70486000  0.87063000  1.0
