# generated using pymatgen
data_GaH16C32N8F
_symmetry_space_group_name_H-M   'P 1'
_cell_length_a   3.91435000
_cell_length_b   12.49140000
_cell_length_c   12.73380000
_cell_angle_alpha   89.54180000
_cell_angle_beta   83.51850000
_cell_angle_gamma   89.90910000
_symmetry_Int_Tables_number   1
_chemical_formula_structural   GaH16C32N8F
_chemical_formula_sum   'Ga1 H16 C32 N8 F1'
_cell_volume   618.62866533
_cell_formula_units_Z   1
loop_
 _symmetry_equiv_pos_site_id
 _symmetry_equiv_pos_as_xyz
  1  'x, y, z'
loop_
 _atom_site_type_symbol
 _atom_site_label
 _atom_site_symmetry_multiplicity
 _atom_site_fract_x
 _atom_site_fract_y
 _atom_site_fract_z
 _atom_site_occupancy
  Ga  Ga0  1  0.99999000  0.00000000  0.00000000  1.0
  H  H1  1  0.76267000  0.98234000  0.46671000  1.0
  H  H2  1  0.23733000  0.01766000  0.53330000  1.0
  H  H3  1  0.57875000  0.81901000  0.57228000  1.0
  H  H4  1  0.42124000  0.18099000  0.42772000  1.0
  H  H5  1  0.52916000  0.64421000  0.48382000  1.0
  H  H6  1  0.47084000  0.35579000  0.51618000  1.0
  H  H7  1  0.65611000  0.62898000  0.28726000  1.0
  H  H8  1  0.34388000  0.37102000  0.71274000  1.0
  H  H9  1  0.74920000  0.53448000  0.98314000  1.0
  H  H10  1  0.25079000  0.46552000  0.01685000  1.0
  H  H11  1  0.75157000  0.42927000  0.81731000  1.0
  H  H12  1  0.24843000  0.57073000  0.18268000  1.0
  H  H13  1  0.88789000  0.51743000  0.64213000  1.0
  H  H14  1  0.11213000  0.48258000  0.35786000  1.0
  H  H15  1  0.02430000  0.71335000  0.62877000  1.0
  H  H16  1  0.97573000  0.28665000  0.37123000  1.0
  C  C17  1  0.89056000  0.97695000  0.23659000  1.0
  C  C18  1  0.10943000  0.02305000  0.76341000  1.0
  C  C19  1  0.80162000  0.89707000  0.31926000  1.0
  C  C20  1  0.19836000  0.10293000  0.68074000  1.0
  C  C21  1  0.73722000  0.90557000  0.42864000  1.0
  C  C22  1  0.26278000  0.09443000  0.57136000  1.0
  C  C23  1  0.63709000  0.81353000  0.48675000  1.0
  C  C24  1  0.36292000  0.18647000  0.51325000  1.0
  C  C25  1  0.60815000  0.71477000  0.43611000  1.0
  C  C26  1  0.39184000  0.28523000  0.56389000  1.0
  C  C27  1  0.67736000  0.70544000  0.32654000  1.0
  C  C28  1  0.32262000  0.29456000  0.67346000  1.0
  C  C29  1  0.77377000  0.79786000  0.26832000  1.0
  C  C30  1  0.22621000  0.20214000  0.73168000  1.0
  C  C31  1  0.85524000  0.81855000  0.15528000  1.0
  C  C32  1  0.14475000  0.18145000  0.84472000  1.0
  C  C33  1  0.91187000  0.76268000  0.97824000  1.0
  C  C34  1  0.08813000  0.23731000  0.02176000  1.0
  C  C35  1  0.88981000  0.68080000  0.89824000  1.0
  C  C36  1  0.11020000  0.31920000  0.10176000  1.0
  C  C37  1  0.80904000  0.57231000  0.90606000  1.0
  C  C38  1  0.19097000  0.42769000  0.09394000  1.0
  C  C39  1  0.80950000  0.51461000  0.81272000  1.0
  C  C40  1  0.19051000  0.48539000  0.18728000  1.0
  C  C41  1  0.88751000  0.56495000  0.71368000  1.0
  C  C42  1  0.11251000  0.43505000  0.28632000  1.0
  C  C43  1  0.96475000  0.67401000  0.70530000  1.0
  C  C44  1  0.03527000  0.32599000  0.29470000  1.0
  C  C45  1  0.96444000  0.73165000  0.79876000  1.0
  C  C46  1  0.03556000  0.26836000  0.20124000  1.0
  C  C47  1  0.02220000  0.84448000  0.81984000  1.0
  C  C48  1  0.97780000  0.15552000  0.18016000  1.0
  N  N49  1  0.92601000  0.92606000  0.14050000  1.0
  N  N50  1  0.07398000  0.07394000  0.85950000  1.0
  N  N51  1  0.99579000  0.85848000  0.92772000  1.0
  N  N52  1  0.00423000  0.14152000  0.07229000  1.0
  N  N53  1  0.91946000  0.08101000  0.25515000  1.0
  N  N54  1  0.08054000  0.91899000  0.74485000  1.0
  N  N55  1  0.85056000  0.74396000  0.08160000  1.0
  N  N56  1  0.14944000  0.25605000  0.91840000  1.0
  F  F57  1  0.50001000  0.00000000  0.00000000  1.0
