# generated using pymatgen
data_SmH8C9O8
_symmetry_space_group_name_H-M   'P 1'
_cell_length_a   7.80021000
_cell_length_b   8.27360000
_cell_length_c   19.09070000
_cell_angle_alpha   90.00000000
_cell_angle_beta   90.00000000
_cell_angle_gamma   106.11500000
_symmetry_Int_Tables_number   1
_chemical_formula_structural   SmH8C9O8
_chemical_formula_sum   'Sm4 H32 C36 O32'
_cell_volume   1183.62303023
_cell_formula_units_Z   4
loop_
 _symmetry_equiv_pos_site_id
 _symmetry_equiv_pos_as_xyz
  1  'x, y, z'
loop_
 _atom_site_type_symbol
 _atom_site_label
 _atom_site_symmetry_multiplicity
 _atom_site_fract_x
 _atom_site_fract_y
 _atom_site_fract_z
 _atom_site_occupancy
  Sm  Sm0  1  0.75798000  0.25301000  0.51785000  1.0
  Sm  Sm1  1  0.74202000  0.74699000  0.01786000  1.0
  Sm  Sm2  1  0.24202000  0.74699000  0.48215000  1.0
  Sm  Sm3  1  0.25798000  0.25301000  0.98215000  1.0
  H  H4  1  0.51309000  0.24593000  0.63960000  1.0
  H  H5  1  0.98691000  0.75408000  0.13960000  1.0
  H  H6  1  0.48691000  0.75408000  0.36040000  1.0
  H  H7  1  0.01309000  0.24593000  0.86040000  1.0
  H  H8  1  0.37837000  0.15843000  0.57857000  1.0
  H  H9  1  0.12162000  0.84157000  0.07857000  1.0
  H  H10  1  0.62163000  0.84157000  0.42143000  1.0
  H  H11  1  0.87838000  0.15843000  0.92143000  1.0
  H  H12  1  0.77420000  0.62384000  0.48378000  1.0
  H  H13  1  0.72581000  0.37616000  0.98378000  1.0
  H  H14  1  0.22581000  0.37616000  0.51622000  1.0
  H  H15  1  0.27420000  0.62384000  0.01622000  1.0
  H  H16  1  0.60360000  0.55606000  0.53269000  1.0
  H  H17  1  0.89640000  0.44394000  0.03269000  1.0
  H  H18  1  0.39640000  0.44394000  0.46731000  1.0
  H  H19  1  0.10360000  0.55606000  0.96731000  1.0
  H  H20  1  0.60566000  0.43357000  0.36969000  1.0
  H  H21  1  0.89434000  0.56642000  0.86969000  1.0
  H  H22  1  0.39434000  0.56642000  0.63031000  1.0
  H  H23  1  0.10566000  0.43358000  0.13031000  1.0
  H  H24  1  0.65681000  0.58176000  0.25399000  1.0
  H  H25  1  0.84319000  0.41825000  0.75399000  1.0
  H  H26  1  0.34319000  0.41824000  0.74601000  1.0
  H  H27  1  0.15681000  0.58176000  0.24601000  1.0
  H  H28  1  0.31582000  0.14506000  0.15408000  1.0
  H  H29  1  0.18418000  0.85494000  0.65409000  1.0
  H  H30  1  0.68418000  0.85494000  0.84592000  1.0
  H  H31  1  0.81582000  0.14506000  0.34592000  1.0
  H  H32  1  0.25949000  0.99791000  0.27048000  1.0
  H  H33  1  0.24051000  0.00209000  0.77048000  1.0
  H  H34  1  0.74050000  0.00209000  0.72952000  1.0
  H  H35  1  0.75949000  0.99791000  0.22952000  1.0
  C  C36  1  0.42924000  0.20655000  0.32658000  1.0
  C  C37  1  0.07076000  0.79345000  0.82658000  1.0
  C  C38  1  0.57076000  0.79345000  0.67342000  1.0
  C  C39  1  0.92924000  0.20655000  0.17342000  1.0
  C  C40  1  0.54004000  0.37183000  0.32256000  1.0
  C  C41  1  0.95996000  0.62817000  0.82256000  1.0
  C  C42  1  0.45995000  0.62817000  0.67744000  1.0
  C  C43  1  0.04004000  0.37183000  0.17744000  1.0
  C  C44  1  0.56918000  0.45417000  0.25831000  1.0
  C  C45  1  0.93082000  0.54584000  0.75831000  1.0
  C  C46  1  0.43082000  0.54584000  0.74169000  1.0
  C  C47  1  0.06919000  0.45417000  0.24169000  1.0
  C  C48  1  0.48896000  0.37238000  0.19741000  1.0
  C  C49  1  0.01104000  0.62762000  0.69741000  1.0
  C  C50  1  0.51104000  0.62762000  0.80259000  1.0
  C  C51  1  0.98896000  0.37238000  0.30259000  1.0
  C  C52  1  0.37681000  0.20775000  0.20169000  1.0
  C  C53  1  0.12319000  0.79225000  0.70169000  1.0
  C  C54  1  0.62319000  0.79225000  0.79831000  1.0
  C  C55  1  0.87681000  0.20775000  0.29831000  1.0
  C  C56  1  0.34617000  0.12585000  0.26592000  1.0
  C  C57  1  0.15383000  0.87415000  0.76592000  1.0
  C  C58  1  0.65383000  0.87415000  0.73408000  1.0
  C  C59  1  0.84617000  0.12586000  0.23408000  1.0
  C  C60  1  0.40680000  0.11087000  0.39401000  1.0
  C  C61  1  0.09320000  0.88912000  0.89401000  1.0
  C  C62  1  0.59320000  0.88912000  0.60599000  1.0
  C  C63  1  0.90680000  0.11088000  0.10599000  1.0
  C  C64  1  0.52296000  0.46063000  0.12823000  1.0
  C  C65  1  0.97705000  0.53938000  0.62823000  1.0
  C  C66  1  0.47705000  0.53937000  0.87177000  1.0
  C  C67  1  0.02296000  0.46063000  0.37177000  1.0
  C  C68  1  0.07299000  0.05992000  0.52289000  1.0
  C  C69  1  0.42702000  0.94007000  0.02290000  1.0
  C  C70  1  0.92702000  0.94007000  0.47710000  1.0
  C  C71  1  0.57298000  0.05992000  0.97710000  1.0
  O  O72  1  0.51222000  0.17207000  0.44463000  1.0
  O  O73  1  0.98779000  0.82793000  0.94463000  1.0
  O  O74  1  0.48779000  0.82793000  0.55537000  1.0
  O  O75  1  0.01222000  0.17207000  0.05537000  1.0
  O  O76  1  0.28647000  0.97182000  0.39743000  1.0
  O  O77  1  0.21354000  0.02818000  0.89743000  1.0
  O  O78  1  0.71353000  0.02818000  0.60257000  1.0
  O  O79  1  0.78647000  0.97182000  0.10257000  1.0
  O  O80  1  0.64382000  0.59994000  0.12505000  1.0
  O  O81  1  0.85617000  0.40007000  0.62505000  1.0
  O  O82  1  0.35617000  0.40006000  0.87495000  1.0
  O  O83  1  0.14383000  0.59993000  0.37495000  1.0
  O  O84  1  0.43013000  0.39317000  0.07535000  1.0
  O  O85  1  0.06987000  0.60684000  0.57535000  1.0
  O  O86  1  0.56987000  0.60684000  0.92465000  1.0
  O  O87  1  0.93013000  0.39317000  0.42465000  1.0
  O  O88  1  0.05447000  0.20466000  0.53511000  1.0
  O  O89  1  0.44552000  0.79534000  0.03512000  1.0
  O  O90  1  0.94553000  0.79534000  0.46488000  1.0
  O  O91  1  0.55447000  0.20466000  0.96489000  1.0
  O  O92  1  0.20009000  0.00477000  0.54399000  1.0
  O  O93  1  0.29990000  0.99523000  0.04400000  1.0
  O  O94  1  0.79990000  0.99523000  0.45600000  1.0
  O  O95  1  0.70009000  0.00477000  0.95600000  1.0
  O  O96  1  0.48828000  0.25050000  0.58985000  1.0
  O  O97  1  0.01172000  0.74950000  0.08985000  1.0
  O  O98  1  0.51172000  0.74950000  0.41015000  1.0
  O  O99  1  0.98828000  0.25050000  0.91015000  1.0
  O  O100  1  0.68597000  0.52106000  0.50170000  1.0
  O  O101  1  0.81403000  0.47893000  0.00170000  1.0
  O  O102  1  0.31404000  0.47893000  0.49830000  1.0
  O  O103  1  0.18597000  0.52106000  0.99831000  1.0
