# generated using pymatgen
data_NiH12C10(SN9)2
_symmetry_space_group_name_H-M   'P 1'
_cell_length_a   6.76831000
_cell_length_b   8.26322000
_cell_length_c   18.43100000
_cell_angle_alpha   90.00010000
_cell_angle_beta   90.00050000
_cell_angle_gamma   104.20500000
_symmetry_Int_Tables_number   1
_chemical_formula_structural   NiH12C10(SN9)2
_chemical_formula_sum   'Ni2 H24 C20 S4 N36'
_cell_volume   999.29150763
_cell_formula_units_Z   2
loop_
 _symmetry_equiv_pos_site_id
 _symmetry_equiv_pos_as_xyz
  1  'x, y, z'
loop_
 _atom_site_type_symbol
 _atom_site_label
 _atom_site_symmetry_multiplicity
 _atom_site_fract_x
 _atom_site_fract_y
 _atom_site_fract_z
 _atom_site_occupancy
  Ni  Ni0  1  0.50001000  0.00000000  0.50000000  1.0
  Ni  Ni1  1  0.00000000  0.00000000  0.00000000  1.0
  H  H2  1  0.56988000  0.25904000  0.35419000  1.0
  H  H3  1  0.93012000  0.74096000  0.85418000  1.0
  H  H4  1  0.43013000  0.74096000  0.64582000  1.0
  H  H5  1  0.06988000  0.25904000  0.14582000  1.0
  H  H6  1  0.91313000  0.89732000  0.45248000  1.0
  H  H7  1  0.58688000  0.10267000  0.95248000  1.0
  H  H8  1  0.08688000  0.10266000  0.54752000  1.0
  H  H9  1  0.41312000  0.89733000  0.04752000  1.0
  H  H10  1  0.09528000  0.47948000  0.30150000  1.0
  H  H11  1  0.40472000  0.52052000  0.80149000  1.0
  H  H12  1  0.90472000  0.52051000  0.69850000  1.0
  H  H13  1  0.59527000  0.47949000  0.19851000  1.0
  H  H14  1  0.83944000  0.46120000  0.27499000  1.0
  H  H15  1  0.66055000  0.53880000  0.77499000  1.0
  H  H16  1  0.16056000  0.53879000  0.72501000  1.0
  H  H17  1  0.33944000  0.46121000  0.22501000  1.0
  H  H18  1  0.03439000  0.76070000  0.29132000  1.0
  H  H19  1  0.46560000  0.23930000  0.79131000  1.0
  H  H20  1  0.96561000  0.23929000  0.70868000  1.0
  H  H21  1  0.53439000  0.76071000  0.20869000  1.0
  H  H22  1  0.09702000  0.71780000  0.38180000  1.0
  H  H23  1  0.40298000  0.28221000  0.88180000  1.0
  H  H24  1  0.90299000  0.28220000  0.61820000  1.0
  H  H25  1  0.59701000  0.71780000  0.11820000  1.0
  C  C26  1  0.69959000  0.27882000  0.39046000  1.0
  C  C27  1  0.80041000  0.72118000  0.89046000  1.0
  C  C28  1  0.30043000  0.72118000  0.60954000  1.0
  C  C29  1  0.19958000  0.27882000  0.10954000  1.0
  C  C30  1  0.78533000  0.83255000  0.41984000  1.0
  C  C31  1  0.71467000  0.16745000  0.91984000  1.0
  C  C32  1  0.21468000  0.16744000  0.58016000  1.0
  C  C33  1  0.28532000  0.83255000  0.08016000  1.0
  C  C34  1  0.94897000  0.50030000  0.31915000  1.0
  C  C35  1  0.55103000  0.49970000  0.81914000  1.0
  C  C36  1  0.05105000  0.49969000  0.68086000  1.0
  C  C37  1  0.44896000  0.50031000  0.18086000  1.0
  C  C38  1  0.98115000  0.68313000  0.33923000  1.0
  C  C39  1  0.51885000  0.31687000  0.83923000  1.0
  C  C40  1  0.01885000  0.31687000  0.66077000  1.0
  C  C41  1  0.48115000  0.68313000  0.16077000  1.0
  C  C42  1  0.22703000  0.07814000  0.37377000  1.0
  C  C43  1  0.27296000  0.92186000  0.87376000  1.0
  C  C44  1  0.77298000  0.92186000  0.62623000  1.0
  C  C45  1  0.72704000  0.07815000  0.12623000  1.0
  S  S46  1  0.13590000  0.12269000  0.29725000  1.0
  S  S47  1  0.36409000  0.87731000  0.79725000  1.0
  S  S48  1  0.86411000  0.87731000  0.70275000  1.0
  S  S49  1  0.63591000  0.12269000  0.20275000  1.0
  N  N50  1  0.71168000  0.19976000  0.45236000  1.0
  N  N51  1  0.78832000  0.80024000  0.95236000  1.0
  N  N52  1  0.28834000  0.80024000  0.54765000  1.0
  N  N53  1  0.21166000  0.19976000  0.04764000  1.0
  N  N54  1  0.90225000  0.26344000  0.47907000  1.0
  N  N55  1  0.59776000  0.73656000  0.97907000  1.0
  N  N56  1  0.09777000  0.73656000  0.52093000  1.0
  N  N57  1  0.40223000  0.26344000  0.02093000  1.0
  N  N58  1  0.00514000  0.37686000  0.43585000  1.0
  N  N59  1  0.49486000  0.62314000  0.93585000  1.0
  N  N60  1  0.99488000  0.62314000  0.56415000  1.0
  N  N61  1  0.50512000  0.37687000  0.06415000  1.0
  N  N62  1  0.87954000  0.38865000  0.38004000  1.0
  N  N63  1  0.62046000  0.61135000  0.88003000  1.0
  N  N64  1  0.12048000  0.61135000  0.61997000  1.0
  N  N65  1  0.37953000  0.38865000  0.11997000  1.0
  N  N66  1  0.79724000  0.72446000  0.36689000  1.0
  N  N67  1  0.70276000  0.27554000  0.86689000  1.0
  N  N68  1  0.20276000  0.27554000  0.63311000  1.0
  N  N69  1  0.29723000  0.72446000  0.13311000  1.0
  N  N70  1  0.60781000  0.66354000  0.33888000  1.0
  N  N71  1  0.89219000  0.33646000  0.83888000  1.0
  N  N72  1  0.39220000  0.33646000  0.66112000  1.0
  N  N73  1  0.10780000  0.66354000  0.16112000  1.0
  N  N74  1  0.48549000  0.73397000  0.37470000  1.0
  N  N75  1  0.01451000  0.26602000  0.87469000  1.0
  N  N76  1  0.51452000  0.26603000  0.62530000  1.0
  N  N77  1  0.98548000  0.73397000  0.12530000  1.0
  N  N78  1  0.59227000  0.83976000  0.42528000  1.0
  N  N79  1  0.90773000  0.16024000  0.92528000  1.0
  N  N80  1  0.40774000  0.16024000  0.57471000  1.0
  N  N81  1  0.09226000  0.83976000  0.07472000  1.0
  N  N82  1  0.28753000  0.04105000  0.43049000  1.0
  N  N83  1  0.21247000  0.95895000  0.93049000  1.0
  N  N84  1  0.71249000  0.95895000  0.56951000  1.0
  N  N85  1  0.78751000  0.04105000  0.06951000  1.0
