# generated using pymatgen
data_CoH12C14S3(NO)6
_symmetry_space_group_name_H-M   'P 1'
_cell_length_a   8.44725000
_cell_length_b   9.71862000
_cell_length_c   12.92230000
_cell_angle_alpha   109.43800000
_cell_angle_beta   92.32370000
_cell_angle_gamma   107.11400000
_symmetry_Int_Tables_number   1
_chemical_formula_structural   CoH12C14S3(NO)6
_chemical_formula_sum   'Co2 H24 C28 S6 N12 O12'
_cell_volume   944.74752543
_cell_formula_units_Z   2
loop_
 _symmetry_equiv_pos_site_id
 _symmetry_equiv_pos_as_xyz
  1  'x, y, z'
loop_
 _atom_site_type_symbol
 _atom_site_label
 _atom_site_symmetry_multiplicity
 _atom_site_fract_x
 _atom_site_fract_y
 _atom_site_fract_z
 _atom_site_occupancy
  Co  Co0  1  0.82398000  0.81778000  0.66666667  1.0
  Co  Co1  1  0.17602000  0.18223000  0.33340000  1.0
  H  H2  1  0.99397000  0.78735000  0.47926000  1.0
  H  H3  1  0.00603000  0.21266000  0.52074000  1.0
  H  H4  1  0.16060000  0.98392000  0.65412000  1.0
  H  H5  1  0.83940000  0.01607000  0.34588000  1.0
  H  H6  1  0.95105000  0.82444000  0.89487000  1.0
  H  H7  1  0.04895000  0.17556000  0.10512000  1.0
  H  H8  1  0.80076000  0.31782000  0.25145000  1.0
  H  H9  1  0.19923000  0.68218000  0.74856000  1.0
  H  H10  1  0.64453000  0.46643000  0.57327000  1.0
  H  H11  1  0.35547000  0.53358000  0.42674000  1.0
  H  H12  1  0.22718000  0.93469000  0.01788000  1.0
  H  H13  1  0.77283000  0.06531000  0.98212000  1.0
  H  H14  1  0.48082000  0.07747000  0.95326000  1.0
  H  H15  1  0.51918000  0.92253000  0.04674000  1.0
  H  H16  1  0.05067000  0.50230000  0.21802000  1.0
  H  H17  1  0.94931000  0.49768000  0.78199000  1.0
  H  H18  1  0.15165000  0.68480000  0.32595000  1.0
  H  H19  1  0.84834000  0.31519000  0.67404000  1.0
  H  H20  1  0.62654000  0.25558000  0.39447000  1.0
  H  H21  1  0.37346000  0.74443000  0.60554000  1.0
  H  H22  1  0.46461000  0.06470000  0.65954000  1.0
  H  H23  1  0.53539000  0.93529000  0.34045000  1.0
  H  H24  1  0.60234000  0.09617000  0.78045000  1.0
  H  H25  1  0.39766000  0.90383000  0.21955000  1.0
  C  C26  1  0.91491000  0.55695000  0.35626000  1.0
  C  C27  1  0.08507000  0.44305000  0.64375000  1.0
  C  C28  1  0.91409000  0.66788000  0.45781000  1.0
  C  C29  1  0.08591000  0.33212000  0.54219000  1.0
  C  C30  1  0.34098000  0.03896000  0.79748000  1.0
  C  C31  1  0.65902000  0.96105000  0.20252000  1.0
  C  C32  1  0.18051000  0.97644000  0.73561000  1.0
  C  C33  1  0.81949000  0.02356000  0.26439000  1.0
  C  C34  1  0.66073000  0.39228000  0.91173000  1.0
  C  C35  1  0.33926000  0.60772000  0.08826000  1.0
  C  C36  1  0.06256000  0.88927000  0.87087000  1.0
  C  C37  1  0.93744000  0.11073000  0.12913000  1.0
  C  C38  1  0.80781000  0.40604000  0.33158000  1.0
  C  C39  1  0.19218000  0.59396000  0.66843000  1.0
  C  C40  1  0.71808000  0.48855000  0.50973000  1.0
  C  C41  1  0.28192000  0.51145000  0.49028000  1.0
  C  C42  1  0.21722000  0.95119000  0.93883000  1.0
  C  C43  1  0.78278000  0.04880000  0.06117000  1.0
  C  C44  1  0.35790000  0.02689000  0.90211000  1.0
  C  C45  1  0.64210000  0.97311000  0.09789000  1.0
  C  C46  1  0.03014000  0.60236000  0.27926000  1.0
  C  C47  1  0.96984000  0.39762000  0.72074000  1.0
  C  C48  1  0.70998000  0.37175000  0.40981000  1.0
  C  C49  1  0.29001000  0.62825000  0.59020000  1.0
  C  C50  1  0.48839000  0.11253000  0.75072000  1.0
  C  C51  1  0.51161000  0.88747000  0.24928000  1.0
  C  C52  1  0.83614000  0.55062000  0.08611000  1.0
  C  C53  1  0.16386000  0.44937000  0.91389000  1.0
  S  S54  1  0.95518000  0.70438000  0.20262000  1.0
  S  S55  1  0.04481000  0.29562000  0.79737000  1.0
  S  S56  1  0.72797000  0.59034000  0.98801000  1.0
  S  S57  1  0.27203000  0.40965000  0.01198000  1.0
  S  S58  1  0.53300000  0.31933000  0.78370000  1.0
  S  S59  1  0.46700000  0.68067000  0.21629000  1.0
  N  N60  1  0.81799000  0.63549000  0.53297000  1.0
  N  N61  1  0.18201000  0.36452000  0.46704000  1.0
  N  N62  1  0.61694000  0.73063000  0.79250000  1.0
  N  N63  1  0.38306000  0.26937000  0.20750000  1.0
  N  N64  1  0.81777000  0.40353000  0.06040000  1.0
  N  N65  1  0.18222000  0.59646000  0.93959000  1.0
  N  N66  1  0.04382000  0.90242000  0.77058000  1.0
  N  N67  1  0.95618000  0.09758000  0.22942000  1.0
  N  N68  1  0.72784000  0.96456000  0.54413000  1.0
  N  N69  1  0.27217000  0.03544000  0.45589000  1.0
  N  N70  1  0.71637000  0.31292000  0.96068000  1.0
  N  N71  1  0.28363000  0.68708000  0.03931000  1.0
  O  O72  1  0.71728000  0.06461000  0.50684000  1.0
  O  O73  1  0.28271000  0.93538000  0.49316000  1.0
  O  O74  1  0.86520000  0.99359000  0.61128000  1.0
  O  O75  1  0.13483000  0.00642000  0.38872000  1.0
  O  O76  1  0.70966000  0.64741000  0.75840000  1.0
  O  O77  1  0.29034000  0.35260000  0.24159000  1.0
  O  O78  1  0.61575000  0.83693000  0.52262000  1.0
  O  O79  1  0.38427000  0.16308000  0.47742000  1.0
  O  O80  1  0.51086000  0.70735000  0.85245000  1.0
  O  O81  1  0.48915000  0.29264000  0.14755000  1.0
  O  O82  1  0.64284000  0.84702000  0.75804000  1.0
  O  O83  1  0.35717000  0.15299000  0.24197000  1.0
