# generated using pymatgen
data_NaH4CN4O3
_symmetry_space_group_name_H-M   'P 1'
_cell_length_a   5.55107000
_cell_length_b   6.50750000
_cell_length_c   8.44065000
_cell_angle_alpha   101.52000000
_cell_angle_beta   98.44400000
_cell_angle_gamma   111.67500000
_symmetry_Int_Tables_number   1
_chemical_formula_structural   NaH4CN4O3
_chemical_formula_sum   'Na2 H8 C2 N8 O6'
_cell_volume   269.36861098
_cell_formula_units_Z   2
loop_
 _symmetry_equiv_pos_site_id
 _symmetry_equiv_pos_as_xyz
  1  'x, y, z'
loop_
 _atom_site_type_symbol
 _atom_site_label
 _atom_site_symmetry_multiplicity
 _atom_site_fract_x
 _atom_site_fract_y
 _atom_site_fract_z
 _atom_site_occupancy
  Na  Na0  1  0.81922000  0.64299000  0.08574000  1.0
  Na  Na1  1  0.18078000  0.35701000  0.91426000  1.0
  H  H2  1  0.39659000  0.83304000  0.08539000  1.0
  H  H3  1  0.60341000  0.16696000  0.91461000  1.0
  H  H4  1  0.22428000  0.84056000  0.92347000  1.0
  H  H5  1  0.77572000  0.15944000  0.07653000  1.0
  H  H6  1  0.49495000  0.34999000  0.25189000  1.0
  H  H7  1  0.50505000  0.65001000  0.74812000  1.0
  H  H8  1  0.36516000  0.52519000  0.27940000  1.0
  H  H9  1  0.63484000  0.47482000  0.72060000  1.0
  C  C10  1  0.92783000  0.07134000  0.49761000  1.0
  C  C11  1  0.07215000  0.92869000  0.50240000  1.0
  N  N12  1  0.78169000  0.08183000  0.35647000  1.0
  N  N13  1  0.21832000  0.91816000  0.64350000  1.0
  N  N14  1  0.67175000  0.23107000  0.40224000  1.0
  N  N15  1  0.32825000  0.76893000  0.59778000  1.0
  N  N16  1  0.75101000  0.30922000  0.56591000  1.0
  N  N17  1  0.24898000  0.69080000  0.43411000  1.0
  N  N18  1  0.90795000  0.21555000  0.62811000  1.0
  N  N19  1  0.09207000  0.78448000  0.37192000  1.0
  O  O20  1  0.74299000  0.97439000  0.20079000  1.0
  O  O21  1  0.25699000  0.02555000  0.79916000  1.0
  O  O22  1  0.22298000  0.74618000  0.00272000  1.0
  O  O23  1  0.77701000  0.25383000  0.99728000  1.0
  O  O24  1  0.42532000  0.44097000  0.19360000  1.0
  O  O25  1  0.57468000  0.55902000  0.80641000  1.0
