# generated using pymatgen
data_Zn3H20(C18O7)2
_symmetry_space_group_name_H-M   'P 1'
_cell_length_a   18.47280000
_cell_length_b   18.56030000
_cell_length_c   18.67100000
_cell_angle_alpha   109.10300000
_cell_angle_beta   109.04300000
_cell_angle_gamma   109.11100000
_symmetry_Int_Tables_number   1
_chemical_formula_structural   Zn3H20(C18O7)2
_chemical_formula_sum   'Zn6 H40 C72 O28'
_cell_volume   4997.02246179
_cell_formula_units_Z   2
loop_
 _symmetry_equiv_pos_site_id
 _symmetry_equiv_pos_as_xyz
  1  'x, y, z'
loop_
 _atom_site_type_symbol
 _atom_site_label
 _atom_site_symmetry_multiplicity
 _atom_site_fract_x
 _atom_site_fract_y
 _atom_site_fract_z
 _atom_site_occupancy
  Zn  Zn0  1  0.49822000  0.56353000  0.55586000  1.0
  Zn  Zn1  1  0.49873000  0.43622000  0.43420000  1.0
  Zn  Zn2  1  0.06550000  0.99334000  0.55887000  1.0
  Zn  Zn3  1  0.94158000  0.00175000  0.44172000  1.0
  Zn  Zn4  1  0.06693000  0.55522000  0.99557000  1.0
  Zn  Zn5  1  0.93521000  0.44217000  0.99846000  1.0
  H  H6  1  0.97955000  0.17682000  0.12503000  1.0
  H  H7  1  0.99386000  0.30685000  0.10858000  1.0
  H  H8  1  0.23848000  0.58590000  0.21538000  1.0
  H  H9  1  0.24248000  0.28024000  0.38371000  1.0
  H  H10  1  0.42527000  0.47021000  0.69088000  1.0
  H  H11  1  0.41980000  0.46706000  0.82025000  1.0
  H  H12  1  0.29453000  0.34359000  0.80323000  1.0
  H  H13  1  0.17974000  0.22291000  0.65836000  1.0
  H  H14  1  0.11403000  0.16083000  0.36640000  1.0
  H  H15  1  0.59204000  0.69166000  0.37309000  1.0
  H  H16  1  0.74274000  0.58233000  0.60172000  1.0
  H  H17  1  0.89202000  0.70789000  0.67628000  1.0
  H  H18  1  0.00046000  0.74683000  0.82281000  1.0
  H  H19  1  0.70754000  0.38217000  0.78887000  1.0
  H  H20  1  0.07879000  0.77217000  0.39607000  1.0
  H  H21  1  0.01730000  0.96496000  0.29515000  1.0
  H  H22  1  0.98300000  0.96937000  0.15847000  1.0
  H  H23  1  0.96792000  0.85116000  0.03150000  1.0
  H  H24  1  0.99686000  0.73468000  0.04674000  1.0
  H  H25  1  0.69747000  0.87435000  0.48945000  1.0
  H  H26  1  0.07250000  0.66008000  0.27170000  1.0
  H  H27  1  0.06382000  0.26207000  0.66135000  1.0
  H  H28  1  0.95029000  0.02266000  0.85227000  1.0
  H  H29  1  0.98478000  0.15706000  0.97699000  1.0
  H  H30  1  0.02039000  0.29384000  0.97111000  1.0
  H  H31  1  0.07291000  0.38847000  0.77298000  1.0
  H  H32  1  0.73243000  0.83850000  0.63049000  1.0
  H  H33  1  0.88445000  0.83310000  0.62384000  1.0
  H  H34  1  0.77905000  0.65150000  0.50811000  1.0
  H  H35  1  0.36609000  0.58965000  0.32002000  1.0
  H  H36  1  0.25994000  0.29959000  0.27930000  1.0
  H  H37  1  0.11282000  0.17137000  0.20770000  1.0
  H  H38  1  0.63017000  0.57619000  0.27561000  1.0
  H  H39  1  0.71502000  0.56469000  0.34268000  1.0
  H  H40  1  0.79414000  0.58963000  0.25806000  1.0
  H  H41  1  0.68684000  0.49782000  0.18911000  1.0
  H  H42  1  0.70832000  0.59912000  0.19015000  1.0
  H  H43  1  0.56576000  0.32732000  0.68509000  1.0
  H  H44  1  0.02495000  0.72218000  0.93014000  1.0
  H  H45  1  0.93719000  0.96541000  0.71909000  1.0
  C  C46  1  0.37420000  0.46395000  0.35172000  1.0
  C  C47  1  0.81873000  0.80222000  0.56904000  1.0
  C  C48  1  0.76215000  0.70184000  0.50418000  1.0
  C  C49  1  0.67961000  0.70541000  0.50775000  1.0
  C  C50  1  0.20139000  0.30118000  0.24294000  1.0
  C  C51  1  0.11957000  0.22986000  0.20255000  1.0
  C  C52  1  0.04435000  0.23266000  0.15499000  1.0
  C  C53  1  0.05186000  0.30520000  0.14585000  1.0
  C  C54  1  0.13515000  0.37989000  0.18590000  1.0
  C  C55  1  0.21162000  0.37834000  0.23786000  1.0
  C  C56  1  0.29474000  0.45569000  0.28615000  1.0
  C  C57  1  0.61363000  0.63787000  0.51199000  1.0
  C  C58  1  0.30288000  0.53012000  0.28042000  1.0
  C  C59  1  0.23053000  0.52886000  0.22354000  1.0
  C  C60  1  0.14756000  0.45626000  0.17693000  1.0
  C  C61  1  0.37122000  0.41632000  0.68355000  1.0
  C  C62  1  0.36780000  0.41443000  0.75564000  1.0
  C  C63  1  0.29734000  0.34474000  0.74612000  1.0
  C  C64  1  0.23205000  0.27747000  0.66468000  1.0
  C  C65  1  0.23287000  0.27715000  0.58872000  1.0
  C  C66  1  0.30402000  0.34898000  0.59856000  1.0
  C  C67  1  0.30594000  0.34729000  0.52211000  1.0
  C  C68  1  0.61322000  0.47198000  0.58713000  1.0
  C  C69  1  0.23884000  0.28017000  0.44066000  1.0
  C  C70  1  0.16696000  0.21274000  0.43089000  1.0
  C  C71  1  0.16487000  0.20930000  0.50312000  1.0
  C  C72  1  0.79224000  0.59694000  0.66359000  1.0
  C  C73  1  0.87490000  0.66703000  0.70521000  1.0
  C  C74  1  0.93661000  0.68802000  0.78707000  1.0
  C  C75  1  0.91728000  0.63722000  0.82564000  1.0
  C  C76  1  0.83565000  0.55777000  0.78067000  1.0
  C  C77  1  0.77069000  0.54286000  0.70070000  1.0
  C  C78  1  0.68283000  0.47481000  0.65926000  1.0
  C  C79  1  0.37936000  0.41443000  0.52407000  1.0
  C  C80  1  0.65942000  0.42010000  0.69268000  1.0
  C  C81  1  0.72429000  0.42873000  0.76553000  1.0
  C  C82  1  0.81057000  0.49454000  0.80900000  1.0
  C  C83  1  0.03799000  0.89622000  0.40151000  1.0
  C  C84  1  0.86573000  0.88398000  0.48289000  1.0
  C  C85  1  0.02769000  0.10805000  0.64493000  1.0
  C  C86  1  0.09472000  0.12912000  0.48917000  1.0
  C  C87  1  0.03603000  0.39628000  0.89923000  1.0
  C  C88  1  0.07853000  0.46368000  0.11507000  1.0
  C  C89  1  0.03273000  0.64363000  0.11475000  1.0
  C  C90  1  0.65762000  0.72424000  0.42855000  1.0
  C  C91  1  0.87302000  0.48645000  0.87703000  1.0
  C  C92  1  0.01391000  0.91497000  0.24154000  1.0
  C  C93  1  0.99420000  0.91695000  0.16454000  1.0
  C  C94  1  0.98672000  0.85092000  0.09320000  1.0
  C  C95  1  0.00274000  0.78585000  0.10149000  1.0
  C  C96  1  0.02571000  0.78331000  0.18066000  1.0
  C  C97  1  0.02836000  0.84745000  0.25186000  1.0
  C  C98  1  0.04644000  0.84060000  0.32951000  1.0
  C  C99  1  0.06486000  0.77572000  0.33631000  1.0
  C  C100  1  0.06159000  0.71282000  0.26634000  1.0
  C  C101  1  0.74157000  0.72189000  0.42622000  1.0
  C  C102  1  0.04216000  0.71601000  0.18967000  1.0
  C  C103  1  0.98079000  0.08888000  0.78257000  1.0
  C  C104  1  0.97210000  0.08488000  0.85212000  1.0
  C  C105  1  0.98972000  0.16028000  0.92143000  1.0
  C  C106  1  0.01122000  0.23754000  0.91897000  1.0
  C  C107  1  0.02089000  0.24400000  0.84856000  1.0
  C  C108  1  0.01167000  0.16975000  0.78141000  1.0
  C  C109  1  0.02964000  0.17861000  0.71518000  1.0
  C  C110  1  0.05177000  0.25663000  0.71321000  1.0
  C  C111  1  0.05762000  0.32821000  0.77646000  1.0
  C  C112  1  0.79880000  0.82294000  0.49235000  1.0
  C  C113  1  0.04112000  0.32233000  0.84207000  1.0
  C  C114  1  0.71497000  0.82453000  0.49390000  1.0
  C  C115  1  0.73588000  0.80568000  0.57223000  1.0
  C  C116  1  0.70044000  0.59529000  0.30203000  1.0
  C  C117  1  0.72387000  0.56902000  0.23063000  1.0
  O  O118  1  0.40866000  0.52534000  0.42817000  1.0
  O  O119  1  0.97954000  0.91874000  0.38106000  1.0
  O  O120  1  0.94446000  0.90186000  0.52605000  1.0
  O  O121  1  0.83977000  0.91355000  0.43178000  1.0
  O  O122  1  0.08399000  0.08203000  0.66605000  1.0
  O  O123  1  0.97358000  0.08371000  0.56806000  1.0
  O  O124  1  0.11959000  0.09277000  0.53149000  1.0
  O  O125  1  0.01449000  0.10031000  0.43396000  1.0
  O  O126  1  0.09252000  0.47458000  0.92393000  1.0
  O  O127  1  0.97404000  0.37720000  0.91738000  1.0
  O  O128  1  0.10673000  0.51970000  0.09218000  1.0
  O  O129  1  0.40308000  0.41087000  0.32820000  1.0
  O  O130  1  0.99609000  0.41514000  0.08653000  1.0
  O  O131  1  0.08409000  0.66233000  0.08282000  1.0
  O  O132  1  0.97379000  0.56784000  0.08854000  1.0
  O  O133  1  0.95215000  0.51771000  0.89354000  1.0
  O  O134  1  0.84131000  0.44315000  0.91147000  1.0
  O  O135  1  0.58531000  0.66373000  0.56477000  1.0
  O  O136  1  0.58924000  0.55865000  0.46262000  1.0
  O  O137  1  0.58691000  0.52576000  0.61151000  1.0
  O  O138  1  0.58635000  0.41857000  0.50809000  1.0
  O  O139  1  0.40984000  0.49599000  0.57591000  1.0
  O  O140  1  0.40599000  0.38660000  0.47181000  1.0
  O  O141  1  0.08803000  0.91574000  0.47960000  1.0
  O  O142  1  0.75210000  0.68890000  0.35524000  1.0
  O  O143  1  0.57318000  0.35890000  0.65314000  1.0
  O  O144  1  0.97526000  0.66645000  0.90980000  1.0
  O  O145  1  0.95794000  0.01600000  0.71094000  1.0
