# generated using pymatgen
data_AlH11(C2O)6
_symmetry_space_group_name_H-M   'P 1'
_cell_length_a   6.65037000
_cell_length_b   11.00888207
_cell_length_c   15.29370000
_cell_angle_alpha   86.77141941
_cell_angle_beta   77.57120000
_cell_angle_gamma   72.46755481
_symmetry_Int_Tables_number   1
_chemical_formula_structural   AlH11(C2O)6
_chemical_formula_sum   'Al2 H22 C24 O12'
_cell_volume   1042.62016784
_cell_formula_units_Z   2
loop_
 _symmetry_equiv_pos_site_id
 _symmetry_equiv_pos_as_xyz
  1  'x, y, z'
loop_
 _atom_site_type_symbol
 _atom_site_label
 _atom_site_symmetry_multiplicity
 _atom_site_fract_x
 _atom_site_fract_y
 _atom_site_fract_z
 _atom_site_occupancy
  Al  Al0  1  0.99912000  0.49486000  0.50145000  1.0
  Al  Al1  1  0.49665000  0.50383000  0.49849000  1.0
  H  H2  1  0.35535000  0.36128000  0.43453000  1.0
  H  H3  1  0.65311000  0.64286000  0.55795000  1.0
  H  H4  1  0.55367000  0.60430000  0.22134000  1.0
  H  H5  1  0.42104000  0.52838000  0.76777000  1.0
  H  H6  1  0.86006000  0.40870000  0.77420000  1.0
  H  H7  1  0.78495000  0.41306000  0.94178000  1.0
  H  H8  1  0.21331000  0.41623000  0.23552000  1.0
  H  H9  1  0.31180000  0.39708000  0.06887000  1.0
  H  H10  1  0.03061000  0.88478000  0.64431000  1.0
  H  H11  1  0.27585000  0.89538000  0.57656000  1.0
  H  H12  1  0.13570000  0.11733000  0.59235000  1.0
  H  H13  1  0.87871000  0.10548000  0.64553000  1.0
  H  H14  1  0.24692000  0.10293000  0.42419000  1.0
  H  H15  1  0.05505000  0.11423000  0.35765000  1.0
  H  H16  1  0.34117000  0.88105000  0.40874000  1.0
  H  H17  1  0.12273000  0.89374000  0.35663000  1.0
  H  H18  1  0.71721000  0.89755000  0.56915000  1.0
  H  H19  1  0.76101000  0.88277000  0.45206000  1.0
  H  H20  1  0.68141000  0.10347000  0.43420000  1.0
  H  H21  1  0.59637000  0.11856000  0.55129000  1.0
  H  H22  1  0.48525000  0.63539000  0.07921000  1.0
  H  H23  1  0.48202000  0.56668000  0.90492000  1.0
  C  C24  1  0.86143000  0.26858000  0.50036000  1.0
  C  C25  1  0.81869000  0.51395000  0.33785000  1.0
  C  C26  1  0.12514000  0.73066000  0.50072000  1.0
  C  C27  1  0.18484000  0.47681000  0.66171000  1.0
  C  C28  1  0.87767000  0.51036000  0.23808000  1.0
  C  C29  1  0.14320000  0.47045000  0.76145000  1.0
  C  C30  1  0.72049000  0.56009000  0.18726000  1.0
  C  C31  1  0.77762000  0.55514000  0.09387000  1.0
  C  C32  1  0.27999000  0.50459000  0.80673000  1.0
  C  C33  1  0.23207000  0.51288000  0.90006000  1.0
  C  C34  1  0.96341000  0.43737000  0.81020000  1.0
  C  C35  1  0.92108000  0.44170000  0.90322000  1.0
  C  C36  1  0.09247000  0.45401000  0.19504000  1.0
  C  C37  1  0.14638000  0.44485000  0.10214000  1.0
  C  C38  1  0.99191000  0.49422000  0.04923000  1.0
  C  C39  1  0.04904000  0.48266000  0.95045000  1.0
  C  C40  1  0.10016000  0.92691000  0.58263000  1.0
  C  C41  1  0.01035000  0.07400000  0.58664000  1.0
  C  C42  1  0.92434000  0.12404000  0.50122000  1.0
  C  C43  1  0.10752000  0.07195000  0.41895000  1.0
  C  C44  1  0.16679000  0.92485000  0.41510000  1.0
  C  C45  1  0.04686000  0.87539000  0.50113000  1.0
  C  C46  1  0.80281000  0.92693000  0.50555000  1.0
  C  C47  1  0.73429000  0.07383000  0.49754000  1.0
  O  O48  1  0.00555000  0.31972000  0.50735000  1.0
  O  O49  1  0.62128000  0.52969000  0.37471000  1.0
  O  O50  1  0.32240000  0.67813000  0.50385000  1.0
  O  O51  1  0.02764000  0.48270000  0.62474000  1.0
  O  O52  1  0.98965000  0.67128000  0.49788000  1.0
  O  O53  1  0.37186000  0.48057000  0.62187000  1.0
  O  O54  1  0.67158000  0.32916000  0.49122000  1.0
  O  O55  1  0.97329000  0.49789000  0.37831000  1.0
  O  O56  1  0.29507000  0.44670000  0.45947000  1.0
  O  O57  1  0.70159000  0.55388000  0.54014000  1.0
  O  O58  1  0.63026000  0.61090000  0.04214000  1.0
  O  O59  1  0.35574000  0.55380000  0.94584000  1.0
