# generated using pymatgen
data_Tb2MnH40C56(NO3)8
_symmetry_space_group_name_H-M   'P 1'
_cell_length_a   10.11030000
_cell_length_b   10.80370000
_cell_length_c   13.58920000
_cell_angle_alpha   79.18970000
_cell_angle_beta   78.79120000
_cell_angle_gamma   86.17110000
_symmetry_Int_Tables_number   1
_chemical_formula_structural   Tb2MnH40C56(NO3)8
_chemical_formula_sum   'Tb2 Mn1 H40 C56 N8 O24'
_cell_volume   1429.46945919
_cell_formula_units_Z   1
loop_
 _symmetry_equiv_pos_site_id
 _symmetry_equiv_pos_as_xyz
  1  'x, y, z'
loop_
 _atom_site_type_symbol
 _atom_site_label
 _atom_site_symmetry_multiplicity
 _atom_site_fract_x
 _atom_site_fract_y
 _atom_site_fract_z
 _atom_site_occupancy
  Tb  Tb0  1  0.31775000  0.91445000  0.30171000  1.0
  Tb  Tb1  1  0.68225000  0.08555000  0.69829000  1.0
  Mn  Mn2  1  0.00000000  0.50000000  0.50000000  1.0
  H  H3  1  0.80558000  0.89606000  0.30093000  1.0
  H  H4  1  0.19441000  0.10394000  0.69908000  1.0
  H  H5  1  0.10227000  0.82962000  0.04105000  1.0
  H  H6  1  0.89773000  0.17037000  0.95896000  1.0
  H  H7  1  0.67965000  0.86210000  0.02280000  1.0
  H  H8  1  0.32035000  0.13790000  0.97721000  1.0
  H  H9  1  0.03733000  0.84347000  0.70169000  1.0
  H  H10  1  0.96267000  0.15653000  0.29831000  1.0
  H  H11  1  0.05109000  0.75001000  0.54754000  1.0
  H  H12  1  0.94892000  0.24999000  0.45246000  1.0
  H  H13  1  0.99591000  0.38944000  0.71912000  1.0
  H  H14  1  0.00409000  0.61056000  0.28088000  1.0
  H  H15  1  0.99821000  0.46640000  0.87937000  1.0
  H  H16  1  0.00179000  0.53360000  0.12064000  1.0
  H  H17  1  0.33028000  0.68078000  0.15903000  1.0
  H  H18  1  0.66972000  0.31923000  0.84097000  1.0
  H  H19  1  0.33631000  0.31459000  0.07464000  1.0
  H  H20  1  0.66369000  0.68542000  0.92536000  1.0
  H  H21  1  0.28477000  0.34634000  0.39046000  1.0
  H  H22  1  0.71523000  0.65366000  0.60954000  1.0
  H  H23  1  0.36042000  0.78299000  0.86663000  1.0
  H  H24  1  0.63958000  0.21701000  0.13336000  1.0
  H  H25  1  0.36822000  0.90407000  0.69281000  1.0
  H  H26  1  0.63178000  0.09593000  0.30719000  1.0
  H  H27  1  0.34908000  0.58231000  0.57225000  1.0
  H  H28  1  0.65092000  0.41769000  0.42774000  1.0
  H  H29  1  0.34832000  0.44280000  0.74436000  1.0
  H  H30  1  0.65168000  0.55720000  0.25564000  1.0
  H  H31  1  0.85267000  0.83196000  0.87730000  1.0
  H  H32  1  0.14734000  0.16803000  0.12270000  1.0
  H  H33  1  0.35135000  0.66040000  0.99224000  1.0
  H  H34  1  0.64865000  0.33961000  0.00776000  1.0
  H  H35  1  0.02867000  0.25622000  0.60003000  1.0
  H  H36  1  0.97134000  0.74378000  0.39998000  1.0
  H  H37  1  0.15647000  0.29482000  0.51310000  1.0
  H  H38  1  0.84353000  0.70517000  0.48690000  1.0
  H  H39  1  0.31877000  0.83716000  0.53310000  1.0
  H  H40  1  0.68123000  0.16284000  0.46690000  1.0
  H  H41  1  0.29396000  0.98660000  0.48889000  1.0
  H  H42  1  0.70604000  0.01341000  0.51111000  1.0
  C  C43  1  0.58503000  0.89950000  0.21299000  1.0
  C  C44  1  0.41497000  0.10050000  0.78702000  1.0
  C  C45  1  0.72960000  0.88377000  0.16529000  1.0
  C  C46  1  0.27039000  0.11623000  0.83471000  1.0
  C  C47  1  0.83160000  0.88238000  0.22204000  1.0
  C  C48  1  0.16840000  0.11762000  0.77796000  1.0
  C  C49  1  0.96598000  0.86358000  0.17620000  1.0
  C  C50  1  0.03402000  0.13642000  0.82380000  1.0
  C  C51  1  0.99736000  0.84284000  0.07541000  1.0
  C  C52  1  0.00264000  0.15716000  0.92460000  1.0
  C  C53  1  0.89487000  0.83870000  0.02049000  1.0
  C  C54  1  0.10513000  0.16129000  0.97952000  1.0
  C  C55  1  0.76109000  0.86321000  0.06451000  1.0
  C  C56  1  0.23891000  0.13679000  0.93549000  1.0
  C  C57  1  0.08043000  0.86511000  0.23051000  1.0
  C  C58  1  0.91957000  0.13490000  0.76949000  1.0
  C  C59  1  0.00977000  0.70512000  0.90351000  1.0
  C  C60  1  0.99024000  0.29487000  0.09650000  1.0
  C  C61  1  0.01261000  0.66248000  0.80476000  1.0
  C  C62  1  0.98739000  0.33751000  0.19525000  1.0
  C  C63  1  0.02706000  0.74208000  0.70966000  1.0
  C  C64  1  0.97294000  0.25791000  0.29034000  1.0
  C  C65  1  0.03260000  0.69056000  0.62257000  1.0
  C  C66  1  0.96740000  0.30944000  0.37743000  1.0
  C  C67  1  0.00508000  0.48926000  0.71807000  1.0
  C  C68  1  0.99492000  0.51073000  0.28193000  1.0
  C  C69  1  0.00631000  0.53258000  0.80737000  1.0
  C  C70  1  0.99369000  0.46742000  0.19263000  1.0
  C  C71  1  0.26956000  0.60348000  0.36215000  1.0
  C  C72  1  0.73044000  0.39652000  0.63785000  1.0
  C  C73  1  0.30101000  0.52218000  0.28282000  1.0
  C  C74  1  0.69899000  0.47782000  0.71718000  1.0
  C  C75  1  0.32535000  0.57836000  0.17981000  1.0
  C  C76  1  0.67464000  0.42164000  0.82019000  1.0
  C  C77  1  0.33602000  0.50382000  0.10422000  1.0
  C  C78  1  0.66398000  0.49619000  0.89577000  1.0
  C  C79  1  0.32824000  0.37258000  0.13260000  1.0
  C  C80  1  0.67176000  0.62742000  0.86740000  1.0
  C  C81  1  0.31011000  0.31743000  0.23565000  1.0
  C  C82  1  0.68988000  0.68257000  0.76435000  1.0
  C  C83  1  0.29716000  0.39120000  0.31077000  1.0
  C  C84  1  0.70284000  0.60880000  0.68923000  1.0
  C  C85  1  0.29799000  0.17885000  0.26492000  1.0
  C  C86  1  0.70202000  0.82116000  0.73508000  1.0
  C  C87  1  0.34596000  0.51194000  0.91955000  1.0
  C  C88  1  0.65404000  0.48805000  0.08045000  1.0
  C  C89  1  0.35313000  0.60054000  0.81941000  1.0
  C  C90  1  0.64687000  0.39946000  0.18058000  1.0
  C  C91  1  0.35925000  0.73186000  0.80477000  1.0
  C  C92  1  0.64075000  0.26814000  0.19522000  1.0
  C  C93  1  0.36246000  0.80145000  0.70722000  1.0
  C  C94  1  0.63754000  0.19854000  0.29278000  1.0
  C  C95  1  0.35440000  0.62147000  0.63976000  1.0
  C  C96  1  0.64560000  0.37853000  0.36024000  1.0
  C  C97  1  0.35231000  0.54494000  0.73441000  1.0
  C  C98  1  0.64768000  0.45506000  0.26559000  1.0
  N  N99  1  0.92396000  0.80487000  0.92303000  1.0
  N  N100  1  0.07604000  0.19513000  0.07697000  1.0
  N  N101  1  0.01613000  0.56595000  0.62567000  1.0
  N  N102  1  0.98387000  0.43404000  0.37434000  1.0
  N  N103  1  0.35212000  0.56490000  0.00259000  1.0
  N  N104  1  0.64788000  0.43510000  0.99741000  1.0
  N  N105  1  0.35925000  0.74747000  0.62645000  1.0
  N  N106  1  0.64075000  0.25253000  0.37355000  1.0
  O  O107  1  0.55319000  0.91474000  0.30669000  1.0
  O  O108  1  0.44681000  0.08526000  0.69331000  1.0
  O  O109  1  0.49322000  0.89691000  0.16089000  1.0
  O  O110  1  0.50678000  0.10309000  0.83912000  1.0
  O  O111  1  0.06051000  0.86359000  0.32788000  1.0
  O  O112  1  0.93948000  0.13641000  0.67212000  1.0
  O  O113  1  0.19972000  0.86921000  0.17855000  1.0
  O  O114  1  0.80028000  0.13081000  0.82145000  1.0
  O  O115  1  0.08022000  0.64770000  0.96385000  1.0
  O  O116  1  0.91978000  0.35230000  0.03615000  1.0
  O  O117  1  0.33507000  0.70383000  0.34858000  1.0
  O  O118  1  0.66492000  0.29617000  0.65142000  1.0
  O  O119  1  0.17779000  0.57242000  0.44051000  1.0
  O  O120  1  0.82221000  0.42758000  0.55949000  1.0
  O  O121  1  0.30798000  0.12283000  0.35459000  1.0
  O  O122  1  0.69200000  0.87717000  0.64541000  1.0
  O  O123  1  0.27738000  0.11508000  0.19847000  1.0
  O  O124  1  0.72262000  0.88492000  0.80153000  1.0
  O  O125  1  0.33773000  0.39749000  0.92313000  1.0
  O  O126  1  0.66226000  0.60251000  0.07687000  1.0
  O  O127  1  0.08580000  0.32965000  0.56081000  1.0
  O  O128  1  0.91421000  0.67034000  0.43919000  1.0
  O  O129  1  0.27901000  0.90232000  0.47836000  1.0
  O  O130  1  0.72099000  0.09769000  0.52164000  1.0
