# generated using pymatgen
data_ZnH22C30(NO)4
_symmetry_space_group_name_H-M   'P 1'
_cell_length_a   8.39258000
_cell_length_b   13.35590000
_cell_length_c   13.35580000
_cell_angle_alpha   112.30600000
_cell_angle_beta   101.71700000
_cell_angle_gamma   101.71600000
_symmetry_Int_Tables_number   1
_chemical_formula_structural   ZnH22C30(NO)4
_chemical_formula_sum   'Zn2 H44 C60 N8 O8'
_cell_volume   1289.69753918
_cell_formula_units_Z   2
loop_
 _symmetry_equiv_pos_site_id
 _symmetry_equiv_pos_as_xyz
  1  'x, y, z'
loop_
 _atom_site_type_symbol
 _atom_site_label
 _atom_site_symmetry_multiplicity
 _atom_site_fract_x
 _atom_site_fract_y
 _atom_site_fract_z
 _atom_site_occupancy
  Zn  Zn0  1  0.29125000  0.61552000  0.88319000  1.0
  Zn  Zn1  1  0.79125000  0.88319000  0.61552000  1.0
  H  H2  1  0.28857000  0.43222000  0.65292000  1.0
  H  H3  1  0.78858000  0.65292000  0.43222000  1.0
  H  H4  1  0.30348000  0.42659000  0.46415000  1.0
  H  H5  1  0.80348000  0.46415000  0.42659000  1.0
  H  H6  1  0.30532000  0.60063000  0.43464000  1.0
  H  H7  1  0.80533000  0.43464000  0.60063000  1.0
  H  H8  1  0.29886000  0.77431000  0.59302000  1.0
  H  H9  1  0.79886000  0.59302000  0.77430000  1.0
  H  H10  1  0.29408000  0.91178000  0.73036000  1.0
  H  H11  1  0.79407000  0.73035000  0.91178000  1.0
  H  H12  1  0.28398000  0.06722000  0.90252000  1.0
  H  H13  1  0.78397000  0.90252000  0.06722000  1.0
  H  H14  1  0.27312000  0.03265000  0.07509000  1.0
  H  H15  1  0.77312000  0.07509000  0.03265000  1.0
  H  H16  1  0.28035000  0.84185000  0.06525000  1.0
  H  H17  1  0.78035000  0.06525000  0.84185000  1.0
  H  H18  1  0.70060000  0.50991000  0.88485000  1.0
  H  H19  1  0.20060000  0.88485000  0.50991000  1.0
  H  H20  1  0.42605000  0.36309000  0.81973000  1.0
  H  H21  1  0.92605000  0.81973000  0.36310000  1.0
  H  H22  1  0.65723000  0.10416000  0.67248000  1.0
  H  H23  1  0.15722000  0.67248000  0.10416000  1.0
  H  H24  1  0.93449000  0.25286000  0.73922000  1.0
  H  H25  1  0.43449000  0.73923000  0.25286000  1.0
  H  H26  1  0.37383000  0.04416000  0.66048000  1.0
  H  H27  1  0.87382000  0.66047000  0.04416000  1.0
  H  H28  1  0.19226000  0.22459000  0.74735000  1.0
  H  H29  1  0.69225000  0.74735000  0.22459000  1.0
  H  H30  1  0.98229000  0.25032000  0.56081000  1.0
  H  H31  1  0.48229000  0.56081000  0.25033000  1.0
  H  H32  1  0.80791000  0.04674000  0.48449000  1.0
  H  H33  1  0.30792000  0.48450000  0.04674000  1.0
  H  H34  1  0.61514000  0.94791000  0.28131000  1.0
  H  H35  1  0.11515000  0.28132000  0.94791000  1.0
  H  H36  1  0.60901000  0.05627000  0.16544000  1.0
  H  H37  1  0.10900000  0.16544000  0.05627000  1.0
  H  H38  1  0.55255000  0.17142000  0.10599000  1.0
  H  H39  1  0.05255000  0.10599000  0.17142000  1.0
  H  H40  1  0.57115000  0.28492000  0.99538000  1.0
  H  H41  1  0.07115000  0.99538000  0.28491000  1.0
  H  H42  1  0.82435000  0.45975000  0.07006000  1.0
  H  H43  1  0.32435000  0.07006000  0.45975000  1.0
  H  H44  1  0.04664000  0.51228000  0.25300000  1.0
  H  H45  1  0.54664000  0.25300000  0.51228000  1.0
  C  C46  1  0.29182000  0.50598000  0.63558000  1.0
  C  C47  1  0.79183000  0.63559000  0.50598000  1.0
  C  C48  1  0.29822000  0.50279000  0.53103000  1.0
  C  C49  1  0.79822000  0.53103000  0.50279000  1.0
  C  C50  1  0.29984000  0.60025000  0.51531000  1.0
  C  C51  1  0.79984000  0.51531000  0.60025000  1.0
  C  C52  1  0.29533000  0.69711000  0.60344000  1.0
  C  C53  1  0.79533000  0.60344000  0.69710000  1.0
  C  C54  1  0.29204000  0.69461000  0.70665000  1.0
  C  C55  1  0.79204000  0.70665000  0.69461000  1.0
  C  C56  1  0.29152000  0.79412000  0.80640000  1.0
  C  C57  1  0.79152000  0.80640000  0.79412000  1.0
  C  C58  1  0.29262000  0.89884000  0.80578000  1.0
  C  C59  1  0.79261000  0.80578000  0.89884000  1.0
  C  C60  1  0.28570000  0.98575000  0.90250000  1.0
  C  C61  1  0.78570000  0.90250000  0.98575000  1.0
  C  C62  1  0.28001000  0.96729000  0.99802000  1.0
  C  C63  1  0.78000000  0.99802000  0.96729000  1.0
  C  C64  1  0.28273000  0.86167000  0.99334000  1.0
  C  C65  1  0.78273000  0.99334000  0.86167000  1.0
  C  C66  1  0.00385000  0.48185000  0.85497000  1.0
  C  C67  1  0.50385000  0.85497000  0.48185000  1.0
  C  C68  1  0.83776000  0.39162000  0.81695000  1.0
  C  C69  1  0.33776000  0.81695000  0.39162000  1.0
  C  C70  1  0.69251000  0.42121000  0.83858000  1.0
  C  C71  1  0.19251000  0.83858000  0.42121000  1.0
  C  C72  1  0.53651000  0.33784000  0.80119000  1.0
  C  C73  1  0.03651000  0.80119000  0.33784000  1.0
  C  C74  1  0.52181000  0.22210000  0.74097000  1.0
  C  C75  1  0.02180000  0.74097000  0.22210000  1.0
  C  C76  1  0.66762000  0.19332000  0.71925000  1.0
  C  C77  1  0.16762000  0.71925000  0.19332000  1.0
  C  C78  1  0.82359000  0.27711000  0.75672000  1.0
  C  C79  1  0.32359000  0.75672000  0.27711000  1.0
  C  C80  1  0.36374000  0.12991000  0.70104000  1.0
  C  C81  1  0.86374000  0.70104000  0.12991000  1.0
  C  C82  1  0.21027000  0.14117000  0.70948000  1.0
  C  C83  1  0.71027000  0.70948000  0.14117000  1.0
  C  C84  1  0.05749000  0.04270000  0.66865000  1.0
  C  C85  1  0.55748000  0.66865000  0.04270000  1.0
  C  C86  1  0.89803000  0.20456000  0.47274000  1.0
  C  C87  1  0.39804000  0.47274000  0.20457000  1.0
  C  C88  1  0.80106000  0.09062000  0.43043000  1.0
  C  C89  1  0.30106000  0.43043000  0.09062000  1.0
  C  C90  1  0.69462000  0.03647000  0.31801000  1.0
  C  C91  1  0.19463000  0.31801000  0.03647000  1.0
  C  C92  1  0.69108000  0.09760000  0.25355000  1.0
  C  C93  1  0.19108000  0.25356000  0.09760000  1.0
  C  C94  1  0.79353000  0.21201000  0.30311000  1.0
  C  C95  1  0.29353000  0.30311000  0.21201000  1.0
  C  C96  1  0.79545000  0.27979000  0.23628000  1.0
  C  C97  1  0.29545000  0.23628000  0.27979000  1.0
  C  C98  1  0.66312000  0.24590000  0.13539000  1.0
  C  C99  1  0.16312000  0.13539000  0.24589000  1.0
  C  C100  1  0.67226000  0.30987000  0.07393000  1.0
  C  C101  1  0.17226000  0.07393000  0.30986000  1.0
  C  C102  1  0.81201000  0.40720000  0.11530000  1.0
  C  C103  1  0.31201000  0.11530000  0.40719000  1.0
  C  C104  1  0.93595000  0.43590000  0.21735000  1.0
  C  C105  1  0.43595000  0.21735000  0.43590000  1.0
  N  N106  1  0.28965000  0.59944000  0.72099000  1.0
  N  N107  1  0.78965000  0.72099000  0.59944000  1.0
  N  N108  1  0.28807000  0.77793000  0.89994000  1.0
  N  N109  1  0.78807000  0.89994000  0.77793000  1.0
  N  N110  1  0.89530000  0.26465000  0.41218000  1.0
  N  N111  1  0.39530000  0.41218000  0.26465000  1.0
  N  N112  1  0.92992000  0.37455000  0.27659000  1.0
  N  N113  1  0.42992000  0.27658000  0.37455000  1.0
  O  O114  1  0.01355000  0.58588000  0.90558000  1.0
  O  O115  1  0.51355000  0.90558000  0.58588000  1.0
  O  O116  1  0.13458000  0.45227000  0.83226000  1.0
  O  O117  1  0.63459000  0.83226000  0.45227000  1.0
  O  O118  1  0.06287000  0.94029000  0.62678000  1.0
  O  O119  1  0.56287000  0.62678000  0.94029000  1.0
  O  O120  1  0.91575000  0.06159000  0.67739000  1.0
  O  O121  1  0.41574000  0.67739000  0.06159000  1.0
