# generated using pymatgen
data_AlH10C16O5F
_symmetry_space_group_name_H-M   'P 1'
_cell_length_a   7.23244000
_cell_length_b   14.98867222
_cell_length_c   15.27505406
_cell_angle_alpha   75.55629973
_cell_angle_beta   76.46519636
_cell_angle_gamma   78.11212100
_symmetry_Int_Tables_number   1
_chemical_formula_structural   AlH10C16O5F
_chemical_formula_sum   'Al2 H20 C32 O10 F2'
_cell_volume   1539.73294961
_cell_formula_units_Z   2
loop_
 _symmetry_equiv_pos_site_id
 _symmetry_equiv_pos_as_xyz
  1  'x, y, z'
loop_
 _atom_site_type_symbol
 _atom_site_label
 _atom_site_symmetry_multiplicity
 _atom_site_fract_x
 _atom_site_fract_y
 _atom_site_fract_z
 _atom_site_occupancy
  Al  Al0  1  0.50035000  0.49842000  0.50103000  1.0
  Al  Al1  1  0.99923000  0.49948000  0.50224000  1.0
  H  H2  1  0.74941000  0.39639000  0.59217000  1.0
  H  H3  1  0.26743000  0.58032000  0.39318000  1.0
  H  H4  1  0.81554000  0.52869000  0.76445000  1.0
  H  H5  1  0.13332000  0.56160000  0.22060000  1.0
  H  H6  1  0.64119000  0.43180000  0.24258000  1.0
  H  H7  1  0.72936000  0.43352000  0.07523000  1.0
  H  H8  1  0.41812000  0.48482000  0.77478000  1.0
  H  H9  1  0.33438000  0.48224000  0.94208000  1.0
  H  H10  1  0.88902000  0.77139000  0.53430000  1.0
  H  H11  1  0.35866000  0.77047000  0.45315000  1.0
  H  H12  1  0.07607000  0.20697000  0.54561000  1.0
  H  H13  1  0.67039000  0.24597000  0.46673000  1.0
  H  H14  1  0.71024000  0.98769000  0.60530000  1.0
  H  H15  1  0.93367000  0.92673000  0.56345000  1.0
  H  H16  1  0.20720000  0.01202000  0.39722000  1.0
  H  H17  1  0.10869000  0.91253000  0.46506000  1.0
  H  H18  1  0.20338000  0.95982000  0.60462000  1.0
  H  H19  1  0.01163000  0.04000000  0.56621000  1.0
  H  H20  1  0.86820000  0.03406000  0.39774000  1.0
  H  H21  1  0.91407000  0.10025000  0.46911000  1.0
  C  C22  1  0.31341000  0.33674000  0.50946000  1.0
  C  C23  1  0.17353000  0.50298000  0.65901000  1.0
  C  C24  1  0.68628000  0.66119000  0.48949000  1.0
  C  C25  1  0.82839000  0.49669000  0.34303000  1.0
  C  C26  1  0.12340000  0.50569000  0.75895000  1.0
  C  C27  1  0.88076000  0.49644000  0.24259000  1.0
  C  C28  1  0.93002000  0.51874000  0.80295000  1.0
  C  C29  1  0.88617000  0.51968000  0.89594000  1.0
  C  C30  1  0.04300000  0.53402000  0.18922000  1.0
  C  C31  1  0.08508000  0.53800000  0.09526000  1.0
  C  C32  1  0.76706000  0.46124000  0.20052000  1.0
  C  C33  1  0.81620000  0.46320000  0.10659000  1.0
  C  C34  1  0.26803000  0.49403000  0.80970000  1.0
  C  C35  1  0.22006000  0.49320000  0.90340000  1.0
  C  C36  1  0.02666000  0.50578000  0.95019000  1.0
  C  C37  1  0.97599000  0.50284000  0.05015000  1.0
  C  C38  1  0.80158000  0.96586000  0.54304000  1.0
  C  C39  1  0.20752000  0.95968000  0.46225000  1.0
  C  C40  1  0.16039000  0.01090000  0.54411000  1.0
  C  C41  1  0.81741000  0.05518000  0.46453000  1.0
  C  C42  1  0.75621000  0.81028000  0.51292000  1.0
  C  C43  1  0.70142000  0.90497000  0.51275000  1.0
  C  C44  1  0.45612000  0.81011000  0.46631000  1.0
  C  C45  1  0.40340000  0.90473000  0.46610000  1.0
  C  C46  1  0.22650000  0.17878000  0.52283000  1.0
  C  C47  1  0.28302000  0.08541000  0.51736000  1.0
  C  C48  1  0.56304000  0.20078000  0.47766000  1.0
  C  C49  1  0.61754000  0.10768000  0.47161000  1.0
  C  C50  1  0.63444000  0.76302000  0.48781000  1.0
  C  C51  1  0.53071000  0.95250000  0.48519000  1.0
  C  C52  1  0.36713000  0.23712000  0.50167000  1.0
  C  C53  1  0.47617000  0.05153000  0.48780000  1.0
  O  O54  1  0.45128000  0.37561000  0.51453000  1.0
  O  O55  1  0.03505000  0.49917000  0.62201000  1.0
  O  O56  1  0.85968000  0.62358000  0.49516000  1.0
  O  O57  1  0.65242000  0.49181000  0.38069000  1.0
  O  O58  1  0.55076000  0.62079000  0.48459000  1.0
  O  O59  1  0.96416000  0.50329000  0.38051000  1.0
  O  O60  1  0.13689000  0.37379000  0.51117000  1.0
  O  O61  1  0.35021000  0.50359000  0.62070000  1.0
  O  O62  1  0.74614000  0.45540000  0.54793000  1.0
  O  O63  1  0.25360000  0.54202000  0.45499000  1.0
  F  F64  1  0.69518000  0.53635000  0.93527000  1.0
  F  F65  1  0.23843000  0.58031000  0.04529000  1.0
