# generated using pymatgen
data_AgH8C9N7O3
_symmetry_space_group_name_H-M   'P 1'
_cell_length_a   7.11071000
_cell_length_b   9.68403000
_cell_length_c   17.33300000
_cell_angle_alpha   90.00000000
_cell_angle_beta   90.00000000
_cell_angle_gamma   96.21970000
_symmetry_Int_Tables_number   1
_chemical_formula_structural   AgH8C9N7O3
_chemical_formula_sum   'Ag4 H32 C36 N28 O12'
_cell_volume   1186.53053843
_cell_formula_units_Z   4
loop_
 _symmetry_equiv_pos_site_id
 _symmetry_equiv_pos_as_xyz
  1  'x, y, z'
loop_
 _atom_site_type_symbol
 _atom_site_label
 _atom_site_symmetry_multiplicity
 _atom_site_fract_x
 _atom_site_fract_y
 _atom_site_fract_z
 _atom_site_occupancy
  Ag  Ag0  1  0.84572000  0.38102000  0.71136000  1.0
  Ag  Ag1  1  0.15429000  0.11898000  0.21136000  1.0
  Ag  Ag2  1  0.15429000  0.61898000  0.28864000  1.0
  Ag  Ag3  1  0.84572000  0.88102000  0.78864000  1.0
  H  H4  1  0.89699000  0.53995000  0.88470000  1.0
  H  H5  1  0.10301000  0.96005000  0.38471000  1.0
  H  H6  1  0.10301000  0.46005000  0.11530000  1.0
  H  H7  1  0.89699000  0.03996000  0.61530000  1.0
  H  H8  1  0.25032000  0.26772000  0.78135000  1.0
  H  H9  1  0.74968000  0.23228000  0.28135000  1.0
  H  H10  1  0.74968000  0.73228000  0.21865000  1.0
  H  H11  1  0.25032000  0.76772000  0.71865000  1.0
  H  H12  1  0.49376000  0.40548000  0.95998000  1.0
  H  H13  1  0.50625000  0.09452000  0.45998000  1.0
  H  H14  1  0.50625000  0.59452000  0.04002000  1.0
  H  H15  1  0.49375000  0.90547000  0.54002000  1.0
  H  H16  1  0.49969000  0.27639000  0.88601000  1.0
  H  H17  1  0.50031000  0.22361000  0.38601000  1.0
  H  H18  1  0.50031000  0.72361000  0.11399000  1.0
  H  H19  1  0.49969000  0.77639000  0.61399000  1.0
  H  H20  1  0.35630000  0.03233000  0.85090000  1.0
  H  H21  1  0.64370000  0.46767000  0.35090000  1.0
  H  H22  1  0.64369000  0.96767000  0.14910000  1.0
  H  H23  1  0.35630000  0.53232000  0.64910000  1.0
  H  H24  1  0.25933000  0.77832000  0.86907000  1.0
  H  H25  1  0.74068000  0.72168000  0.36907000  1.0
  H  H26  1  0.74068000  0.22168000  0.13093000  1.0
  H  H27  1  0.25933000  0.27832000  0.63093000  1.0
  H  H28  1  0.14191000  0.68457000  0.99364000  1.0
  H  H29  1  0.85808000  0.81543000  0.49364000  1.0
  H  H30  1  0.85809000  0.31543000  0.00636000  1.0
  H  H31  1  0.14191000  0.18457000  0.50636000  1.0
  H  H32  1  0.12641000  0.83937000  0.10970000  1.0
  H  H33  1  0.87358000  0.66063000  0.60970000  1.0
  H  H34  1  0.87359000  0.16063000  0.89030000  1.0
  H  H35  1  0.12641000  0.33937000  0.39030000  1.0
  C  C36  1  0.01078000  0.47557000  0.87520000  1.0
  C  C37  1  0.98922000  0.02443000  0.37520000  1.0
  C  C38  1  0.98922000  0.52443000  0.12480000  1.0
  C  C39  1  0.01078000  0.97557000  0.62480000  1.0
  C  C40  1  0.18417000  0.33652000  0.82050000  1.0
  C  C41  1  0.81584000  0.16348000  0.32050000  1.0
  C  C42  1  0.81584000  0.66348000  0.17950000  1.0
  C  C43  1  0.18416000  0.83652000  0.67950000  1.0
  C  C44  1  0.41130000  0.32026000  0.92971000  1.0
  C  C45  1  0.58871000  0.17974000  0.42971000  1.0
  C  C46  1  0.58870000  0.67974000  0.07029000  1.0
  C  C47  1  0.41129000  0.82026000  0.57029000  1.0
  C  C48  1  0.29827000  0.07471000  0.97166000  1.0
  C  C49  1  0.70174000  0.42529000  0.47166000  1.0
  C  C50  1  0.70174000  0.92528000  0.02834000  1.0
  C  C51  1  0.29826000  0.57471000  0.52834000  1.0
  C  C52  1  0.30697000  0.99041000  0.90638000  1.0
  C  C53  1  0.69303000  0.50960000  0.40638000  1.0
  C  C54  1  0.69303000  0.00959000  0.09362000  1.0
  C  C55  1  0.30697000  0.49040000  0.59362000  1.0
  C  C56  1  0.24964000  0.85012000  0.91701000  1.0
  C  C57  1  0.75036000  0.64988000  0.41701000  1.0
  C  C58  1  0.75036000  0.14988000  0.08299000  1.0
  C  C59  1  0.24964000  0.35012000  0.58299000  1.0
  C  C60  1  0.18373000  0.79582000  0.98924000  1.0
  C  C61  1  0.81627000  0.70418000  0.48924000  1.0
  C  C62  1  0.81628000  0.20418000  0.01076000  1.0
  C  C63  1  0.18373000  0.29582000  0.51076000  1.0
  C  C64  1  0.17321000  0.87992000  0.05351000  1.0
  C  C65  1  0.82678000  0.62009000  0.55351000  1.0
  C  C66  1  0.82679000  0.12008000  0.94649000  1.0
  C  C67  1  0.17321000  0.37992000  0.44649000  1.0
  C  C68  1  0.23280000  0.02174000  0.04364000  1.0
  C  C69  1  0.76720000  0.47826000  0.54364000  1.0
  C  C70  1  0.76721000  0.97826000  0.95637000  1.0
  C  C71  1  0.23279000  0.52174000  0.45636000  1.0
  N  N72  1  0.02926000  0.40039000  0.80911000  1.0
  N  N73  1  0.97075000  0.09960000  0.30911000  1.0
  N  N74  1  0.97075000  0.59961000  0.19090000  1.0
  N  N75  1  0.02926000  0.90040000  0.69089000  1.0
  N  N76  1  0.14477000  0.46027000  0.92673000  1.0
  N  N77  1  0.85523000  0.03973000  0.42673000  1.0
  N  N78  1  0.85523000  0.53973000  0.07327000  1.0
  N  N79  1  0.14477000  0.96027000  0.57327000  1.0
  N  N80  1  0.25273000  0.37179000  0.89093000  1.0
  N  N81  1  0.74727000  0.12821000  0.39093000  1.0
  N  N82  1  0.74727000  0.62821000  0.10907000  1.0
  N  N83  1  0.25273000  0.87180000  0.60907000  1.0
  N  N84  1  0.34579000  0.21363000  0.98518000  1.0
  N  N85  1  0.65421000  0.28637000  0.48518000  1.0
  N  N86  1  0.65421000  0.78637000  0.01482000  1.0
  N  N87  1  0.34579000  0.71363000  0.51482000  1.0
  N  N88  1  0.31048000  0.24667000  0.05926000  1.0
  N  N89  1  0.68952000  0.25333000  0.55926000  1.0
  N  N90  1  0.68952000  0.75333000  0.94074000  1.0
  N  N91  1  0.31048000  0.74667000  0.44074000  1.0
  N  N92  1  0.24397000  0.13189000  0.09454000  1.0
  N  N93  1  0.75602000  0.36811000  0.59454000  1.0
  N  N94  1  0.75603000  0.86810000  0.90546000  1.0
  N  N95  1  0.24397000  0.63189000  0.40546000  1.0
  N  N96  1  0.54496000  0.59478000  0.76819000  1.0
  N  N97  1  0.45504000  0.90522000  0.26819000  1.0
  N  N98  1  0.45503000  0.40522000  0.23181000  1.0
  N  N99  1  0.54497000  0.09478000  0.73181000  1.0
  O  O100  1  0.60829000  0.49407000  0.80272000  1.0
  O  O101  1  0.39170000  0.00593000  0.30272000  1.0
  O  O102  1  0.39169000  0.50593000  0.19728000  1.0
  O  O103  1  0.60831000  0.99407000  0.69728000  1.0
  O  O104  1  0.37888000  0.62428000  0.78192000  1.0
  O  O105  1  0.62111000  0.87572000  0.28193000  1.0
  O  O106  1  0.62110000  0.37571000  0.21807000  1.0
  O  O107  1  0.37890000  0.12428000  0.71807000  1.0
  O  O108  1  0.64775000  0.66503000  0.71854000  1.0
  O  O109  1  0.35226000  0.83497000  0.21854000  1.0
  O  O110  1  0.35225000  0.33497000  0.28146000  1.0
  O  O111  1  0.64775000  0.16503000  0.78146000  1.0
