# generated using pymatgen
data_ZnH20C16(NO3)2
_symmetry_space_group_name_H-M   'P 1'
_cell_length_a   8.76564000
_cell_length_b   9.45385000
_cell_length_c   9.91324000
_cell_angle_alpha   104.59300000
_cell_angle_beta   90.00000000
_cell_angle_gamma   89.99990000
_symmetry_Int_Tables_number   1
_chemical_formula_structural   ZnH20C16(NO3)2
_chemical_formula_sum   'Zn2 H40 C32 N4 O12'
_cell_volume   794.99909150
_cell_formula_units_Z   2
loop_
 _symmetry_equiv_pos_site_id
 _symmetry_equiv_pos_as_xyz
  1  'x, y, z'
loop_
 _atom_site_type_symbol
 _atom_site_label
 _atom_site_symmetry_multiplicity
 _atom_site_fract_x
 _atom_site_fract_y
 _atom_site_fract_z
 _atom_site_occupancy
  Zn  Zn0  1  0.00000000  0.00000000  0.00000000  1.0
  Zn  Zn1  1  0.50000000  0.50000000  0.50000000  1.0
  H  H2  1  0.52611000  0.97127000  0.80752000  1.0
  H  H3  1  0.02612000  0.52873000  0.69248000  1.0
  H  H4  1  0.47389000  0.02874000  0.19249000  1.0
  H  H5  1  0.97389000  0.47126000  0.30751000  1.0
  H  H6  1  0.36909000  0.08653000  0.80339000  1.0
  H  H7  1  0.86909000  0.41348000  0.69661000  1.0
  H  H8  1  0.63091000  0.91348000  0.19661000  1.0
  H  H9  1  0.13091000  0.58652000  0.30339000  1.0
  H  H10  1  0.44617000  0.16594000  0.03369000  1.0
  H  H11  1  0.94617000  0.33407000  0.46631000  1.0
  H  H12  1  0.55383000  0.83407000  0.96631000  1.0
  H  H13  1  0.05383000  0.66593000  0.53369000  1.0
  H  H14  1  0.53207000  0.29642000  0.96220000  1.0
  H  H15  1  0.03208000  0.20358000  0.53781000  1.0
  H  H16  1  0.46793000  0.70358000  0.03781000  1.0
  H  H17  1  0.96793000  0.79642000  0.46219000  1.0
  H  H18  1  0.88302000  0.17225000  0.20574000  1.0
  H  H19  1  0.38302000  0.32775000  0.29426000  1.0
  H  H20  1  0.11698000  0.82775000  0.79426000  1.0
  H  H21  1  0.61698000  0.67225000  0.70574000  1.0
  H  H22  1  0.05778000  0.17421000  0.26589000  1.0
  H  H23  1  0.55778000  0.32579000  0.23411000  1.0
  H  H24  1  0.94222000  0.82580000  0.73411000  1.0
  H  H25  1  0.44222000  0.67421000  0.76589000  1.0
  H  H26  1  0.43549000  0.33319000  0.72362000  1.0
  H  H27  1  0.93549000  0.16681000  0.77638000  1.0
  H  H28  1  0.56451000  0.66681000  0.27638000  1.0
  H  H29  1  0.06451000  0.83319000  0.22362000  1.0
  H  H30  1  0.71274000  0.94303000  0.63072000  1.0
  H  H31  1  0.21274000  0.55697000  0.86929000  1.0
  H  H32  1  0.28726000  0.05697000  0.36929000  1.0
  H  H33  1  0.78726000  0.44303000  0.13071000  1.0
  H  H34  1  0.81319000  0.02241000  0.42171000  1.0
  H  H35  1  0.31319000  0.47759000  0.07829000  1.0
  H  H36  1  0.18680000  0.97759000  0.57829000  1.0
  H  H37  1  0.68681000  0.52241000  0.92171000  1.0
  H  H38  1  0.71477000  0.25305000  0.37725000  1.0
  H  H39  1  0.21476000  0.24695000  0.12276000  1.0
  H  H40  1  0.28523000  0.74695000  0.62276000  1.0
  H  H41  1  0.78524000  0.75305000  0.87724000  1.0
  C  C42  1  0.49391000  0.08501000  0.81459000  1.0
  C  C43  1  0.99392000  0.41499000  0.68541000  1.0
  C  C44  1  0.50608000  0.91499000  0.18541000  1.0
  C  C45  1  0.00608000  0.58501000  0.31459000  1.0
  C  C46  1  0.53467000  0.17932000  0.95940000  1.0
  C  C47  1  0.03468000  0.32069000  0.54060000  1.0
  C  C48  1  0.46533000  0.82069000  0.04060000  1.0
  C  C49  1  0.96532000  0.67931000  0.45940000  1.0
  C  C50  1  0.68611000  0.14778000  0.02102000  1.0
  C  C51  1  0.18611000  0.35222000  0.47898000  1.0
  C  C52  1  0.31389000  0.85222000  0.97898000  1.0
  C  C53  1  0.81389000  0.64778000  0.52102000  1.0
  C  C54  1  0.51980000  0.26025000  0.66094000  1.0
  C  C55  1  0.01980000  0.23975000  0.83906000  1.0
  C  C56  1  0.48020000  0.73976000  0.33906000  1.0
  C  C57  1  0.98020000  0.76024000  0.16094000  1.0
  C  C58  1  0.56524000  0.13126000  0.69427000  1.0
  C  C59  1  0.06524000  0.36875000  0.80574000  1.0
  C  C60  1  0.43476000  0.86874000  0.30574000  1.0
  C  C61  1  0.93476000  0.63126000  0.19426000  1.0
  C  C62  1  0.67405000  0.04434000  0.60804000  1.0
  C  C63  1  0.17405000  0.45566000  0.89197000  1.0
  C  C64  1  0.32595000  0.95566000  0.39197000  1.0
  C  C65  1  0.82595000  0.54434000  0.10803000  1.0
  C  C66  1  0.72961000  0.08706000  0.49274000  1.0
  C  C67  1  0.22961000  0.41294000  0.00727000  1.0
  C  C68  1  0.27039000  0.91294000  0.50727000  1.0
  C  C69  1  0.77039000  0.58706000  0.99273000  1.0
  C  C70  1  0.67608000  0.21615000  0.46680000  1.0
  C  C71  1  0.17608000  0.28385000  0.03320000  1.0
  C  C72  1  0.32392000  0.78384000  0.53320000  1.0
  C  C73  1  0.82392000  0.71615000  0.96680000  1.0
  N  N74  1  0.57375000  0.30198000  0.54989000  1.0
  N  N75  1  0.07375000  0.19802000  0.95011000  1.0
  N  N76  1  0.42625000  0.69802000  0.45011000  1.0
  N  N77  1  0.92625000  0.80198000  0.04989000  1.0
  O  O78  1  0.77038000  0.04680000  0.95073000  1.0
  O  O79  1  0.27038000  0.45320000  0.54927000  1.0
  O  O80  1  0.22962000  0.95320000  0.04927000  1.0
  O  O81  1  0.72962000  0.54680000  0.45073000  1.0
  O  O82  1  0.71648000  0.22627000  0.14363000  1.0
  O  O83  1  0.21648000  0.27373000  0.35637000  1.0
  O  O84  1  0.28352000  0.77373000  0.85637000  1.0
  O  O85  1  0.78352000  0.72627000  0.64363000  1.0
  O  O86  1  0.97263000  0.11107000  0.21840000  1.0
  O  O87  1  0.47262000  0.38892000  0.28160000  1.0
  O  O88  1  0.02738000  0.88893000  0.78160000  1.0
  O  O89  1  0.52737000  0.61108000  0.71840000  1.0
