# generated using pymatgen
data_CdH15C19Br2N3O
_symmetry_space_group_name_H-M   'P 1'
_cell_length_a   7.36360000
_cell_length_b   8.81359000
_cell_length_c   15.14350000
_cell_angle_alpha   78.14630000
_cell_angle_beta   79.18300000
_cell_angle_gamma   81.17830000
_symmetry_Int_Tables_number   1
_chemical_formula_structural   CdH15C19Br2N3O
_chemical_formula_sum   'Cd2 H30 C38 Br4 N6 O2'
_cell_volume   937.99832628
_cell_formula_units_Z   2
loop_
 _symmetry_equiv_pos_site_id
 _symmetry_equiv_pos_as_xyz
  1  'x, y, z'
loop_
 _atom_site_type_symbol
 _atom_site_label
 _atom_site_symmetry_multiplicity
 _atom_site_fract_x
 _atom_site_fract_y
 _atom_site_fract_z
 _atom_site_occupancy
  Cd  Cd0  1  0.25081000  0.93191000  0.04035000  1.0
  Cd  Cd1  1  0.74920000  0.06809000  0.95965000  1.0
  H  H2  1  0.40066000  0.07408000  0.69322000  1.0
  H  H3  1  0.59934000  0.92592000  0.30679000  1.0
  H  H4  1  0.91623000  0.88874000  0.16952000  1.0
  H  H5  1  0.08377000  0.11126000  0.83049000  1.0
  H  H6  1  0.43022000  0.31931000  0.74357000  1.0
  H  H7  1  0.56978000  0.68069000  0.25643000  1.0
  H  H8  1  0.34605000  0.57812000  0.65105000  1.0
  H  H9  1  0.65395000  0.42188000  0.34895000  1.0
  H  H10  1  0.21322000  0.60137000  0.50772000  1.0
  H  H11  1  0.78678000  0.39863000  0.49228000  1.0
  H  H12  1  0.97590000  0.27992000  0.32162000  1.0
  H  H13  1  0.02412000  0.72008000  0.67837000  1.0
  H  H14  1  0.91004000  0.13487000  0.20909000  1.0
  H  H15  1  0.08997000  0.86514000  0.79090000  1.0
  H  H16  1  0.22242000  0.71918000  0.33697000  1.0
  H  H17  1  0.77758000  0.28082000  0.66303000  1.0
  H  H18  1  0.28471000  0.86326000  0.44863000  1.0
  H  H19  1  0.71530000  0.13673000  0.55137000  1.0
  H  H20  1  0.97524000  0.63865000  0.16701000  1.0
  H  H21  1  0.02476000  0.36135000  0.83299000  1.0
  H  H22  1  0.01757000  0.61932000  0.28041000  1.0
  H  H23  1  0.98243000  0.38068000  0.71959000  1.0
  H  H24  1  0.25425000  0.40490000  0.28825000  1.0
  H  H25  1  0.74575000  0.59509000  0.71175000  1.0
  H  H26  1  0.57009000  0.28162000  0.22630000  1.0
  H  H27  1  0.42991000  0.71838000  0.77370000  1.0
  H  H28  1  0.75323000  0.42663000  0.08497000  1.0
  H  H29  1  0.24677000  0.57336000  0.91503000  1.0
  H  H30  1  0.60894000  0.68701000  0.01148000  1.0
  H  H31  1  0.39106000  0.31299000  0.98852000  1.0
  C  C32  1  0.29171000  0.20464000  0.57195000  1.0
  C  C33  1  0.70829000  0.79536000  0.42805000  1.0
  C  C34  1  0.36085000  0.18749000  0.65286000  1.0
  C  C35  1  0.63916000  0.81251000  0.34714000  1.0
  C  C36  1  0.37760000  0.32645000  0.68004000  1.0
  C  C37  1  0.62240000  0.67355000  0.31996000  1.0
  C  C38  1  0.32750000  0.47326000  0.62782000  1.0
  C  C39  1  0.67250000  0.52674000  0.37218000  1.0
  C  C40  1  0.25533000  0.48786000  0.54713000  1.0
  C  C41  1  0.74467000  0.51214000  0.45287000  1.0
  C  C42  1  0.23666000  0.35002000  0.51940000  1.0
  C  C43  1  0.76335000  0.64999000  0.48060000  1.0
  C  C44  1  0.18655000  0.17149000  0.45238000  1.0
  C  C45  1  0.81345000  0.82851000  0.54762000  1.0
  C  C46  1  0.13923000  0.08252000  0.39140000  1.0
  C  C47  1  0.86078000  0.91748000  0.60860000  1.0
  C  C48  1  0.03051000  0.15729000  0.32394000  1.0
  C  C49  1  0.96950000  0.84271000  0.67606000  1.0
  C  C50  1  0.99207000  0.07617000  0.26192000  1.0
  C  C51  1  0.00794000  0.92383000  0.73808000  1.0
  C  C52  1  0.06394000  0.91805000  0.26410000  1.0
  C  C53  1  0.93606000  0.08196000  0.73590000  1.0
  C  C54  1  0.16690000  0.84167000  0.33304000  1.0
  C  C55  1  0.83310000  0.15833000  0.66696000  1.0
  C  C56  1  0.20252000  0.92308000  0.39619000  1.0
  C  C57  1  0.79748000  0.07692000  0.60381000  1.0
  C  C58  1  0.06403000  0.67243000  0.20890000  1.0
  C  C59  1  0.93597000  0.32757000  0.79111000  1.0
  C  C60  1  0.26231000  0.60424000  0.17867000  1.0
  C  C61  1  0.73769000  0.39576000  0.82133000  1.0
  C  C62  1  0.33503000  0.46086000  0.22528000  1.0
  C  C63  1  0.66497000  0.53914000  0.77472000  1.0
  C  C64  1  0.51238000  0.39475000  0.19177000  1.0
  C  C65  1  0.48762000  0.60525000  0.80823000  1.0
  C  C66  1  0.61450000  0.47467000  0.11369000  1.0
  C  C67  1  0.38550000  0.52534000  0.88631000  1.0
  C  C68  1  0.53445000  0.61845000  0.07201000  1.0
  C  C69  1  0.46555000  0.38154000  0.92799000  1.0
  Br  Br70  1  0.48270000  0.96617000  0.87754000  1.0
  Br  Br71  1  0.51729000  0.03385000  0.12246000  1.0
  Br  Br72  1  0.02810000  0.20525000  0.02018000  1.0
  Br  Br73  1  0.97190000  0.79475000  0.97982000  1.0
  N  N74  1  0.17036000  0.32389000  0.44413000  1.0
  N  N75  1  0.82964000  0.67610000  0.55587000  1.0
  N  N76  1  0.03527000  0.84287000  0.19551000  1.0
  N  N77  1  0.96473000  0.15713000  0.80449000  1.0
  N  N78  1  0.36213000  0.68087000  0.10368000  1.0
  N  N79  1  0.63786000  0.31913000  0.89632000  1.0
  O  O80  1  0.26188000  0.08966000  0.52861000  1.0
  O  O81  1  0.73813000  0.91034000  0.47139000  1.0
