# generated using pymatgen
data_Zn2H10C15N8O5
_symmetry_space_group_name_H-M   'P 1'
_cell_length_a   11.02290000
_cell_length_b   11.80600000
_cell_length_c   17.42060000
_cell_angle_alpha   79.99900000
_cell_angle_beta   89.97160000
_cell_angle_gamma   62.19200000
_symmetry_Int_Tables_number   1
_chemical_formula_structural   Zn2H10C15N8O5
_chemical_formula_sum   'Zn8 H40 C60 N32 O20'
_cell_volume   1966.31921271
_cell_formula_units_Z   4
loop_
 _symmetry_equiv_pos_site_id
 _symmetry_equiv_pos_as_xyz
  1  'x, y, z'
loop_
 _atom_site_type_symbol
 _atom_site_label
 _atom_site_symmetry_multiplicity
 _atom_site_fract_x
 _atom_site_fract_y
 _atom_site_fract_z
 _atom_site_occupancy
  Zn  Zn0  1  0.91474000  0.90223000  0.35946000  1.0
  Zn  Zn1  1  0.81656000  0.09808000  0.14079000  1.0
  Zn  Zn2  1  0.08525000  0.09776000  0.64054000  1.0
  Zn  Zn3  1  0.18344000  0.90192000  0.85921000  1.0
  Zn  Zn4  1  0.17001000  0.53097000  0.67248000  1.0
  Zn  Zn5  1  0.70103000  0.46857000  0.82744000  1.0
  Zn  Zn6  1  0.82999000  0.46903000  0.32752000  1.0
  Zn  Zn7  1  0.29897000  0.53143000  0.17256000  1.0
  H  H8  1  0.89406000  0.54224000  0.53483000  1.0
  H  H9  1  0.43599000  0.45744000  0.96548000  1.0
  H  H10  1  0.10594000  0.45776000  0.46517000  1.0
  H  H11  1  0.56402000  0.54255000  0.03453000  1.0
  H  H12  1  0.65736000  0.59507000  0.56444000  1.0
  H  H13  1  0.25199000  0.40477000  0.93585000  1.0
  H  H14  1  0.34264000  0.40493000  0.43556000  1.0
  H  H15  1  0.74802000  0.59522000  0.06416000  1.0
  H  H16  1  0.57554000  0.98547000  0.58083000  1.0
  H  H17  1  0.56016000  0.01447000  0.91916000  1.0
  H  H18  1  0.42447000  0.01452000  0.41917000  1.0
  H  H19  1  0.43984000  0.98553000  0.08084000  1.0
  H  H20  1  0.81499000  0.92966000  0.55384000  1.0
  H  H21  1  0.74389000  0.07012000  0.94615000  1.0
  H  H22  1  0.18501000  0.07033000  0.44616000  1.0
  H  H23  1  0.25612000  0.92989000  0.05384000  1.0
  H  H24  1  0.42521000  0.70546000  0.51967000  1.0
  H  H25  1  0.13000000  0.29407000  0.98049000  1.0
  H  H26  1  0.57478000  0.29453000  0.48034000  1.0
  H  H27  1  0.87001000  0.70592000  0.01951000  1.0
  H  H28  1  0.40626000  0.98187000  0.65352000  1.0
  H  H29  1  0.38778000  0.01837000  0.84630000  1.0
  H  H30  1  0.59373000  0.01812000  0.34648000  1.0
  H  H31  1  0.61223000  0.98163000  0.15370000  1.0
  H  H32  1  0.86198000  0.64254000  0.76193000  1.0
  H  H33  1  0.50470000  0.35695000  0.73820000  1.0
  H  H34  1  0.13802000  0.35746000  0.23807000  1.0
  H  H35  1  0.49529000  0.64305000  0.26181000  1.0
  H  H36  1  0.15774000  0.85042000  0.55556000  1.0
  H  H37  1  0.00766000  0.14907000  0.94425000  1.0
  H  H38  1  0.84226000  0.14958000  0.44444000  1.0
  H  H39  1  0.99234000  0.85093000  0.05575000  1.0
  H  H40  1  0.02660000  0.08389000  0.34949000  1.0
  H  H41  1  0.11077000  0.91668000  0.15070000  1.0
  H  H42  1  0.97340000  0.91611000  0.65051000  1.0
  H  H43  1  0.88923000  0.08333000  0.84930000  1.0
  H  H44  1  0.12545000  0.93666000  0.35066000  1.0
  H  H45  1  0.06206000  0.06396000  0.14948000  1.0
  H  H46  1  0.87454000  0.06334000  0.64934000  1.0
  H  H47  1  0.93794000  0.93604000  0.85052000  1.0
  C  C48  1  0.00884000  0.70185000  0.51774000  1.0
  C  C49  1  0.71025000  0.29787000  0.98228000  1.0
  C  C50  1  0.99117000  0.29815000  0.48226000  1.0
  C  C51  1  0.28976000  0.70213000  0.01772000  1.0
  C  C52  1  0.87031000  0.73264000  0.54127000  1.0
  C  C53  1  0.60244000  0.26710000  0.95884000  1.0
  C  C54  1  0.12970000  0.26736000  0.45873000  1.0
  C  C55  1  0.39757000  0.73290000  0.04115000  1.0
  C  C56  1  0.82491000  0.63900000  0.54571000  1.0
  C  C57  1  0.46350000  0.36075000  0.95450000  1.0
  C  C58  1  0.17509000  0.36100000  0.45429000  1.0
  C  C59  1  0.53651000  0.63923000  0.04551000  1.0
  C  C60  1  0.69095000  0.66885000  0.56225000  1.0
  C  C61  1  0.35929000  0.33104000  0.93793000  1.0
  C  C62  1  0.30905000  0.33114000  0.43775000  1.0
  C  C63  1  0.64071000  0.66895000  0.06208000  1.0
  C  C64  1  0.60106000  0.79401000  0.57439000  1.0
  C  C65  1  0.39440000  0.20595000  0.92568000  1.0
  C  C66  1  0.39893000  0.20599000  0.42561000  1.0
  C  C67  1  0.60561000  0.79404000  0.07432000  1.0
  C  C68  1  0.64610000  0.88749000  0.57209000  1.0
  C  C69  1  0.53280000  0.11242000  0.92797000  1.0
  C  C70  1  0.35390000  0.11251000  0.42791000  1.0
  C  C71  1  0.46720000  0.88758000  0.07203000  1.0
  C  C72  1  0.78027000  0.85669000  0.55567000  1.0
  C  C73  1  0.63625000  0.14310000  0.94440000  1.0
  C  C74  1  0.21972000  0.14331000  0.44432000  1.0
  C  C75  1  0.36375000  0.85690000  0.05559000  1.0
  C  C76  1  0.38223000  0.78212000  0.55329000  1.0
  C  C77  1  0.16371000  0.21757000  0.94673000  1.0
  C  C78  1  0.61777000  0.21787000  0.44671000  1.0
  C  C79  1  0.83630000  0.78243000  0.05327000  1.0
  C  C80  1  0.37571000  0.92593000  0.62260000  1.0
  C  C81  1  0.30115000  0.07417000  0.87722000  1.0
  C  C82  1  0.62429000  0.07407000  0.37740000  1.0
  C  C83  1  0.69885000  0.92584000  0.12277000  1.0
  C  C84  1  0.18361000  0.28095000  0.68184000  1.0
  C  C85  1  0.46490000  0.71876000  0.81801000  1.0
  C  C86  1  0.81639000  0.71906000  0.31816000  1.0
  C  C87  1  0.53510000  0.28124000  0.18199000  1.0
  C  C88  1  0.05040000  0.36531000  0.71122000  1.0
  C  C89  1  0.41598000  0.63435000  0.78868000  1.0
  C  C90  1  0.94960000  0.63469000  0.28878000  1.0
  C  C91  1  0.58401000  0.36565000  0.21132000  1.0
  C  C92  1  0.94129000  0.34915000  0.74252000  1.0
  C  C93  1  0.29078000  0.65051000  0.75734000  1.0
  C  C94  1  0.05870000  0.65086000  0.25748000  1.0
  C  C95  1  0.70922000  0.34949000  0.24266000  1.0
  C  C96  1  0.90486000  0.24217000  0.75704000  1.0
  C  C97  1  0.14752000  0.75757000  0.74274000  1.0
  C  C98  1  0.09514000  0.75783000  0.24295000  1.0
  C  C99  1  0.85247000  0.24243000  0.25726000  1.0
  C  C100  1  0.90855000  0.54419000  0.75035000  1.0
  C  C101  1  0.45292000  0.45532000  0.74974000  1.0
  C  C102  1  0.09145000  0.45581000  0.24965000  1.0
  C  C103  1  0.54707000  0.54468000  0.25027000  1.0
  C  C104  1  0.25047000  0.85392000  0.57153000  1.0
  C  C105  1  0.10387000  0.14574000  0.92832000  1.0
  C  C106  1  0.74953000  0.14609000  0.42846000  1.0
  C  C107  1  0.89613000  0.85426000  0.07168000  1.0
  N  N108  1  0.24789000  0.94277000  0.61472000  1.0
  N  N109  1  0.19025000  0.05715000  0.88501000  1.0
  N  N110  1  0.75210000  0.05723000  0.38528000  1.0
  N  N111  1  0.80976000  0.94285000  0.11498000  1.0
  N  N112  1  0.03510000  0.75612000  0.44978000  1.0
  N  N113  1  0.79066000  0.24388000  0.05025000  1.0
  N  N114  1  0.96489000  0.24388000  0.55021000  1.0
  N  N115  1  0.20935000  0.75612000  0.94975000  1.0
  N  N116  1  0.17413000  0.69638000  0.44798000  1.0
  N  N117  1  0.86991000  0.30371000  0.05190000  1.0
  N  N118  1  0.82587000  0.30363000  0.55202000  1.0
  N  N119  1  0.13009000  0.69629000  0.94810000  1.0
  N  N120  1  0.23055000  0.60995000  0.51238000  1.0
  N  N121  1  0.84002000  0.38996000  0.98741000  1.0
  N  N122  1  0.76945000  0.39005000  0.48762000  1.0
  N  N123  1  0.15998000  0.61004000  0.01258000  1.0
  N  N124  1  0.12948000  0.61104000  0.55745000  1.0
  N  N125  1  0.74016000  0.38865000  0.94245000  1.0
  N  N126  1  0.87052000  0.38895000  0.44255000  1.0
  N  N127  1  0.25984000  0.61135000  0.05755000  1.0
  N  N128  1  0.46086000  0.82924000  0.58572000  1.0
  N  N129  1  0.28948000  0.17069000  0.91429000  1.0
  N  N130  1  0.53913000  0.17076000  0.41428000  1.0
  N  N131  1  0.71053000  0.82930000  0.08571000  1.0
  N  N132  1  0.02654000  0.48892000  0.71694000  1.0
  N  N133  1  0.51562000  0.51068000  0.78305000  1.0
  N  N134  1  0.97346000  0.51108000  0.28305000  1.0
  N  N135  1  0.48437000  0.48932000  0.21695000  1.0
  N  N136  1  0.85461000  0.46271000  0.76734000  1.0
  N  N137  1  0.31762000  0.53687000  0.73262000  1.0
  N  N138  1  0.14538000  0.53729000  0.23266000  1.0
  N  N139  1  0.68237000  0.46313000  0.26738000  1.0
  O  O140  1  0.26410000  0.33014000  0.66645000  1.0
  O  O141  1  0.59453000  0.66951000  0.83339000  1.0
  O  O142  1  0.73591000  0.66986000  0.33355000  1.0
  O  O143  1  0.40547000  0.33049000  0.16661000  1.0
  O  O144  1  0.06078000  0.99489000  0.38210000  1.0
  O  O145  1  0.05607000  0.00558000  0.11802000  1.0
  O  O146  1  0.93921000  0.00511000  0.61790000  1.0
  O  O147  1  0.94394000  0.99442000  0.88198000  1.0
  O  O148  1  0.21444000  0.16515000  0.67486000  1.0
  O  O149  1  0.38008000  0.83459000  0.82496000  1.0
  O  O150  1  0.78555000  0.83486000  0.32514000  1.0
  O  O151  1  0.61992000  0.16542000  0.17503000  1.0
  O  O152  1  0.96632000  0.14008000  0.72733000  1.0
  O  O153  1  0.10701000  0.85969000  0.77245000  1.0
  O  O154  1  0.03367000  0.85993000  0.27267000  1.0
  O  O155  1  0.89298000  0.14032000  0.22755000  1.0
  O  O156  1  0.81074000  0.25422000  0.80257000  1.0
  O  O157  1  0.06552000  0.74557000  0.69721000  1.0
  O  O158  1  0.18926000  0.74578000  0.19743000  1.0
  O  O159  1  0.93448000  0.25443000  0.30279000  1.0
