# generated using pymatgen
data_ZnH16C15N6O5
_symmetry_space_group_name_H-M   'P 1'
_cell_length_a   10.08640000
_cell_length_b   10.27540000
_cell_length_c   10.78610000
_cell_angle_alpha   79.68920000
_cell_angle_beta   62.82190000
_cell_angle_gamma   65.12320000
_symmetry_Int_Tables_number   1
_chemical_formula_structural   ZnH16C15N6O5
_chemical_formula_sum   'Zn2 H32 C30 N12 O10'
_cell_volume   902.07364390
_cell_formula_units_Z   2
loop_
 _symmetry_equiv_pos_site_id
 _symmetry_equiv_pos_as_xyz
  1  'x, y, z'
loop_
 _atom_site_type_symbol
 _atom_site_label
 _atom_site_symmetry_multiplicity
 _atom_site_fract_x
 _atom_site_fract_y
 _atom_site_fract_z
 _atom_site_occupancy
  Zn  Zn0  1  0.97173000  0.39691000  0.30432000  1.0
  Zn  Zn1  1  0.02827000  0.60310000  0.69568000  1.0
  H  H2  1  0.27346000  0.95729000  0.58942000  1.0
  H  H3  1  0.72654000  0.04271000  0.41058000  1.0
  H  H4  1  0.12910000  0.87968000  0.67154000  1.0
  H  H5  1  0.87088000  0.12033000  0.32847000  1.0
  H  H6  1  0.18045000  0.92533000  0.84966000  1.0
  H  H7  1  0.81954000  0.07467000  0.15035000  1.0
  H  H8  1  0.98453000  0.05357000  0.87575000  1.0
  H  H9  1  0.01547000  0.94644000  0.12425000  1.0
  H  H10  1  0.29507000  0.11542000  0.72374000  1.0
  H  H11  1  0.70494000  0.88456000  0.27626000  1.0
  H  H12  1  0.09375000  0.24540000  0.77363000  1.0
  H  H13  1  0.90627000  0.75460000  0.22636000  1.0
  H  H14  1  0.71945000  0.25646000  0.56963000  1.0
  H  H15  1  0.28056000  0.74354000  0.43036000  1.0
  H  H16  1  0.20817000  0.17588000  0.43876000  1.0
  H  H17  1  0.79183000  0.82413000  0.56124000  1.0
  H  H18  1  0.27712000  0.06329000  0.17446000  1.0
  H  H19  1  0.72286000  0.93671000  0.82556000  1.0
  H  H20  1  0.96430000  0.36659000  0.00794000  1.0
  H  H21  1  0.03570000  0.63341000  0.99206000  1.0
  H  H22  1  0.44070000  0.38165000  0.30084000  1.0
  H  H23  1  0.55931000  0.61834000  0.69915000  1.0
  H  H24  1  0.66048000  0.68719000  0.12123000  1.0
  H  H25  1  0.33952000  0.31280000  0.87877000  1.0
  H  H26  1  0.47019000  0.80994000  0.00848000  1.0
  H  H27  1  0.52980000  0.19006000  0.99152000  1.0
  H  H28  1  0.26386000  0.71640000  0.04574000  1.0
  H  H29  1  0.73614000  0.28360000  0.95426000  1.0
  H  H30  1  0.72498000  0.61006000  0.45164000  1.0
  H  H31  1  0.27502000  0.38994000  0.54836000  1.0
  H  H32  1  0.81675000  0.58733000  0.54651000  1.0
  H  H33  1  0.18325000  0.41268000  0.45349000  1.0
  C  C34  1  0.14718000  0.97918000  0.66388000  1.0
  C  C35  1  0.85281000  0.02083000  0.33612000  1.0
  C  C36  1  0.11408000  0.02201000  0.80655000  1.0
  C  C37  1  0.88592000  0.97800000  0.19344000  1.0
  C  C38  1  0.16873000  0.14191000  0.80075000  1.0
  C  C39  1  0.83128000  0.85809000  0.19925000  1.0
  C  C40  1  0.84073000  0.21095000  0.56366000  1.0
  C  C41  1  0.15926000  0.78906000  0.43634000  1.0
  C  C42  1  0.08912000  0.17262000  0.49384000  1.0
  C  C43  1  0.91087000  0.82739000  0.50616000  1.0
  C  C44  1  0.21977000  0.11803000  0.10556000  1.0
  C  C45  1  0.78022000  0.88197000  0.89446000  1.0
  C  C46  1  0.05757000  0.27349000  0.02571000  1.0
  C  C47  1  0.94244000  0.72650000  0.97429000  1.0
  C  C48  1  0.33543000  0.54588000  0.17861000  1.0
  C  C49  1  0.66457000  0.45412000  0.82139000  1.0
  C  C50  1  0.44417000  0.47716000  0.23884000  1.0
  C  C51  1  0.55583000  0.52284000  0.76115000  1.0
  C  C52  1  0.56074000  0.52791000  0.21885000  1.0
  C  C53  1  0.43927000  0.47209000  0.78114000  1.0
  C  C54  1  0.56890000  0.64886000  0.13614000  1.0
  C  C55  1  0.43110000  0.35114000  0.86386000  1.0
  C  C56  1  0.46333000  0.71640000  0.07335000  1.0
  C  C57  1  0.53667000  0.28359000  0.92665000  1.0
  C  C58  1  0.34715000  0.66485000  0.09413000  1.0
  C  C59  1  0.65286000  0.33514000  0.90586000  1.0
  C  C60  1  0.20533000  0.49606000  0.20726000  1.0
  C  C61  1  0.79468000  0.50392000  0.79274000  1.0
  C  C62  1  0.67638000  0.45146000  0.28466000  1.0
  C  C63  1  0.32362000  0.54854000  0.71533000  1.0
  N  N64  1  0.04653000  0.08733000  0.60130000  1.0
  N  N65  1  0.95347000  0.91268000  0.39870000  1.0
  N  N66  1  0.88807000  0.10961000  0.64708000  1.0
  N  N67  1  0.11193000  0.89039000  0.35292000  1.0
  N  N68  1  0.96127000  0.25268000  0.46698000  1.0
  N  N69  1  0.03874000  0.74732000  0.53302000  1.0
  N  N70  1  0.16034000  0.16302000  0.93464000  1.0
  N  N71  1  0.83966000  0.83698000  0.06537000  1.0
  N  N72  1  0.26516000  0.06219000  0.98380000  1.0
  N  N73  1  0.73484000  0.93781000  0.01621000  1.0
  N  N74  1  0.09239000  0.24790000  0.13584000  1.0
  N  N75  1  0.90760000  0.75211000  0.86416000  1.0
  O  O76  1  0.11472000  0.54908000  0.14554000  1.0
  O  O77  1  0.88527000  0.45092000  0.85446000  1.0
  O  O78  1  0.18451000  0.39872000  0.30122000  1.0
  O  O79  1  0.81549000  0.60128000  0.69879000  1.0
  O  O80  1  0.78367000  0.50449000  0.25535000  1.0
  O  O81  1  0.21632000  0.49552000  0.74465000  1.0
  O  O82  1  0.66538000  0.34496000  0.35977000  1.0
  O  O83  1  0.33462000  0.65504000  0.64023000  1.0
  O  O84  1  0.82928000  0.59308000  0.44808000  1.0
  O  O85  1  0.17072000  0.40692000  0.55192000  1.0
