# generated using pymatgen
data_CdH9C10N6ClO
_symmetry_space_group_name_H-M   'P 1'
_cell_length_a   10.44320000
_cell_length_b   10.89910000
_cell_length_c   13.67200000
_cell_angle_alpha   110.49600000
_cell_angle_beta   111.43400000
_cell_angle_gamma   90.55410000
_symmetry_Int_Tables_number   1
_chemical_formula_structural   CdH9C10N6ClO
_chemical_formula_sum   'Cd4 H36 C40 N24 Cl4 O4'
_cell_volume   1339.83543120
_cell_formula_units_Z   4
loop_
 _symmetry_equiv_pos_site_id
 _symmetry_equiv_pos_as_xyz
  1  'x, y, z'
loop_
 _atom_site_type_symbol
 _atom_site_label
 _atom_site_symmetry_multiplicity
 _atom_site_fract_x
 _atom_site_fract_y
 _atom_site_fract_z
 _atom_site_occupancy
  Cd  Cd0  1  0.90537000  0.34978000  0.00910000  1.0
  Cd  Cd1  1  0.65187000  0.09575000  0.49166000  1.0
  Cd  Cd2  1  0.09463000  0.65022000  0.99090000  1.0
  Cd  Cd3  1  0.34813000  0.90425000  0.50834000  1.0
  H  H4  1  0.68580000  0.57157000  0.99796000  1.0
  H  H5  1  0.42783000  0.31381000  0.50199000  1.0
  H  H6  1  0.31420000  0.42842000  0.00203000  1.0
  H  H7  1  0.57217000  0.68619000  0.49801000  1.0
  H  H8  1  0.55986000  0.70586000  0.11368000  1.0
  H  H9  1  0.29465000  0.44151000  0.38714000  1.0
  H  H10  1  0.44014000  0.29414000  0.88632000  1.0
  H  H11  1  0.70535000  0.55849000  0.61287000  1.0
  H  H12  1  0.58311000  0.67563000  0.29255000  1.0
  H  H13  1  0.32554000  0.41827000  0.20843000  1.0
  H  H14  1  0.41689000  0.32437000  0.70745000  1.0
  H  H15  1  0.67446000  0.58174000  0.79158000  1.0
  H  H16  1  0.73820000  0.51550000  0.35178000  1.0
  H  H17  1  0.48500000  0.26237000  0.14868000  1.0
  H  H18  1  0.26179000  0.48450000  0.64822000  1.0
  H  H19  1  0.51499000  0.73764000  0.85132000  1.0
  H  H20  1  0.19483000  0.04535000  0.30287000  1.0
  H  H21  1  0.94997000  0.80016000  0.19454000  1.0
  H  H22  1  0.80517000  0.95465000  0.69713000  1.0
  H  H23  1  0.05003000  0.19984000  0.80545000  1.0
  H  H24  1  0.00583000  0.25784000  0.53537000  1.0
  H  H25  1  0.74428000  0.99752000  0.96617000  1.0
  H  H26  1  0.99417000  0.74216000  0.46463000  1.0
  H  H27  1  0.25572000  0.00248000  0.03383000  1.0
  H  H28  1  0.15379000  0.09195000  0.60132000  1.0
  H  H29  1  0.90691000  0.84441000  0.89785000  1.0
  H  H30  1  0.84621000  0.90805000  0.39868000  1.0
  H  H31  1  0.09309000  0.15559000  0.10215000  1.0
  H  H32  1  0.65489000  0.15712000  0.81268000  1.0
  H  H33  1  0.84227000  0.34238000  0.68803000  1.0
  H  H34  1  0.34511000  0.84289000  0.18732000  1.0
  H  H35  1  0.15773000  0.65762000  0.31197000  1.0
  H  H36  1  0.63229000  0.17108000  0.92343000  1.0
  H  H37  1  0.82421000  0.36117000  0.57523000  1.0
  H  H38  1  0.36771000  0.82892000  0.07657000  1.0
  H  H39  1  0.17579000  0.63883000  0.42478000  1.0
  C  C40  1  0.69340000  0.56264000  0.07694000  1.0
  C  C41  1  0.43729000  0.30663000  0.42328000  1.0
  C  C42  1  0.30660000  0.43736000  0.92306000  1.0
  C  C43  1  0.56271000  0.69337000  0.57672000  1.0
  C  C44  1  0.62319000  0.63613000  0.14111000  1.0
  C  C45  1  0.36451000  0.37777000  0.35959000  1.0
  C  C46  1  0.37681000  0.36387000  0.85889000  1.0
  C  C47  1  0.63549000  0.62223000  0.64042000  1.0
  C  C48  1  0.63745000  0.61921000  0.24107000  1.0
  C  C49  1  0.38168000  0.36353000  0.25971000  1.0
  C  C50  1  0.36255000  0.38079000  0.75893000  1.0
  C  C51  1  0.61832000  0.63648000  0.74029000  1.0
  C  C52  1  0.72248000  0.53136000  0.27417000  1.0
  C  C53  1  0.46914000  0.27801000  0.22629000  1.0
  C  C54  1  0.27752000  0.46864000  0.72583000  1.0
  C  C55  1  0.53085000  0.72199000  0.77371000  1.0
  C  C56  1  0.79133000  0.46175000  0.20615000  1.0
  C  C57  1  0.53820000  0.20858000  0.29395000  1.0
  C  C58  1  0.20866000  0.53824000  0.79385000  1.0
  C  C59  1  0.46180000  0.79142000  0.70605000  1.0
  C  C60  1  0.88433000  0.36991000  0.23576000  1.0
  C  C61  1  0.63003000  0.11576000  0.26432000  1.0
  C  C62  1  0.11567000  0.63008000  0.76424000  1.0
  C  C63  1  0.36998000  0.88424000  0.73568000  1.0
  C  C64  1  0.00829000  0.25157000  0.31267000  1.0
  C  C65  1  0.74771000  0.99183000  0.18716000  1.0
  C  C66  1  0.99171000  0.74843000  0.68733000  1.0
  C  C67  1  0.25229000  0.00818000  0.81284000  1.0
  C  C68  1  0.07458000  0.18456000  0.38824000  1.0
  C  C69  1  0.81420000  0.92516000  0.11128000  1.0
  C  C70  1  0.92542000  0.81544000  0.61177000  1.0
  C  C71  1  0.18580000  0.07484000  0.88872000  1.0
  C  C72  1  0.15954000  0.08576000  0.37151000  1.0
  C  C73  1  0.91060000  0.83668000  0.12645000  1.0
  C  C74  1  0.84046000  0.91423000  0.62849000  1.0
  C  C75  1  0.08939000  0.16331000  0.87354000  1.0
  C  C76  1  0.06297000  0.19691000  0.48988000  1.0
  C  C77  1  0.80318000  0.93799000  0.01032000  1.0
  C  C78  1  0.93704000  0.80310000  0.51012000  1.0
  C  C79  1  0.19682000  0.06201000  0.98968000  1.0
  N  N80  1  0.77477000  0.47742000  0.10810000  1.0
  N  N81  1  0.52210000  0.22454000  0.39173000  1.0
  N  N82  1  0.22523000  0.52257000  0.89190000  1.0
  N  N83  1  0.47790000  0.77546000  0.60827000  1.0
  N  N84  1  0.94414000  0.30208000  0.16527000  1.0
  N  N85  1  0.69868000  0.05601000  0.33497000  1.0
  N  N86  1  0.05586000  0.69792000  0.83473000  1.0
  N  N87  1  0.30132000  0.94399000  0.66503000  1.0
  N  N88  1  0.02452000  0.22581000  0.21343000  1.0
  N  N89  1  0.77438000  0.97550000  0.28657000  1.0
  N  N90  1  0.97549000  0.77419000  0.78657000  1.0
  N  N91  1  0.22561000  0.02450000  0.71343000  1.0
  N  N92  1  0.92200000  0.34174000  0.33028000  1.0
  N  N93  1  0.65726000  0.07819000  0.16957000  1.0
  N  N94  1  0.07800000  0.65826000  0.66972000  1.0
  N  N95  1  0.34273000  0.92181000  0.83043000  1.0
  N  N96  1  0.13661000  0.11009000  0.52749000  1.0
  N  N97  1  0.88817000  0.86127000  0.97142000  1.0
  N  N98  1  0.86339000  0.88991000  0.47251000  1.0
  N  N99  1  0.11183000  0.13873000  0.02858000  1.0
  N  N100  1  0.19595000  0.04133000  0.45619000  1.0
  N  N101  1  0.95439000  0.79870000  0.04118000  1.0
  N  N102  1  0.80405000  0.95866000  0.54381000  1.0
  N  N103  1  0.04561000  0.20130000  0.95882000  1.0
  Cl  Cl104  1  0.85960000  0.44610000  0.85680000  1.0
  Cl  Cl105  1  0.55178000  0.13691000  0.64201000  1.0
  Cl  Cl106  1  0.14040000  0.55390000  0.14320000  1.0
  Cl  Cl107  1  0.44822000  0.86309000  0.35799000  1.0
  O  O108  1  0.70399000  0.16790000  0.89330000  1.0
  O  O109  1  0.83467000  0.29478000  0.60901000  1.0
  O  O110  1  0.29601000  0.83210000  0.10670000  1.0
  O  O111  1  0.16533000  0.70522000  0.39099000  1.0
