# generated using pymatgen
data_Zn2H24C46SN4O15
_symmetry_space_group_name_H-M   'P 1'
_cell_length_a   9.72192000
_cell_length_b   11.15280000
_cell_length_c   28.04900000
_cell_angle_alpha   89.28670000
_cell_angle_beta   89.42180000
_cell_angle_gamma   89.45120000
_symmetry_Int_Tables_number   1
_chemical_formula_structural   Zn2H24C46SN4O15
_chemical_formula_sum   'Zn2 H24 C46 S1 N4 O15'
_cell_volume   3040.73211462
_cell_formula_units_Z   1
loop_
 _symmetry_equiv_pos_site_id
 _symmetry_equiv_pos_as_xyz
  1  'x, y, z'
loop_
 _atom_site_type_symbol
 _atom_site_label
 _atom_site_symmetry_multiplicity
 _atom_site_fract_x
 _atom_site_fract_y
 _atom_site_fract_z
 _atom_site_occupancy
  Zn  Zn0  1  0.36293000  0.49819000  0.50178000  1.0
  Zn  Zn1  1  0.64587000  0.48260000  0.50022000  1.0
  H  H2  1  0.28370000  0.48375000  0.35148000  1.0
  H  H3  1  0.72020000  0.49732000  0.25761000  1.0
  H  H4  1  0.49204000  0.79954000  0.12341000  1.0
  H  H5  1  0.51749000  0.80729000  0.96594000  1.0
  H  H6  1  0.73963000  0.51443000  0.65457000  1.0
  H  H7  1  0.52220000  0.80612000  0.87765000  1.0
  H  H8  1  0.72847000  0.51687000  0.74408000  1.0
  H  H9  1  0.49462000  0.80594000  0.03515000  1.0
  H  H10  1  0.43292000  0.90738000  0.47974000  1.0
  H  H11  1  0.69128000  0.10560000  0.52388000  1.0
  H  H12  1  0.27828000  0.48899000  0.26198000  1.0
  H  H13  1  0.37609000  0.08596000  0.52055000  1.0
  H  H14  1  0.11636000  0.66964000  0.52947000  1.0
  H  H15  1  0.10678000  0.41713000  0.50217000  1.0
  H  H16  1  0.86537000  0.60942000  0.55444000  1.0
  H  H17  1  0.91093000  0.46737000  0.46846000  1.0
  H  H18  1  0.49833000  0.19768000  0.12325000  1.0
  H  H19  1  0.29937000  0.50189000  0.64944000  1.0
  H  H20  1  0.28711000  0.50247000  0.73897000  1.0
  H  H21  1  0.46941000  0.20659000  0.87777000  1.0
  H  H22  1  0.47052000  0.20007000  0.96605000  1.0
  H  H23  1  0.49496000  0.19700000  0.03499000  1.0
  H  H24  1  0.72469000  0.49131000  0.34709000  1.0
  H  H25  1  0.83957000  0.01132000  0.58955000  1.0
  C  C26  1  0.48381000  0.25716000  0.51048000  1.0
  C  C27  1  0.37563000  0.48962000  0.28091000  1.0
  C  C28  1  0.49901000  0.49353000  0.25521000  1.0
  C  C29  1  0.49460000  0.49929000  0.10258000  1.0
  C  C30  1  0.49574000  0.38854000  0.12784000  1.0
  C  C31  1  0.49632000  0.28168000  0.10295000  1.0
  C  C32  1  0.49404000  0.60835000  0.12795000  1.0
  C  C33  1  0.50445000  0.48705000  0.35445000  1.0
  C  C34  1  0.52001000  0.50750000  0.64700000  1.0
  C  C35  1  0.48831000  0.39161000  0.97447000  1.0
  C  C36  1  0.50106000  0.61511000  0.97445000  1.0
  C  C37  1  0.50783000  0.48482000  0.40791000  1.0
  C  C38  1  0.49516000  0.50412000  0.94959000  1.0
  C  C39  1  0.47828000  0.28662000  0.94790000  1.0
  C  C40  1  0.47735000  0.28886000  0.89811000  1.0
  C  C41  1  0.48724000  0.39691000  0.87325000  1.0
  C  C42  1  0.49620000  0.50566000  0.89854000  1.0
  C  C43  1  0.50612000  0.61595000  0.87321000  1.0
  C  C44  1  0.50965000  0.61979000  0.82043000  1.0
  C  C45  1  0.48848000  0.39607000  0.82049000  1.0
  C  C46  1  0.38573000  0.50560000  0.72019000  1.0
  C  C47  1  0.39243000  0.50500000  0.67063000  1.0
  C  C48  1  0.49820000  0.72682000  0.50035000  1.0
  C  C49  1  0.64122000  0.51185000  0.67344000  1.0
  C  C50  1  0.63505000  0.51316000  0.72301000  1.0
  C  C51  1  0.50733000  0.50936000  0.74600000  1.0
  C  C52  1  0.49224000  0.38984000  0.02662000  1.0
  C  C53  1  0.49440000  0.50094000  0.05152000  1.0
  C  C54  1  0.49657000  0.61363000  0.02664000  1.0
  C  C55  1  0.49427000  0.28268000  0.05317000  1.0
  C  C56  1  0.49332000  0.71682000  0.10308000  1.0
  C  C57  1  0.51102000  0.72180000  0.94782000  1.0
  C  C58  1  0.51390000  0.72256000  0.89803000  1.0
  C  C59  1  0.52568000  0.50336000  0.59373000  1.0
  C  C60  1  0.49495000  0.71903000  0.05328000  1.0
  C  C61  1  0.59453000  0.92812000  0.52695000  1.0
  C  C62  1  0.50731000  0.85978000  0.50216000  1.0
  C  C63  1  0.59319000  0.05857000  0.52343000  1.0
  C  C64  1  0.47826000  0.12542000  0.51843000  1.0
  C  C65  1  0.07230000  0.58249000  0.52093000  1.0
  C  C66  1  0.92182000  0.56561000  0.52538000  1.0
  C  C67  1  0.49762000  0.38432000  0.18059000  1.0
  C  C68  1  0.49427000  0.60900000  0.18074000  1.0
  C  C69  1  0.62508000  0.49422000  0.27847000  1.0
  C  C70  1  0.62756000  0.49082000  0.32808000  1.0
  C  C71  1  0.37857000  0.48656000  0.33054000  1.0
  S  S72  1  0.72467000  0.86219000  0.56471000  1.0
  N  N73  1  0.49645000  0.49586000  0.20368000  1.0
  N  N74  1  0.50142000  0.50847000  0.79747000  1.0
  N  N75  1  0.15353000  0.49794000  0.50793000  1.0
  N  N76  1  0.85450000  0.50123000  0.49648000  1.0
  O  O77  1  0.36834000  0.31240000  0.50919000  1.0
  O  O78  1  0.47970000  0.30350000  0.79739000  1.0
  O  O79  1  0.49291000  0.70181000  0.20396000  1.0
  O  O80  1  0.51930000  0.71371000  0.79726000  1.0
  O  O81  1  0.60214000  0.30443000  0.50537000  1.0
  O  O82  1  0.39240000  0.48701000  0.42999000  1.0
  O  O83  1  0.62548000  0.48169000  0.42751000  1.0
  O  O84  1  0.37694000  0.68556000  0.49770000  1.0
  O  O85  1  0.61019000  0.66769000  0.49987000  1.0
  O  O86  1  0.41099000  0.51245000  0.57218000  1.0
  O  O87  1  0.64276000  0.48967000  0.57366000  1.0
  O  O88  1  0.50022000  0.28991000  0.20370000  1.0
  O  O89  1  0.66625000  0.77022000  0.59438000  1.0
  O  O90  1  0.85007000  0.84216000  0.53751000  1.0
  O  O91  1  0.75420000  0.97286000  0.60001000  1.0
