# generated using pymatgen
data_KH5C6(NO)6
_symmetry_space_group_name_H-M   'P 1'
_cell_length_a   4.56951000
_cell_length_b   10.06460000
_cell_length_c   12.30710000
_cell_angle_alpha   106.42800000
_cell_angle_beta   90.00000000
_cell_angle_gamma   90.00000000
_symmetry_Int_Tables_number   1
_chemical_formula_structural   KH5C6(NO)6
_chemical_formula_sum   'K2 H10 C12 N12 O12'
_cell_volume   542.90036154
_cell_formula_units_Z   2
loop_
 _symmetry_equiv_pos_site_id
 _symmetry_equiv_pos_as_xyz
  1  'x, y, z'
loop_
 _atom_site_type_symbol
 _atom_site_label
 _atom_site_symmetry_multiplicity
 _atom_site_fract_x
 _atom_site_fract_y
 _atom_site_fract_z
 _atom_site_occupancy
  K  K0  1  0.82110000  0.50000000  0.75000000  1.0
  K  K1  1  0.17890000  0.50000000  0.25000000  1.0
  H  H2  1  0.00000000  0.50000000  0.50000000  1.0
  H  H3  1  0.00000000  0.50000000  0.00000000  1.0
  H  H4  1  0.15974000  0.92149000  0.38344000  1.0
  H  H5  1  0.15973000  0.07851000  0.11656000  1.0
  H  H6  1  0.84027000  0.07851000  0.61656000  1.0
  H  H7  1  0.84027000  0.92149000  0.88344000  1.0
  H  H8  1  0.44614000  0.79853000  0.34944000  1.0
  H  H9  1  0.44614000  0.20147000  0.15056000  1.0
  H  H10  1  0.55386000  0.20147000  0.65056000  1.0
  H  H11  1  0.55386000  0.79853000  0.84944000  1.0
  C  C12  1  0.67306000  0.64317000  0.49270000  1.0
  C  C13  1  0.67306000  0.35683000  0.00730000  1.0
  C  C14  1  0.32694000  0.35683000  0.50730000  1.0
  C  C15  1  0.32694000  0.64317000  0.99270000  1.0
  C  C16  1  0.27151000  0.83233000  0.50677000  1.0
  C  C17  1  0.27151000  0.16767000  0.99323000  1.0
  C  C18  1  0.72849000  0.16767000  0.49323000  1.0
  C  C19  1  0.72849000  0.83233000  0.00677000  1.0
  C  C20  1  0.44921000  0.74322000  0.55350000  1.0
  C  C21  1  0.44921000  0.25678000  0.94650000  1.0
  C  C22  1  0.55079000  0.25678000  0.44650000  1.0
  C  C23  1  0.55079000  0.74322000  0.05350000  1.0
  N  N24  1  0.37433000  0.76044000  0.65980000  1.0
  N  N25  1  0.37433000  0.23956000  0.84019000  1.0
  N  N26  1  0.62567000  0.23956000  0.34020000  1.0
  N  N27  1  0.62567000  0.76044000  0.15980000  1.0
  N  N28  1  0.27603000  0.84262000  0.40019000  1.0
  N  N29  1  0.27603000  0.15738000  0.09981000  1.0
  N  N30  1  0.72397000  0.15738000  0.59981000  1.0
  N  N31  1  0.72397000  0.84262000  0.90019000  1.0
  N  N32  1  0.08909000  0.90181000  0.58730000  1.0
  N  N33  1  0.08909000  0.09819000  0.91270000  1.0
  N  N34  1  0.91091000  0.09819000  0.41270000  1.0
  N  N35  1  0.91091000  0.90181000  0.08730000  1.0
  O  O36  1  0.81636000  0.57863000  0.55367000  1.0
  O  O37  1  0.81635000  0.42137000  0.94633000  1.0
  O  O38  1  0.18364000  0.42137000  0.44633000  1.0
  O  O39  1  0.18364000  0.57863000  0.05367000  1.0
  O  O40  1  0.15480000  0.85592000  0.68247000  1.0
  O  O41  1  0.15480000  0.14408000  0.81753000  1.0
  O  O42  1  0.84520000  0.14408000  0.31753000  1.0
  O  O43  1  0.84520000  0.85592000  0.18247000  1.0
  O  O44  1  0.70639000  0.62648000  0.38883000  1.0
  O  O45  1  0.70639000  0.37352000  0.11117000  1.0
  O  O46  1  0.29361000  0.37352000  0.61117000  1.0
  O  O47  1  0.29361000  0.62648000  0.88883000  1.0
