# generated using pymatgen
data_Zn2H23C25N5O13
_symmetry_space_group_name_H-M   'P 1'
_cell_length_a   7.43531000
_cell_length_b   14.19623297
_cell_length_c   16.18020000
_cell_angle_alpha   98.99194163
_cell_angle_beta   103.29180000
_cell_angle_gamma   105.18247783
_symmetry_Int_Tables_number   1
_chemical_formula_structural   Zn2H23C25N5O13
_chemical_formula_sum   'Zn4 H46 C50 N10 O26'
_cell_volume   1560.91049417
_cell_formula_units_Z   2
loop_
 _symmetry_equiv_pos_site_id
 _symmetry_equiv_pos_as_xyz
  1  'x, y, z'
loop_
 _atom_site_type_symbol
 _atom_site_label
 _atom_site_symmetry_multiplicity
 _atom_site_fract_x
 _atom_site_fract_y
 _atom_site_fract_z
 _atom_site_occupancy
  Zn  Zn0  1  0.14362000  0.01937000  0.17560000  1.0
  Zn  Zn1  1  0.55177000  0.51942000  0.67553000  1.0
  Zn  Zn2  1  0.19792000  0.81514000  0.67260000  1.0
  Zn  Zn3  1  0.78972000  0.31520000  0.17257000  1.0
  H  H4  1  0.47955000  0.04213000  0.25526000  1.0
  H  H5  1  0.31822000  0.54235000  0.75524000  1.0
  H  H6  1  0.46356000  0.97305000  0.16121000  1.0
  H  H7  1  0.17108000  0.47312000  0.66120000  1.0
  H  H8  1  0.10681000  0.14112000  0.06910000  1.0
  H  H9  1  0.60327000  0.64127000  0.56906000  1.0
  H  H10  1  0.31938000  0.18883000  0.13444000  1.0
  H  H11  1  0.50406000  0.68888000  0.63460000  1.0
  H  H12  1  0.87572000  0.85946000  0.68954000  1.0
  H  H13  1  0.17304000  0.35934000  0.18949000  1.0
  H  H14  1  0.85846000  0.78801000  0.59629000  1.0
  H  H15  1  0.02555000  0.28790000  0.09623000  1.0
  H  H16  1  0.23304000  0.68877000  0.77570000  1.0
  H  H17  1  0.73145000  0.18871000  0.27566000  1.0
  H  H18  1  0.02111000  0.64083000  0.70864000  1.0
  H  H19  1  0.82855000  0.14092000  0.20862000  1.0
  H  H20  1  0.62778000  0.85800000  0.44782000  1.0
  H  H21  1  0.17781000  0.35785000  0.94790000  1.0
  H  H22  1  0.00541000  0.73450000  0.89379000  1.0
  H  H23  1  0.12353000  0.23462000  0.39361000  1.0
  H  H24  1  0.21816000  0.86393000  0.02998000  1.0
  H  H25  1  0.17631000  0.36402000  0.52981000  1.0
  H  H26  1  0.51041000  0.80063000  0.95516000  1.0
  H  H27  1  0.74607000  0.30045000  0.45527000  1.0
  H  H28  1  0.33631000  0.09033000  0.96191000  1.0
  H  H29  1  0.21609000  0.59062000  0.46200000  1.0
  H  H30  1  0.12026000  0.95760000  0.82691000  1.0
  H  H31  1  0.16457000  0.45785000  0.32704000  1.0
  H  H32  1  0.82991000  0.03330000  0.89205000  1.0
  H  H33  1  0.59545000  0.53320000  0.39205000  1.0
  H  H34  1  0.18693000  0.02697000  0.63698000  1.0
  H  H35  1  0.97703000  0.52724000  0.13690000  1.0
  H  H36  1  0.36514000  0.15790000  0.57075000  1.0
  H  H37  1  0.86305000  0.65804000  0.07066000  1.0
  H  H38  1  0.59697000  0.11660000  0.48997000  1.0
  H  H39  1  0.50895000  0.61659000  0.98997000  1.0
  H  H40  1  0.44030000  0.82215000  0.54366000  1.0
  H  H41  1  0.42559000  0.32218000  0.04371000  1.0
  H  H42  1  0.87691000  0.80513000  0.44570000  1.0
  H  H43  1  0.87279000  0.30496000  0.94566000  1.0
  H  H44  1  0.04074000  0.72684000  0.34813000  1.0
  H  H45  1  0.53294000  0.22692000  0.84792000  1.0
  H  H46  1  0.14997000  0.81673000  0.23729000  1.0
  H  H47  1  0.40363000  0.31699000  0.73699000  1.0
  H  H48  1  0.94548000  0.05006000  0.31567000  1.0
  H  H49  1  0.92027000  0.55011000  0.81593000  1.0
  C  C50  1  0.60609000  0.67743000  0.83589000  1.0
  C  C51  1  0.40754000  0.17730000  0.33592000  1.0
  C  C52  1  0.74123000  0.75728000  0.91472000  1.0
  C  C53  1  0.43138000  0.25725000  0.41471000  1.0
  C  C54  1  0.94255000  0.77595000  0.93550000  1.0
  C  C55  1  0.26956000  0.27604000  0.43540000  1.0
  C  C56  1  0.06085000  0.84848000  0.01023000  1.0
  C  C57  1  0.29845000  0.34855000  0.51011000  1.0
  C  C58  1  0.79452000  0.88803000  0.03984000  1.0
  C  C59  1  0.63396000  0.38796000  0.53982000  1.0
  C  C60  1  0.66630000  0.81352000  0.96870000  1.0
  C  C61  1  0.61657000  0.31339000  0.46873000  1.0
  C  C62  1  0.72205000  0.95756000  0.09510000  1.0
  C  C63  1  0.83123000  0.45746000  0.59510000  1.0
  C  C64  1  0.73375000  0.15837000  0.01014000  1.0
  C  C65  1  0.93477000  0.65849000  0.51016000  1.0
  C  C66  1  0.59919000  0.07419000  0.93469000  1.0
  C  C67  1  0.90976000  0.57432000  0.43473000  1.0
  C  C68  1  0.39739000  0.05115000  0.91751000  1.0
  C  C69  1  0.07145000  0.55137000  0.41759000  1.0
  C  C70  1  0.27834000  0.97674000  0.84424000  1.0
  C  C71  1  0.04290000  0.47691000  0.34436000  1.0
  C  C72  1  0.54538000  0.94277000  0.81023000  1.0
  C  C73  1  0.70781000  0.44276000  0.31031000  1.0
  C  C74  1  0.67403000  0.01879000  0.88016000  1.0
  C  C75  1  0.72504000  0.51878000  0.38022000  1.0
  C  C76  1  0.61856000  0.87532000  0.75322000  1.0
  C  C77  1  0.51003000  0.37528000  0.25328000  1.0
  C  C78  1  0.28834000  0.01274000  0.60115000  1.0
  C  C79  1  0.82547000  0.51293000  0.10113000  1.0
  C  C80  1  0.38834000  0.08476000  0.56457000  1.0
  C  C81  1  0.76063000  0.58488000  0.06453000  1.0
  C  C82  1  0.51588000  0.06252000  0.51924000  1.0
  C  C83  1  0.56540000  0.56255000  0.01925000  1.0
  C  C84  1  0.53602000  0.96617000  0.51046000  1.0
  C  C85  1  0.44037000  0.46615000  0.01052000  1.0
  C  C86  1  0.42863000  0.89781000  0.54846000  1.0
  C  C87  1  0.51769000  0.39787000  0.04852000  1.0
  C  C88  1  0.80881000  0.99202000  0.44313000  1.0
  C  C89  1  0.12585000  0.49182000  0.94329000  1.0
  C  C90  1  0.89822000  0.93434000  0.38788000  1.0
  C  C91  1  0.92338000  0.43420000  0.88799000  1.0
  C  C92  1  0.92337000  0.84176000  0.39636000  1.0
  C  C93  1  0.81373000  0.34165000  0.89635000  1.0
  C  C94  1  0.01513000  0.79793000  0.34219000  1.0
  C  C95  1  0.62400000  0.29798000  0.84206000  1.0
  C  C96  1  0.07501000  0.84689000  0.28040000  1.0
  C  C97  1  0.55177000  0.34704000  0.78021000  1.0
  C  C98  1  0.96250000  0.97797000  0.32402000  1.0
  C  C99  1  0.83925000  0.47800000  0.82416000  1.0
  N  N100  1  0.98808000  0.90397000  0.06091000  1.0
  N  N101  1  0.47743000  0.40397000  0.56085000  1.0
  N  N102  1  0.35159000  0.92412000  0.79156000  1.0
  N  N103  1  0.86434000  0.42422000  0.29165000  1.0
  N  N104  1  0.31024000  0.92105000  0.59358000  1.0
  N  N105  1  0.70451000  0.42117000  0.09360000  1.0
  N  N106  1  0.65380000  0.93341000  0.46395000  1.0
  N  N107  1  0.24321000  0.43326000  0.96406000  1.0
  N  N108  1  0.04664000  0.93473000  0.27081000  1.0
  N  N109  1  0.65875000  0.43488000  0.77078000  1.0
  O  O110  1  0.85160000  0.03348000  0.15002000  1.0
  O  O111  1  0.83254000  0.53332000  0.65008000  1.0
  O  O112  1  0.54126000  0.93679000  0.08183000  1.0
  O  O113  1  0.97795000  0.43674000  0.58177000  1.0
  O  O114  1  0.42574000  0.65085000  0.83075000  1.0
  O  O115  1  0.55600000  0.15060000  0.33070000  1.0
  O  O116  1  0.68604000  0.64254000  0.78237000  1.0
  O  O117  1  0.23902000  0.14238000  0.28251000  1.0
  O  O118  1  0.39724000  0.98076000  0.20866000  1.0
  O  O119  1  0.29262000  0.48095000  0.70868000  1.0
  O  O120  1  0.22433000  0.12468000  0.09690000  1.0
  O  O121  1  0.49741000  0.62476000  0.59700000  1.0
  O  O122  1  0.49039000  0.80090000  0.69634000  1.0
  O  O123  1  0.50691000  0.30093000  0.19631000  1.0
  O  O124  1  0.79987000  0.89716000  0.76732000  1.0
  O  O125  1  0.36465000  0.39702000  0.26743000  1.0
  O  O126  1  0.91556000  0.18218000  0.01696000  1.0
  O  O127  1  0.78358000  0.68232000  0.51695000  1.0
  O  O128  1  0.65312000  0.20126000  0.05850000  1.0
  O  O129  1  0.10665000  0.70136000  0.55858000  1.0
  O  O130  1  0.94023000  0.85047000  0.64133000  1.0
  O  O131  1  0.05139000  0.35039000  0.14126000  1.0
  O  O132  1  0.11790000  0.70531000  0.74499000  1.0
  O  O133  1  0.83238000  0.20536000  0.24495000  1.0
  O  O134  1  0.86869000  0.08441000  0.46523000  1.0
  O  O135  1  0.18042000  0.58420000  0.96546000  1.0
