# generated using pymatgen
data_SmAgH21C29S2(NO4)3
_symmetry_space_group_name_H-M   'P 1'
_cell_length_a   8.78990000
_cell_length_b   10.11980000
_cell_length_c   18.39900000
_cell_angle_alpha   92.25220000
_cell_angle_beta   99.65820000
_cell_angle_gamma   105.46500000
_symmetry_Int_Tables_number   1
_chemical_formula_structural   SmAgH21C29S2(NO4)3
_chemical_formula_sum   'Sm2 Ag2 H42 C58 S4 N6 O24'
_cell_volume   1548.92043900
_cell_formula_units_Z   2
loop_
 _symmetry_equiv_pos_site_id
 _symmetry_equiv_pos_as_xyz
  1  'x, y, z'
loop_
 _atom_site_type_symbol
 _atom_site_label
 _atom_site_symmetry_multiplicity
 _atom_site_fract_x
 _atom_site_fract_y
 _atom_site_fract_z
 _atom_site_occupancy
  Sm  Sm0  1  0.18979000  0.39157000  0.02381000  1.0
  Sm  Sm1  1  0.81021000  0.60843000  0.97619000  1.0
  Ag  Ag2  1  0.20745000  0.04168000  0.42519000  1.0
  Ag  Ag3  1  0.79255000  0.95832000  0.57481000  1.0
  H  H4  1  0.47457000  0.71984000  0.49620000  1.0
  H  H5  1  0.52543000  0.28016000  0.50380000  1.0
  H  H6  1  0.24429000  0.68767000  0.38916000  1.0
  H  H7  1  0.75571000  0.31232000  0.61084000  1.0
  H  H8  1  0.26182000  0.86791000  0.29747000  1.0
  H  H9  1  0.73818000  0.13209000  0.70253000  1.0
  H  H10  1  0.50380000  0.06772000  0.31591000  1.0
  H  H11  1  0.49620000  0.93227000  0.68409000  1.0
  H  H12  1  0.74772000  0.17322000  0.31391000  1.0
  H  H13  1  0.25228000  0.82678000  0.68609000  1.0
  H  H14  1  0.18697000  0.37630000  0.46385000  1.0
  H  H15  1  0.81303000  0.62370000  0.53615000  1.0
  H  H16  1  0.29548000  0.41277000  0.57555000  1.0
  H  H17  1  0.70452000  0.58723000  0.42445000  1.0
  H  H18  1  0.43981000  0.41495000  0.70260000  1.0
  H  H19  1  0.56020000  0.58505000  0.29740000  1.0
  H  H20  1  0.32946000  0.22739000  0.78228000  1.0
  H  H21  1  0.67055000  0.77262000  0.21772000  1.0
  H  H22  1  0.07211000  0.04787000  0.72807000  1.0
  H  H23  1  0.92789000  0.95213000  0.27193000  1.0
  H  H24  1  0.31239000  0.51520000  0.22591000  1.0
  H  H25  1  0.68761000  0.48480000  0.77409000  1.0
  H  H26  1  0.84219000  0.57559000  0.20731000  1.0
  H  H27  1  0.15781000  0.42441000  0.79269000  1.0
  H  H28  1  0.78706000  0.42079000  0.30696000  1.0
  H  H29  1  0.21294000  0.57921000  0.69304000  1.0
  H  H30  1  0.51386000  0.17267000  0.88211000  1.0
  H  H31  1  0.48614000  0.82733000  0.11789000  1.0
  H  H32  1  0.58892000  0.97358000  0.83280000  1.0
  H  H33  1  0.41108000  0.02642000  0.16720000  1.0
  H  H34  1  0.44608000  0.73515000  0.85717000  1.0
  H  H35  1  0.55392000  0.26485000  0.14283000  1.0
  H  H36  1  0.13813000  0.90127000  0.97190000  1.0
  H  H37  1  0.86187000  0.09873000  0.02810000  1.0
  H  H38  1  0.29553000  0.28369000  0.18263000  1.0
  H  H39  1  0.70447000  0.71631000  0.81737000  1.0
  H  H40  1  0.19504000  0.16567000  0.11840000  1.0
  H  H41  1  0.80496000  0.83433000  0.88160000  1.0
  H  H42  1  0.51084000  0.58262000  0.08299000  1.0
  H  H43  1  0.48916000  0.41738000  0.91701000  1.0
  H  H44  1  0.54429000  0.44041000  0.07664000  1.0
  H  H45  1  0.45571000  0.55959000  0.92336000  1.0
  C  C46  1  0.47580000  0.79378000  0.45448000  1.0
  C  C47  1  0.52420000  0.20622000  0.54552000  1.0
  C  C48  1  0.34867000  0.77688000  0.39529000  1.0
  C  C49  1  0.65133000  0.22312000  0.60471000  1.0
  C  C50  1  0.35746000  0.87722000  0.34499000  1.0
  C  C51  1  0.64254000  0.12278000  0.65501000  1.0
  C  C52  1  0.49566000  0.98803000  0.35437000  1.0
  C  C53  1  0.50434000  0.01197000  0.64563000  1.0
  C  C54  1  0.62079000  0.99613000  0.41407000  1.0
  C  C55  1  0.37921000  0.00386000  0.58593000  1.0
  C  C56  1  0.77406000  0.10839000  0.42537000  1.0
  C  C57  1  0.22594000  0.89160000  0.57463000  1.0
  C  C58  1  0.82224000  0.18917000  0.36886000  1.0
  C  C59  1  0.17776000  0.81082000  0.63114000  1.0
  C  C60  1  0.97176000  0.28842000  0.38251000  1.0
  C  C61  1  0.02824000  0.71158000  0.61749000  1.0
  C  C62  1  0.06866000  0.30252000  0.45283000  1.0
  C  C63  1  0.93133000  0.69748000  0.54717000  1.0
  C  C64  1  0.01158000  0.21930000  0.50717000  1.0
  C  C65  1  0.98841000  0.78070000  0.49283000  1.0
  C  C66  1  0.10544000  0.22791000  0.58377000  1.0
  C  C67  1  0.89456000  0.77209000  0.41623000  1.0
  C  C68  1  0.24771000  0.33235000  0.60999000  1.0
  C  C69  1  0.75229000  0.66765000  0.39001000  1.0
  C  C70  1  0.33056000  0.33280000  0.68159000  1.0
  C  C71  1  0.66945000  0.66720000  0.31841000  1.0
  C  C72  1  0.26938000  0.23013000  0.72577000  1.0
  C  C73  1  0.73062000  0.76987000  0.27423000  1.0
  C  C74  1  0.12645000  0.13035000  0.69598000  1.0
  C  C75  1  0.87355000  0.86965000  0.30402000  1.0
  C  C76  1  0.01819000  0.37959000  0.32399000  1.0
  C  C77  1  0.98181000  0.62042000  0.67601000  1.0
  C  C78  1  0.16684000  0.40635000  0.29955000  1.0
  C  C79  1  0.83316000  0.59365000  0.70045000  1.0
  C  C80  1  0.19945000  0.49798000  0.24586000  1.0
  C  C81  1  0.80055000  0.50202000  0.75414000  1.0
  C  C82  1  0.08380000  0.56010000  0.21376000  1.0
  C  C83  1  0.91619000  0.43990000  0.78624000  1.0
  C  C84  1  0.93411000  0.53115000  0.23467000  1.0
  C  C85  1  0.06589000  0.46885000  0.76533000  1.0
  C  C86  1  0.90351000  0.44256000  0.28984000  1.0
  C  C87  1  0.09649000  0.55744000  0.71016000  1.0
  C  C88  1  0.27135000  0.16632000  0.95945000  1.0
  C  C89  1  0.72864000  0.83368000  0.04055000  1.0
  C  C90  1  0.31809000  0.04837000  0.92828000  1.0
  C  C91  1  0.68191000  0.95163000  0.07172000  1.0
  C  C92  1  0.44597000  0.06872000  0.88976000  1.0
  C  C93  1  0.55403000  0.93128000  0.11024000  1.0
  C  C94  1  0.48945000  0.95575000  0.86282000  1.0
  C  C95  1  0.51055000  0.04425000  0.13718000  1.0
  C  C96  1  0.40991000  0.82313000  0.87679000  1.0
  C  C97  1  0.59009000  0.17688000  0.12321000  1.0
  C  C98  1  0.28343000  0.80280000  0.91643000  1.0
  C  C99  1  0.71657000  0.19721000  0.08357000  1.0
  C  C100  1  0.23548000  0.91519000  0.94072000  1.0
  C  C101  1  0.76452000  0.08481000  0.05928000  1.0
  C  C102  1  0.20773000  0.66500000  0.93913000  1.0
  C  C103  1  0.79227000  0.33500000  0.06088000  1.0
  S  S104  1  0.31159000  0.31169000  0.32646000  1.0
  S  S105  1  0.68841000  0.68831000  0.67354000  1.0
  S  S106  1  0.13026000  0.67123000  0.14291000  1.0
  S  S107  1  0.86974000  0.32877000  0.85709000  1.0
  N  N108  1  0.60805000  0.90075000  0.46385000  1.0
  N  N109  1  0.39195000  0.09924000  0.53616000  1.0
  N  N110  1  0.86717000  0.12635000  0.49250000  1.0
  N  N111  1  0.13283000  0.87364000  0.50750000  1.0
  N  N112  1  0.04738000  0.12866000  0.62693000  1.0
  N  N113  1  0.95262000  0.87134000  0.37307000  1.0
  O  O114  1  0.40281000  0.36957000  0.39995000  1.0
  O  O115  1  0.59719000  0.63043000  0.60005000  1.0
  O  O116  1  0.21181000  0.16773000  0.32322000  1.0
  O  O117  1  0.78819000  0.83227000  0.67678000  1.0
  O  O118  1  0.41180000  0.32976000  0.26854000  1.0
  O  O119  1  0.58820000  0.67024000  0.73145000  1.0
  O  O120  1  0.22168000  0.80619000  0.17841000  1.0
  O  O121  1  0.77832000  0.19382000  0.82159000  1.0
  O  O122  1  0.22543000  0.60554000  0.10147000  1.0
  O  O123  1  0.77456000  0.39446000  0.89853000  1.0
  O  O124  1  0.97403000  0.67028000  0.09846000  1.0
  O  O125  1  0.02596000  0.32972000  0.90154000  1.0
  O  O126  1  0.15819000  0.14429000  0.99652000  1.0
  O  O127  1  0.84181000  0.85571000  0.00348000  1.0
  O  O128  1  0.34668000  0.29027000  0.94998000  1.0
  O  O129  1  0.65331000  0.70973000  0.05002000  1.0
  O  O130  1  0.29096000  0.57908000  0.94930000  1.0
  O  O131  1  0.70904000  0.42092000  0.05070000  1.0
  O  O132  1  0.06518000  0.63757000  0.95153000  1.0
  O  O133  1  0.93482000  0.36243000  0.04847000  1.0
  O  O134  1  0.22103000  0.26355000  0.13370000  1.0
  O  O135  1  0.77896000  0.73645000  0.86630000  1.0
  O  O136  1  0.46263000  0.48469000  0.08994000  1.0
  O  O137  1  0.53737000  0.51531000  0.91006000  1.0
