# generated using pymatgen
data_MnH14C20N4O5
_symmetry_space_group_name_H-M   'P 1'
_cell_length_a   9.71308000
_cell_length_b   9.90171000
_cell_length_c   11.95890000
_cell_angle_alpha   82.31030000
_cell_angle_beta   68.00330000
_cell_angle_gamma   61.68590000
_symmetry_Int_Tables_number   1
_chemical_formula_structural   MnH14C20N4O5
_chemical_formula_sum   'Mn2 H28 C40 N8 O10'
_cell_volume   937.49207905
_cell_formula_units_Z   2
loop_
 _symmetry_equiv_pos_site_id
 _symmetry_equiv_pos_as_xyz
  1  'x, y, z'
loop_
 _atom_site_type_symbol
 _atom_site_label
 _atom_site_symmetry_multiplicity
 _atom_site_fract_x
 _atom_site_fract_y
 _atom_site_fract_z
 _atom_site_occupancy
  Mn  Mn0  1  0.49617000  0.17198000  0.89793000  1.0
  Mn  Mn1  1  0.50383000  0.82802000  0.10207000  1.0
  H  H2  1  0.48486000  0.77054000  0.40989000  1.0
  H  H3  1  0.51515000  0.22945000  0.59011000  1.0
  H  H4  1  0.34819000  0.43515000  0.11085000  1.0
  H  H5  1  0.65182000  0.56485000  0.88914000  1.0
  H  H6  1  0.08440000  0.23576000  0.04561000  1.0
  H  H7  1  0.91560000  0.76424000  0.95439000  1.0
  H  H8  1  0.87506000  0.44093000  0.24789000  1.0
  H  H9  1  0.12494000  0.55908000  0.75211000  1.0
  H  H10  1  0.79312000  0.70579000  0.30964000  1.0
  H  H11  1  0.20688000  0.29421000  0.69036000  1.0
  H  H12  1  0.71158000  0.87557000  0.48275000  1.0
  H  H13  1  0.28842000  0.12442000  0.51725000  1.0
  H  H14  1  0.20609000  0.61553000  0.49895000  1.0
  H  H15  1  0.79391000  0.38447000  0.50105000  1.0
  H  H16  1  0.28747000  0.44586000  0.32703000  1.0
  H  H17  1  0.71253000  0.55414000  0.67296000  1.0
  H  H18  1  0.64493000  0.90315000  0.68434000  1.0
  H  H19  1  0.35507000  0.09685000  0.31566000  1.0
  H  H20  1  0.91189000  0.08223000  0.76972000  1.0
  H  H21  1  0.08811000  0.91777000  0.23028000  1.0
  H  H22  1  0.12580000  0.87741000  0.56954000  1.0
  H  H23  1  0.87420000  0.12260000  0.43046000  1.0
  H  H24  1  0.39988000  0.00598000  0.65449000  1.0
  H  H25  1  0.60012000  0.99401000  0.34551000  1.0
  H  H26  1  0.44102000  0.58936000  0.54236000  1.0
  H  H27  1  0.55899000  0.41062000  0.45764000  1.0
  H  H28  1  0.38017000  0.65861000  0.90942000  1.0
  H  H29  1  0.61982000  0.34139000  0.09059000  1.0
  C  C30  1  0.25130000  0.40477000  0.11943000  1.0
  C  C31  1  0.74870000  0.59523000  0.88057000  1.0
  C  C32  1  0.10779000  0.30807000  0.08891000  1.0
  C  C33  1  0.89221000  0.69194000  0.91110000  1.0
  C  C34  1  0.00335000  0.40754000  0.18870000  1.0
  C  C35  1  0.99666000  0.59246000  0.81129000  1.0
  C  C36  1  0.04656000  0.56710000  0.30655000  1.0
  C  C37  1  0.95344000  0.43290000  0.69345000  1.0
  C  C38  1  0.88321000  0.68609000  0.35120000  1.0
  C  C39  1  0.11678000  0.31391000  0.64880000  1.0
  C  C40  1  0.83724000  0.78057000  0.44854000  1.0
  C  C41  1  0.16276000  0.21942000  0.55146000  1.0
  C  C42  1  0.95357000  0.75726000  0.50060000  1.0
  C  C43  1  0.04643000  0.24274000  0.49940000  1.0
  C  C44  1  0.11655000  0.63758000  0.45625000  1.0
  C  C45  1  0.88345000  0.36242000  0.54375000  1.0
  C  C46  1  0.16230000  0.54213000  0.35963000  1.0
  C  C47  1  0.83771000  0.45787000  0.64036000  1.0
  C  C48  1  0.74431000  0.92573000  0.68232000  1.0
  C  C49  1  0.25569000  0.07427000  0.31768000  1.0
  C  C50  1  0.88812000  0.01405000  0.72251000  1.0
  C  C51  1  0.11188000  0.98596000  0.27749000  1.0
  C  C52  1  0.99591000  0.91217000  0.62450000  1.0
  C  C53  1  0.00409000  0.08784000  0.37550000  1.0
  C  C54  1  0.37420000  0.93838000  0.88515000  1.0
  C  C55  1  0.62579000  0.06162000  0.11485000  1.0
  C  C56  1  0.38148000  0.84462000  0.79230000  1.0
  C  C57  1  0.61851000  0.15538000  0.20770000  1.0
  C  C58  1  0.39871000  0.89607000  0.67527000  1.0
  C  C59  1  0.60129000  0.10393000  0.32473000  1.0
  C  C60  1  0.42136000  0.80379000  0.58432000  1.0
  C  C61  1  0.57864000  0.19621000  0.41568000  1.0
  C  C62  1  0.42408000  0.66090000  0.61259000  1.0
  C  C63  1  0.57592000  0.33909000  0.38740000  1.0
  C  C64  1  0.41272000  0.60696000  0.72833000  1.0
  C  C65  1  0.58727000  0.39304000  0.27167000  1.0
  C  C66  1  0.38874000  0.69980000  0.81921000  1.0
  C  C67  1  0.61125000  0.30020000  0.18080000  1.0
  C  C68  1  0.44188000  0.44385000  0.74908000  1.0
  C  C69  1  0.55812000  0.55614000  0.25092000  1.0
  N  N70  1  0.26177000  0.30737000  0.04654000  1.0
  N  N71  1  0.73823000  0.69263000  0.95346000  1.0
  N  N72  1  0.09662000  0.46765000  0.20796000  1.0
  N  N73  1  0.90338000  0.53236000  0.79204000  1.0
  N  N74  1  0.90255000  0.85682000  0.59923000  1.0
  N  N75  1  0.09745000  0.14318000  0.40077000  1.0
  N  N76  1  0.73140000  0.02144000  0.75763000  1.0
  N  N77  1  0.26860000  0.97856000  0.24237000  1.0
  O  O78  1  0.38076000  0.06417000  0.85286000  1.0
  O  O79  1  0.61924000  0.93583000  0.14714000  1.0
  O  O80  1  0.36801000  0.88397000  0.98854000  1.0
  O  O81  1  0.63198000  0.11604000  0.01146000  1.0
  O  O82  1  0.49441000  0.38006000  0.83521000  1.0
  O  O83  1  0.50559000  0.61994000  0.16479000  1.0
  O  O84  1  0.41575000  0.37996000  0.67930000  1.0
  O  O85  1  0.58426000  0.62003000  0.32070000  1.0
  O  O86  1  0.44021000  0.85615000  0.47130000  1.0
  O  O87  1  0.55979000  0.14384000  0.52870000  1.0
