# generated using pymatgen
data_DyH9C3SeNO8
_symmetry_space_group_name_H-M   'P 1'
_cell_length_a   7.71224000
_cell_length_b   9.31489000
_cell_length_c   12.22530000
_cell_angle_alpha   89.34530000
_cell_angle_beta   89.97360000
_cell_angle_gamma   89.97590000
_symmetry_Int_Tables_number   1
_chemical_formula_structural   DyH9C3SeNO8
_chemical_formula_sum   'Dy4 H36 C12 Se4 N4 O32'
_cell_volume   878.19175444
_cell_formula_units_Z   4
loop_
 _symmetry_equiv_pos_site_id
 _symmetry_equiv_pos_as_xyz
  1  'x, y, z'
loop_
 _atom_site_type_symbol
 _atom_site_label
 _atom_site_symmetry_multiplicity
 _atom_site_fract_x
 _atom_site_fract_y
 _atom_site_fract_z
 _atom_site_occupancy
  Dy  Dy0  1  0.22887000  0.92993000  0.70728000  1.0
  Dy  Dy1  1  0.72904000  0.06965000  0.79255000  1.0
  Dy  Dy2  1  0.77113000  0.07008000  0.29272000  1.0
  Dy  Dy3  1  0.27097000  0.93035000  0.20745000  1.0
  H  H4  1  0.11274000  0.96165000  0.92754000  1.0
  H  H5  1  0.61274000  0.03879000  0.57249000  1.0
  H  H6  1  0.88726000  0.03835000  0.07246000  1.0
  H  H7  1  0.38726000  0.96121000  0.42751000  1.0
  H  H8  1  0.97473000  0.85584000  0.87249000  1.0
  H  H9  1  0.47462000  0.14432000  0.62804000  1.0
  H  H10  1  0.02527000  0.14416000  0.12751000  1.0
  H  H11  1  0.52538000  0.85568000  0.37196000  1.0
  H  H12  1  0.92847000  0.73404000  0.70076000  1.0
  H  H13  1  0.42867000  0.26596000  0.80131000  1.0
  H  H14  1  0.07154000  0.26596000  0.29925000  1.0
  H  H15  1  0.57133000  0.73405000  0.19869000  1.0
  H  H16  1  0.08677000  0.62218000  0.69850000  1.0
  H  H17  1  0.58717000  0.37742000  0.80189000  1.0
  H  H18  1  0.91323000  0.37782000  0.30150000  1.0
  H  H19  1  0.41283000  0.62258000  0.19810000  1.0
  H  H20  1  0.32155000  0.46560000  0.38623000  1.0
  H  H21  1  0.82135000  0.53159000  0.11433000  1.0
  H  H22  1  0.67845000  0.53440000  0.61376000  1.0
  H  H23  1  0.17865000  0.46841000  0.88568000  1.0
  H  H24  1  0.42555000  0.25054000  0.46146000  1.0
  H  H25  1  0.92404000  0.74843000  0.04148000  1.0
  H  H26  1  0.57445000  0.74945000  0.53853000  1.0
  H  H27  1  0.07596000  0.25157000  0.95852000  1.0
  H  H28  1  0.43722000  0.33511000  0.59282000  1.0
  H  H29  1  0.93598000  0.66652000  0.90921000  1.0
  H  H30  1  0.56278000  0.66489000  0.40718000  1.0
  H  H31  1  0.06401000  0.33348000  0.09080000  1.0
  H  H32  1  0.34335000  0.58631000  0.60667000  1.0
  H  H33  1  0.84400000  0.41535000  0.89241000  1.0
  H  H34  1  0.65665000  0.41368000  0.39333000  1.0
  H  H35  1  0.15600000  0.58465000  0.10760000  1.0
  H  H36  1  0.26357000  0.67500000  0.48771000  1.0
  H  H37  1  0.76472000  0.32396000  0.01033000  1.0
  H  H38  1  0.73643000  0.32499000  0.51228000  1.0
  H  H39  1  0.23527000  0.67604000  0.98967000  1.0
  C  C40  1  0.08236000  0.99207000  0.46559000  1.0
  C  C41  1  0.58234000  0.00797000  0.03442000  1.0
  C  C42  1  0.91765000  0.00793000  0.53441000  1.0
  C  C43  1  0.41767000  0.99203000  0.96559000  1.0
  C  C44  1  0.45318000  0.35235000  0.50349000  1.0
  C  C45  1  0.95220000  0.64755000  0.99832000  1.0
  C  C46  1  0.54681000  0.64765000  0.49650000  1.0
  C  C47  1  0.04780000  0.35245000  0.00168000  1.0
  C  C48  1  0.36045000  0.59747000  0.51789000  1.0
  C  C49  1  0.86115000  0.40243000  0.98106000  1.0
  C  C50  1  0.63955000  0.40252000  0.48211000  1.0
  C  C51  1  0.13884000  0.59757000  0.01894000  1.0
  Se  Se52  1  0.57647000  0.70594000  0.82171000  1.0
  Se  Se53  1  0.07654000  0.29352000  0.67784000  1.0
  Se  Se54  1  0.42353000  0.29406000  0.17829000  1.0
  Se  Se55  1  0.92346000  0.70648000  0.32216000  1.0
  N  N56  1  0.32472000  0.45835000  0.46980000  1.0
  N  N57  1  0.82441000  0.54040000  0.03083000  1.0
  N  N58  1  0.67528000  0.54165000  0.53019000  1.0
  N  N59  1  0.17559000  0.45960000  0.96918000  1.0
  O  O60  1  0.03528000  0.94839000  0.86161000  1.0
  O  O61  1  0.53540000  0.05177000  0.63857000  1.0
  O  O62  1  0.96473000  0.05161000  0.13839000  1.0
  O  O63  1  0.46460000  0.94823000  0.36143000  1.0
  O  O64  1  0.52303000  0.72552000  0.95030000  1.0
  O  O65  1  0.02451000  0.27338000  0.54908000  1.0
  O  O66  1  0.47696000  0.27448000  0.04970000  1.0
  O  O67  1  0.97549000  0.72662000  0.45092000  1.0
  O  O68  1  0.40715000  0.75427000  0.74028000  1.0
  O  O69  1  0.90601000  0.24588000  0.75856000  1.0
  O  O70  1  0.59286000  0.24573000  0.25971000  1.0
  O  O71  1  0.09399000  0.75412000  0.24144000  1.0
  O  O72  1  0.05546000  0.72659000  0.70062000  1.0
  O  O73  1  0.55562000  0.27305000  0.80047000  1.0
  O  O74  1  0.94454000  0.27341000  0.29938000  1.0
  O  O75  1  0.44438000  0.72695000  0.19953000  1.0
  O  O76  1  0.64767000  0.54838000  0.78051000  1.0
  O  O77  1  0.14755000  0.45111000  0.71894000  1.0
  O  O78  1  0.35233000  0.45162000  0.21949000  1.0
  O  O79  1  0.85246000  0.54890000  0.28106000  1.0
  O  O80  1  0.73537000  0.82678000  0.78516000  1.0
  O  O81  1  0.23485000  0.17257000  0.71523000  1.0
  O  O82  1  0.26464000  0.17321000  0.21484000  1.0
  O  O83  1  0.76515000  0.82743000  0.28477000  1.0
  O  O84  1  0.22398000  0.96549000  0.51658000  1.0
  O  O85  1  0.72400000  0.03423000  0.98339000  1.0
  O  O86  1  0.77602000  0.03451000  0.48342000  1.0
  O  O87  1  0.27600000  0.96577000  0.01661000  1.0
  O  O88  1  0.06988000  0.01025000  0.36268000  1.0
  O  O89  1  0.56967000  0.99018000  0.13735000  1.0
  O  O90  1  0.93012000  0.98975000  0.63732000  1.0
  O  O91  1  0.43034000  0.00982000  0.86265000  1.0
