# generated using pymatgen
data_CuH9C10IN2
_symmetry_space_group_name_H-M   'P 1'
_cell_length_a   13.06450000
_cell_length_b   17.19890000
_cell_length_c   17.19860108
_cell_angle_alpha   81.69009285
_cell_angle_beta   67.67932538
_cell_angle_gamma   67.67700000
_symmetry_Int_Tables_number   1
_chemical_formula_structural   CuH9C10IN2
_chemical_formula_sum   'Cu8 H72 C80 I8 N16'
_cell_volume   3306.97636643
_cell_formula_units_Z   8
loop_
 _symmetry_equiv_pos_site_id
 _symmetry_equiv_pos_as_xyz
  1  'x, y, z'
loop_
 _atom_site_type_symbol
 _atom_site_label
 _atom_site_symmetry_multiplicity
 _atom_site_fract_x
 _atom_site_fract_y
 _atom_site_fract_z
 _atom_site_occupancy
  Cu  Cu0  1  0.86465000  0.75004000  0.77056000  1.0
  Cu  Cu1  1  0.38528000  0.74994000  0.72944000  1.0
  Cu  Cu2  1  0.61475000  0.77056000  0.75004000  1.0
  Cu  Cu3  1  0.13534000  0.72944000  0.74994000  1.0
  Cu  Cu4  1  0.13535000  0.24995000  0.22945000  1.0
  Cu  Cu5  1  0.61473000  0.25006000  0.27055000  1.0
  Cu  Cu6  1  0.38524000  0.22945000  0.24996000  1.0
  Cu  Cu7  1  0.86466000  0.27055000  0.25006000  1.0
  H  H8  1  0.84554000  0.81043000  0.95285000  1.0
  H  H9  1  0.90084000  0.84589000  0.84952000  1.0
  H  H10  1  0.82368000  0.99240000  0.89766000  1.0
  H  H11  1  0.91037000  0.92680000  0.95576000  1.0
  H  H12  1  0.60887000  0.68939000  0.54736000  1.0
  H  H13  1  0.59630000  0.65393000  0.65068000  1.0
  H  H14  1  0.71395000  0.50742000  0.60248000  1.0
  H  H15  1  0.79296000  0.57310000  0.54433000  1.0
  H  H16  1  0.65612000  0.95259000  0.68957000  1.0
  H  H17  1  0.74686000  0.84932000  0.65403000  1.0
  H  H18  1  0.81632000  0.89764000  0.50759000  1.0
  H  H19  1  0.83717000  0.95574000  0.57330000  1.0
  H  H20  1  0.29826000  0.54736000  0.81052000  1.0
  H  H21  1  0.25029000  0.65066000  0.84599000  1.0
  H  H22  1  0.22149000  0.60235000  0.99248000  1.0
  H  H23  1  0.36617000  0.54429000  0.92680000  1.0
  H  H24  1  0.15438000  0.54736000  0.68939000  1.0
  H  H25  1  0.09909000  0.65068000  0.65393000  1.0
  H  H26  1  0.17615000  0.60248000  0.50742000  1.0
  H  H27  1  0.08961000  0.54433000  0.57310000  1.0
  H  H28  1  0.39118000  0.95285000  0.81043000  1.0
  H  H29  1  0.40375000  0.84952000  0.84589000  1.0
  H  H30  1  0.28626000  0.89767000  0.99240000  1.0
  H  H31  1  0.20707000  0.95576000  0.92680000  1.0
  H  H32  1  0.34386000  0.81052000  0.54736000  1.0
  H  H33  1  0.25306000  0.84599000  0.65066000  1.0
  H  H34  1  0.18368000  0.99248000  0.60235000  1.0
  H  H35  1  0.16274000  0.92680000  0.54429000  1.0
  H  H36  1  0.70172000  0.68957000  0.95259000  1.0
  H  H37  1  0.74979000  0.65403000  0.84932000  1.0
  H  H38  1  0.77845000  0.50759000  0.89764000  1.0
  H  H39  1  0.63379000  0.57330000  0.95574000  1.0
  H  H40  1  0.15446000  0.18957000  0.04715000  1.0
  H  H41  1  0.09916000  0.15411000  0.15048000  1.0
  H  H42  1  0.17632000  0.00760000  0.10234000  1.0
  H  H43  1  0.08963000  0.07320000  0.04424000  1.0
  H  H44  1  0.39113000  0.31061000  0.45264000  1.0
  H  H45  1  0.40369000  0.34608000  0.34932000  1.0
  H  H46  1  0.28604000  0.49259000  0.39752000  1.0
  H  H47  1  0.20704000  0.42690000  0.45567000  1.0
  H  H48  1  0.34388000  0.04741000  0.31043000  1.0
  H  H49  1  0.25314000  0.15068000  0.34597000  1.0
  H  H50  1  0.18369000  0.10236000  0.49240000  1.0
  H  H51  1  0.16283000  0.04426000  0.42670000  1.0
  H  H52  1  0.70174000  0.45263000  0.18948000  1.0
  H  H53  1  0.74972000  0.34933000  0.15401000  1.0
  H  H54  1  0.77852000  0.39765000  0.00751000  1.0
  H  H55  1  0.63383000  0.45571000  0.07320000  1.0
  H  H56  1  0.84562000  0.45264000  0.31061000  1.0
  H  H57  1  0.90091000  0.34932000  0.34608000  1.0
  H  H58  1  0.82385000  0.39752000  0.49259000  1.0
  H  H59  1  0.91039000  0.45567000  0.42690000  1.0
  H  H60  1  0.60881000  0.04715000  0.18958000  1.0
  H  H61  1  0.59625000  0.15048000  0.15411000  1.0
  H  H62  1  0.71374000  0.10233000  0.00760000  1.0
  H  H63  1  0.79293000  0.04424000  0.07320000  1.0
  H  H64  1  0.65615000  0.18948000  0.45263000  1.0
  H  H65  1  0.74693000  0.15401000  0.34934000  1.0
  H  H66  1  0.81632000  0.00752000  0.39765000  1.0
  H  H67  1  0.83726000  0.07320000  0.45571000  1.0
  H  H68  1  0.29828000  0.31043000  0.04741000  1.0
  H  H69  1  0.25021000  0.34597000  0.15068000  1.0
  H  H70  1  0.22155000  0.49240000  0.10236000  1.0
  H  H71  1  0.36621000  0.42670000  0.04426000  1.0
  H  H72  1  0.73059000  0.92486000  0.07513000  1.0
  H  H73  1  0.73061000  0.57495000  0.42505000  1.0
  H  H74  1  0.65559000  0.07506000  0.57504000  1.0
  H  H75  1  0.30570000  0.42496000  0.92494000  1.0
  H  H76  1  0.26939000  0.42505000  0.57495000  1.0
  H  H77  1  0.26941000  0.07513000  0.92487000  1.0
  H  H78  1  0.34440000  0.92494000  0.42496000  1.0
  H  H79  1  0.69430000  0.57503000  0.07507000  1.0
  C  C80  1  0.71312000  0.87918000  0.90073000  1.0
  C  C81  1  0.60718000  0.94004000  0.95278000  1.0
  C  C82  1  0.82823000  0.86463000  0.91041000  1.0
  C  C83  1  0.82715000  0.94187000  0.94510000  1.0
  C  C84  1  0.49307000  0.62070000  0.59940000  1.0
  C  C85  1  0.50000000  0.55991000  0.54730000  1.0
  C  C86  1  0.60334000  0.63518000  0.58979000  1.0
  C  C87  1  0.71419000  0.55796000  0.55506000  1.0
  C  C88  1  0.59234000  0.90064000  0.62082000  1.0
  C  C89  1  0.54721000  0.95278000  0.56000000  1.0
  C  C90  1  0.69299000  0.91024000  0.63533000  1.0
  C  C91  1  0.76912000  0.94502000  0.55814000  1.0
  C  C92  1  0.11379000  0.59938000  0.87923000  1.0
  C  C93  1  0.05992000  0.54728000  0.94006000  1.0
  C  C94  1  0.23855000  0.58976000  0.86474000  1.0
  C  C95  1  0.27227000  0.55497000  0.94194000  1.0
  C  C96  1  0.28683000  0.59940000  0.62070000  1.0
  C  C97  1  0.39279000  0.54729000  0.55991000  1.0
  C  C98  1  0.17169000  0.58979000  0.63518000  1.0
  C  C99  1  0.17279000  0.55506000  0.55796000  1.0
  C  C100  1  0.50697000  0.90074000  0.87918000  1.0
  C  C101  1  0.50000000  0.95278000  0.94004000  1.0
  C  C102  1  0.39673000  0.91041000  0.86463000  1.0
  C  C103  1  0.28588000  0.94510000  0.94187000  1.0
  C  C104  1  0.40760000  0.87923000  0.59938000  1.0
  C  C105  1  0.45274000  0.94006000  0.54728000  1.0
  C  C106  1  0.30695000  0.86474000  0.58976000  1.0
  C  C107  1  0.23082000  0.94194000  0.55497000  1.0
  C  C108  1  0.88620000  0.62082000  0.90064000  1.0
  C  C109  1  0.94001000  0.56000000  0.95278000  1.0
  C  C110  1  0.76144000  0.63533000  0.91024000  1.0
  C  C111  1  0.72772000  0.55814000  0.94502000  1.0
  C  C112  1  0.28689000  0.12082000  0.09927000  1.0
  C  C113  1  0.39282000  0.05996000  0.04722000  1.0
  C  C114  1  0.17176000  0.13537000  0.08960000  1.0
  C  C115  1  0.17285000  0.05814000  0.05490000  1.0
  C  C116  1  0.50693000  0.37930000  0.40060000  1.0
  C  C117  1  0.49999000  0.44009000  0.45271000  1.0
  C  C118  1  0.39667000  0.36482000  0.41020000  1.0
  C  C119  1  0.28581000  0.44204000  0.44494000  1.0
  C  C120  1  0.40766000  0.09936000  0.37918000  1.0
  C  C121  1  0.45279000  0.04722000  0.44000000  1.0
  C  C122  1  0.30701000  0.08976000  0.36467000  1.0
  C  C123  1  0.23088000  0.05498000  0.44185000  1.0
  C  C124  1  0.88621000  0.40061000  0.12077000  1.0
  C  C125  1  0.94008000  0.45272000  0.05994000  1.0
  C  C126  1  0.76145000  0.41024000  0.13526000  1.0
  C  C127  1  0.72774000  0.44503000  0.05806000  1.0
  C  C128  1  0.71318000  0.40060000  0.37930000  1.0
  C  C129  1  0.60721000  0.45271000  0.44009000  1.0
  C  C130  1  0.82832000  0.41020000  0.36482000  1.0
  C  C131  1  0.82721000  0.44494000  0.44204000  1.0
  C  C132  1  0.49303000  0.09926000  0.12082000  1.0
  C  C133  1  0.50000000  0.04721000  0.05996000  1.0
  C  C134  1  0.60327000  0.08959000  0.13537000  1.0
  C  C135  1  0.71412000  0.05490000  0.05813000  1.0
  C  C136  1  0.59241000  0.12077000  0.40061000  1.0
  C  C137  1  0.54726000  0.05994000  0.45272000  1.0
  C  C138  1  0.69305000  0.13526000  0.41024000  1.0
  C  C139  1  0.76917000  0.05806000  0.44503000  1.0
  C  C140  1  0.11380000  0.37918000  0.09936000  1.0
  C  C141  1  0.05999000  0.44000000  0.04722000  1.0
  C  C142  1  0.23856000  0.36467000  0.08976000  1.0
  C  C143  1  0.27229000  0.44185000  0.05498000  1.0
  C  C144  1  0.60800000  0.98671000  0.01329000  1.0
  C  C145  1  0.72121000  0.97393000  0.02607000  1.0
  C  C146  1  0.60801000  0.51313000  0.48687000  1.0
  C  C147  1  0.72125000  0.52588000  0.47412000  1.0
  C  C148  1  0.59477000  0.01325000  0.51325000  1.0
  C  C149  1  0.69526000  0.02599000  0.52601000  1.0
  C  C150  1  0.12127000  0.48675000  0.98675000  1.0
  C  C151  1  0.24727000  0.47399000  0.97401000  1.0
  C  C152  1  0.39199000  0.48687000  0.51313000  1.0
  C  C153  1  0.27875000  0.47412000  0.52588000  1.0
  C  C154  1  0.39200000  0.01329000  0.98671000  1.0
  C  C155  1  0.27879000  0.02607000  0.97393000  1.0
  C  C156  1  0.40523000  0.98675000  0.48675000  1.0
  C  C157  1  0.30474000  0.97401000  0.47399000  1.0
  C  C158  1  0.87873000  0.51325000  0.01325000  1.0
  C  C159  1  0.75274000  0.52601000  0.02599000  1.0
  I  I160  1  0.83155000  0.66845000  0.66845000  1.0
  I  I161  1  0.16846000  0.83154000  0.83154000  1.0
  I  I162  1  0.49996000  0.66848000  0.83157000  1.0
  I  I163  1  0.99998000  0.83157000  0.66848000  1.0
  I  I164  1  0.16845000  0.33155000  0.33155000  1.0
  I  I165  1  0.83154000  0.16846000  0.16846000  1.0
  I  I166  1  0.50004000  0.33152000  0.16842000  1.0
  I  I167  1  0.00002000  0.16842000  0.33152000  1.0
  N  N168  1  0.71336000  0.83461000  0.84355000  1.0
  N  N169  1  0.39154000  0.66535000  0.65651000  1.0
  N  N170  1  0.54800000  0.84345000  0.66542000  1.0
  N  N171  1  0.05691000  0.65654000  0.83460000  1.0
  N  N172  1  0.28660000  0.65651000  0.66535000  1.0
  N  N173  1  0.60847000  0.84355000  0.83461000  1.0
  N  N174  1  0.45195000  0.83460000  0.65654000  1.0
  N  N175  1  0.94313000  0.66542000  0.84345000  1.0
  N  N176  1  0.28664000  0.16539000  0.15645000  1.0
  N  N177  1  0.60846000  0.33465000  0.34349000  1.0
  N  N178  1  0.45200000  0.15655000  0.33458000  1.0
  N  N179  1  0.94310000  0.34346000  0.16540000  1.0
  N  N180  1  0.71340000  0.34349000  0.33465000  1.0
  N  N181  1  0.39153000  0.15646000  0.16539000  1.0
  N  N182  1  0.54804000  0.16540000  0.34346000  1.0
  N  N183  1  0.05687000  0.33458000  0.15655000  1.0
