# generated using pymatgen
data_NdCuH8C14(NO4)2
_symmetry_space_group_name_H-M   'P 1'
_cell_length_a   9.26136000
_cell_length_b   11.51210000
_cell_length_c   17.26710000
_cell_angle_alpha   104.87800000
_cell_angle_beta   90.00000000
_cell_angle_gamma   113.71900000
_symmetry_Int_Tables_number   1
_chemical_formula_structural   NdCuH8C14(NO4)2
_chemical_formula_sum   'Nd4 Cu4 H32 C56 N8 O32'
_cell_volume   1617.82867307
_cell_formula_units_Z   4
loop_
 _symmetry_equiv_pos_site_id
 _symmetry_equiv_pos_as_xyz
  1  'x, y, z'
loop_
 _atom_site_type_symbol
 _atom_site_label
 _atom_site_symmetry_multiplicity
 _atom_site_fract_x
 _atom_site_fract_y
 _atom_site_fract_z
 _atom_site_occupancy
  Nd  Nd0  1  0.30282000  0.96842000  0.92522000  1.0
  Nd  Nd1  1  0.33435000  0.03158000  0.57485000  1.0
  Nd  Nd2  1  0.69718000  0.03159000  0.07478000  1.0
  Nd  Nd3  1  0.66565000  0.96842000  0.42515000  1.0
  Cu  Cu4  1  0.23787000  0.32273000  0.13014000  1.0
  Cu  Cu5  1  0.91507000  0.67719000  0.36986000  1.0
  Cu  Cu6  1  0.76213000  0.67727000  0.86985000  1.0
  Cu  Cu7  1  0.08492000  0.32281000  0.63014000  1.0
  H  H8  1  0.61613000  0.19529000  0.77714000  1.0
  H  H9  1  0.42074000  0.80474000  0.72285000  1.0
  H  H10  1  0.38387000  0.80471000  0.22287000  1.0
  H  H11  1  0.57926000  0.19527000  0.27715000  1.0
  H  H12  1  0.78990000  0.30553000  0.68430000  1.0
  H  H13  1  0.48437000  0.69460000  0.81574000  1.0
  H  H14  1  0.21010000  0.69446000  0.31570000  1.0
  H  H15  1  0.51564000  0.30540000  0.18426000  1.0
  H  H16  1  0.16174000  0.23052000  0.75992000  1.0
  H  H17  1  0.93113000  0.76942000  0.74003000  1.0
  H  H18  1  0.83826000  0.76948000  0.24008000  1.0
  H  H19  1  0.06887000  0.23058000  0.25997000  1.0
  H  H20  1  0.00683000  0.12776000  0.86171000  1.0
  H  H21  1  0.87898000  0.87222000  0.63825000  1.0
  H  H22  1  0.99317000  0.87225000  0.13829000  1.0
  H  H23  1  0.12103000  0.12778000  0.36175000  1.0
  H  H24  1  0.55526000  0.73179000  0.06108000  1.0
  H  H25  1  0.82337000  0.26810000  0.43896000  1.0
  H  H26  1  0.44474000  0.26821000  0.93893000  1.0
  H  H27  1  0.17663000  0.73190000  0.56104000  1.0
  H  H28  1  0.49002000  0.56422000  0.13468000  1.0
  H  H29  1  0.92576000  0.43564000  0.36534000  1.0
  H  H30  1  0.50998000  0.43578000  0.86532000  1.0
  H  H31  1  0.07424000  0.56436000  0.63466000  1.0
  H  H32  1  0.05222000  0.33348000  0.99612000  1.0
  H  H33  1  0.71882000  0.66648000  0.50388000  1.0
  H  H34  1  0.94778000  0.66652000  0.00388000  1.0
  H  H35  1  0.28118000  0.33352000  0.49612000  1.0
  H  H36  1  0.09743000  0.50100000  0.91860000  1.0
  H  H37  1  0.59652000  0.49904000  0.58145000  1.0
  H  H38  1  0.90257000  0.49900000  0.08141000  1.0
  H  H39  1  0.40348000  0.50097000  0.41855000  1.0
  C  C40  1  0.69490000  0.08248000  0.88231000  1.0
  C  C41  1  0.61241000  0.91742000  0.61759000  1.0
  C  C42  1  0.30510000  0.91752000  0.11769000  1.0
  C  C43  1  0.38759000  0.08258000  0.38241000  1.0
  C  C44  1  0.79760000  0.15142000  0.82637000  1.0
  C  C45  1  0.64607000  0.84854000  0.67358000  1.0
  C  C46  1  0.20240000  0.84859000  0.17363000  1.0
  C  C47  1  0.35393000  0.15146000  0.32642000  1.0
  C  C48  1  0.73721000  0.20348000  0.77638000  1.0
  C  C49  1  0.53363000  0.79654000  0.72361000  1.0
  C  C50  1  0.26279000  0.79652000  0.22363000  1.0
  C  C51  1  0.46637000  0.20345000  0.27639000  1.0
  C  C52  1  0.83300000  0.26363000  0.72386000  1.0
  C  C53  1  0.56934000  0.73649000  0.77616000  1.0
  C  C54  1  0.16699000  0.73637000  0.27614000  1.0
  C  C55  1  0.43066000  0.26351000  0.22383000  1.0
  C  C56  1  0.04169000  0.22280000  0.76703000  1.0
  C  C57  1  0.81880000  0.77715000  0.73291000  1.0
  C  C58  1  0.95831000  0.77720000  0.23297000  1.0
  C  C59  1  0.18120000  0.22285000  0.26709000  1.0
  C  C60  1  0.95420000  0.16481000  0.82282000  1.0
  C  C61  1  0.78930000  0.83514000  0.67714000  1.0
  C  C62  1  0.04580000  0.83519000  0.17718000  1.0
  C  C63  1  0.21070000  0.16486000  0.32286000  1.0
  C  C64  1  0.34988000  0.74234000  0.94911000  1.0
  C  C65  1  0.60749000  0.25759000  0.55093000  1.0
  C  C66  1  0.65012000  0.25766000  0.05089000  1.0
  C  C67  1  0.39251000  0.74241000  0.44907000  1.0
  C  C68  1  0.32868000  0.63143000  0.98467000  1.0
  C  C69  1  0.69719000  0.36850000  0.51535000  1.0
  C  C70  1  0.67132000  0.36857000  0.01533000  1.0
  C  C71  1  0.30281000  0.63150000  0.48465000  1.0
  C  C72  1  0.44219000  0.64608000  0.04383000  1.0
  C  C73  1  0.79603000  0.35382000  0.45620000  1.0
  C  C74  1  0.55781000  0.35392000  0.95618000  1.0
  C  C75  1  0.20397000  0.64618000  0.54380000  1.0
  C  C76  1  0.40696000  0.55157000  0.08527000  1.0
  C  C77  1  0.85535000  0.44831000  0.41474000  1.0
  C  C78  1  0.59304000  0.44843000  0.91473000  1.0
  C  C79  1  0.14465000  0.55169000  0.58526000  1.0
  C  C80  1  0.16125000  0.42378000  0.00812000  1.0
  C  C81  1  0.73751000  0.57617000  0.49189000  1.0
  C  C82  1  0.83875000  0.57622000  0.99188000  1.0
  C  C83  1  0.26248000  0.42383000  0.50811000  1.0
  C  C84  1  0.18731000  0.51601000  0.96527000  1.0
  C  C85  1  0.67136000  0.48396000  0.53477000  1.0
  C  C86  1  0.81269000  0.48399000  0.03473000  1.0
  C  C87  1  0.32864000  0.51604000  0.46523000  1.0
  C  C88  1  0.94595000  0.92799000  0.97634000  1.0
  C  C89  1  0.01796000  0.07202000  0.52366000  1.0
  C  C90  1  0.05406000  0.07201000  0.02365000  1.0
  C  C91  1  0.98205000  0.92798000  0.47634000  1.0
  C  C92  1  0.21751000  0.92454000  0.73103000  1.0
  C  C93  1  0.29303000  0.07557000  0.76908000  1.0
  C  C94  1  0.78249000  0.07546000  0.26897000  1.0
  C  C95  1  0.70697000  0.92443000  0.23092000  1.0
  N  N96  1  0.98164000  0.27020000  0.71710000  1.0
  N  N97  1  0.71139000  0.72985000  0.78289000  1.0
  N  N98  1  0.01836000  0.72980000  0.28289000  1.0
  N  N99  1  0.28862000  0.27015000  0.21711000  1.0
  N  N100  1  0.26778000  0.44243000  0.06892000  1.0
  N  N101  1  0.82536000  0.55748000  0.43108000  1.0
  N  N102  1  0.73223000  0.55758000  0.93108000  1.0
  N  N103  1  0.17464000  0.44252000  0.56892000  1.0
  O  O104  1  0.54597000  0.03317000  0.86262000  1.0
  O  O105  1  0.51286000  0.96682000  0.63727000  1.0
  O  O106  1  0.45403000  0.96683000  0.13738000  1.0
  O  O107  1  0.48714000  0.03319000  0.36274000  1.0
  O  O108  1  0.76613000  0.08103000  0.94457000  1.0
  O  O109  1  0.68509000  0.91877000  0.55532000  1.0
  O  O110  1  0.23387000  0.91897000  0.05543000  1.0
  O  O111  1  0.31491000  0.08123000  0.44468000  1.0
  O  O112  1  0.23932000  0.72772000  0.89919000  1.0
  O  O113  1  0.51161000  0.27225000  0.60088000  1.0
  O  O114  1  0.76068000  0.27228000  0.10081000  1.0
  O  O115  1  0.48839000  0.72775000  0.39912000  1.0
  O  O116  1  0.47411000  0.85163000  0.97366000  1.0
  O  O117  1  0.62240000  0.14830000  0.52633000  1.0
  O  O118  1  0.52588000  0.14837000  0.02634000  1.0
  O  O119  1  0.37760000  0.85170000  0.47367000  1.0
  O  O120  1  0.00409000  0.86842000  0.92159000  1.0
  O  O121  1  0.13562000  0.13158000  0.57845000  1.0
  O  O122  1  0.99591000  0.13157000  0.07841000  1.0
  O  O123  1  0.86438000  0.86842000  0.42155000  1.0
  O  O124  1  0.80620000  0.87779000  0.99438000  1.0
  O  O125  1  0.92844000  0.12221000  0.50558000  1.0
  O  O126  1  0.19380000  0.12220000  0.00562000  1.0
  O  O127  1  0.07156000  0.87779000  0.49443000  1.0
  O  O128  1  0.20207000  0.85273000  0.77774000  1.0
  O  O129  1  0.34940000  0.14734000  0.72235000  1.0
  O  O130  1  0.79793000  0.14727000  0.22226000  1.0
  O  O131  1  0.65060000  0.85266000  0.27765000  1.0
  O  O132  1  0.17353000  0.88513000  0.65567000  1.0
  O  O133  1  0.28846000  0.11498000  0.84444000  1.0
  O  O134  1  0.82647000  0.11487000  0.34433000  1.0
  O  O135  1  0.71154000  0.88502000  0.15556000  1.0
