# generated using pymatgen
data_DyCoH11C12(N2O5)2
_symmetry_space_group_name_H-M   'P 1'
_cell_length_a   8.96453000
_cell_length_b   13.00350000
_cell_length_c   18.08329165
_cell_angle_alpha   71.85393598
_cell_angle_beta   75.64934180
_cell_angle_gamma   69.85900000
_symmetry_Int_Tables_number   1
_chemical_formula_structural   DyCoH11C12(N2O5)2
_chemical_formula_sum   'Dy4 Co4 H44 C48 N16 O40'
_cell_volume   1857.13310482
_cell_formula_units_Z   4
loop_
 _symmetry_equiv_pos_site_id
 _symmetry_equiv_pos_as_xyz
  1  'x, y, z'
loop_
 _atom_site_type_symbol
 _atom_site_label
 _atom_site_symmetry_multiplicity
 _atom_site_fract_x
 _atom_site_fract_y
 _atom_site_fract_z
 _atom_site_occupancy
  Dy  Dy0  1  0.76143000  0.58938000  0.49538000  1.0
  Dy  Dy1  1  0.84644000  0.91045000  0.00467000  1.0
  Dy  Dy2  1  0.23857000  0.41063000  0.50462000  1.0
  Dy  Dy3  1  0.15358000  0.08954000  0.99533000  1.0
  Co  Co4  1  0.79298000  0.08728000  0.34319000  1.0
  Co  Co5  1  0.22367000  0.41274000  0.15682000  1.0
  Co  Co6  1  0.20703000  0.91272000  0.65680000  1.0
  Co  Co7  1  0.77633000  0.58725000  0.84318000  1.0
  H  H8  1  0.46532000  0.61469000  0.43551000  1.0
  H  H9  1  0.51569000  0.88523000  0.06461000  1.0
  H  H10  1  0.53470000  0.38531000  0.56448000  1.0
  H  H11  1  0.48432000  0.11477000  0.93539000  1.0
  H  H12  1  0.60041000  0.52230000  0.40078000  1.0
  H  H13  1  0.52403000  0.97743000  0.09940000  1.0
  H  H14  1  0.39961000  0.47769000  0.59921000  1.0
  H  H15  1  0.47599000  0.02257000  0.90060000  1.0
  H  H16  1  0.02102000  0.55809000  0.36329000  1.0
  H  H17  1  0.94291000  0.94134000  0.13685000  1.0
  H  H18  1  0.97900000  0.44193000  0.63670000  1.0
  H  H19  1  0.05710000  0.05865000  0.86316000  1.0
  H  H20  1  0.87361000  0.61691000  0.31541000  1.0
  H  H21  1  0.80612000  0.88276000  0.18464000  1.0
  H  H22  1  0.12640000  0.38308000  0.68459000  1.0
  H  H23  1  0.19389000  0.11723000  0.81537000  1.0
  H  H24  1  0.28185000  0.80601000  0.47492000  1.0
  H  H25  1  0.56298000  0.69429000  0.02484000  1.0
  H  H26  1  0.71814000  0.19400000  0.52508000  1.0
  H  H27  1  0.43702000  0.30571000  0.97517000  1.0
  H  H28  1  0.12319000  0.11079000  0.41592000  1.0
  H  H29  1  0.65016000  0.38960000  0.08376000  1.0
  H  H30  1  0.87680000  0.88921000  0.58408000  1.0
  H  H31  1  0.34983000  0.61039000  0.91624000  1.0
  H  H32  1  0.24468000  0.05897000  0.33439000  1.0
  H  H33  1  0.63873000  0.44129000  0.16531000  1.0
  H  H34  1  0.75531000  0.94104000  0.66561000  1.0
  H  H35  1  0.36125000  0.55869000  0.83470000  1.0
  H  H36  1  0.30867000  0.00111000  0.42824000  1.0
  H  H37  1  0.73821000  0.49943000  0.07138000  1.0
  H  H38  1  0.69132000  0.99890000  0.57176000  1.0
  H  H39  1  0.26178000  0.50056000  0.92863000  1.0
  H  H40  1  0.37320000  0.93502000  0.80489000  1.0
  H  H41  1  0.11263000  0.56520000  0.69485000  1.0
  H  H42  1  0.62680000  0.06497000  0.19511000  1.0
  H  H43  1  0.88737000  0.43480000  0.30515000  1.0
  H  H44  1  0.49042000  0.82112000  0.87228000  1.0
  H  H45  1  0.18321000  0.67926000  0.62752000  1.0
  H  H46  1  0.50958000  0.17888000  0.12772000  1.0
  H  H47  1  0.81679000  0.32074000  0.37248000  1.0
  H  H48  1  0.29336000  0.82579000  0.86668000  1.0
  H  H49  1  0.98519000  0.67450000  0.63325000  1.0
  H  H50  1  0.70664000  0.17421000  0.13332000  1.0
  H  H51  1  0.01481000  0.32550000  0.36675000  1.0
  C  C52  1  0.76962000  0.86355000  0.42917000  1.0
  C  C53  1  0.06272000  0.63643000  0.07079000  1.0
  C  C54  1  0.23036000  0.13646000  0.57084000  1.0
  C  C55  1  0.93727000  0.36357000  0.92922000  1.0
  C  C56  1  0.93529000  0.86237000  0.43135000  1.0
  C  C57  1  0.22923000  0.63776000  0.06877000  1.0
  C  C58  1  0.06471000  0.13763000  0.56865000  1.0
  C  C59  1  0.77075000  0.36225000  0.93124000  1.0
  C  C60  1  0.07367000  0.77895000  0.45537000  1.0
  C  C61  1  0.30818000  0.72128000  0.04470000  1.0
  C  C62  1  0.92633000  0.22105000  0.54463000  1.0
  C  C63  1  0.69182000  0.27872000  0.95531000  1.0
  C  C64  1  0.12310000  0.65556000  0.47712000  1.0
  C  C65  1  0.25606000  0.84465000  0.02282000  1.0
  C  C66  1  0.87690000  0.34444000  0.52287000  1.0
  C  C67  1  0.74393000  0.15534000  0.97719000  1.0
  C  C68  1  0.11694000  0.94826000  0.41632000  1.0
  C  C69  1  0.48173000  0.55204000  0.08365000  1.0
  C  C70  1  0.88306000  0.05174000  0.58368000  1.0
  C  C71  1  0.51826000  0.44795000  0.91637000  1.0
  C  C72  1  0.20324000  0.03436000  0.39816000  1.0
  C  C73  1  0.63609000  0.46602000  0.10157000  1.0
  C  C74  1  0.79675000  0.96564000  0.60184000  1.0
  C  C75  1  0.36391000  0.53396000  0.89844000  1.0
  C  C76  1  0.44404000  0.73050000  0.59261000  1.0
  C  C77  1  0.76713000  0.76946000  0.90738000  1.0
  C  C78  1  0.55596000  0.26949000  0.40738000  1.0
  C  C79  1  0.23287000  0.23055000  0.09262000  1.0
  C  C80  1  0.49694000  0.72563000  0.66399000  1.0
  C  C81  1  0.88657000  0.77437000  0.83599000  1.0
  C  C82  1  0.50305000  0.27437000  0.33601000  1.0
  C  C83  1  0.11343000  0.22563000  0.16401000  1.0
  C  C84  1  0.62078000  0.65225000  0.70617000  1.0
  C  C85  1  0.97931000  0.84773000  0.79383000  1.0
  C  C86  1  0.37921000  0.34775000  0.29383000  1.0
  C  C87  1  0.02069000  0.15227000  0.20617000  1.0
  C  C88  1  0.75817000  0.55525000  0.69348000  1.0
  C  C89  1  0.00699000  0.94477000  0.80652000  1.0
  C  C90  1  0.24182000  0.44474000  0.30653000  1.0
  C  C91  1  0.99301000  0.05523000  0.19348000  1.0
  C  C92  1  0.47212000  0.77969000  0.77024000  1.0
  C  C93  1  0.02185000  0.72038000  0.72971000  1.0
  C  C94  1  0.52788000  0.22030000  0.22976000  1.0
  C  C95  1  0.97814000  0.27963000  0.27029000  1.0
  C  C96  1  0.40500000  0.84387000  0.83192000  1.0
  C  C97  1  0.08027000  0.65638000  0.66793000  1.0
  C  C98  1  0.59501000  0.15613000  0.16807000  1.0
  C  C99  1  0.91972000  0.34362000  0.33207000  1.0
  N  N100  1  0.96605000  0.96547000  0.40639000  1.0
  N  N101  1  0.33817000  0.53473000  0.09366000  1.0
  N  N102  1  0.03395000  0.03454000  0.59361000  1.0
  N  N103  1  0.66182000  0.46528000  0.90634000  1.0
  N  N104  1  0.18459000  0.83640000  0.44513000  1.0
  N  N105  1  0.46631000  0.66394000  0.05482000  1.0
  N  N106  1  0.81541000  0.16360000  0.55486000  1.0
  N  N107  1  0.53368000  0.33606000  0.94519000  1.0
  N  N108  1  0.40537000  0.80483000  0.70520000  1.0
  N  N109  1  0.91524000  0.69521000  0.79476000  1.0
  N  N110  1  0.59463000  0.19517000  0.29480000  1.0
  N  N111  1  0.08476000  0.30479000  0.20524000  1.0
  N  N112  1  0.60288000  0.68782000  0.77293000  1.0
  N  N113  1  0.06362000  0.81222000  0.72703000  1.0
  N  N114  1  0.39711000  0.31217000  0.22707000  1.0
  N  N115  1  0.93638000  0.18779000  0.27297000  1.0
  O  O116  1  0.72551000  0.77404000  0.46104000  1.0
  O  O117  1  0.96112000  0.72585000  0.03878000  1.0
  O  O118  1  0.27449000  0.22596000  0.53896000  1.0
  O  O119  1  0.03887000  0.27415000  0.96123000  1.0
  O  O120  1  0.67851000  0.95760000  0.39737000  1.0
  O  O121  1  0.03395000  0.54232000  0.10254000  1.0
  O  O122  1  0.32149000  0.04240000  0.60263000  1.0
  O  O123  1  0.96606000  0.45767000  0.89746000  1.0
  O  O124  1  0.02145000  0.59876000  0.49555000  1.0
  O  O125  1  0.11605000  0.90138000  0.00443000  1.0
  O  O126  1  0.97855000  0.40124000  0.50444000  1.0
  O  O127  1  0.88395000  0.09861000  0.99558000  1.0
  O  O128  1  0.27238000  0.60165000  0.47732000  1.0
  O  O129  1  0.35156000  0.89868000  0.02253000  1.0
  O  O130  1  0.72762000  0.39836000  0.52267000  1.0
  O  O131  1  0.64845000  0.10131000  0.97747000  1.0
  O  O132  1  0.50819000  0.65047000  0.55692000  1.0
  O  O133  1  0.71574000  0.84939000  0.94314000  1.0
  O  O134  1  0.49182000  0.34953000  0.44307000  1.0
  O  O135  1  0.28426000  0.15061000  0.05686000  1.0
  O  O136  1  0.32644000  0.81562000  0.56979000  1.0
  O  O137  1  0.71162000  0.68441000  0.93012000  1.0
  O  O138  1  0.67356000  0.18438000  0.43021000  1.0
  O  O139  1  0.28837000  0.31560000  0.06988000  1.0
  O  O140  1  0.79768000  0.52609000  0.62724000  1.0
  O  O141  1  0.95109000  0.97394000  0.87277000  1.0
  O  O142  1  0.20233000  0.47391000  0.37275000  1.0
  O  O143  1  0.04894000  0.02605000  0.12723000  1.0
  O  O144  1  0.84053000  0.50294000  0.74906000  1.0
  O  O145  1  0.09268000  0.99708000  0.75094000  1.0
  O  O146  1  0.15946000  0.49706000  0.25094000  1.0
  O  O147  1  0.90733000  0.00292000  0.24906000  1.0
  O  O148  1  0.58073000  0.59554000  0.41125000  1.0
  O  O149  1  0.58781000  0.90415000  0.08897000  1.0
  O  O150  1  0.41928000  0.40446000  0.58874000  1.0
  O  O151  1  0.41220000  0.09585000  0.91103000  1.0
  O  O152  1  0.90223000  0.59996000  0.36710000  1.0
  O  O153  1  0.87009000  0.89923000  0.13305000  1.0
  O  O154  1  0.09778000  0.40007000  0.63290000  1.0
  O  O155  1  0.12992000  0.10078000  0.86695000  1.0
