# generated using pymatgen
data_AgH8C7SN5O3
_symmetry_space_group_name_H-M   'P 1'
_cell_length_a   8.97163000
_cell_length_b   8.97166000
_cell_length_c   14.13070000
_cell_angle_alpha   91.10550000
_cell_angle_beta   91.10580000
_cell_angle_gamma   103.75800000
_symmetry_Int_Tables_number   1
_chemical_formula_structural   AgH8C7SN5O3
_chemical_formula_sum   'Ag4 H32 C28 S4 N20 O12'
_cell_volume   1104.21318796
_cell_formula_units_Z   4
loop_
 _symmetry_equiv_pos_site_id
 _symmetry_equiv_pos_as_xyz
  1  'x, y, z'
loop_
 _atom_site_type_symbol
 _atom_site_label
 _atom_site_symmetry_multiplicity
 _atom_site_fract_x
 _atom_site_fract_y
 _atom_site_fract_z
 _atom_site_occupancy
  Ag  Ag0  1  0.14353000  0.14118000  0.21258000  1.0
  Ag  Ag1  1  0.85882000  0.85647000  0.28742000  1.0
  Ag  Ag2  1  0.85647000  0.85882000  0.78742000  1.0
  Ag  Ag3  1  0.14117000  0.14353000  0.71258000  1.0
  H  H4  1  0.31063000  0.91295000  0.75159000  1.0
  H  H5  1  0.08706000  0.68937000  0.74841000  1.0
  H  H6  1  0.68937000  0.08705000  0.24841000  1.0
  H  H7  1  0.91295000  0.31063000  0.25159000  1.0
  H  H8  1  0.32004000  0.89168000  0.20806000  1.0
  H  H9  1  0.10832000  0.67996000  0.29195000  1.0
  H  H10  1  0.67996000  0.10832000  0.79195000  1.0
  H  H11  1  0.89168000  0.32004000  0.70805000  1.0
  H  H12  1  0.44967000  0.68893000  0.13777000  1.0
  H  H13  1  0.31107000  0.55033000  0.36223000  1.0
  H  H14  1  0.55033000  0.31107000  0.86223000  1.0
  H  H15  1  0.68893000  0.44967000  0.63776000  1.0
  H  H16  1  0.49472000  0.70588000  0.01485000  1.0
  H  H17  1  0.29413000  0.50528000  0.48516000  1.0
  H  H18  1  0.50527000  0.29413000  0.98516000  1.0
  H  H19  1  0.70587000  0.49472000  0.51484000  1.0
  H  H20  1  0.32454000  0.45629000  0.02467000  1.0
  H  H21  1  0.54372000  0.67547000  0.47533000  1.0
  H  H22  1  0.67546000  0.54371000  0.97533000  1.0
  H  H23  1  0.45628000  0.32453000  0.52467000  1.0
  H  H24  1  0.20713000  0.57335000  0.97703000  1.0
  H  H25  1  0.42666000  0.79287000  0.52297000  1.0
  H  H26  1  0.79287000  0.42665000  0.02297000  1.0
  H  H27  1  0.57335000  0.20712000  0.47703000  1.0
  H  H28  1  0.07082000  0.25571000  0.88701000  1.0
  H  H29  1  0.74430000  0.92918000  0.61299000  1.0
  H  H30  1  0.92918000  0.74430000  0.11299000  1.0
  H  H31  1  0.25570000  0.07083000  0.38701000  1.0
  H  H32  1  0.08861000  0.24325000  0.00837000  1.0
  H  H33  1  0.75675000  0.91139000  0.49163000  1.0
  H  H34  1  0.91139000  0.75675000  0.99163000  1.0
  H  H35  1  0.24325000  0.08861000  0.50837000  1.0
  C  C36  1  0.28984000  0.93715000  0.82543000  1.0
  C  C37  1  0.06286000  0.71016000  0.67457000  1.0
  C  C38  1  0.71016000  0.06285000  0.17457000  1.0
  C  C39  1  0.93715000  0.28984000  0.32543000  1.0
  C  C40  1  0.31182000  0.89946000  0.97858000  1.0
  C  C41  1  0.10054000  0.68818000  0.52142000  1.0
  C  C42  1  0.68818000  0.10054000  0.02142000  1.0
  C  C43  1  0.89946000  0.31182000  0.47858000  1.0
  C  C44  1  0.24161000  0.01719000  0.00490000  1.0
  C  C45  1  0.98282000  0.75839000  0.49510000  1.0
  C  C46  1  0.75840000  0.98281000  0.99510000  1.0
  C  C47  1  0.01718000  0.24160000  0.50490000  1.0
  C  C48  1  0.18717000  0.09506000  0.92993000  1.0
  C  C49  1  0.90494000  0.81283000  0.57008000  1.0
  C  C50  1  0.81283000  0.90494000  0.07008000  1.0
  C  C51  1  0.09506000  0.18717000  0.42992000  1.0
  C  C52  1  0.30211000  0.91490000  0.13400000  1.0
  C  C53  1  0.08511000  0.69788000  0.36600000  1.0
  C  C54  1  0.69788000  0.08511000  0.86600000  1.0
  C  C55  1  0.91489000  0.30212000  0.63400000  1.0
  C  C56  1  0.40259000  0.69570000  0.06610000  1.0
  C  C57  1  0.30431000  0.59741000  0.43391000  1.0
  C  C58  1  0.59741000  0.30430000  0.93391000  1.0
  C  C59  1  0.69569000  0.40259000  0.56609000  1.0
  C  C60  1  0.27467000  0.55449000  0.03944000  1.0
  C  C61  1  0.44551000  0.72534000  0.46056000  1.0
  C  C62  1  0.72534000  0.44551000  0.96056000  1.0
  C  C63  1  0.55449000  0.27466000  0.53944000  1.0
  S  S64  1  0.14405000  0.49586000  0.13436000  1.0
  S  S65  1  0.50414000  0.85596000  0.36564000  1.0
  S  S66  1  0.85596000  0.50414000  0.86564000  1.0
  S  S67  1  0.49586000  0.14404000  0.63436000  1.0
  N  N68  1  0.21351000  0.04899000  0.83995000  1.0
  N  N69  1  0.95101000  0.78648000  0.66005000  1.0
  N  N70  1  0.78649000  0.95101000  0.16005000  1.0
  N  N71  1  0.04899000  0.21351000  0.33995000  1.0
  N  N72  1  0.34086000  0.85628000  0.89074000  1.0
  N  N73  1  0.14373000  0.65914000  0.60926000  1.0
  N  N74  1  0.65914000  0.14373000  0.10926000  1.0
  N  N75  1  0.85627000  0.34086000  0.39074000  1.0
  N  N76  1  0.11488000  0.20689000  0.94251000  1.0
  N  N77  1  0.79311000  0.88512000  0.55749000  1.0
  N  N78  1  0.88512000  0.79311000  0.05749000  1.0
  N  N79  1  0.20689000  0.11488000  0.44251000  1.0
  N  N80  1  0.23798000  0.02557000  0.10352000  1.0
  N  N81  1  0.97443000  0.76202000  0.39648000  1.0
  N  N82  1  0.76202000  0.97443000  0.89648000  1.0
  N  N83  1  0.02557000  0.23798000  0.60352000  1.0
  N  N84  1  0.34827000  0.83622000  0.06140000  1.0
  N  N85  1  0.16378000  0.65173000  0.43860000  1.0
  N  N86  1  0.65173000  0.16378000  0.93860000  1.0
  N  N87  1  0.83622000  0.34827000  0.56140000  1.0
  O  O88  1  0.23869000  0.46645000  0.21439000  1.0
  O  O89  1  0.53355000  0.76131000  0.28561000  1.0
  O  O90  1  0.76131000  0.53355000  0.78561000  1.0
  O  O91  1  0.46645000  0.23869000  0.71439000  1.0
  O  O92  1  0.03238000  0.35505000  0.09902000  1.0
  O  O93  1  0.64496000  0.96762000  0.40098000  1.0
  O  O94  1  0.96762000  0.64496000  0.90098000  1.0
  O  O95  1  0.35504000  0.03237000  0.59902000  1.0
  O  O96  1  0.06975000  0.62293000  0.15307000  1.0
  O  O97  1  0.37708000  0.93025000  0.34694000  1.0
  O  O98  1  0.93025000  0.37708000  0.84694000  1.0
  O  O99  1  0.62292000  0.06975000  0.65306000  1.0
