# generated using pymatgen
data_Ag2H15C20I(NO2)2
_symmetry_space_group_name_H-M   'P 1'
_cell_length_a   9.11528000
_cell_length_b   9.13035000
_cell_length_c   13.44630000
_cell_angle_alpha   71.23820000
_cell_angle_beta   88.97330000
_cell_angle_gamma   69.27120000
_symmetry_Int_Tables_number   1
_chemical_formula_structural   Ag2H15C20I(NO2)2
_chemical_formula_sum   'Ag4 H30 C40 I2 N4 O8'
_cell_volume   985.19064697
_cell_formula_units_Z   2
loop_
 _symmetry_equiv_pos_site_id
 _symmetry_equiv_pos_as_xyz
  1  'x, y, z'
loop_
 _atom_site_type_symbol
 _atom_site_label
 _atom_site_symmetry_multiplicity
 _atom_site_fract_x
 _atom_site_fract_y
 _atom_site_fract_z
 _atom_site_occupancy
  Ag  Ag0  1  0.89031000  0.01050000  0.07341000  1.0
  Ag  Ag1  1  0.10969000  0.98950000  0.92659000  1.0
  Ag  Ag2  1  0.73255000  0.80026000  0.01444000  1.0
  Ag  Ag3  1  0.26745000  0.19974000  0.98556000  1.0
  H  H4  1  0.78710000  0.58059000  0.42052000  1.0
  H  H5  1  0.21290000  0.41941000  0.57948000  1.0
  H  H6  1  0.96045000  0.79774000  0.83848000  1.0
  H  H7  1  0.03955000  0.20225000  0.16152000  1.0
  H  H8  1  0.72850000  0.23627000  0.28037000  1.0
  H  H9  1  0.27150000  0.76373000  0.71963000  1.0
  H  H10  1  0.56310000  0.36453000  0.71013000  1.0
  H  H11  1  0.43690000  0.63547000  0.28987000  1.0
  H  H12  1  0.55829000  0.15570000  0.88270000  1.0
  H  H13  1  0.44171000  0.84430000  0.11730000  1.0
  H  H14  1  0.77852000  0.77061000  0.24050000  1.0
  H  H15  1  0.22148000  0.22938000  0.75951000  1.0
  H  H16  1  0.72772000  0.43665000  0.10604000  1.0
  H  H17  1  0.27228000  0.56335000  0.89396000  1.0
  H  H18  1  0.69969000  0.44400000  0.56346000  1.0
  H  H19  1  0.30031000  0.55600000  0.43654000  1.0
  H  H20  1  0.90257000  0.32582000  0.56914000  1.0
  H  H21  1  0.09743000  0.67418000  0.43086000  1.0
  H  H22  1  0.98637000  0.99235000  0.66709000  1.0
  H  H23  1  0.01363000  0.00765000  0.33291000  1.0
  H  H24  1  0.60767000  0.57217000  0.94708000  1.0
  H  H25  1  0.39234000  0.42783000  0.05292000  1.0
  H  H26  1  0.63536000  0.26025000  0.47683000  1.0
  H  H27  1  0.36464000  0.73975000  0.52318000  1.0
  H  H28  1  0.83626000  0.14796000  0.48260000  1.0
  H  H29  1  0.16374000  0.85204000  0.51740000  1.0
  H  H30  1  0.51390000  0.96648000  0.64771000  1.0
  H  H31  1  0.48610000  0.03352000  0.35229000  1.0
  H  H32  1  0.90487000  0.49883000  0.70203000  1.0
  H  H33  1  0.09513000  0.50117000  0.29797000  1.0
  C  C34  1  0.77267000  0.54268000  0.35357000  1.0
  C  C35  1  0.22732000  0.45732000  0.64643000  1.0
  C  C36  1  0.75595000  0.39119000  0.36770000  1.0
  C  C37  1  0.24404000  0.60881000  0.63231000  1.0
  C  C38  1  0.87460000  0.92448000  0.80695000  1.0
  C  C39  1  0.12540000  0.07552000  0.19305000  1.0
  C  C40  1  0.74002000  0.35322000  0.27625000  1.0
  C  C41  1  0.25999000  0.64678000  0.72375000  1.0
  C  C42  1  0.65269000  0.23935000  0.73474000  1.0
  C  C43  1  0.34730000  0.76064000  0.26525000  1.0
  C  C44  1  0.64822000  0.12419000  0.83074000  1.0
  C  C45  1  0.35177000  0.87581000  0.16926000  1.0
  C  C46  1  0.76830000  0.65071000  0.25245000  1.0
  C  C47  1  0.23169000  0.34928000  0.74756000  1.0
  C  C48  1  0.77423000  0.19603000  0.67244000  1.0
  C  C49  1  0.22577000  0.80398000  0.32756000  1.0
  C  C50  1  0.73779000  0.46620000  0.17751000  1.0
  C  C51  1  0.26221000  0.53380000  0.82249000  1.0
  C  C52  1  0.78394000  0.31968000  0.56953000  1.0
  C  C53  1  0.21607000  0.68032000  0.43047000  1.0
  C  C54  1  0.88659000  0.03379000  0.71041000  1.0
  C  C55  1  0.11340000  0.96621000  0.28959000  1.0
  C  C56  1  0.63957000  0.62049000  0.86809000  1.0
  C  C57  1  0.36044000  0.37952000  0.13191000  1.0
  C  C58  1  0.76540000  0.51785000  0.83124000  1.0
  C  C59  1  0.23459000  0.48215000  0.16876000  1.0
  C  C60  1  0.85448000  0.33885000  0.89736000  1.0
  C  C61  1  0.14552000  0.66115000  0.10264000  1.0
  C  C62  1  0.75147000  0.27304000  0.47465000  1.0
  C  C63  1  0.24853000  0.72696000  0.52535000  1.0
  C  C64  1  0.58630000  0.84209000  0.69920000  1.0
  C  C65  1  0.41370000  0.15791000  0.30080000  1.0
  C  C66  1  0.54941000  0.78174000  0.80216000  1.0
  C  C67  1  0.45060000  0.21826000  0.19784000  1.0
  C  C68  1  0.41019000  0.88937000  0.84100000  1.0
  C  C69  1  0.58981000  0.11063000  0.15900000  1.0
  C  C70  1  0.80559000  0.57956000  0.72901000  1.0
  C  C71  1  0.19442000  0.42044000  0.27099000  1.0
  C  C72  1  0.71568000  0.74075000  0.66481000  1.0
  C  C73  1  0.28432000  0.25924000  0.33519000  1.0
  I  I74  1  0.77018000  0.83366000  0.50875000  1.0
  I  I75  1  0.22982000  0.16634000  0.49125000  1.0
  N  N76  1  0.75693000  0.96850000  0.86648000  1.0
  N  N77  1  0.24307000  0.03150000  0.13352000  1.0
  N  N78  1  0.74990000  0.61449000  0.16488000  1.0
  N  N79  1  0.25010000  0.38551000  0.83512000  1.0
  O  O80  1  0.81964000  0.28790000  0.99109000  1.0
  O  O81  1  0.18037000  0.71210000  0.00891000  1.0
  O  O82  1  0.95525000  0.25332000  0.85133000  1.0
  O  O83  1  0.04475000  0.74668000  0.14866000  1.0
  O  O84  1  0.28174000  0.96395000  0.77948000  1.0
  O  O85  1  0.71826000  0.03606000  0.22052000  1.0
  O  O86  1  0.42922000  0.89574000  0.93266000  1.0
  O  O87  1  0.57078000  0.10426000  0.06734000  1.0
