# generated using pymatgen
data_AlH11C14N4O5
_symmetry_space_group_name_H-M   'P 1'
_cell_length_a   6.68900000
_cell_length_b   16.88200000
_cell_length_c   16.88210000
_cell_angle_alpha   84.91200000
_cell_angle_beta   83.85640000
_cell_angle_gamma   83.85810000
_symmetry_Int_Tables_number   1
_chemical_formula_structural   AlH11C14N4O5
_chemical_formula_sum   'Al2 H22 C28 N8 O10'
_cell_volume   1878.79972000
_cell_formula_units_Z   2
loop_
 _symmetry_equiv_pos_site_id
 _symmetry_equiv_pos_as_xyz
  1  'x, y, z'
loop_
 _atom_site_type_symbol
 _atom_site_label
 _atom_site_symmetry_multiplicity
 _atom_site_fract_x
 _atom_site_fract_y
 _atom_site_fract_z
 _atom_site_occupancy
  Al  Al0  1  0.50059000  0.50187000  0.49640000  1.0
  Al  Al1  1  0.99941000  0.50359000  0.49812000  1.0
  H  H2  1  0.74999000  0.42389000  0.57611000  1.0
  H  H3  1  0.25001000  0.58092000  0.41908000  1.0
  H  H4  1  0.38776000  0.73960000  0.46130000  1.0
  H  H5  1  0.31658000  0.88887000  0.45971000  1.0
  H  H6  1  0.90407000  0.90125000  0.53656000  1.0
  H  H7  1  0.07128000  0.09925000  0.53081000  1.0
  H  H8  1  0.69748000  0.12152000  0.45315000  1.0
  H  H9  1  0.62659000  0.27109000  0.45129000  1.0
  H  H10  1  0.87341000  0.54871000  0.72891000  1.0
  H  H11  1  0.80251000  0.54685000  0.87848000  1.0
  H  H12  1  0.42871000  0.46920000  0.90075000  1.0
  H  H13  1  0.59593000  0.46343000  0.09875000  1.0
  H  H14  1  0.18343000  0.54030000  0.11112000  1.0
  H  H15  1  0.11225000  0.53870000  0.26039000  1.0
  H  H16  1  0.04805000  0.68672000  0.54198000  1.0
  H  H17  1  0.11850000  0.78059000  0.55897000  1.0
  H  H18  1  0.92486000  0.31307000  0.52029000  1.0
  H  H19  1  0.84404000  0.21778000  0.54255000  1.0
  H  H20  1  0.57514000  0.47971000  0.68693000  1.0
  H  H21  1  0.65595000  0.45746000  0.78221000  1.0
  H  H22  1  0.45196000  0.45802000  0.31329000  1.0
  H  H23  1  0.38150000  0.44103000  0.21942000  1.0
  C  C24  1  0.21095000  0.50544000  0.64261000  1.0
  C  C25  1  0.28903000  0.35739000  0.49454000  1.0
  C  C26  1  0.79071000  0.50019000  0.35219000  1.0
  C  C27  1  0.70931000  0.64781000  0.49981000  1.0
  C  C28  1  0.68113000  0.73536000  0.50180000  1.0
  C  C29  1  0.49753000  0.77594000  0.47941000  1.0
  C  C30  1  0.45671000  0.85784000  0.47856000  1.0
  C  C31  1  0.60711000  0.90228000  0.50035000  1.0
  C  C32  1  0.79114000  0.86450000  0.52133000  1.0
  C  C33  1  0.83304000  0.78042000  0.52375000  1.0
  C  C34  1  0.19218000  0.13803000  0.51459000  1.0
  C  C35  1  0.38712000  0.10283000  0.49549000  1.0
  C  C36  1  0.54830000  0.15024000  0.47166000  1.0
  C  C37  1  0.50779000  0.23221000  0.47063000  1.0
  C  C38  1  0.31334000  0.26974000  0.49269000  1.0
  C  C39  1  0.14938000  0.22188000  0.51375000  1.0
  C  C40  1  0.18666000  0.50731000  0.73025000  1.0
  C  C41  1  0.99220000  0.52936000  0.76779000  1.0
  C  C42  1  0.95170000  0.52834000  0.84976000  1.0
  C  C43  1  0.11286000  0.50451000  0.89717000  1.0
  C  C44  1  0.30781000  0.48542000  0.86197000  1.0
  C  C45  1  0.35061000  0.48625000  0.77812000  1.0
  C  C46  1  0.70886000  0.47866000  0.13551000  1.0
  C  C47  1  0.89289000  0.49965000  0.09772000  1.0
  C  C48  1  0.04329000  0.52144000  0.14216000  1.0
  C  C49  1  0.00249000  0.52059000  0.22406000  1.0
  C  C50  1  0.81888000  0.49820000  0.26464000  1.0
  C  C51  1  0.66696000  0.47625000  0.21959000  1.0
  N  N52  1  0.58698000  0.98659000  0.50045000  1.0
  N  N53  1  0.40693000  0.01837000  0.49923000  1.0
  N  N54  1  0.09306000  0.50078000  0.98163000  1.0
  N  N55  1  0.91301000  0.49955000  0.01340000  1.0
  N  N56  1  0.01183000  0.74602000  0.54775000  1.0
  N  N57  1  0.95737000  0.25378000  0.53504000  1.0
  N  N58  1  0.54262000  0.46496000  0.74622000  1.0
  N  N59  1  0.48817000  0.45224000  0.25399000  1.0
  O  O60  1  0.39044000  0.50373000  0.60631000  1.0
  O  O61  1  0.10955000  0.39369000  0.49626000  1.0
  O  O62  1  0.94529000  0.50696000  0.38867000  1.0
  O  O63  1  0.55472000  0.61133000  0.49304000  1.0
  O  O64  1  0.61147000  0.49601000  0.38744000  1.0
  O  O65  1  0.88854000  0.61256000  0.50399000  1.0
  O  O66  1  0.05142000  0.50450000  0.60744000  1.0
  O  O67  1  0.44858000  0.39256000  0.49548000  1.0
  O  O68  1  0.75000000  0.46635000  0.53364000  1.0
  O  O69  1  0.25000000  0.53846000  0.46154000  1.0
