# generated using pymatgen
data_FeH16C26(SN3)2
_symmetry_space_group_name_H-M   'P 1'
_cell_length_a   8.70635000
_cell_length_b   8.70630000
_cell_length_c   22.06670000
_cell_angle_alpha   95.94430000
_cell_angle_beta   95.94990000
_cell_angle_gamma   107.45000000
_symmetry_Int_Tables_number   1
_chemical_formula_structural   FeH16C26(SN3)2
_chemical_formula_sum   'Fe2 H32 C52 S4 N12'
_cell_volume   1571.02341692
_cell_formula_units_Z   2
loop_
 _symmetry_equiv_pos_site_id
 _symmetry_equiv_pos_as_xyz
  1  'x, y, z'
loop_
 _atom_site_type_symbol
 _atom_site_label
 _atom_site_symmetry_multiplicity
 _atom_site_fract_x
 _atom_site_fract_y
 _atom_site_fract_z
 _atom_site_occupancy
  Fe  Fe0  1  0.04132000  0.95886000  0.75005000  1.0
  Fe  Fe1  1  0.95900000  0.04147000  0.25013000  1.0
  H  H2  1  0.93905000  0.01392000  0.61977000  1.0
  H  H3  1  0.98601000  0.06089000  0.88019000  1.0
  H  H4  1  0.06094000  0.98598000  0.38017000  1.0
  H  H5  1  0.01391000  0.93910000  0.11977000  1.0
  H  H6  1  0.74289000  0.85692000  0.52759000  1.0
  H  H7  1  0.14302000  0.25697000  0.97237000  1.0
  H  H8  1  0.25697000  0.14297000  0.47236000  1.0
  H  H9  1  0.85691000  0.74289000  0.02759000  1.0
  H  H10  1  0.65383000  0.43481000  0.62282000  1.0
  H  H11  1  0.56513000  0.34608000  0.87717000  1.0
  H  H12  1  0.34602000  0.56510000  0.37716000  1.0
  H  H13  1  0.43482000  0.65377000  0.12281000  1.0
  H  H14  1  0.85760000  0.60967000  0.71020000  1.0
  H  H15  1  0.39031000  0.14235000  0.78978000  1.0
  H  H16  1  0.14233000  0.39032000  0.28977000  1.0
  H  H17  1  0.60968000  0.85758000  0.21020000  1.0
  H  H18  1  0.21560000  0.77499000  0.65588000  1.0
  H  H19  1  0.22510000  0.78443000  0.84413000  1.0
  H  H20  1  0.78446000  0.22518000  0.34416000  1.0
  H  H21  1  0.77505000  0.21564000  0.15590000  1.0
  H  H22  1  0.38680000  0.58781000  0.65107000  1.0
  H  H23  1  0.41224000  0.61319000  0.84894000  1.0
  H  H24  1  0.61314000  0.41223000  0.34892000  1.0
  H  H25  1  0.58780000  0.38676000  0.15106000  1.0
  H  H26  1  0.50784000  0.07251000  0.71454000  1.0
  H  H27  1  0.92748000  0.49221000  0.78546000  1.0
  H  H28  1  0.49226000  0.92746000  0.28545000  1.0
  H  H29  1  0.07248000  0.50788000  0.21454000  1.0
  H  H30  1  0.69068000  0.90262000  0.72186000  1.0
  H  H31  1  0.09741000  0.30942000  0.77818000  1.0
  H  H32  1  0.30950000  0.09743000  0.27821000  1.0
  H  H33  1  0.90264000  0.69076000  0.22190000  1.0
  C  C34  1  0.24549000  0.14371000  0.65874000  1.0
  C  C35  1  0.85635000  0.75452000  0.84128000  1.0
  C  C36  1  0.75454000  0.85639000  0.34130000  1.0
  C  C37  1  0.14375000  0.24549000  0.15877000  1.0
  C  C38  1  0.87323000  0.88558000  0.61845000  1.0
  C  C39  1  0.11434000  0.12669000  0.88150000  1.0
  C  C40  1  0.12671000  0.11430000  0.38149000  1.0
  C  C41  1  0.88558000  0.87327000  0.11844000  1.0
  C  C42  1  0.76357000  0.79795000  0.56751000  1.0
  C  C43  1  0.20198000  0.23632000  0.93244000  1.0
  C  C44  1  0.23631000  0.20195000  0.43243000  1.0
  C  C45  1  0.79795000  0.76358000  0.06751000  1.0
  C  C46  1  0.67815000  0.63242000  0.56810000  1.0
  C  C47  1  0.36751000  0.32175000  0.93187000  1.0
  C  C48  1  0.32174000  0.36749000  0.43187000  1.0
  C  C49  1  0.63243000  0.67816000  0.06810000  1.0
  C  C50  1  0.71667000  0.56199000  0.61999000  1.0
  C  C51  1  0.43795000  0.28325000  0.87999000  1.0
  C  C52  1  0.28322000  0.43792000  0.37998000  1.0
  C  C53  1  0.56199000  0.71664000  0.11998000  1.0
  C  C54  1  0.82866000  0.65815000  0.66868000  1.0
  C  C55  1  0.34180000  0.17127000  0.83128000  1.0
  C  C56  1  0.17125000  0.34178000  0.33127000  1.0
  C  C57  1  0.65814000  0.82865000  0.16867000  1.0
  C  C58  1  0.55531000  0.54060000  0.51993000  1.0
  C  C59  1  0.45931000  0.44460000  0.98004000  1.0
  C  C60  1  0.44458000  0.45929000  0.48004000  1.0
  C  C61  1  0.54061000  0.55531000  0.01993000  1.0
  C  C62  1  0.25967000  0.73339000  0.69723000  1.0
  C  C63  1  0.26668000  0.74037000  0.80279000  1.0
  C  C64  1  0.74040000  0.26674000  0.30280000  1.0
  C  C65  1  0.73344000  0.25971000  0.19724000  1.0
  C  C66  1  0.35662000  0.63245000  0.69479000  1.0
  C  C67  1  0.36761000  0.64340000  0.80522000  1.0
  C  C68  1  0.64337000  0.36762000  0.30521000  1.0
  C  C69  1  0.63245000  0.35660000  0.19479000  1.0
  C  C70  1  0.41372000  0.58630000  0.75000000  1.0
  C  C71  1  0.58628000  0.41371000  0.24999000  1.0
  C  C72  1  0.51436000  0.48565000  0.75000000  1.0
  C  C73  1  0.48562000  0.51433000  0.24997000  1.0
  C  C74  1  0.60110000  0.39889000  0.75000000  1.0
  C  C75  1  0.39888000  0.60110000  0.24998000  1.0
  C  C76  1  0.70154000  0.29847000  0.75000000  1.0
  C  C77  1  0.29848000  0.70155000  0.25000000  1.0
  C  C78  1  0.63700000  0.12925000  0.73104000  1.0
  C  C79  1  0.87075000  0.36305000  0.76897000  1.0
  C  C80  1  0.36309000  0.87076000  0.26897000  1.0
  C  C81  1  0.12925000  0.63704000  0.23105000  1.0
  C  C82  1  0.73873000  0.03414000  0.73349000  1.0
  C  C83  1  0.96589000  0.26135000  0.76654000  1.0
  C  C84  1  0.26141000  0.96592000  0.26656000  1.0
  C  C85  1  0.03416000  0.73879000  0.23352000  1.0
  S  S86  1  0.33244000  0.22042000  0.60270000  1.0
  S  S87  1  0.77956000  0.66750000  0.89730000  1.0
  S  S88  1  0.66745000  0.77952000  0.39730000  1.0
  S  S89  1  0.22038000  0.33240000  0.10269000  1.0
  N  N90  1  0.18264000  0.08726000  0.70038000  1.0
  N  N91  1  0.91284000  0.81740000  0.79966000  1.0
  N  N92  1  0.81744000  0.91290000  0.29971000  1.0
  N  N93  1  0.08738000  0.18270000  0.20041000  1.0
  N  N94  1  0.90385000  0.81894000  0.66946000  1.0
  N  N95  1  0.18097000  0.09609000  0.83048000  1.0
  N  N96  1  0.09608000  0.18092000  0.33046000  1.0
  N  N97  1  0.81891000  0.90387000  0.16943000  1.0
  N  N98  1  0.21464000  0.78544000  0.75001000  1.0
  N  N99  1  0.78551000  0.21472000  0.25004000  1.0
  N  N100  1  0.90265000  0.09742000  0.75003000  1.0
  N  N101  1  0.09747000  0.90271000  0.25007000  1.0
