# generated using pymatgen
data_LaH43C36(N2O5)2
_symmetry_space_group_name_H-M   'P 1'
_cell_length_a   8.94676000
_cell_length_b   16.94370000
_cell_length_c   31.48220000
_cell_angle_alpha   85.03150000
_cell_angle_beta   81.84570000
_cell_angle_gamma   74.69270000
_symmetry_Int_Tables_number   1
_chemical_formula_structural   LaH43C36(N2O5)2
_chemical_formula_sum   'La4 H172 C144 N16 O40'
_cell_volume   4550.53378549
_cell_formula_units_Z   4
loop_
 _symmetry_equiv_pos_site_id
 _symmetry_equiv_pos_as_xyz
  1  'x, y, z'
loop_
 _atom_site_type_symbol
 _atom_site_label
 _atom_site_symmetry_multiplicity
 _atom_site_fract_x
 _atom_site_fract_y
 _atom_site_fract_z
 _atom_site_occupancy
  La  La0  1  0.35445000  0.12781000  0.88111000  1.0
  La  La1  1  0.36329000  0.37218000  0.61888000  1.0
  La  La2  1  0.64555000  0.87219000  0.11889000  1.0
  La  La3  1  0.63671000  0.62783000  0.38112000  1.0
  H  H4  1  0.62441000  0.82121000  0.43767000  1.0
  H  H5  1  0.88272000  0.67854000  0.06233000  1.0
  H  H6  1  0.37559000  0.17879000  0.56233000  1.0
  H  H7  1  0.11728000  0.32145000  0.93767000  1.0
  H  H8  1  0.08843000  0.93877000  0.67168000  1.0
  H  H9  1  0.69895000  0.56122000  0.82832000  1.0
  H  H10  1  0.91157000  0.06123000  0.32832000  1.0
  H  H11  1  0.30105000  0.43878000  0.17168000  1.0
  H  H12  1  0.70562000  0.79161000  0.61561000  1.0
  H  H13  1  0.11324000  0.70828000  0.88446000  1.0
  H  H14  1  0.29437000  0.20839000  0.38439000  1.0
  H  H15  1  0.88676000  0.29172000  0.11554000  1.0
  H  H16  1  0.74736000  0.64788000  0.66684000  1.0
  H  H17  1  0.06228000  0.85203000  0.83329000  1.0
  H  H18  1  0.25264000  0.35212000  0.33316000  1.0
  H  H19  1  0.93773000  0.14798000  0.16671000  1.0
  H  H20  1  0.57329000  0.71173000  0.69122000  1.0
  H  H21  1  0.97639000  0.78826000  0.80886000  1.0
  H  H22  1  0.42671000  0.28826000  0.30878000  1.0
  H  H23  1  0.02361000  0.21174000  0.19114000  1.0
  H  H24  1  0.97071000  0.93794000  0.76317000  1.0
  H  H25  1  0.67192000  0.56220000  0.73681000  1.0
  H  H26  1  0.02929000  0.06206000  0.23683000  1.0
  H  H27  1  0.32808000  0.43780000  0.26319000  1.0
  H  H28  1  0.14611000  0.86322000  0.74971000  1.0
  H  H29  1  0.75908000  0.63693000  0.75030000  1.0
  H  H30  1  0.85390000  0.13678000  0.25028000  1.0
  H  H31  1  0.24093000  0.36307000  0.24970000  1.0
  H  H32  1  0.59647000  0.99141000  0.72824000  1.0
  H  H33  1  0.31627000  0.50872000  0.77161000  1.0
  H  H34  1  0.40354000  0.00859000  0.27176000  1.0
  H  H35  1  0.68373000  0.49128000  0.22839000  1.0
  H  H36  1  0.77775000  0.00544000  0.73655000  1.0
  H  H37  1  0.51992000  0.49467000  0.76340000  1.0
  H  H38  1  0.22225000  0.99456000  0.26344000  1.0
  H  H39  1  0.48008000  0.50533000  0.23660000  1.0
  H  H40  1  0.67021000  0.95656000  0.77733000  1.0
  H  H41  1  0.40451000  0.54356000  0.72256000  1.0
  H  H42  1  0.32980000  0.04344000  0.22267000  1.0
  H  H43  1  0.59550000  0.45644000  0.27744000  1.0
  H  H44  1  0.46537000  0.82290000  0.70154000  1.0
  H  H45  1  0.98999000  0.67722000  0.79832000  1.0
  H  H46  1  0.53463000  0.17710000  0.29846000  1.0
  H  H47  1  0.01001000  0.32278000  0.20168000  1.0
  H  H48  1  0.49104000  0.92227000  0.68903000  1.0
  H  H49  1  0.10244000  0.57784000  0.81082000  1.0
  H  H50  1  0.50896000  0.07773000  0.31097000  1.0
  H  H51  1  0.89756000  0.42216000  0.18918000  1.0
  H  H52  1  0.47124000  0.88578000  0.74307000  1.0
  H  H53  1  0.10030000  0.61439000  0.75680000  1.0
  H  H54  1  0.52876000  0.11422000  0.25694000  1.0
  H  H55  1  0.89970000  0.38561000  0.24320000  1.0
  H  H56  1  0.02697000  0.60062000  0.67825000  1.0
  H  H57  1  0.30624000  0.89938000  0.82180000  1.0
  H  H58  1  0.97303000  0.39938000  0.32175000  1.0
  H  H59  1  0.69376000  0.10062000  0.17820000  1.0
  H  H60  1  0.14121000  0.65746000  0.64545000  1.0
  H  H61  1  0.44446000  0.84245000  0.85462000  1.0
  H  H62  1  0.85879000  0.34254000  0.35455000  1.0
  H  H63  1  0.55554000  0.15755000  0.14538000  1.0
  H  H64  1  0.96067000  0.65316000  0.63070000  1.0
  H  H65  1  0.24483000  0.84684000  0.86934000  1.0
  H  H66  1  0.03933000  0.34683000  0.36930000  1.0
  H  H67  1  0.75518000  0.15316000  0.13066000  1.0
  H  H68  1  0.25850000  0.78453000  0.71011000  1.0
  H  H69  1  0.75333000  0.71535000  0.79004000  1.0
  H  H70  1  0.74151000  0.21547000  0.28988000  1.0
  H  H71  1  0.24667000  0.28465000  0.20996000  1.0
  H  H72  1  0.24737000  0.75863000  0.65754000  1.0
  H  H73  1  0.66355000  0.74131000  0.84257000  1.0
  H  H74  1  0.75263000  0.24137000  0.34246000  1.0
  H  H75  1  0.33645000  0.25869000  0.15743000  1.0
  H  H76  1  0.24569000  0.68548000  0.70092000  1.0
  H  H77  1  0.63249000  0.81445000  0.79917000  1.0
  H  H78  1  0.75431000  0.31452000  0.29908000  1.0
  H  H79  1  0.36751000  0.18555000  0.20083000  1.0
  H  H80  1  0.15142000  0.99995000  0.77620000  1.0
  H  H81  1  0.92785000  0.50038000  0.72378000  1.0
  H  H82  1  0.84858000  0.00005000  0.22380000  1.0
  H  H83  1  0.07215000  0.49962000  0.27622000  1.0
  H  H84  1  0.39499000  0.17670000  0.71753000  1.0
  H  H85  1  0.28922000  0.32338000  0.78245000  1.0
  H  H86  1  0.60500000  0.82331000  0.28247000  1.0
  H  H87  1  0.71078000  0.67662000  0.21755000  1.0
  H  H88  1  0.21004000  0.04102000  0.63770000  1.0
  H  H89  1  0.88889000  0.45907000  0.86227000  1.0
  H  H90  1  0.78996000  0.95898000  0.36230000  1.0
  H  H91  1  0.11111000  0.54093000  0.13773000  1.0
  H  H92  1  0.44757000  0.60172000  0.51423000  1.0
  H  H93  1  0.56361000  0.89827000  0.98562000  1.0
  H  H94  1  0.55243000  0.39828000  0.48577000  1.0
  H  H95  1  0.43638000  0.10173000  0.01438000  1.0
  H  H96  1  0.64755000  0.79163000  0.54450000  1.0
  H  H97  1  0.98370000  0.70825000  0.95556000  1.0
  H  H98  1  0.35245000  0.20837000  0.45550000  1.0
  H  H99  1  0.01631000  0.29176000  0.04444000  1.0
  H  H100  1  0.51673000  0.62145000  0.64470000  1.0
  H  H101  1  0.78340000  0.87833000  0.85523000  1.0
  H  H102  1  0.48327000  0.37855000  0.35531000  1.0
  H  H103  1  0.21660000  0.12167000  0.14478000  1.0
  H  H104  1  0.61972000  0.35683000  0.82787000  1.0
  H  H105  1  0.80479000  0.14302000  0.67199000  1.0
  H  H106  1  0.38029000  0.64316000  0.17213000  1.0
  H  H107  1  0.19521000  0.85698000  0.32801000  1.0
  H  H108  1  0.72851000  0.34078000  0.87257000  1.0
  H  H109  1  0.94220000  0.15919000  0.62733000  1.0
  H  H110  1  0.27150000  0.65922000  0.12743000  1.0
  H  H111  1  0.05780000  0.84080000  0.37267000  1.0
  H  H112  1  0.56114000  0.30003000  0.87508000  1.0
  H  H113  1  0.73655000  0.19986000  0.62478000  1.0
  H  H114  1  0.43887000  0.69997000  0.12492000  1.0
  H  H115  1  0.26345000  0.80014000  0.37522000  1.0
  H  H116  1  0.99621000  0.24216000  0.82767000  1.0
  H  H117  1  0.06606000  0.25780000  0.67236000  1.0
  H  H118  1  0.00380000  0.75784000  0.17233000  1.0
  H  H119  1  0.93394000  0.74220000  0.32764000  1.0
  H  H120  1  0.87678000  0.30264000  0.79003000  1.0
  H  H121  1  0.96939000  0.19732000  0.70996000  1.0
  H  H122  1  0.12322000  0.69735000  0.20997000  1.0
  H  H123  1  0.03062000  0.80268000  0.29004000  1.0
  H  H124  1  0.94061000  0.19405000  0.78677000  1.0
  H  H125  1  0.92124000  0.30594000  0.71320000  1.0
  H  H126  1  0.05939000  0.80595000  0.21323000  1.0
  H  H127  1  0.07877000  0.69406000  0.28680000  1.0
  H  H128  1  0.78208000  0.03702000  0.84113000  1.0
  H  H129  1  0.66074000  0.46291000  0.65868000  1.0
  H  H130  1  0.21793000  0.96297000  0.15887000  1.0
  H  H131  1  0.33926000  0.53709000  0.34132000  1.0
  H  H132  1  0.95078000  0.07935000  0.83350000  1.0
  H  H133  1  0.86410000  0.42050000  0.66634000  1.0
  H  H134  1  0.04922000  0.92065000  0.16650000  1.0
  H  H135  1  0.13590000  0.57949000  0.33366000  1.0
  H  H136  1  0.82605000  0.09393000  0.79298000  1.0
  H  H137  1  0.71336000  0.40612000  0.70687000  1.0
  H  H138  1  0.17395000  0.90606000  0.20702000  1.0
  H  H139  1  0.28664000  0.59389000  0.29313000  1.0
  H  H140  1  0.96469000  0.97112000  0.90593000  1.0
  H  H141  1  0.84192000  0.52884000  0.59405000  1.0
  H  H142  1  0.03531000  0.02889000  0.09406000  1.0
  H  H143  1  0.15808000  0.47116000  0.40595000  1.0
  H  H144  1  0.03951000  0.95149000  0.95590000  1.0
  H  H145  1  0.94694000  0.54835000  0.54405000  1.0
  H  H146  1  0.96049000  0.04851000  0.04410000  1.0
  H  H147  1  0.05306000  0.45165000  0.45595000  1.0
  H  H148  1  0.16273000  0.97158000  0.90869000  1.0
  H  H149  1  0.04326000  0.52826000  0.59124000  1.0
  H  H150  1  0.83726000  0.02843000  0.09130000  1.0
  H  H151  1  0.95674000  0.47174000  0.40875000  1.0
  H  H152  1  0.82589000  0.21108000  0.99287000  1.0
  H  H153  1  0.02897000  0.28881000  0.50715000  1.0
  H  H154  1  0.17410000  0.78893000  0.00713000  1.0
  H  H155  1  0.97103000  0.71119000  0.49285000  1.0
  H  H156  1  0.68592000  0.22343000  0.95579000  1.0
  H  H157  1  0.86438000  0.27658000  0.54429000  1.0
  H  H158  1  0.31408000  0.77657000  0.04421000  1.0
  H  H159  1  0.13562000  0.72343000  0.45571000  1.0
  H  H160  1  0.88143000  0.23142000  0.93733000  1.0
  H  H161  1  0.04966000  0.26843000  0.56268000  1.0
  H  H162  1  0.11856000  0.76858000  0.06266000  1.0
  H  H163  1  0.95033000  0.73157000  0.43732000  1.0
  H  H164  1  0.63113000  0.09560000  0.95760000  1.0
  H  H165  1  0.68398000  0.40448000  0.54239000  1.0
  H  H166  1  0.36887000  0.90440000  0.04240000  1.0
  H  H167  1  0.31601000  0.59553000  0.45761000  1.0
  H  H168  1  0.72127000  0.06713000  0.00559000  1.0
  H  H169  1  0.79375000  0.43286000  0.49441000  1.0
  H  H170  1  0.27873000  0.93287000  0.99441000  1.0
  H  H171  1  0.20624000  0.56714000  0.50559000  1.0
  H  H172  1  0.78042000  0.00321000  0.96123000  1.0
  H  H173  1  0.74476000  0.49677000  0.53876000  1.0
  H  H174  1  0.21958000  0.99679000  0.03877000  1.0
  H  H175  1  0.25523000  0.50323000  0.46124000  1.0
  C  C176  1  0.68146000  0.71253000  0.66976000  1.0
  C  C177  1  0.06400000  0.78737000  0.83031000  1.0
  C  C178  1  0.31854000  0.28747000  0.33024000  1.0
  C  C179  1  0.93600000  0.21263000  0.16969000  1.0
  C  C180  1  0.77487000  0.76033000  0.68832000  1.0
  C  C181  1  0.22371000  0.73968000  0.81170000  1.0
  C  C182  1  0.22514000  0.23967000  0.31168000  1.0
  C  C183  1  0.77629000  0.26032000  0.18830000  1.0
  C  C184  1  0.69742000  0.83467000  0.70757000  1.0
  C  C185  1  0.23981000  0.66542000  0.79237000  1.0
  C  C186  1  0.30259000  0.16533000  0.29243000  1.0
  C  C187  1  0.76019000  0.33458000  0.20763000  1.0
  C  C188  1  0.78547000  0.88092000  0.72325000  1.0
  C  C189  1  0.38979000  0.61919000  0.77668000  1.0
  C  C190  1  0.21453000  0.11908000  0.27675000  1.0
  C  C191  1  0.61021000  0.38081000  0.22332000  1.0
  C  C192  1  0.94914000  0.85098000  0.72012000  1.0
  C  C193  1  0.52034000  0.64910000  0.77987000  1.0
  C  C194  1  0.05087000  0.14902000  0.27988000  1.0
  C  C195  1  0.47966000  0.35090000  0.22013000  1.0
  C  C196  1  0.02732000  0.77870000  0.69896000  1.0
  C  C197  1  0.50512000  0.72134000  0.80107000  1.0
  C  C198  1  0.97269000  0.22130000  0.30104000  1.0
  C  C199  1  0.49488000  0.27866000  0.19893000  1.0
  C  C200  1  0.93914000  0.73324000  0.68256000  1.0
  C  C201  1  0.35512000  0.76677000  0.81748000  1.0
  C  C202  1  0.06086000  0.26675000  0.31744000  1.0
  C  C203  1  0.64488000  0.23323000  0.18252000  1.0
  C  C204  1  0.04149000  0.90205000  0.73651000  1.0
  C  C205  1  0.68015000  0.59808000  0.76349000  1.0
  C  C206  1  0.95851000  0.09795000  0.26349000  1.0
  C  C207  1  0.31986000  0.40192000  0.23651000  1.0
  C  C208  1  0.70407000  0.96222000  0.74234000  1.0
  C  C209  1  0.40886000  0.53790000  0.75757000  1.0
  C  C210  1  0.29593000  0.03778000  0.25766000  1.0
  C  C211  1  0.59114000  0.46210000  0.24243000  1.0
  C  C212  1  0.52288000  0.86729000  0.71052000  1.0
  C  C213  1  0.10086000  0.63284000  0.78935000  1.0
  C  C214  1  0.47712000  0.13271000  0.28948000  1.0
  C  C215  1  0.89914000  0.36716000  0.21065000  1.0
  C  C216  1  0.02068000  0.65767000  0.65812000  1.0
  C  C217  1  0.33680000  0.84231000  0.84193000  1.0
  C  C218  1  0.97933000  0.34232000  0.34188000  1.0
  C  C219  1  0.66321000  0.15769000  0.15807000  1.0
  C  C220  1  0.20323000  0.75075000  0.69174000  1.0
  C  C221  1  0.64589000  0.74921000  0.80835000  1.0
  C  C222  1  0.79678000  0.24925000  0.30825000  1.0
  C  C223  1  0.35411000  0.25080000  0.19165000  1.0
  C  C224  1  0.16726000  0.01256000  0.70634000  1.0
  C  C225  1  0.88633000  0.48757000  0.79363000  1.0
  C  C226  1  0.83274000  0.98744000  0.29366000  1.0
  C  C227  1  0.11367000  0.51243000  0.20637000  1.0
  C  C228  1  0.19373000  0.03063000  0.74696000  1.0
  C  C229  1  0.97150000  0.46959000  0.75301000  1.0
  C  C230  1  0.80627000  0.96936000  0.25304000  1.0
  C  C231  1  0.02850000  0.53041000  0.24699000  1.0
  C  C232  1  0.27837000  0.08786000  0.75072000  1.0
  C  C233  1  0.11707000  0.41232000  0.74926000  1.0
  C  C234  1  0.72162000  0.91214000  0.24928000  1.0
  C  C235  1  0.88294000  0.58768000  0.25074000  1.0
  C  C236  1  0.33361000  0.13033000  0.71441000  1.0
  C  C237  1  0.17838000  0.36976000  0.78558000  1.0
  C  C238  1  0.66638000  0.86968000  0.28559000  1.0
  C  C239  1  0.82162000  0.63024000  0.21442000  1.0
  C  C240  1  0.30605000  0.11294000  0.67389000  1.0
  C  C241  1  0.09293000  0.38712000  0.82610000  1.0
  C  C242  1  0.69396000  0.88706000  0.32612000  1.0
  C  C243  1  0.90707000  0.61288000  0.17390000  1.0
  C  C244  1  0.22703000  0.05378000  0.66982000  1.0
  C  C245  1  0.95073000  0.44629000  0.83016000  1.0
  C  C246  1  0.77296000  0.94623000  0.33018000  1.0
  C  C247  1  0.04927000  0.55371000  0.16984000  1.0
  C  C248  1  0.30888000  0.10208000  0.79465000  1.0
  C  C249  1  0.20567000  0.39806000  0.70535000  1.0
  C  C250  1  0.69112000  0.89792000  0.20536000  1.0
  C  C251  1  0.79433000  0.60194000  0.29465000  1.0
  C  C252  1  0.40845000  0.53464000  0.59574000  1.0
  C  C253  1  0.53914000  0.96525000  0.90409000  1.0
  C  C254  1  0.59155000  0.46536000  0.40426000  1.0
  C  C255  1  0.46085000  0.03475000  0.09591000  1.0
  C  C256  1  0.47378000  0.60646000  0.58107000  1.0
  C  C257  1  0.66162000  0.89342000  0.91881000  1.0
  C  C258  1  0.52621000  0.39354000  0.41893000  1.0
  C  C259  1  0.33838000  0.10658000  0.08119000  1.0
  C  C260  1  0.48464000  0.63329000  0.53781000  1.0
  C  C261  1  0.65589000  0.86665000  0.96208000  1.0
  C  C262  1  0.51536000  0.36671000  0.46220000  1.0
  C  C263  1  0.34412000  0.13335000  0.03792000  1.0
  C  C264  1  0.54716000  0.70052000  0.52515000  1.0
  C  C265  1  0.77281000  0.79938000  0.97481000  1.0
  C  C266  1  0.45284000  0.29948000  0.47485000  1.0
  C  C267  1  0.22720000  0.20062000  0.02519000  1.0
  C  C268  1  0.59951000  0.73942000  0.55523000  1.0
  C  C269  1  0.89425000  0.76046000  0.94479000  1.0
  C  C270  1  0.40048000  0.26058000  0.44478000  1.0
  C  C271  1  0.10576000  0.23955000  0.05522000  1.0
  C  C272  1  0.59194000  0.71155000  0.59874000  1.0
  C  C273  1  0.90249000  0.78827000  0.90126000  1.0
  C  C274  1  0.40807000  0.28844000  0.40126000  1.0
  C  C275  1  0.09752000  0.21174000  0.09874000  1.0
  C  C276  1  0.52751000  0.64461000  0.61136000  1.0
  C  C277  1  0.78386000  0.85521000  0.88857000  1.0
  C  C278  1  0.47249000  0.35539000  0.38864000  1.0
  C  C279  1  0.21615000  0.14479000  0.11143000  1.0
  C  C280  1  0.56008000  0.73034000  0.47907000  1.0
  C  C281  1  0.76913000  0.76957000  0.02090000  1.0
  C  C282  1  0.43991000  0.26966000  0.52093000  1.0
  C  C283  1  0.23086000  0.23043000  0.97911000  1.0
  C  C284  1  0.35091000  0.16146000  0.63432000  1.0
  C  C285  1  0.14670000  0.33867000  0.86569000  1.0
  C  C286  1  0.64909000  0.83855000  0.36568000  1.0
  C  C287  1  0.85331000  0.66133000  0.13431000  1.0
  C  C288  1  0.99804000  0.07849000  0.93218000  1.0
  C  C289  1  0.00856000  0.42136000  0.56781000  1.0
  C  C290  1  0.00196000  0.92151000  0.06782000  1.0
  C  C291  1  0.99144000  0.57864000  0.43218000  1.0
  C  C292  1  0.72512000  0.16523000  0.84786000  1.0
  C  C293  1  0.73838000  0.33468000  0.65205000  1.0
  C  C294  1  0.27488000  0.83477000  0.15214000  1.0
  C  C295  1  0.26162000  0.66532000  0.34795000  1.0
  C  C296  1  0.66116000  0.31318000  0.85422000  1.0
  C  C297  1  0.82884000  0.18674000  0.64565000  1.0
  C  C298  1  0.33885000  0.68682000  0.14578000  1.0
  C  C299  1  0.17116000  0.81326000  0.35435000  1.0
  C  C300  1  0.90117000  0.24399000  0.80874000  1.0
  C  C301  1  0.95387000  0.25597000  0.69124000  1.0
  C  C302  1  0.09884000  0.75601000  0.19126000  1.0
  C  C303  1  0.04613000  0.74402000  0.30876000  1.0
  C  C304  1  0.82843000  0.08892000  0.82795000  1.0
  C  C305  1  0.74573000  0.41101000  0.67189000  1.0
  C  C306  1  0.17157000  0.91107000  0.17205000  1.0
  C  C307  1  0.25427000  0.58899000  0.32811000  1.0
  C  C308  1  0.04375000  0.98774000  0.92529000  1.0
  C  C309  1  0.95688000  0.51214000  0.57468000  1.0
  C  C310  1  0.95625000  0.01226000  0.07471000  1.0
  C  C311  1  0.04312000  0.48786000  0.42532000  1.0
  C  C312  1  0.80969000  0.19987000  0.96009000  1.0
  C  C313  1  0.96903000  0.30003000  0.53995000  1.0
  C  C314  1  0.19030000  0.80013000  0.03991000  1.0
  C  C315  1  0.03096000  0.69998000  0.46005000  1.0
  C  C316  1  0.74199000  0.06680000  0.97031000  1.0
  C  C317  1  0.77887000  0.43318000  0.52969000  1.0
  C  C318  1  0.25801000  0.93320000  0.02969000  1.0
  C  C319  1  0.22112000  0.56682000  0.47031000  1.0
  N  N320  1  0.08261000  0.95759000  0.70170000  1.0
  N  N321  1  0.74205000  0.54251000  0.79829000  1.0
  N  N322  1  0.91740000  0.04241000  0.29830000  1.0
  N  N323  1  0.25795000  0.45749000  0.20171000  1.0
  N  N324  1  0.64528000  0.75016000  0.62784000  1.0
  N  N325  1  0.02359000  0.74965000  0.87221000  1.0
  N  N326  1  0.35472000  0.24984000  0.37217000  1.0
  N  N327  1  0.97642000  0.25036000  0.12779000  1.0
  N  N328  1  0.75974000  0.23730000  0.83654000  1.0
  N  N329  1  0.83371000  0.26261000  0.66338000  1.0
  N  N330  1  0.24027000  0.76270000  0.16346000  1.0
  N  N331  1  0.16629000  0.73739000  0.33662000  1.0
  N  N332  1  0.85639000  0.11231000  0.95299000  1.0
  N  N333  1  0.92136000  0.38759000  0.54703000  1.0
  N  N334  1  0.14361000  0.88769000  0.04700000  1.0
  N  N335  1  0.07863000  0.61241000  0.45297000  1.0
  O  O336  1  0.22238000  0.07958000  0.82734000  1.0
  O  O337  1  0.12934000  0.42056000  0.67264000  1.0
  O  O338  1  0.77762000  0.92042000  0.17266000  1.0
  O  O339  1  0.87066000  0.57944000  0.32736000  1.0
  O  O340  1  0.41747000  0.13531000  0.79888000  1.0
  O  O341  1  0.35172000  0.36481000  0.70111000  1.0
  O  O342  1  0.58253000  0.86469000  0.20112000  1.0
  O  O343  1  0.64828000  0.63519000  0.29889000  1.0
  O  O344  1  0.40376000  0.51037000  0.63541000  1.0
  O  O345  1  0.55003000  0.98962000  0.86444000  1.0
  O  O346  1  0.59624000  0.48963000  0.36459000  1.0
  O  O347  1  0.44996000  0.01038000  0.13556000  1.0
  O  O348  1  0.36302000  0.49764000  0.56808000  1.0
  O  O349  1  0.42886000  0.00213000  0.93173000  1.0
  O  O350  1  0.63697000  0.50236000  0.43192000  1.0
  O  O351  1  0.57114000  0.99787000  0.06827000  1.0
  O  O352  1  0.51873000  0.69451000  0.45121000  1.0
  O  O353  1  0.66417000  0.80553000  0.04873000  1.0
  O  O354  1  0.48127000  0.30549000  0.54879000  1.0
  O  O355  1  0.33582000  0.19447000  0.95127000  1.0
  O  O356  1  0.61606000  0.79428000  0.47131000  1.0
  O  O357  1  0.88095000  0.70547000  0.02868000  1.0
  O  O358  1  0.38394000  0.20572000  0.52869000  1.0
  O  O359  1  0.11903000  0.29453000  0.97132000  1.0
  O  O360  1  0.37964000  0.22947000  0.63925000  1.0
  O  O361  1  0.24802000  0.27053000  0.86082000  1.0
  O  O362  1  0.62034000  0.77054000  0.36076000  1.0
  O  O363  1  0.75199000  0.72947000  0.13918000  1.0
  O  O364  1  0.09119000  0.12217000  0.91851000  1.0
  O  O365  1  0.13167000  0.37764000  0.58150000  1.0
  O  O366  1  0.90881000  0.87784000  0.08148000  1.0
  O  O367  1  0.86832000  0.62236000  0.41849000  1.0
  O  O368  1  0.60756000  0.16159000  0.87482000  1.0
  O  O369  1  0.64403000  0.33832000  0.62510000  1.0
  O  O370  1  0.39244000  0.83840000  0.12518000  1.0
  O  O371  1  0.35596000  0.66168000  0.37490000  1.0
  O  O372  1  0.35214000  0.13274000  0.59811000  1.0
  O  O373  1  0.08331000  0.36753000  0.90189000  1.0
  O  O374  1  0.64786000  0.86726000  0.40189000  1.0
  O  O375  1  0.91669000  0.63246000  0.09811000  1.0
