# generated using pymatgen
data_CdH28C46(N4O3)2
_symmetry_space_group_name_H-M   'P 1'
_cell_length_a   8.65990000
_cell_length_b   10.55780000
_cell_length_c   11.25590000
_cell_angle_alpha   62.68090000
_cell_angle_beta   80.50740000
_cell_angle_gamma   77.42050000
_symmetry_Int_Tables_number   1
_chemical_formula_structural   CdH28C46(N4O3)2
_chemical_formula_sum   'Cd1 H28 C46 N8 O6'
_cell_volume   889.88063935
_cell_formula_units_Z   1
loop_
 _symmetry_equiv_pos_site_id
 _symmetry_equiv_pos_as_xyz
  1  'x, y, z'
loop_
 _atom_site_type_symbol
 _atom_site_label
 _atom_site_symmetry_multiplicity
 _atom_site_fract_x
 _atom_site_fract_y
 _atom_site_fract_z
 _atom_site_occupancy
  Cd  Cd0  1  0.50000000  0.50000000  0.50000000  1.0
  H  H1  1  0.20860000  0.88643000  0.11372000  1.0
  H  H2  1  0.79140000  0.11357000  0.88628000  1.0
  H  H3  1  0.64318000  0.67388000  0.62731000  1.0
  H  H4  1  0.35682000  0.32612000  0.37269000  1.0
  H  H5  1  0.87516000  0.63979000  0.49413000  1.0
  H  H6  1  0.12484000  0.36022000  0.50587000  1.0
  H  H7  1  0.05599000  0.75882000  0.29577000  1.0
  H  H8  1  0.94401000  0.24119000  0.70423000  1.0
  H  H9  1  0.62618000  0.05532000  0.45593000  1.0
  H  H10  1  0.37381000  0.94468000  0.54407000  1.0
  H  H11  1  0.26963000  0.69927000  0.95722000  1.0
  H  H12  1  0.73037000  0.30073000  0.04279000  1.0
  H  H13  1  0.66898000  0.15289000  0.58358000  1.0
  H  H14  1  0.33102000  0.84711000  0.41642000  1.0
  H  H15  1  0.18428000  0.72237000  0.53900000  1.0
  H  H16  1  0.81573000  0.27763000  0.46099000  1.0
  H  H17  1  0.92706000  0.49159000  0.91416000  1.0
  H  H18  1  0.07294000  0.50841000  0.08584000  1.0
  H  H19  1  0.80878000  0.17497000  0.25804000  1.0
  H  H20  1  0.19121000  0.82504000  0.74196000  1.0
  H  H21  1  0.59992000  0.36487000  0.22716000  1.0
  H  H22  1  0.40007000  0.63513000  0.77285000  1.0
  H  H23  1  0.63866000  0.90593000  0.75948000  1.0
  H  H24  1  0.36134000  0.09407000  0.24052000  1.0
  H  H25  1  0.42444000  0.87779000  0.94578000  1.0
  H  H26  1  0.57556000  0.12220000  0.05422000  1.0
  H  H27  1  0.96375000  0.72546000  0.71064000  1.0
  H  H28  1  0.03626000  0.27454000  0.28936000  1.0
  C  C29  1  0.16820000  0.62352000  0.62925000  1.0
  C  C30  1  0.83181000  0.37648000  0.37075000  1.0
  C  C31  1  0.04266000  0.62485000  0.72522000  1.0
  C  C32  1  0.95734000  0.37515000  0.27478000  1.0
  C  C33  1  0.02298000  0.49698000  0.83684000  1.0
  C  C34  1  0.97703000  0.50302000  0.16316000  1.0
  C  C35  1  0.12782000  0.36947000  0.85024000  1.0
  C  C36  1  0.87218000  0.63053000  0.14976000  1.0
  C  C37  1  0.11299000  0.23181000  0.95975000  1.0
  C  C38  1  0.88701000  0.76819000  0.04024000  1.0
  C  C39  1  0.21245000  0.10616000  0.96390000  1.0
  C  C40  1  0.78755000  0.89384000  0.03610000  1.0
  C  C41  1  0.33839000  0.10808000  0.86492000  1.0
  C  C42  1  0.66161000  0.89191000  0.13508000  1.0
  C  C43  1  0.44090000  0.98403000  0.86571000  1.0
  C  C44  1  0.55910000  0.01597000  0.13429000  1.0
  C  C45  1  0.55966000  0.99935000  0.76412000  1.0
  C  C46  1  0.44034000  0.00065000  0.23588000  1.0
  C  C47  1  0.57532000  0.13859000  0.66380000  1.0
  C  C48  1  0.42468000  0.86141000  0.33620000  1.0
  C  C49  1  0.36037000  0.24604000  0.75698000  1.0
  C  C50  1  0.63963000  0.75396000  0.24302000  1.0
  C  C51  1  0.25263000  0.37667000  0.74857000  1.0
  C  C52  1  0.74737000  0.62333000  0.25143000  1.0
  C  C53  1  0.03638000  0.05552000  0.13969000  1.0
  C  C54  1  0.96362000  0.94448000  0.86031000  1.0
  C  C55  1  0.94518000  0.97655000  0.26320000  1.0
  C  C56  1  0.05482000  0.02346000  0.73680000  1.0
  C  C57  1  0.82458000  0.05777000  0.31230000  1.0
  C  C58  1  0.17541000  0.94223000  0.68770000  1.0
  C  C59  1  0.72477000  0.99147000  0.42373000  1.0
  C  C60  1  0.27523000  0.00853000  0.57627000  1.0
  C  C61  1  0.74222000  0.83990000  0.49086000  1.0
  C  C62  1  0.25777000  0.16010000  0.50914000  1.0
  C  C63  1  0.86315000  0.75732000  0.44346000  1.0
  C  C64  1  0.13685000  0.24269000  0.55654000  1.0
  C  C65  1  0.96377000  0.82487000  0.33141000  1.0
  C  C66  1  0.03623000  0.17513000  0.66859000  1.0
  C  C67  1  0.35383000  0.58186000  0.21209000  1.0
  C  C68  1  0.64617000  0.41813000  0.78792000  1.0
  C  C69  1  0.42810000  0.53732000  0.10351000  1.0
  C  C70  1  0.57189000  0.46268000  0.89649000  1.0
  C  C71  1  0.37215000  0.61344000  0.97495000  1.0
  C  C72  1  0.62784000  0.38656000  0.02505000  1.0
  C  C73  1  0.55622000  0.42352000  0.12751000  1.0
  C  C74  1  0.44377000  0.57648000  0.87250000  1.0
  N  N75  1  0.47918000  0.25754000  0.65954000  1.0
  N  N76  1  0.52082000  0.74246000  0.34046000  1.0
  N  N77  1  0.27021000  0.50467000  0.64072000  1.0
  N  N78  1  0.72979000  0.49533000  0.35928000  1.0
  N  N79  1  0.00540000  0.19963000  0.06885000  1.0
  N  N80  1  0.99461000  0.80038000  0.93115000  1.0
  N  N81  1  0.16075000  0.99503000  0.07845000  1.0
  N  N82  1  0.83925000  0.00497000  0.92155000  1.0
  O  O83  1  0.36629000  0.48513000  0.33542000  1.0
  O  O84  1  0.63370000  0.51487000  0.66458000  1.0
  O  O85  1  0.28552000  0.70958000  0.17897000  1.0
  O  O86  1  0.71447000  0.29042000  0.82103000  1.0
  O  O87  1  0.63943000  0.78159000  0.59767000  1.0
  O  O88  1  0.36056000  0.21841000  0.40233000  1.0
