# generated using pymatgen
data_ErH6C5O8
_symmetry_space_group_name_H-M   'P 1'
_cell_length_a   9.51819013
_cell_length_b   9.65254000
_cell_length_c   13.37753844
_cell_angle_alpha   79.92656775
_cell_angle_beta   69.22072557
_cell_angle_gamma   60.45991897
_symmetry_Int_Tables_number   1
_chemical_formula_structural   ErH6C5O8
_chemical_formula_sum   'Er4 H24 C20 O32'
_cell_volume   999.74034226
_cell_formula_units_Z   4
loop_
 _symmetry_equiv_pos_site_id
 _symmetry_equiv_pos_as_xyz
  1  'x, y, z'
loop_
 _atom_site_type_symbol
 _atom_site_label
 _atom_site_symmetry_multiplicity
 _atom_site_fract_x
 _atom_site_fract_y
 _atom_site_fract_z
 _atom_site_occupancy
  Er  Er0  1  0.99980000  0.74995000  0.00021000  1.0
  Er  Er1  1  0.25026000  0.74993000  0.49978000  1.0
  Er  Er2  1  0.00019000  0.25007000  0.99979000  1.0
  Er  Er3  1  0.74974000  0.25007000  0.50021000  1.0
  H  H4  1  0.42110000  0.42729000  0.06591000  1.0
  H  H5  1  0.51331000  0.07292000  0.06579000  1.0
  H  H6  1  0.15164000  0.42726000  0.43409000  1.0
  H  H7  1  0.41379000  0.07291000  0.43421000  1.0
  H  H8  1  0.57889000  0.57272000  0.93410000  1.0
  H  H9  1  0.48670000  0.92709000  0.93420000  1.0
  H  H10  1  0.84836000  0.57274000  0.56591000  1.0
  H  H11  1  0.58621000  0.92709000  0.56579000  1.0
  H  H12  1  0.17430000  0.71993000  0.15183000  1.0
  H  H13  1  0.67368000  0.78016000  0.15163000  1.0
  H  H14  1  0.10581000  0.71993000  0.34814000  1.0
  H  H15  1  0.54614000  0.78017000  0.34835000  1.0
  H  H16  1  0.82571000  0.28007000  0.84817000  1.0
  H  H17  1  0.32630000  0.21984000  0.84837000  1.0
  H  H18  1  0.89418000  0.28006000  0.65186000  1.0
  H  H19  1  0.45386000  0.21983000  0.65165000  1.0
  H  H20  1  0.03459000  0.89855000  0.15887000  1.0
  H  H21  1  0.80649000  0.60165000  0.15893000  1.0
  H  H22  1  0.06691000  0.89852000  0.34112000  1.0
  H  H23  1  0.59185000  0.60168000  0.34107000  1.0
  H  H24  1  0.96542000  0.10147000  0.84113000  1.0
  H  H25  1  0.19352000  0.39833000  0.84107000  1.0
  H  H26  1  0.93308000  0.10149000  0.65888000  1.0
  H  H27  1  0.40816000  0.39831000  0.65893000  1.0
  C  C28  1  0.23618000  0.35607000  0.06109000  1.0
  C  C29  1  0.70311000  0.14401000  0.06087000  1.0
  C  C30  1  0.40777000  0.35605000  0.43891000  1.0
  C  C31  1  0.15290000  0.14398000  0.43913000  1.0
  C  C32  1  0.76382000  0.64394000  0.93891000  1.0
  C  C33  1  0.29688000  0.85601000  0.93913000  1.0
  C  C34  1  0.59223000  0.64395000  0.56109000  1.0
  C  C35  1  0.84710000  0.85601000  0.56087000  1.0
  C  C36  1  0.40291000  0.32380000  0.06694000  1.0
  C  C37  1  0.53050000  0.17632000  0.06686000  1.0
  C  C38  1  0.27329000  0.32380000  0.43306000  1.0
  C  C39  1  0.29319000  0.17631000  0.43315000  1.0
  C  C40  1  0.59709000  0.67620000  0.93306000  1.0
  C  C41  1  0.46950000  0.82369000  0.93314000  1.0
  C  C42  1  0.72671000  0.67620000  0.56694000  1.0
  C  C43  1  0.70682000  0.82367000  0.56685000  1.0
  C  C44  1  0.07915000  0.84170000  0.75000000  1.0
  C  C45  1  0.17091000  0.65815000  0.75000000  1.0
  C  C46  1  0.92085000  0.15830000  0.25000000  1.0
  C  C47  1  0.82909000  0.34185000  0.25000000  1.0
  O  O48  1  0.12916000  0.50189000  0.05596000  1.0
  O  O49  1  0.81523000  0.99817000  0.05555000  1.0
  O  O50  1  0.36897000  0.50188000  0.44404000  1.0
  O  O51  1  0.18662000  0.99816000  0.44443000  1.0
  O  O52  1  0.87083000  0.49811000  0.94405000  1.0
  O  O53  1  0.18477000  0.00184000  0.94444000  1.0
  O  O54  1  0.63104000  0.49811000  0.55596000  1.0
  O  O55  1  0.81339000  0.00184000  0.55556000  1.0
  O  O56  1  0.21007000  0.24010000  0.05817000  1.0
  O  O57  1  0.73221000  0.25988000  0.05804000  1.0
  O  O58  1  0.54985000  0.24010000  0.44182000  1.0
  O  O59  1  0.00792000  0.25987000  0.44197000  1.0
  O  O60  1  0.78993000  0.75990000  0.94183000  1.0
  O  O61  1  0.26779000  0.74013000  0.94196000  1.0
  O  O62  1  0.45016000  0.75989000  0.55818000  1.0
  O  O63  1  0.99207000  0.74013000  0.55803000  1.0
  O  O64  1  0.00246000  0.90999000  0.84021000  1.0
  O  O65  1  0.15700000  0.58987000  0.84020000  1.0
  O  O66  1  0.08754000  0.90998000  0.65980000  1.0
  O  O67  1  0.25310000  0.58987000  0.65980000  1.0
  O  O68  1  0.99753000  0.09002000  0.15979000  1.0
  O  O69  1  0.84300000  0.41013000  0.15980000  1.0
  O  O70  1  0.91246000  0.09001000  0.34020000  1.0
  O  O71  1  0.74690000  0.41012000  0.34020000  1.0
  O  O72  1  0.05644000  0.78687000  0.15382000  1.0
  O  O73  1  0.78949000  0.71341000  0.15377000  1.0
  O  O74  1  0.15668000  0.78688000  0.34617000  1.0
  O  O75  1  0.49714000  0.71337000  0.34623000  1.0
  O  O76  1  0.94356000  0.21312000  0.84618000  1.0
  O  O77  1  0.21051000  0.28662000  0.84623000  1.0
  O  O78  1  0.84334000  0.21309000  0.65383000  1.0
  O  O79  1  0.50286000  0.28662000  0.65377000  1.0
