# generated using pymatgen
data_AgH5C8(NO2)2
_symmetry_space_group_name_H-M   'P 1'
_cell_length_a   7.05784000
_cell_length_b   10.56320000
_cell_length_c   12.53250000
_cell_angle_alpha   99.82410000
_cell_angle_beta   102.90000000
_cell_angle_gamma   105.89500000
_symmetry_Int_Tables_number   1
_chemical_formula_structural   AgH5C8(NO2)2
_chemical_formula_sum   'Ag4 H20 C32 N8 O16'
_cell_volume   848.74628393
_cell_formula_units_Z   4
loop_
 _symmetry_equiv_pos_site_id
 _symmetry_equiv_pos_as_xyz
  1  'x, y, z'
loop_
 _atom_site_type_symbol
 _atom_site_label
 _atom_site_symmetry_multiplicity
 _atom_site_fract_x
 _atom_site_fract_y
 _atom_site_fract_z
 _atom_site_occupancy
  Ag  Ag0  1  0.38391000  0.78514000  0.07906000  1.0
  Ag  Ag1  1  0.61609000  0.21485000  0.92094000  1.0
  Ag  Ag2  1  0.51993000  0.05641000  0.67187000  1.0
  Ag  Ag3  1  0.48006000  0.94359000  0.32813000  1.0
  H  H4  1  0.80306000  0.00403000  0.09964000  1.0
  H  H5  1  0.19694000  0.99597000  0.90036000  1.0
  H  H6  1  0.16463000  0.00652000  0.10884000  1.0
  H  H7  1  0.83537000  0.99348000  0.89116000  1.0
  H  H8  1  0.97811000  0.58700000  0.07173000  1.0
  H  H9  1  0.02189000  0.41300000  0.92828000  1.0
  H  H10  1  0.62255000  0.58647000  0.06890000  1.0
  H  H11  1  0.37746000  0.41353000  0.93110000  1.0
  H  H12  1  0.28192000  0.26508000  0.66419000  1.0
  H  H13  1  0.71807000  0.73492000  0.33582000  1.0
  H  H14  1  0.92715000  0.26667000  0.66280000  1.0
  H  H15  1  0.07284000  0.73333000  0.33720000  1.0
  H  H16  1  0.73103000  0.84615000  0.61408000  1.0
  H  H17  1  0.26897000  0.15385000  0.38592000  1.0
  H  H18  1  0.08340000  0.84380000  0.61402000  1.0
  H  H19  1  0.91659000  0.15621000  0.38599000  1.0
  H  H20  1  0.19259000  0.44446000  0.54262000  1.0
  H  H21  1  0.80742000  0.55554000  0.45738000  1.0
  H  H22  1  0.37749000  0.69932000  0.46978000  1.0
  H  H23  1  0.62251000  0.30068000  0.53022000  1.0
  C  C24  1  0.84290000  0.91090000  0.09184000  1.0
  C  C25  1  0.15710000  0.08910000  0.90816000  1.0
  C  C26  1  0.04166000  0.91193000  0.09602000  1.0
  C  C27  1  0.95834000  0.08807000  0.90397000  1.0
  C  C28  1  0.94006000  0.68036000  0.07644000  1.0
  C  C29  1  0.05995000  0.31964000  0.92356000  1.0
  C  C30  1  0.74152000  0.67951000  0.07372000  1.0
  C  C31  1  0.25848000  0.32049000  0.92629000  1.0
  C  C32  1  0.29788000  0.49174000  0.21300000  1.0
  C  C33  1  0.70212000  0.50827000  0.78701000  1.0
  C  C34  1  0.21174000  0.35166000  0.23309000  1.0
  C  C35  1  0.78825000  0.64835000  0.76690000  1.0
  C  C36  1  0.23365000  0.42141000  0.35282000  1.0
  C  C37  1  0.76635000  0.57859000  0.64717000  1.0
  C  C38  1  0.31581000  0.55111000  0.33008000  1.0
  C  C39  1  0.68417000  0.44888000  0.66991000  1.0
  C  C40  1  0.28235000  0.65254000  0.80386000  1.0
  C  C41  1  0.71765000  0.34745000  0.19613000  1.0
  C  C42  1  0.38023000  0.78940000  0.78366000  1.0
  C  C43  1  0.61977000  0.21060000  0.21634000  1.0
  C  C44  1  0.34896000  0.72057000  0.66426000  1.0
  C  C45  1  0.65105000  0.27942000  0.33574000  1.0
  C  C46  1  0.25730000  0.59092000  0.68493000  1.0
  C  C47  1  0.74272000  0.40908000  0.31507000  1.0
  C  C48  1  0.15930000  0.17153000  0.65393000  1.0
  C  C49  1  0.84070000  0.82847000  0.34607000  1.0
  C  C50  1  0.96270000  0.17231000  0.65337000  1.0
  C  C51  1  0.03730000  0.82769000  0.34663000  1.0
  C  C52  1  0.85433000  0.93995000  0.62626000  1.0
  C  C53  1  0.14567000  0.06005000  0.37374000  1.0
  C  C54  1  0.05110000  0.93923000  0.62655000  1.0
  C  C55  1  0.94889000  0.06077000  0.37345000  1.0
  N  N56  1  0.69368000  0.79482000  0.08272000  1.0
  N  N57  1  0.30632000  0.20518000  0.91728000  1.0
  N  N58  1  0.09050000  0.79660000  0.08928000  1.0
  N  N59  1  0.90950000  0.20341000  0.91073000  1.0
  N  N60  1  0.20508000  0.05502000  0.64225000  1.0
  N  N61  1  0.79492000  0.94498000  0.35775000  1.0
  N  N62  1  0.81018000  0.05668000  0.64149000  1.0
  N  N63  1  0.18982000  0.94332000  0.35852000  1.0
  O  O64  1  0.23964000  0.60990000  0.88483000  1.0
  O  O65  1  0.76036000  0.39008000  0.11516000  1.0
  O  O66  1  0.45376000  0.90933000  0.83965000  1.0
  O  O67  1  0.54623000  0.09066000  0.16035000  1.0
  O  O68  1  0.38913000  0.76750000  0.58194000  1.0
  O  O69  1  0.61088000  0.23250000  0.41806000  1.0
  O  O70  1  0.17792000  0.46490000  0.62675000  1.0
  O  O71  1  0.82209000  0.53509000  0.37325000  1.0
  O  O72  1  0.33631000  0.53791000  0.13253000  1.0
  O  O73  1  0.66369000  0.46210000  0.86746000  1.0
  O  O74  1  0.15077000  0.23271000  0.17776000  1.0
  O  O75  1  0.84923000  0.76729000  0.82223000  1.0
  O  O76  1  0.19238000  0.37686000  0.43560000  1.0
  O  O77  1  0.80762000  0.62313000  0.56439000  1.0
  O  O78  1  0.38480000  0.67941000  0.38564000  1.0
  O  O79  1  0.61519000  0.32060000  0.61437000  1.0
