# generated using pymatgen
data_NiH12C10N2O5
_symmetry_space_group_name_H-M   'P 1'
_cell_length_a   5.92252000
_cell_length_b   9.23651000
_cell_length_c   11.99430000
_cell_angle_alpha   89.99960000
_cell_angle_beta   89.99920000
_cell_angle_gamma   97.50390000
_symmetry_Int_Tables_number   1
_chemical_formula_structural   NiH12C10N2O5
_chemical_formula_sum   'Ni2 H24 C20 N4 O10'
_cell_volume   650.51006590
_cell_formula_units_Z   2
loop_
 _symmetry_equiv_pos_site_id
 _symmetry_equiv_pos_as_xyz
  1  'x, y, z'
loop_
 _atom_site_type_symbol
 _atom_site_label
 _atom_site_symmetry_multiplicity
 _atom_site_fract_x
 _atom_site_fract_y
 _atom_site_fract_z
 _atom_site_occupancy
  Ni  Ni0  1  0.03165000  0.47346000  0.89676000  1.0
  Ni  Ni1  1  0.96835000  0.52654000  0.39676000  1.0
  H  H2  1  0.67388000  0.50206000  0.76960000  1.0
  H  H3  1  0.32613000  0.49794000  0.26959000  1.0
  H  H4  1  0.57293000  0.47931000  0.89074000  1.0
  H  H5  1  0.42707000  0.52069000  0.39074000  1.0
  H  H6  1  0.85087000  0.70116000  0.95501000  1.0
  H  H7  1  0.14912000  0.29885000  0.45501000  1.0
  H  H8  1  0.22869000  0.84853000  0.02558000  1.0
  H  H9  1  0.77131000  0.15147000  0.52558000  1.0
  H  H10  1  0.93011000  0.75182000  0.14595000  1.0
  H  H11  1  0.06988000  0.24818000  0.64595000  1.0
  H  H12  1  0.18505000  0.70013000  0.19744000  1.0
  H  H13  1  0.81494000  0.29987000  0.69744000  1.0
  H  H14  1  0.93703000  0.75934000  0.76424000  1.0
  H  H15  1  0.06298000  0.24067000  0.26424000  1.0
  H  H16  1  0.22822000  0.77522000  0.79348000  1.0
  H  H17  1  0.77179000  0.22478000  0.29347000  1.0
  H  H18  1  0.36088000  0.28816000  0.79840000  1.0
  H  H19  1  0.63912000  0.71184000  0.29841000  1.0
  H  H20  1  0.37974000  0.02394000  0.76613000  1.0
  H  H21  1  0.62026000  0.97606000  0.26613000  1.0
  H  H22  1  0.75044000  0.93201000  0.95123000  1.0
  H  H23  1  0.24957000  0.06799000  0.45123000  1.0
  H  H24  1  0.76045000  0.20189000  0.97641000  1.0
  H  H25  1  0.23956000  0.79811000  0.47641000  1.0
  C  C26  1  0.39210000  0.65968000  0.99824000  1.0
  C  C27  1  0.60788000  0.34031000  0.49824000  1.0
  C  C28  1  0.17516000  0.72990000  0.01881000  1.0
  C  C29  1  0.82484000  0.27010000  0.51881000  1.0
  C  C30  1  0.06108000  0.68069000  0.12931000  1.0
  C  C31  1  0.93891000  0.31931000  0.62931000  1.0
  C  C32  1  0.93730000  0.52505000  0.13923000  1.0
  C  C33  1  0.06269000  0.47495000  0.63922000  1.0
  C  C34  1  0.06388000  0.79403000  0.82925000  1.0
  C  C35  1  0.93612000  0.20597000  0.32924000  1.0
  C  C36  1  0.22910000  0.20578000  0.83089000  1.0
  C  C37  1  0.77091000  0.79422000  0.33089000  1.0
  C  C38  1  0.23774000  0.05777000  0.81308000  1.0
  C  C39  1  0.76226000  0.94223000  0.31308000  1.0
  C  C40  1  0.06316000  0.95464000  0.85353000  1.0
  C  C41  1  0.93685000  0.04536000  0.35353000  1.0
  C  C42  1  0.88854000  0.00692000  0.91460000  1.0
  C  C43  1  0.11147000  0.99308000  0.41460000  1.0
  C  C44  1  0.89247000  0.15662000  0.92948000  1.0
  C  C45  1  0.10753000  0.84338000  0.42948000  1.0
  N  N46  1  0.01435000  0.69652000  0.92561000  1.0
  N  N47  1  0.98565000  0.30348000  0.42560000  1.0
  N  N48  1  0.05790000  0.25532000  0.88700000  1.0
  N  N49  1  0.94210000  0.74468000  0.38701000  1.0
  O  O50  1  0.36298000  0.53257000  0.95138000  1.0
  O  O51  1  0.63703000  0.46744000  0.45139000  1.0
  O  O52  1  0.58031000  0.72637000  0.02759000  1.0
  O  O53  1  0.41970000  0.27363000  0.52758000  1.0
  O  O54  1  0.91183000  0.43956000  0.05576000  1.0
  O  O55  1  0.08816000  0.56044000  0.55575000  1.0
  O  O56  1  0.85332000  0.48609000  0.23420000  1.0
  O  O57  1  0.14667000  0.51390000  0.73419000  1.0
  O  O58  1  0.69036000  0.44637000  0.83736000  1.0
  O  O59  1  0.30965000  0.55363000  0.33736000  1.0
