# generated using pymatgen
data_H8AuC5S2N
_symmetry_space_group_name_H-M   'P 1'
_cell_length_a   6.29565000
_cell_length_b   7.55632000
_cell_length_c   16.53950000
_cell_angle_alpha   90.00020000
_cell_angle_beta   90.00010000
_cell_angle_gamma   98.83690000
_symmetry_Int_Tables_number   1
_chemical_formula_structural   H8AuC5S2N
_chemical_formula_sum   'H32 Au4 C20 S8 N4'
_cell_volume   777.47641697
_cell_formula_units_Z   4
loop_
 _symmetry_equiv_pos_site_id
 _symmetry_equiv_pos_as_xyz
  1  'x, y, z'
loop_
 _atom_site_type_symbol
 _atom_site_label
 _atom_site_symmetry_multiplicity
 _atom_site_fract_x
 _atom_site_fract_y
 _atom_site_fract_z
 _atom_site_occupancy
  H  H0  1  0.22346000  0.46907000  0.43927000  1.0
  H  H1  1  0.77657000  0.03094000  0.93929000  1.0
  H  H2  1  0.77650000  0.53102000  0.56073000  1.0
  H  H3  1  0.22352000  0.96896000  0.06074000  1.0
  H  H4  1  0.12112000  0.66888000  0.46770000  1.0
  H  H5  1  0.87893000  0.83109000  0.96770000  1.0
  H  H6  1  0.87879000  0.33118000  0.53229000  1.0
  H  H7  1  0.12123000  0.16879000  0.03227000  1.0
  H  H8  1  0.06046000  0.55419000  0.31381000  1.0
  H  H9  1  0.93952000  0.94586000  0.81381000  1.0
  H  H10  1  0.93955000  0.44583000  0.68617000  1.0
  H  H11  1  0.06043000  0.05418000  0.18617000  1.0
  H  H12  1  0.15921000  0.78485000  0.32885000  1.0
  H  H13  1  0.84079000  0.71517000  0.82885000  1.0
  H  H14  1  0.84075000  0.21518000  0.67113000  1.0
  H  H15  1  0.15926000  0.28485000  0.17110000  1.0
  H  H16  1  0.41199000  0.67049000  0.23209000  1.0
  H  H17  1  0.58798000  0.82956000  0.73210000  1.0
  H  H18  1  0.58805000  0.32955000  0.76790000  1.0
  H  H19  1  0.41194000  0.17047000  0.26791000  1.0
  H  H20  1  0.43047000  0.48609000  0.29757000  1.0
  H  H21  1  0.56947000  0.01388000  0.79758000  1.0
  H  H22  1  0.56955000  0.51392000  0.70245000  1.0
  H  H23  1  0.43043000  0.98608000  0.20247000  1.0
  H  H24  1  0.60791000  0.88194000  0.32632000  1.0
  H  H25  1  0.39213000  0.61805000  0.82633000  1.0
  H  H26  1  0.39207000  0.11811000  0.67369000  1.0
  H  H27  1  0.60799000  0.38186000  0.17369000  1.0
  H  H28  1  0.74143000  0.69050000  0.33677000  1.0
  H  H29  1  0.25853000  0.80944000  0.83678000  1.0
  H  H30  1  0.25854000  0.30953000  0.66326000  1.0
  H  H31  1  0.74144000  0.19041000  0.16327000  1.0
  Au  Au32  1  0.99996000  0.00001000  0.49998000  1.0
  Au  Au33  1  0.00004000  0.49997000  0.00000000  1.0
  Au  Au34  1  0.49994000  0.00004000  0.50000000  1.0
  Au  Au35  1  0.50007000  0.49995000  0.00000000  1.0
  C  C36  1  0.15854000  0.75935000  0.63281000  1.0
  C  C37  1  0.84149000  0.74070000  0.13283000  1.0
  C  C38  1  0.84144000  0.24076000  0.36715000  1.0
  C  C39  1  0.15858000  0.25932000  0.86717000  1.0
  C  C40  1  0.22981000  0.61244000  0.42666000  1.0
  C  C41  1  0.77019000  0.88753000  0.92667000  1.0
  C  C42  1  0.77013000  0.38762000  0.57333000  1.0
  C  C43  1  0.22986000  0.11236000  0.07333000  1.0
  C  C44  1  0.19648000  0.64841000  0.33739000  1.0
  C  C45  1  0.80351000  0.85161000  0.83737000  1.0
  C  C46  1  0.80350000  0.35164000  0.66260000  1.0
  C  C47  1  0.19648000  0.14837000  0.16259000  1.0
  C  C48  1  0.40689000  0.62706000  0.29545000  1.0
  C  C49  1  0.59313000  0.87296000  0.79545000  1.0
  C  C50  1  0.59314000  0.37298000  0.70456000  1.0
  C  C51  1  0.40688000  0.12704000  0.20456000  1.0
  C  C52  1  0.58758000  0.73979000  0.34237000  1.0
  C  C53  1  0.41244000  0.76019000  0.84239000  1.0
  C  C54  1  0.41242000  0.26025000  0.65763000  1.0
  C  C55  1  0.58760000  0.23973000  0.15763000  1.0
  S  S56  1  0.95410000  0.87448000  0.62802000  1.0
  S  S57  1  0.04589000  0.62550000  0.12804000  1.0
  S  S58  1  0.04582000  0.12557000  0.37194000  1.0
  S  S59  1  0.95414000  0.37444000  0.87196000  1.0
  S  S60  1  0.50768000  0.71438000  0.44980000  1.0
  S  S61  1  0.49233000  0.78562000  0.94980000  1.0
  S  S62  1  0.49224000  0.28571000  0.55021000  1.0
  S  S63  1  0.50775000  0.21426000  0.05020000  1.0
  N  N64  1  0.29851000  0.67267000  0.63824000  1.0
  N  N65  1  0.70147000  0.82735000  0.13824000  1.0
  N  N66  1  0.70144000  0.32746000  0.36175000  1.0
  N  N67  1  0.29855000  0.17259000  0.86175000  1.0
