# generated using pymatgen
data_Ho2H18(C3O8)3
_symmetry_space_group_name_H-M   'P 1'
_cell_length_a   8.75787000
_cell_length_b   8.75788000
_cell_length_c   8.75791000
_cell_angle_alpha   66.29990000
_cell_angle_beta   66.30010000
_cell_angle_gamma   66.30020000
_symmetry_Int_Tables_number   1
_chemical_formula_structural   Ho2H18(C3O8)3
_chemical_formula_sum   'Ho2 H18 C9 O24'
_cell_volume   539.56439419
_cell_formula_units_Z   1
loop_
 _symmetry_equiv_pos_site_id
 _symmetry_equiv_pos_as_xyz
  1  'x, y, z'
loop_
 _atom_site_type_symbol
 _atom_site_label
 _atom_site_symmetry_multiplicity
 _atom_site_fract_x
 _atom_site_fract_y
 _atom_site_fract_z
 _atom_site_occupancy
  Ho  Ho0  1  0.26736000  0.26736000  0.26736000  1.0
  Ho  Ho1  1  0.73264000  0.73263000  0.73264000  1.0
  H  H2  1  0.17573000  0.30862000  0.94927000  1.0
  H  H3  1  0.30862000  0.94927000  0.17574000  1.0
  H  H4  1  0.94927000  0.17573000  0.30862000  1.0
  H  H5  1  0.82427000  0.05073000  0.69137000  1.0
  H  H6  1  0.69138000  0.82427000  0.05072000  1.0
  H  H7  1  0.05073000  0.69138000  0.82426000  1.0
  H  H8  1  0.21633000  0.27116000  0.63657000  1.0
  H  H9  1  0.27117000  0.63658000  0.21633000  1.0
  H  H10  1  0.63657000  0.21633000  0.27117000  1.0
  H  H11  1  0.78367000  0.36342000  0.72883000  1.0
  H  H12  1  0.72884000  0.78367000  0.36343000  1.0
  H  H13  1  0.36342000  0.72884000  0.78367000  1.0
  H  H14  1  0.12575000  0.45574000  0.52345000  1.0
  H  H15  1  0.45575000  0.52345000  0.12576000  1.0
  H  H16  1  0.52344000  0.12576000  0.45574000  1.0
  H  H17  1  0.87424000  0.47656000  0.54425000  1.0
  H  H18  1  0.54426000  0.87425000  0.47655000  1.0
  H  H19  1  0.47655000  0.54426000  0.87424000  1.0
  C  C20  1  0.96448000  0.50000000  0.03553000  1.0
  C  C21  1  0.50000000  0.03553000  0.96448000  1.0
  C  C22  1  0.03553000  0.96447000  0.50000000  1.0
  C  C23  1  0.91611000  0.58182000  0.18400000  1.0
  C  C24  1  0.58182000  0.18400000  0.91611000  1.0
  C  C25  1  0.18401000  0.91610000  0.58182000  1.0
  C  C26  1  0.08389000  0.81599000  0.41818000  1.0
  C  C27  1  0.41818000  0.08390000  0.81600000  1.0
  C  C28  1  0.81600000  0.41818000  0.08389000  1.0
  O  O29  1  0.12782000  0.37761000  0.03731000  1.0
  O  O30  1  0.37761000  0.03731000  0.12782000  1.0
  O  O31  1  0.03731000  0.12782000  0.37761000  1.0
  O  O32  1  0.87218000  0.96268000  0.62239000  1.0
  O  O33  1  0.62239000  0.87218000  0.96269000  1.0
  O  O34  1  0.96269000  0.62239000  0.87218000  1.0
  O  O35  1  0.18046000  0.33223000  0.52722000  1.0
  O  O36  1  0.33223000  0.52722000  0.18047000  1.0
  O  O37  1  0.52722000  0.18046000  0.33223000  1.0
  O  O38  1  0.81953000  0.47278000  0.66777000  1.0
  O  O39  1  0.66777000  0.81953000  0.47278000  1.0
  O  O40  1  0.47278000  0.66777000  0.81954000  1.0
  O  O41  1  0.99146000  0.49130000  0.30198000  1.0
  O  O42  1  0.49131000  0.30198000  0.99146000  1.0
  O  O43  1  0.30197000  0.99146000  0.49130000  1.0
  O  O44  1  0.00854000  0.69802000  0.50870000  1.0
  O  O45  1  0.50870000  0.00854000  0.69803000  1.0
  O  O46  1  0.69802000  0.50870000  0.00854000  1.0
  O  O47  1  0.80066000  0.72694000  0.18182000  1.0
  O  O48  1  0.72696000  0.18182000  0.80065000  1.0
  O  O49  1  0.18182000  0.80065000  0.72695000  1.0
  O  O50  1  0.19935000  0.81818000  0.27305000  1.0
  O  O51  1  0.27305000  0.19935000  0.81818000  1.0
  O  O52  1  0.81817000  0.27306000  0.19935000  1.0
