# generated using pymatgen
data_BaH16C14SO10
_symmetry_space_group_name_H-M   'P 1'
_cell_length_a   6.20112000
_cell_length_b   12.86180000
_cell_length_c   13.78630000
_cell_angle_alpha   76.32120000
_cell_angle_beta   87.18150000
_cell_angle_gamma   82.30600000
_symmetry_Int_Tables_number   1
_chemical_formula_structural   BaH16C14SO10
_chemical_formula_sum   'Ba2 H32 C28 S2 O20'
_cell_volume   1058.58105923
_cell_formula_units_Z   2
loop_
 _symmetry_equiv_pos_site_id
 _symmetry_equiv_pos_as_xyz
  1  'x, y, z'
loop_
 _atom_site_type_symbol
 _atom_site_label
 _atom_site_symmetry_multiplicity
 _atom_site_fract_x
 _atom_site_fract_y
 _atom_site_fract_z
 _atom_site_occupancy
  Ba  Ba0  1  0.74104000  0.47169000  0.63186000  1.0
  Ba  Ba1  1  0.25896000  0.52831000  0.36813000  1.0
  H  H2  1  0.95338000  0.13576000  0.20107000  1.0
  H  H3  1  0.04662000  0.86423000  0.79893000  1.0
  H  H4  1  0.97031000  0.94444000  0.29637000  1.0
  H  H5  1  0.02968000  0.05555000  0.70363000  1.0
  H  H6  1  0.32094000  0.00900000  0.41204000  1.0
  H  H7  1  0.67906000  0.99101000  0.58796000  1.0
  H  H8  1  0.30813000  0.20367000  0.32109000  1.0
  H  H9  1  0.69186000  0.79633000  0.67891000  1.0
  H  H10  1  0.20671000  0.40787000  0.12536000  1.0
  H  H11  1  0.79329000  0.59214000  0.87464000  1.0
  H  H12  1  0.04590000  0.43483000  0.95629000  1.0
  H  H13  1  0.95411000  0.56518000  0.04371000  1.0
  H  H14  1  0.65419000  0.30109000  0.84564000  1.0
  H  H15  1  0.34582000  0.69890000  0.15435000  1.0
  H  H16  1  0.81742000  0.27212000  0.01281000  1.0
  H  H17  1  0.18258000  0.72787000  0.98720000  1.0
  H  H18  1  0.69123000  0.21375000  0.64966000  1.0
  H  H19  1  0.30877000  0.78626000  0.35034000  1.0
  H  H20  1  0.93681000  0.21933000  0.63637000  1.0
  H  H21  1  0.06319000  0.78068000  0.36364000  1.0
  H  H22  1  0.15960000  0.32799000  0.54974000  1.0
  H  H23  1  0.84040000  0.67201000  0.45026000  1.0
  H  H24  1  0.23953000  0.39981000  0.61678000  1.0
  H  H25  1  0.76048000  0.60019000  0.38322000  1.0
  H  H26  1  0.93477000  0.72068000  0.57724000  1.0
  H  H27  1  0.06523000  0.27932000  0.42277000  1.0
  H  H28  1  0.02268000  0.66904000  0.68923000  1.0
  H  H29  1  0.97732000  0.33096000  0.31077000  1.0
  H  H30  1  0.75188000  0.37623000  0.43063000  1.0
  H  H31  1  0.24812000  0.62377000  0.56938000  1.0
  H  H32  1  0.56943000  0.31556000  0.49635000  1.0
  H  H33  1  0.43057000  0.68444000  0.50365000  1.0
  C  C34  1  0.81557000  0.10762000  0.24736000  1.0
  C  C35  1  0.18442000  0.89237000  0.75263000  1.0
  C  C36  1  0.82469000  0.00093000  0.30112000  1.0
  C  C37  1  0.17530000  0.99906000  0.69888000  1.0
  C  C38  1  0.64696000  0.96584000  0.36101000  1.0
  C  C39  1  0.35304000  0.03416000  0.63899000  1.0
  C  C40  1  0.45778000  0.03786000  0.36544000  1.0
  C  C41  1  0.54222000  0.96214000  0.63457000  1.0
  C  C42  1  0.44903000  0.14542000  0.31419000  1.0
  C  C43  1  0.55097000  0.85458000  0.68582000  1.0
  C  C44  1  0.62909000  0.17941000  0.25632000  1.0
  C  C45  1  0.37090000  0.82059000  0.74368000  1.0
  C  C46  1  0.51978000  0.33780000  0.07808000  1.0
  C  C47  1  0.48022000  0.66219000  0.92192000  1.0
  C  C48  1  0.30287000  0.38391000  0.06426000  1.0
  C  C49  1  0.69713000  0.61610000  0.93574000  1.0
  C  C50  1  0.21411000  0.39944000  0.97046000  1.0
  C  C51  1  0.78590000  0.60057000  0.02953000  1.0
  C  C52  1  0.33986000  0.37109000  0.89141000  1.0
  C  C53  1  0.66015000  0.62891000  0.10858000  1.0
  C  C54  1  0.55691000  0.32424000  0.90700000  1.0
  C  C55  1  0.44309000  0.67576000  0.09300000  1.0
  C  C56  1  0.64814000  0.30701000  0.00068000  1.0
  C  C57  1  0.35186000  0.69298000  0.99932000  1.0
  C  C58  1  0.65838000  0.85220000  0.42361000  1.0
  C  C59  1  0.34162000  0.14780000  0.57639000  1.0
  C  C60  1  0.23882000  0.39454000  0.78974000  1.0
  C  C61  1  0.76120000  0.60546000  0.21026000  1.0
  S  S62  1  0.62844000  0.31821000  0.19811000  1.0
  S  S63  1  0.37156000  0.68179000  0.80189000  1.0
  O  O64  1  0.81154000  0.23903000  0.67833000  1.0
  O  O65  1  0.18846000  0.76097000  0.32168000  1.0
  O  O66  1  0.48222000  0.81161000  0.44349000  1.0
  O  O67  1  0.51778000  0.18839000  0.55651000  1.0
  O  O68  1  0.15023000  0.40386000  0.55591000  1.0
  O  O69  1  0.84978000  0.59614000  0.44409000  1.0
  O  O70  1  0.84696000  0.80444000  0.45349000  1.0
  O  O71  1  0.15305000  0.19556000  0.54651000  1.0
  O  O72  1  0.03503000  0.41759000  0.78420000  1.0
  O  O73  1  0.96498000  0.58240000  0.21579000  1.0
  O  O74  1  0.98946000  0.65339000  0.62546000  1.0
  O  O75  1  0.01054000  0.34661000  0.37454000  1.0
  O  O76  1  0.37079000  0.39011000  0.71567000  1.0
  O  O77  1  0.62924000  0.60988000  0.28432000  1.0
  O  O78  1  0.61676000  0.38835000  0.47025000  1.0
  O  O79  1  0.38324000  0.61165000  0.52976000  1.0
  O  O80  1  0.47872000  0.37974000  0.25437000  1.0
  O  O81  1  0.52127000  0.62026000  0.74563000  1.0
  O  O82  1  0.85639000  0.33731000  0.18724000  1.0
  O  O83  1  0.14360000  0.66270000  0.81275000  1.0
