# generated using pymatgen
data_MgH3C7SO3
_symmetry_space_group_name_H-M   'P 1'
_cell_length_a   6.84072000
_cell_length_b   26.98359175
_cell_length_c   26.99260000
_cell_angle_alpha   119.26345566
_cell_angle_beta   94.85730000
_cell_angle_gamma   94.82242836
_symmetry_Int_Tables_number   1
_chemical_formula_structural   MgH3C7SO3
_chemical_formula_sum   'Mg6 H18 C42 S6 O18'
_cell_volume   4285.67145253
_cell_formula_units_Z   6
loop_
 _symmetry_equiv_pos_site_id
 _symmetry_equiv_pos_as_xyz
  1  'x, y, z'
loop_
 _atom_site_type_symbol
 _atom_site_label
 _atom_site_symmetry_multiplicity
 _atom_site_fract_x
 _atom_site_fract_y
 _atom_site_fract_z
 _atom_site_occupancy
  Mg  Mg0  1  0.52313000  0.62566000  0.32868000  1.0
  Mg  Mg1  1  0.47688000  0.37434000  0.67132000  1.0
  Mg  Mg2  1  0.19438000  0.67142000  0.29690000  1.0
  Mg  Mg3  1  0.80562000  0.32858000  0.70310000  1.0
  Mg  Mg4  1  0.89743000  0.70316000  0.37438000  1.0
  Mg  Mg5  1  0.10257000  0.29684000  0.62562000  1.0
  H  H6  1  0.18327000  0.40733000  0.86648000  1.0
  H  H7  1  0.88057000  0.43956000  0.83870000  1.0
  H  H8  1  0.80190000  0.46766000  0.93643000  1.0
  H  H9  1  0.81671000  0.59267000  0.13352000  1.0
  H  H10  1  0.11944000  0.56045000  0.16131000  1.0
  H  H11  1  0.19809000  0.53234000  0.06357000  1.0
  H  H12  1  0.31709000  0.13352000  0.54083000  1.0
  H  H13  1  0.04236000  0.16117000  0.60075000  1.0
  H  H14  1  0.86604000  0.06351000  0.53089000  1.0
  H  H15  1  0.68292000  0.86648000  0.45917000  1.0
  H  H16  1  0.95765000  0.83883000  0.39925000  1.0
  H  H17  1  0.13396000  0.93649000  0.46911000  1.0
  H  H18  1  0.77562000  0.45908000  0.59260000  1.0
  H  H19  1  0.44129000  0.39930000  0.56058000  1.0
  H  H20  1  0.33424000  0.46905000  0.53259000  1.0
  H  H21  1  0.22438000  0.54092000  0.40741000  1.0
  H  H22  1  0.55872000  0.60071000  0.43942000  1.0
  H  H23  1  0.66574000  0.53095000  0.46741000  1.0
  C  C24  1  0.48609000  0.43964000  0.90827000  1.0
  C  C25  1  0.33740000  0.41431000  0.86103000  1.0
  C  C26  1  0.38057000  0.39596000  0.80496000  1.0
  C  C27  1  0.58107000  0.40592000  0.79671000  1.0
  C  C28  1  0.72845000  0.43267000  0.84557000  1.0
  C  C29  1  0.68397000  0.44824000  0.89980000  1.0
  C  C30  1  0.21522000  0.36632000  0.75706000  1.0
  C  C31  1  0.51390000  0.56036000  0.09173000  1.0
  C  C32  1  0.66259000  0.58569000  0.13896000  1.0
  C  C33  1  0.61943000  0.60404000  0.19504000  1.0
  C  C34  1  0.41893000  0.59408000  0.20329000  1.0
  C  C35  1  0.27155000  0.56733000  0.15443000  1.0
  C  C36  1  0.31602000  0.55176000  0.10020000  1.0
  C  C37  1  0.78480000  0.63368000  0.24294000  1.0
  C  C38  1  0.57821000  0.09170000  0.53117000  1.0
  C  C39  1  0.47663000  0.13892000  0.55324000  1.0
  C  C40  1  0.57595000  0.19496000  0.59107000  1.0
  C  C41  1  0.78465000  0.20318000  0.60926000  1.0
  C  C42  1  0.88333000  0.15432000  0.58702000  1.0
  C  C43  1  0.78465000  0.10014000  0.54823000  1.0
  C  C44  1  0.45843000  0.24286000  0.60937000  1.0
  C  C45  1  0.42179000  0.90830000  0.46883000  1.0
  C  C46  1  0.52337000  0.86108000  0.44676000  1.0
  C  C47  1  0.42406000  0.80504000  0.40892000  1.0
  C  C48  1  0.21536000  0.79682000  0.39074000  1.0
  C  C49  1  0.11667000  0.84568000  0.41298000  1.0
  C  C50  1  0.21536000  0.89986000  0.45177000  1.0
  C  C51  1  0.54158000  0.75714000  0.39063000  1.0
  C  C52  1  0.04628000  0.46872000  0.56045000  1.0
  C  C53  1  0.92286000  0.44669000  0.58566000  1.0
  C  C54  1  0.98447000  0.40892000  0.60398000  1.0
  C  C55  1  0.17514000  0.39076000  0.59407000  1.0
  C  C56  1  0.29597000  0.41300000  0.56744000  1.0
  C  C57  1  0.23574000  0.45171000  0.55192000  1.0
  C  C58  1  0.84881000  0.39058000  0.63357000  1.0
  C  C59  1  0.95371000  0.53128000  0.43955000  1.0
  C  C60  1  0.07714000  0.55331000  0.41434000  1.0
  C  C61  1  0.01552000  0.59108000  0.39602000  1.0
  C  C62  1  0.82486000  0.60924000  0.40593000  1.0
  C  C63  1  0.70403000  0.58700000  0.43255000  1.0
  C  C64  1  0.76425000  0.54829000  0.44808000  1.0
  C  C65  1  0.15119000  0.60942000  0.36643000  1.0
  S  S66  1  0.57292000  0.54312000  0.02341000  1.0
  S  S67  1  0.42705000  0.45688000  0.97659000  1.0
  S  S68  1  0.54869000  0.97666000  0.51992000  1.0
  S  S69  1  0.45131000  0.02333000  0.48007000  1.0
  S  S70  1  0.02987000  0.48022000  0.45689000  1.0
  S  S71  1  0.97011000  0.51978000  0.54311000  1.0
  O  O72  1  0.95927000  0.64494000  0.23450000  1.0
  O  O73  1  0.74856000  0.64813000  0.29428000  1.0
  O  O74  1  0.36135000  0.60902000  0.25448000  1.0
  O  O75  1  0.04073000  0.35506000  0.76549000  1.0
  O  O76  1  0.25145000  0.35187000  0.70572000  1.0
  O  O77  1  0.63866000  0.39098000  0.74553000  1.0
  O  O78  1  0.72445000  0.76550000  0.41031000  1.0
  O  O79  1  0.45413000  0.70579000  0.35370000  1.0
  O  O80  1  0.10668000  0.74565000  0.35443000  1.0
  O  O81  1  0.27556000  0.23450000  0.58969000  1.0
  O  O82  1  0.54586000  0.29420000  0.64629000  1.0
  O  O83  1  0.89333000  0.25435000  0.64557000  1.0
  O  O84  1  0.31440000  0.58972000  0.35512000  1.0
  O  O85  1  0.10055000  0.64638000  0.35203000  1.0
  O  O86  1  0.75236000  0.64554000  0.39102000  1.0
  O  O87  1  0.68560000  0.41029000  0.64489000  1.0
  O  O88  1  0.89945000  0.35362000  0.64797000  1.0
  O  O89  1  0.24764000  0.35446000  0.60898000  1.0
