# generated using pymatgen
data_CdH16C19N2O5
_symmetry_space_group_name_H-M   'P 1'
_cell_length_a   7.81722000
_cell_length_b   10.30940000
_cell_length_c   11.55650000
_cell_angle_alpha   98.40500000
_cell_angle_beta   91.49300000
_cell_angle_gamma   98.77940000
_symmetry_Int_Tables_number   1
_chemical_formula_structural   CdH16C19N2O5
_chemical_formula_sum   'Cd2 H32 C38 N4 O10'
_cell_volume   909.43511770
_cell_formula_units_Z   2
loop_
 _symmetry_equiv_pos_site_id
 _symmetry_equiv_pos_as_xyz
  1  'x, y, z'
loop_
 _atom_site_type_symbol
 _atom_site_label
 _atom_site_symmetry_multiplicity
 _atom_site_fract_x
 _atom_site_fract_y
 _atom_site_fract_z
 _atom_site_occupancy
  Cd  Cd0  1  0.28361000  0.76453000  0.37300000  1.0
  Cd  Cd1  1  0.71639000  0.23547000  0.62700000  1.0
  H  H2  1  0.13623000  0.98423000  0.41148000  1.0
  H  H3  1  0.86377000  0.01577000  0.58852000  1.0
  H  H4  1  0.28226000  0.02742000  0.52111000  1.0
  H  H5  1  0.71775000  0.97258000  0.47889000  1.0
  H  H6  1  0.06200000  0.52731000  0.19202000  1.0
  H  H7  1  0.93802000  0.47269000  0.80797000  1.0
  H  H8  1  0.92972000  0.28527000  0.17630000  1.0
  H  H9  1  0.07030000  0.71474000  0.82369000  1.0
  H  H10  1  0.97202000  0.16746000  0.34734000  1.0
  H  H11  1  0.02796000  0.83254000  0.65265000  1.0
  H  H12  1  0.14593000  0.29061000  0.52344000  1.0
  H  H13  1  0.85407000  0.70939000  0.47656000  1.0
  H  H14  1  0.51170000  0.86143000  0.61804000  1.0
  H  H15  1  0.48831000  0.13857000  0.38196000  1.0
  H  H16  1  0.60038000  0.77474000  0.79760000  1.0
  H  H17  1  0.39961000  0.22525000  0.20241000  1.0
  H  H18  1  0.49999000  0.53215000  0.81217000  1.0
  H  H19  1  0.49999000  0.46784000  0.18784000  1.0
  H  H20  1  0.31145000  0.39350000  0.65063000  1.0
  H  H21  1  0.68852000  0.60650000  0.34937000  1.0
  H  H22  1  0.65411000  0.05378000  0.22110000  1.0
  H  H23  1  0.34590000  0.94622000  0.77890000  1.0
  H  H24  1  0.64497000  0.20462000  0.07181000  1.0
  H  H25  1  0.35504000  0.79539000  0.92820000  1.0
  H  H26  1  0.74738000  0.14340000  0.87369000  1.0
  H  H27  1  0.25262000  0.85661000  0.12631000  1.0
  H  H28  1  0.85625000  0.92820000  0.82208000  1.0
  H  H29  1  0.14374000  0.07180000  0.17792000  1.0
  H  H30  1  0.85316000  0.77304000  0.96862000  1.0
  H  H31  1  0.14683000  0.22696000  0.03138000  1.0
  H  H32  1  0.76419000  0.70972000  0.14462000  1.0
  H  H33  1  0.23581000  0.29028000  0.85537000  1.0
  C  C34  1  0.07907000  0.46960000  0.26220000  1.0
  C  C35  1  0.92094000  0.53040000  0.73779000  1.0
  C  C36  1  0.00535000  0.33669000  0.25465000  1.0
  C  C37  1  0.99466000  0.66331000  0.74534000  1.0
  C  C38  1  0.02866000  0.27148000  0.35011000  1.0
  C  C39  1  0.97134000  0.72853000  0.64989000  1.0
  C  C40  1  0.12693000  0.34054000  0.44854000  1.0
  C  C41  1  0.87306000  0.65947000  0.55146000  1.0
  C  C42  1  0.19893000  0.47386000  0.44946000  1.0
  C  C43  1  0.80107000  0.52615000  0.55054000  1.0
  C  C44  1  0.46613000  0.75883000  0.62999000  1.0
  C  C45  1  0.53387000  0.24117000  0.37001000  1.0
  C  C46  1  0.51731000  0.70938000  0.72924000  1.0
  C  C47  1  0.48267000  0.29062000  0.27077000  1.0
  C  C48  1  0.46077000  0.57630000  0.73751000  1.0
  C  C49  1  0.53921000  0.42369000  0.26249000  1.0
  C  C50  1  0.35528000  0.49779000  0.64680000  1.0
  C  C51  1  0.64470000  0.50220000  0.35319000  1.0
  C  C52  1  0.30792000  0.55381000  0.54996000  1.0
  C  C53  1  0.69207000  0.44619000  0.45004000  1.0
  C  C54  1  0.75349000  0.90328000  0.10437000  1.0
  C  C55  1  0.24652000  0.09672000  0.89562000  1.0
  C  C56  1  0.69735000  0.02608000  0.13330000  1.0
  C  C57  1  0.30266000  0.97393000  0.86670000  1.0
  C  C58  1  0.69422000  0.11107000  0.05003000  1.0
  C  C59  1  0.30579000  0.88894000  0.94998000  1.0
  C  C60  1  0.75032000  0.07611000  0.93775000  1.0
  C  C61  1  0.24969000  0.92390000  0.06225000  1.0
  C  C62  1  0.80850000  0.95460000  0.90877000  1.0
  C  C63  1  0.19150000  0.04540000  0.09123000  1.0
  C  C64  1  0.80814000  0.86832000  0.99124000  1.0
  C  C65  1  0.19186000  0.13168000  0.00876000  1.0
  C  C66  1  0.75977000  0.80893000  0.19298000  1.0
  C  C67  1  0.24023000  0.19107000  0.80702000  1.0
  C  C68  1  0.59356000  0.79727000  0.26104000  1.0
  C  C69  1  0.40645000  0.20273000  0.73896000  1.0
  C  C70  1  0.92473000  0.84750000  0.27470000  1.0
  C  C71  1  0.07528000  0.15250000  0.72529000  1.0
  N  N72  1  0.17284000  0.53582000  0.35713000  1.0
  N  N73  1  0.82716000  0.46418000  0.64287000  1.0
  N  N74  1  0.36325000  0.68315000  0.54329000  1.0
  N  N75  1  0.63676000  0.31685000  0.45671000  1.0
  O  O76  1  0.45836000  0.72595000  0.20867000  1.0
  O  O77  1  0.54164000  0.27405000  0.79132000  1.0
  O  O78  1  0.59352000  0.85593000  0.36613000  1.0
  O  O79  1  0.40650000  0.14406000  0.63387000  1.0
  O  O80  1  0.01861000  0.75615000  0.27519000  1.0
  O  O81  1  0.98139000  0.24385000  0.72481000  1.0
  O  O82  1  0.95533000  0.96212000  0.33413000  1.0
  O  O83  1  0.04468000  0.03788000  0.66587000  1.0
  O  O84  1  0.25831000  0.97989000  0.43997000  1.0
  O  O85  1  0.74170000  0.02011000  0.56003000  1.0
