# generated using pymatgen
data_AgH8C14(NO)3
_symmetry_space_group_name_H-M   'P 1'
_cell_length_a   8.38152000
_cell_length_b   8.46518000
_cell_length_c   10.41420000
_cell_angle_alpha   110.35400000
_cell_angle_beta   97.12150000
_cell_angle_gamma   101.04100000
_symmetry_Int_Tables_number   1
_chemical_formula_structural   AgH8C14(NO)3
_chemical_formula_sum   'Ag2 H16 C28 N6 O6'
_cell_volume   665.19736955
_cell_formula_units_Z   2
loop_
 _symmetry_equiv_pos_site_id
 _symmetry_equiv_pos_as_xyz
  1  'x, y, z'
loop_
 _atom_site_type_symbol
 _atom_site_label
 _atom_site_symmetry_multiplicity
 _atom_site_fract_x
 _atom_site_fract_y
 _atom_site_fract_z
 _atom_site_occupancy
  Ag  Ag0  1  0.80985000  0.42719000  0.31983000  1.0
  Ag  Ag1  1  0.19015000  0.57284000  0.68017000  1.0
  H  H2  1  0.08402000  0.25351000  0.22662000  1.0
  H  H3  1  0.91598000  0.74650000  0.77340000  1.0
  H  H4  1  0.20393000  0.14153000  0.01237000  1.0
  H  H5  1  0.79606000  0.85848000  0.98765000  1.0
  H  H6  1  0.07257000  0.16216000  0.78867000  1.0
  H  H7  1  0.92745000  0.83786000  0.21134000  1.0
  H  H8  1  0.83351000  0.29751000  0.79128000  1.0
  H  H9  1  0.16650000  0.70251000  0.20872000  1.0
  H  H10  1  0.27355000  0.98572000  0.32717000  1.0
  H  H11  1  0.72644000  0.01430000  0.67283000  1.0
  H  H12  1  0.28545000  0.10933000  0.58266000  1.0
  H  H13  1  0.71455000  0.89068000  0.41735000  1.0
  H  H14  1  0.51646000  0.37716000  0.73338000  1.0
  H  H15  1  0.48356000  0.62284000  0.26663000  1.0
  H  H16  1  0.72031000  0.50471000  0.61688000  1.0
  H  H17  1  0.27969000  0.49531000  0.38312000  1.0
  C  C18  1  0.03390000  0.26116000  0.12764000  1.0
  C  C19  1  0.96609000  0.73886000  0.87239000  1.0
  C  C20  1  0.09824000  0.19825000  0.00794000  1.0
  C  C21  1  0.90175000  0.80177000  0.99207000  1.0
  C  C22  1  0.02646000  0.21040000  0.88458000  1.0
  C  C23  1  0.97355000  0.78963000  0.11544000  1.0
  C  C24  1  0.89113000  0.28326000  0.88487000  1.0
  C  C25  1  0.10886000  0.71675000  0.11513000  1.0
  C  C26  1  0.83071000  0.34124000  0.00844000  1.0
  C  C27  1  0.16928000  0.65875000  0.99155000  1.0
  C  C28  1  0.69048000  0.41088000  0.01067000  1.0
  C  C29  1  0.30950000  0.58908000  0.98931000  1.0
  C  C30  1  0.56713000  0.46800000  0.00347000  1.0
  C  C31  1  0.43290000  0.53196000  0.99650000  1.0
  C  C32  1  0.49725000  0.03601000  0.06823000  1.0
  C  C33  1  0.50272000  0.96398000  0.93176000  1.0
  C  C34  1  0.49479000  0.10351000  0.19300000  1.0
  C  C35  1  0.50522000  0.89650000  0.80702000  1.0
  C  C36  1  0.49274000  0.17620000  0.33744000  1.0
  C  C37  1  0.50727000  0.82379000  0.66256000  1.0
  C  C38  1  0.37140000  0.09977000  0.39446000  1.0
  C  C39  1  0.62860000  0.90023000  0.60554000  1.0
  C  C40  1  0.37808000  0.17073000  0.53794000  1.0
  C  C41  1  0.62191000  0.82925000  0.46205000  1.0
  C  C42  1  0.50539000  0.31735000  0.62060000  1.0
  C  C43  1  0.49462000  0.68265000  0.37940000  1.0
  C  C44  1  0.62017000  0.38875000  0.55677000  1.0
  C  C45  1  0.37983000  0.61125000  0.44323000  1.0
  N  N46  1  0.90361000  0.33258000  0.12940000  1.0
  N  N47  1  0.09639000  0.66741000  0.87060000  1.0
  N  N48  1  0.61523000  0.32192000  0.41882000  1.0
  N  N49  1  0.38477000  0.67806000  0.58117000  1.0
  N  N50  1  0.03352000  0.79360000  0.53131000  1.0
  N  N51  1  0.96649000  0.20639000  0.46869000  1.0
  O  O52  1  0.92270000  0.67084000  0.54096000  1.0
  O  O53  1  0.07732000  0.32913000  0.45904000  1.0
  O  O54  1  0.05496000  0.78685000  0.41230000  1.0
  O  O55  1  0.94502000  0.21313000  0.58767000  1.0
  O  O56  1  0.11825000  0.91455000  0.64223000  1.0
  O  O57  1  0.88174000  0.08544000  0.35775000  1.0
