# generated using pymatgen
data_CuH18C28(NO3)4
_symmetry_space_group_name_H-M   'P 1'
_cell_length_a   10.76590000
_cell_length_b   11.30160000
_cell_length_c   11.70430000
_cell_angle_alpha   90.18940000
_cell_angle_beta   100.96800000
_cell_angle_gamma   105.52400000
_symmetry_Int_Tables_number   1
_chemical_formula_structural   CuH18C28(NO3)4
_chemical_formula_sum   'Cu2 H36 C56 N8 O24'
_cell_volume   1344.85225014
_cell_formula_units_Z   2
loop_
 _symmetry_equiv_pos_site_id
 _symmetry_equiv_pos_as_xyz
  1  'x, y, z'
loop_
 _atom_site_type_symbol
 _atom_site_label
 _atom_site_symmetry_multiplicity
 _atom_site_fract_x
 _atom_site_fract_y
 _atom_site_fract_z
 _atom_site_occupancy
  Cu  Cu0  1  0.56879000  0.87013000  0.91614000  1.0
  Cu  Cu1  1  0.43117000  0.12990000  0.08383000  1.0
  H  H2  1  0.00019000  0.61521000  0.34072000  1.0
  H  H3  1  0.99984000  0.38479000  0.65930000  1.0
  H  H4  1  0.87419000  0.33983000  0.47595000  1.0
  H  H5  1  0.12581000  0.66017000  0.52405000  1.0
  H  H6  1  0.63514000  0.04289000  0.37353000  1.0
  H  H7  1  0.36485000  0.95711000  0.62645000  1.0
  H  H8  1  0.92320000  0.89266000  0.58698000  1.0
  H  H9  1  0.07679000  0.10735000  0.41299000  1.0
  H  H10  1  0.78693000  0.77720000  0.22205000  1.0
  H  H11  1  0.21308000  0.22279000  0.77794000  1.0
  H  H12  1  0.79356000  0.60690000  0.73097000  1.0
  H  H13  1  0.20644000  0.39310000  0.26903000  1.0
  H  H14  1  0.65782000  0.50490000  0.36298000  1.0
  H  H15  1  0.34218000  0.49509000  0.63702000  1.0
  H  H16  1  0.50227000  0.75940000  0.52873000  1.0
  H  H17  1  0.49774000  0.24058000  0.47127000  1.0
  H  H18  1  0.83464000  0.94194000  0.05733000  1.0
  H  H19  1  0.16537000  0.05806000  0.94266000  1.0
  H  H20  1  0.03096000  0.12467000  0.08753000  1.0
  H  H21  1  0.96905000  0.87533000  0.91248000  1.0
  H  H22  1  0.80690000  0.29927000  0.82708000  1.0
  H  H23  1  0.19311000  0.70074000  0.17292000  1.0
  H  H24  1  0.62427000  0.11181000  0.80894000  1.0
  H  H25  1  0.37574000  0.88820000  0.19108000  1.0
  H  H26  1  0.14336000  0.31695000  0.02947000  1.0
  H  H27  1  0.85664000  0.68304000  0.97053000  1.0
  H  H28  1  0.97905000  0.44850000  0.85526000  1.0
  H  H29  1  0.02096000  0.55150000  0.14475000  1.0
  H  H30  1  0.29966000  0.79504000  0.77591000  1.0
  H  H31  1  0.70035000  0.20495000  0.22411000  1.0
  H  H32  1  0.09328000  0.62733000  0.77574000  1.0
  H  H33  1  0.90672000  0.37267000  0.22426000  1.0
  H  H34  1  0.31945000  0.46504000  0.04598000  1.0
  H  H35  1  0.68056000  0.53494000  0.95403000  1.0
  H  H36  1  0.51195000  0.64036000  0.03601000  1.0
  H  H37  1  0.48805000  0.35964000  0.96399000  1.0
  C  C38  1  0.95159000  0.74268000  0.41989000  1.0
  C  C39  1  0.04840000  0.25733000  0.58012000  1.0
  C  C40  1  0.62514000  0.92667000  0.16728000  1.0
  C  C41  1  0.37481000  0.07339000  0.83270000  1.0
  C  C42  1  0.70397000  0.91174000  0.28524000  1.0
  C  C43  1  0.29600000  0.08827000  0.71470000  1.0
  C  C44  1  0.69908000  0.98190000  0.38222000  1.0
  C  C45  1  0.30091000  0.01809000  0.61775000  1.0
  C  C46  1  0.77816000  0.97285000  0.48887000  1.0
  C  C47  1  0.22183000  0.02715000  0.51111000  1.0
  C  C48  1  0.86212000  0.89703000  0.50261000  1.0
  C  C49  1  0.13787000  0.10298000  0.49737000  1.0
  C  C50  1  0.86450000  0.82577000  0.40585000  1.0
  C  C51  1  0.13549000  0.17424000  0.59413000  1.0
  C  C52  1  0.78526000  0.83283000  0.29753000  1.0
  C  C53  1  0.21471000  0.16718000  0.70244000  1.0
  C  C54  1  0.64384000  0.75640000  0.75308000  1.0
  C  C55  1  0.35615000  0.24358000  0.24695000  1.0
  C  C56  1  0.64915000  0.69119000  0.64159000  1.0
  C  C57  1  0.35084000  0.30881000  0.35842000  1.0
  C  C58  1  0.73293000  0.61491000  0.64719000  1.0
  C  C59  1  0.26707000  0.38509000  0.35281000  1.0
  C  C60  1  0.73678000  0.54732000  0.54805000  1.0
  C  C61  1  0.26320000  0.45267000  0.45194000  1.0
  C  C62  1  0.65679000  0.55635000  0.44125000  1.0
  C  C63  1  0.34319000  0.44364000  0.55874000  1.0
  C  C64  1  0.57494000  0.63355000  0.43711000  1.0
  C  C65  1  0.42504000  0.36645000  0.56288000  1.0
  C  C66  1  0.56889000  0.70116000  0.53492000  1.0
  C  C67  1  0.43112000  0.29883000  0.46508000  1.0
  C  C68  1  0.82464000  0.46497000  0.55795000  1.0
  C  C69  1  0.17535000  0.53502000  0.44204000  1.0
  C  C70  1  0.83342000  0.02426000  0.00959000  1.0
  C  C71  1  0.16658000  0.97573000  0.99041000  1.0
  C  C72  1  0.94173000  0.12618000  0.02581000  1.0
  C  C73  1  0.05826000  0.87381000  0.97420000  1.0
  C  C74  1  0.93791000  0.22994000  0.96033000  1.0
  C  C75  1  0.06210000  0.77006000  0.03968000  1.0
  C  C76  1  0.81931000  0.22449000  0.88256000  1.0
  C  C77  1  0.18069000  0.77551000  0.11744000  1.0
  C  C78  1  0.71509000  0.11927000  0.87127000  1.0
  C  C79  1  0.28492000  0.88073000  0.12874000  1.0
  C  C80  1  0.05684000  0.33134000  0.97153000  1.0
  C  C81  1  0.94317000  0.66866000  0.02848000  1.0
  C  C82  1  0.06629000  0.43470000  0.91207000  1.0
  C  C83  1  0.93371000  0.56530000  0.08793000  1.0
  C  C84  1  0.29796000  0.71950000  0.83352000  1.0
  C  C85  1  0.70205000  0.28049000  0.16650000  1.0
  C  C86  1  0.18439000  0.62631000  0.83482000  1.0
  C  C87  1  0.81562000  0.37369000  0.16519000  1.0
  C  C88  1  0.18685000  0.53118000  0.91194000  1.0
  C  C89  1  0.81316000  0.46881000  0.08807000  1.0
  C  C90  1  0.30871000  0.53521000  0.98401000  1.0
  C  C91  1  0.69132000  0.46479000  0.01599000  1.0
  C  C92  1  0.41756000  0.63232000  0.97880000  1.0
  C  C93  1  0.58245000  0.36768000  0.02119000  1.0
  N  N94  1  0.72107000  0.02005000  0.93348000  1.0
  N  N95  1  0.27893000  0.97995000  0.06652000  1.0
  N  N96  1  0.41261000  0.72414000  0.90617000  1.0
  N  N97  1  0.58740000  0.27586000  0.09384000  1.0
  N  N98  1  0.48963000  0.64030000  0.32448000  1.0
  N  N99  1  0.51037000  0.35974000  0.67550000  1.0
  N  N100  1  0.77675000  0.04846000  0.59091000  1.0
  N  N101  1  0.22329000  0.95151000  0.40911000  1.0
  O  O102  1  0.61783000  0.84577000  0.08722000  1.0
  O  O103  1  0.38212000  0.15426000  0.91277000  1.0
  O  O104  1  0.57759000  0.01652000  0.15691000  1.0
  O  O105  1  0.42240000  0.98354000  0.84316000  1.0
  O  O106  1  0.69671000  0.11050000  0.58045000  1.0
  O  O107  1  0.30329000  0.88942000  0.41962000  1.0
  O  O108  1  0.85851000  0.04717000  0.68126000  1.0
  O  O109  1  0.14160000  0.95284000  0.31873000  1.0
  O  O110  1  0.93372000  0.66769000  0.32853000  1.0
  O  O111  1  0.06633000  0.33233000  0.67147000  1.0
  O  O112  1  0.03339000  0.74501000  0.51206000  1.0
  O  O113  1  0.96660000  0.25497000  0.48797000  1.0
  O  O114  1  0.70698000  0.73154000  0.84739000  1.0
  O  O115  1  0.29301000  0.26841000  0.15261000  1.0
  O  O116  1  0.57162000  0.83136000  0.74337000  1.0
  O  O117  1  0.42839000  0.16864000  0.25663000  1.0
  O  O118  1  0.90477000  0.46435000  0.65021000  1.0
  O  O119  1  0.09520000  0.53560000  0.34980000  1.0
  O  O120  1  0.81117000  0.39576000  0.46322000  1.0
  O  O121  1  0.18886000  0.60427000  0.53676000  1.0
  O  O122  1  0.50154000  0.58234000  0.23895000  1.0
  O  O123  1  0.49842000  0.41767000  0.76104000  1.0
  O  O124  1  0.41015000  0.70251000  0.32196000  1.0
  O  O125  1  0.58987000  0.29755000  0.67803000  1.0
