# generated using pymatgen
data_CuAg2H6C14(NO5)2
_symmetry_space_group_name_H-M   'P 1'
_cell_length_a   7.00634000
_cell_length_b   7.00632000
_cell_length_c   17.13460000
_cell_angle_alpha   84.04360000
_cell_angle_beta   84.04380000
_cell_angle_gamma   66.96370000
_symmetry_Int_Tables_number   1
_chemical_formula_structural   CuAg2H6C14(NO5)2
_chemical_formula_sum   'Cu2 Ag4 H12 C28 N4 O20'
_cell_volume   768.02753303
_cell_formula_units_Z   2
loop_
 _symmetry_equiv_pos_site_id
 _symmetry_equiv_pos_as_xyz
  1  'x, y, z'
loop_
 _atom_site_type_symbol
 _atom_site_label
 _atom_site_symmetry_multiplicity
 _atom_site_fract_x
 _atom_site_fract_y
 _atom_site_fract_z
 _atom_site_occupancy
  Cu  Cu0  1  0.08270000  0.91730000  0.75000000  1.0
  Cu  Cu1  1  0.91730000  0.08271000  0.25000000  1.0
  Ag  Ag2  1  0.71674000  0.70902000  0.70705000  1.0
  Ag  Ag3  1  0.29097000  0.28327000  0.79295000  1.0
  Ag  Ag4  1  0.28328000  0.29099000  0.29295000  1.0
  Ag  Ag5  1  0.70902000  0.71674000  0.20706000  1.0
  H  H6  1  0.15357000  0.56277000  0.11329000  1.0
  H  H7  1  0.43723000  0.84643000  0.38671000  1.0
  H  H8  1  0.84643000  0.43722000  0.88670000  1.0
  H  H9  1  0.56277000  0.15355000  0.61330000  1.0
  H  H10  1  0.36477000  0.59833000  0.00795000  1.0
  H  H11  1  0.40164000  0.63523000  0.49205000  1.0
  H  H12  1  0.63524000  0.40163000  0.99204000  1.0
  H  H13  1  0.59833000  0.36476000  0.50796000  1.0
  H  H14  1  0.69440000  0.86995000  0.00932000  1.0
  H  H15  1  0.13006000  0.30560000  0.49067000  1.0
  H  H16  1  0.30560000  0.13007000  0.99067000  1.0
  H  H17  1  0.86996000  0.69440000  0.50933000  1.0
  C  C18  1  0.23207000  0.75036000  0.89935000  1.0
  C  C19  1  0.24962000  0.76794000  0.60064000  1.0
  C  C20  1  0.76794000  0.24963000  0.10064000  1.0
  C  C21  1  0.75036000  0.23207000  0.39936000  1.0
  C  C22  1  0.22364000  0.68135000  0.97777000  1.0
  C  C23  1  0.31863000  0.77635000  0.52223000  1.0
  C  C24  1  0.77636000  0.31863000  0.02223000  1.0
  C  C25  1  0.68135000  0.22364000  0.47777000  1.0
  C  C26  1  0.02908000  0.72052000  0.01872000  1.0
  C  C27  1  0.27948000  0.97092000  0.48128000  1.0
  C  C28  1  0.97093000  0.27948000  0.98128000  1.0
  C  C29  1  0.72051000  0.02907000  0.51872000  1.0
  C  C30  1  0.84801000  0.83406000  0.97919000  1.0
  C  C31  1  0.16594000  0.15199000  0.52080000  1.0
  C  C32  1  0.15200000  0.16594000  0.02080000  1.0
  C  C33  1  0.83407000  0.84801000  0.47920000  1.0
  C  C34  1  0.87025000  0.89673000  0.90028000  1.0
  C  C35  1  0.10327000  0.12975000  0.59972000  1.0
  C  C36  1  0.12975000  0.10328000  0.09972000  1.0
  C  C37  1  0.89673000  0.87026000  0.40028000  1.0
  C  C38  1  0.43317000  0.71279000  0.85040000  1.0
  C  C39  1  0.28718000  0.56684000  0.64960000  1.0
  C  C40  1  0.56685000  0.28719000  0.14960000  1.0
  C  C41  1  0.71279000  0.43317000  0.35041000  1.0
  C  C42  1  0.69186000  0.01145000  0.84941000  1.0
  C  C43  1  0.98856000  0.30813000  0.65059000  1.0
  C  C44  1  0.30814000  0.98857000  0.15059000  1.0
  C  C45  1  0.01146000  0.69187000  0.34942000  1.0
  N  N46  1  0.05792000  0.85499000  0.86154000  1.0
  N  N47  1  0.14501000  0.94208000  0.63846000  1.0
  N  N48  1  0.94208000  0.14502000  0.13846000  1.0
  N  N49  1  0.85499000  0.05793000  0.36154000  1.0
  O  O50  1  0.41351000  0.80429000  0.78076000  1.0
  O  O51  1  0.19570000  0.58652000  0.71924000  1.0
  O  O52  1  0.58652000  0.19572000  0.21924000  1.0
  O  O53  1  0.80428000  0.41352000  0.28077000  1.0
  O  O54  1  0.60152000  0.59903000  0.87882000  1.0
  O  O55  1  0.40091000  0.39847000  0.62119000  1.0
  O  O56  1  0.39848000  0.40092000  0.12118000  1.0
  O  O57  1  0.59904000  0.60153000  0.37883000  1.0
  O  O58  1  0.73487000  0.01231000  0.77509000  1.0
  O  O59  1  0.98771000  0.26510000  0.72491000  1.0
  O  O60  1  0.26511000  0.98772000  0.22491000  1.0
  O  O61  1  0.01231000  0.73488000  0.27510000  1.0
  O  O62  1  0.51263000  0.10017000  0.88289000  1.0
  O  O63  1  0.89986000  0.48737000  0.61712000  1.0
  O  O64  1  0.48737000  0.89986000  0.11712000  1.0
  O  O65  1  0.10017000  0.51264000  0.38289000  1.0
  O  O66  1  0.01300000  0.65274000  0.09452000  1.0
  O  O67  1  0.34725000  0.98700000  0.40548000  1.0
  O  O68  1  0.98701000  0.34725000  0.90548000  1.0
  O  O69  1  0.65274000  0.01299000  0.59453000  1.0
