# generated using pymatgen
data_Ag2H6C8S(NO)4
_symmetry_space_group_name_H-M   'P 1'
_cell_length_a   7.98685000
_cell_length_b   8.31610000
_cell_length_c   8.91978687
_cell_angle_alpha   68.79257744
_cell_angle_beta   83.73532328
_cell_angle_gamma   70.57500000
_symmetry_Int_Tables_number   1
_chemical_formula_structural   Ag2H6C8S(NO)4
_chemical_formula_sum   'Ag4 H12 C16 S2 N8 O8'
_cell_volume   520.84314465
_cell_formula_units_Z   2
loop_
 _symmetry_equiv_pos_site_id
 _symmetry_equiv_pos_as_xyz
  1  'x, y, z'
loop_
 _atom_site_type_symbol
 _atom_site_label
 _atom_site_symmetry_multiplicity
 _atom_site_fract_x
 _atom_site_fract_y
 _atom_site_fract_z
 _atom_site_occupancy
  Ag  Ag0  1  0.69452000  0.48412000  0.39068000  1.0
  Ag  Ag1  1  0.30544000  0.51588000  0.60932000  1.0
  Ag  Ag2  1  0.42268000  0.88984000  0.42552000  1.0
  Ag  Ag3  1  0.57733000  0.11016000  0.57449000  1.0
  H  H4  1  0.90955000  0.63567000  0.08342000  1.0
  H  H5  1  0.09044000  0.36431000  0.91659000  1.0
  H  H6  1  0.69329000  0.22490000  0.89085000  1.0
  H  H7  1  0.30672000  0.77509000  0.10917000  1.0
  H  H8  1  0.49744000  0.19209000  0.13144000  1.0
  H  H9  1  0.50258000  0.80792000  0.86856000  1.0
  H  H10  1  0.01272000  0.64508000  0.85358000  1.0
  H  H11  1  0.98728000  0.35491000  0.14643000  1.0
  H  H12  1  0.91391000  0.22279000  0.73619000  1.0
  H  H13  1  0.08607000  0.77721000  0.26380000  1.0
  H  H14  1  0.13956000  0.19841000  0.52571000  1.0
  H  H15  1  0.86044000  0.80158000  0.47429000  1.0
  C  C16  1  0.81531000  0.76606000  0.07945000  1.0
  C  C17  1  0.18468000  0.23394000  0.92055000  1.0
  C  C18  1  0.82018000  0.92999000  0.95889000  1.0
  C  C19  1  0.17982000  0.07003000  0.04111000  1.0
  C  C20  1  0.70282000  0.08931000  0.97631000  1.0
  C  C21  1  0.29719000  0.91071000  0.02368000  1.0
  C  C22  1  0.59011000  0.07377000  0.10776000  1.0
  C  C23  1  0.40989000  0.92623000  0.89225000  1.0
  C  C24  1  0.03895000  0.77281000  0.79086000  1.0
  C  C25  1  0.96105000  0.22718000  0.20915000  1.0
  C  C26  1  0.94566000  0.93180000  0.82526000  1.0
  C  C27  1  0.05434000  0.06821000  0.17474000  1.0
  C  C28  1  0.98080000  0.08992000  0.72595000  1.0
  C  C29  1  0.01919000  0.91007000  0.27406000  1.0
  C  C30  1  0.10855000  0.07796000  0.60749000  1.0
  C  C31  1  0.89144000  0.92204000  0.39251000  1.0
  S  S32  1  0.73345000  0.55856000  0.72048000  1.0
  S  S33  1  0.26657000  0.44145000  0.27951000  1.0
  N  N34  1  0.70095000  0.75783000  0.20056000  1.0
  N  N35  1  0.29903000  0.24216000  0.79945000  1.0
  N  N36  1  0.58673000  0.91207000  0.21402000  1.0
  N  N37  1  0.41327000  0.08793000  0.78599000  1.0
  N  N38  1  0.16020000  0.76790000  0.67618000  1.0
  N  N39  1  0.83981000  0.23209000  0.32382000  1.0
  N  N40  1  0.19760000  0.92044000  0.58585000  1.0
  N  N41  1  0.80240000  0.07955000  0.41416000  1.0
  O  O42  1  0.64202000  0.45608000  0.66182000  1.0
  O  O43  1  0.35797000  0.54393000  0.33818000  1.0
  O  O44  1  0.62707000  0.75719000  0.65813000  1.0
  O  O45  1  0.37293000  0.24283000  0.34187000  1.0
  O  O46  1  0.91492000  0.53058000  0.65425000  1.0
  O  O47  1  0.08509000  0.46943000  0.34570000  1.0
  O  O48  1  0.73705000  0.48952000  0.89834000  1.0
  O  O49  1  0.26301000  0.51047000  0.10166000  1.0
