# generated using pymatgen
data_NiH6C4O7
_symmetry_space_group_name_H-M   'P 1'
_cell_length_a   7.88485000
_cell_length_b   10.65650000
_cell_length_c   17.94300000
_cell_angle_alpha   90.00000000
_cell_angle_beta   90.00000000
_cell_angle_gamma   90.00000000
_symmetry_Int_Tables_number   1
_chemical_formula_structural   NiH6C4O7
_chemical_formula_sum   'Ni8 H48 C32 O56'
_cell_volume   1507.65885292
_cell_formula_units_Z   8
loop_
 _symmetry_equiv_pos_site_id
 _symmetry_equiv_pos_as_xyz
  1  'x, y, z'
loop_
 _atom_site_type_symbol
 _atom_site_label
 _atom_site_symmetry_multiplicity
 _atom_site_fract_x
 _atom_site_fract_y
 _atom_site_fract_z
 _atom_site_occupancy
  Ni  Ni0  1  0.15556000  0.22613000  0.34307000  1.0
  Ni  Ni1  1  0.65551000  0.27398000  0.65692000  1.0
  Ni  Ni2  1  0.84447000  0.72605000  0.15690000  1.0
  Ni  Ni3  1  0.34448000  0.77392000  0.84308000  1.0
  Ni  Ni4  1  0.63328000  0.27577000  0.13251000  1.0
  Ni  Ni5  1  0.13311000  0.22416000  0.86753000  1.0
  Ni  Ni6  1  0.36678000  0.77588000  0.36752000  1.0
  Ni  Ni7  1  0.86685000  0.72418000  0.63247000  1.0
  H  H8  1  0.47067000  0.36933000  0.23441000  1.0
  H  H9  1  0.97056000  0.13063000  0.76557000  1.0
  H  H10  1  0.52936000  0.86944000  0.26555000  1.0
  H  H11  1  0.02946000  0.63060000  0.73443000  1.0
  H  H12  1  0.01247000  0.60090000  0.25023000  1.0
  H  H13  1  0.51252000  0.89923000  0.74980000  1.0
  H  H14  1  0.98754000  0.10098000  0.24980000  1.0
  H  H15  1  0.48751000  0.39923000  0.75019000  1.0
  H  H16  1  0.08204000  0.86338000  0.44093000  1.0
  H  H17  1  0.58208000  0.63662000  0.55908000  1.0
  H  H18  1  0.91797000  0.36331000  0.05903000  1.0
  H  H19  1  0.41795000  0.13653000  0.94087000  1.0
  H  H20  1  0.42677000  0.20641000  0.42471000  1.0
  H  H21  1  0.92676000  0.29355000  0.57528000  1.0
  H  H22  1  0.57323000  0.70635000  0.07529000  1.0
  H  H23  1  0.07326000  0.79347000  0.92473000  1.0
  H  H24  1  0.33818000  0.38480000  0.41499000  1.0
  H  H25  1  0.83807000  0.11520000  0.58503000  1.0
  H  H26  1  0.66188000  0.88471000  0.08495000  1.0
  H  H27  1  0.16184000  0.61513000  0.91490000  1.0
  H  H28  1  0.14845000  0.44375000  0.40685000  1.0
  H  H29  1  0.64835000  0.05628000  0.59319000  1.0
  H  H30  1  0.85163000  0.94365000  0.09310000  1.0
  H  H31  1  0.35158000  0.55621000  0.90680000  1.0
  H  H32  1  0.59768000  0.07355000  0.07800000  1.0
  H  H33  1  0.09736000  0.42631000  0.92217000  1.0
  H  H34  1  0.40244000  0.57366000  0.42206000  1.0
  H  H35  1  0.90242000  0.92641000  0.57792000  1.0
  H  H36  1  0.77956000  0.11021000  0.04713000  1.0
  H  H37  1  0.27932000  0.38970000  0.95299000  1.0
  H  H38  1  0.22053000  0.61029000  0.45291000  1.0
  H  H39  1  0.72049000  0.88974000  0.54709000  1.0
  H  H40  1  0.63594000  0.39565000  0.32613000  1.0
  H  H41  1  0.13594000  0.10440000  0.67386000  1.0
  H  H42  1  0.36397000  0.89569000  0.17385000  1.0
  H  H43  1  0.86406000  0.60437000  0.82614000  1.0
  H  H44  1  0.84885000  0.54187000  0.33596000  1.0
  H  H45  1  0.34894000  0.95825000  0.66405000  1.0
  H  H46  1  0.15105000  0.04194000  0.16405000  1.0
  H  H47  1  0.65105000  0.45823000  0.83595000  1.0
  H  H48  1  0.20592000  0.92652000  0.54099000  1.0
  H  H49  1  0.70597000  0.57351000  0.45902000  1.0
  H  H50  1  0.79392000  0.42642000  0.95900000  1.0
  H  H51  1  0.29410000  0.07347000  0.04096000  1.0
  H  H52  1  0.34869000  0.13515000  0.53093000  1.0
  H  H53  1  0.84878000  0.36489000  0.46907000  1.0
  H  H54  1  0.65124000  0.63505000  0.96907000  1.0
  H  H55  1  0.15127000  0.86486000  0.03095000  1.0
  C  C56  1  0.83518000  0.31539000  0.26211000  1.0
  C  C57  1  0.33502000  0.18477000  0.73792000  1.0
  C  C58  1  0.16491000  0.81533000  0.23789000  1.0
  C  C59  1  0.66502000  0.68476000  0.76208000  1.0
  C  C60  1  0.69813000  0.41627000  0.27245000  1.0
  C  C61  1  0.19811000  0.08380000  0.72756000  1.0
  C  C62  1  0.30178000  0.91626000  0.22754000  1.0
  C  C63  1  0.80187000  0.58380000  0.77245000  1.0
  C  C64  1  0.78361000  0.54507000  0.28167000  1.0
  C  C65  1  0.28368000  0.95503000  0.71833000  1.0
  C  C66  1  0.21630000  0.04506000  0.21833000  1.0
  C  C67  1  0.71632000  0.45503000  0.78167000  1.0
  C  C68  1  0.65490000  0.65263000  0.28610000  1.0
  C  C69  1  0.15498000  0.84745000  0.71387000  1.0
  C  C70  1  0.34515000  0.15257000  0.21389000  1.0
  C  C71  1  0.84505000  0.34744000  0.78613000  1.0
  C  C72  1  0.45610000  0.91061000  0.49538000  1.0
  C  C73  1  0.95615000  0.58942000  0.50463000  1.0
  C  C74  1  0.54380000  0.41052000  0.00468000  1.0
  C  C75  1  0.04390000  0.08936000  0.99537000  1.0
  C  C76  1  0.27194000  0.95457000  0.48965000  1.0
  C  C77  1  0.77200000  0.54545000  0.51036000  1.0
  C  C78  1  0.72796000  0.45448000  0.01035000  1.0
  C  C79  1  0.22804000  0.04541000  0.98963000  1.0
  C  C80  1  0.27263000  0.09859000  0.48433000  1.0
  C  C81  1  0.77270000  0.40143000  0.51566000  1.0
  C  C82  1  0.72733000  0.59849000  0.01566000  1.0
  C  C83  1  0.22734000  0.90138000  0.98435000  1.0
  C  C84  1  0.09379000  0.15141000  0.49371000  1.0
  C  C85  1  0.59386000  0.34860000  0.50626000  1.0
  C  C86  1  0.90619000  0.65130000  0.00625000  1.0
  C  C87  1  0.40616000  0.84853000  0.99374000  1.0
  O  O88  1  0.81881000  0.23073000  0.21214000  1.0
  O  O89  1  0.31857000  0.26936000  0.78792000  1.0
  O  O90  1  0.18132000  0.73072000  0.28790000  1.0
  O  O91  1  0.68146000  0.76936000  0.71208000  1.0
  O  O92  1  0.95490000  0.32508000  0.30816000  1.0
  O  O93  1  0.45470000  0.17522000  0.69185000  1.0
  O  O94  1  0.04526000  0.82485000  0.19181000  1.0
  O  O95  1  0.54534000  0.67524000  0.80817000  1.0
  O  O96  1  0.57382000  0.41221000  0.21407000  1.0
  O  O97  1  0.07373000  0.08778000  0.78593000  1.0
  O  O98  1  0.42620000  0.91225000  0.28592000  1.0
  O  O99  1  0.92630000  0.58779000  0.71407000  1.0
  O  O100  1  0.91010000  0.56769000  0.22502000  1.0
  O  O101  1  0.41012000  0.93240000  0.77500000  1.0
  O  O102  1  0.08990000  0.06770000  0.27499000  1.0
  O  O103  1  0.58991000  0.43244000  0.72500000  1.0
  O  O104  1  0.54089000  0.64206000  0.33522000  1.0
  O  O105  1  0.04100000  0.85802000  0.66475000  1.0
  O  O106  1  0.45926000  0.14194000  0.16484000  1.0
  O  O107  1  0.95903000  0.35798000  0.83524000  1.0
  O  O108  1  0.67228000  0.74743000  0.24342000  1.0
  O  O109  1  0.17236000  0.75264000  0.75655000  1.0
  O  O110  1  0.32773000  0.24743000  0.25655000  1.0
  O  O111  1  0.82764000  0.25264000  0.74345000  1.0
  O  O112  1  0.53026000  0.93813000  0.55619000  1.0
  O  O113  1  0.03030000  0.56189000  0.44382000  1.0
  O  O114  1  0.46956000  0.43807000  0.94389000  1.0
  O  O115  1  0.96978000  0.06184000  0.05619000  1.0
  O  O116  1  0.52617000  0.85292000  0.44215000  1.0
  O  O117  1  0.02621000  0.64713000  0.55785000  1.0
  O  O118  1  0.47383000  0.35279000  0.05791000  1.0
  O  O119  1  0.97379000  0.14704000  0.94214000  1.0
  O  O120  1  0.19060000  0.89931000  0.42559000  1.0
  O  O121  1  0.69065000  0.60069000  0.57442000  1.0
  O  O122  1  0.80941000  0.39923000  0.07440000  1.0
  O  O123  1  0.30933000  0.10065000  0.92555000  1.0
  O  O124  1  0.34740000  0.13541000  0.41457000  1.0
  O  O125  1  0.84743000  0.36457000  0.58542000  1.0
  O  O126  1  0.65260000  0.63535000  0.08542000  1.0
  O  O127  1  0.15256000  0.86451000  0.91459000  1.0
  O  O128  1  0.03400000  0.15016000  0.55980000  1.0
  O  O129  1  0.53411000  0.34985000  0.44017000  1.0
  O  O130  1  0.96593000  0.65002000  0.94016000  1.0
  O  O131  1  0.46591000  0.84975000  0.05983000  1.0
  O  O132  1  0.01544000  0.19408000  0.43765000  1.0
  O  O133  1  0.51548000  0.30593000  0.56231000  1.0
  O  O134  1  0.98458000  0.69398000  0.06229000  1.0
  O  O135  1  0.48454000  0.80586000  0.93769000  1.0
  O  O136  1  0.23945000  0.39685000  0.38105000  1.0
  O  O137  1  0.73935000  0.10319000  0.61899000  1.0
  O  O138  1  0.76062000  0.89676000  0.11889000  1.0
  O  O139  1  0.26063000  0.60313000  0.88098000  1.0
  O  O140  1  0.65664000  0.13814000  0.04907000  1.0
  O  O141  1  0.15642000  0.36172000  0.95105000  1.0
  O  O142  1  0.34344000  0.63825000  0.45097000  1.0
  O  O143  1  0.84341000  0.86180000  0.54903000  1.0
