# generated using pymatgen
data_AlH7(C3O2)3
_symmetry_space_group_name_H-M   'P 1'
_cell_length_a   10.17150000
_cell_length_b   15.99107961
_cell_length_c   15.99389087
_cell_angle_alpha   84.18925765
_cell_angle_beta   71.47286448
_cell_angle_gamma   71.45885833
_symmetry_Int_Tables_number   1
_chemical_formula_structural   AlH7(C3O2)3
_chemical_formula_sum   'Al8 H56 C72 O48'
_cell_volume   2338.60423281
_cell_formula_units_Z   8
loop_
 _symmetry_equiv_pos_site_id
 _symmetry_equiv_pos_as_xyz
  1  'x, y, z'
loop_
 _atom_site_type_symbol
 _atom_site_label
 _atom_site_symmetry_multiplicity
 _atom_site_fract_x
 _atom_site_fract_y
 _atom_site_fract_z
 _atom_site_occupancy
  Al  Al0  1  0.18911000  0.56014000  0.91873000  1.0
  Al  Al1  1  0.66800000  0.43992000  0.08114000  1.0
  Al  Al2  1  0.35774000  0.58119000  0.06019000  1.0
  Al  Al3  1  0.99928000  0.41875000  0.93970000  1.0
  Al  Al4  1  0.06089000  0.93986000  0.58126000  1.0
  Al  Al5  1  0.58199000  0.06008000  0.41886000  1.0
  Al  Al6  1  0.89225000  0.91880000  0.43981000  1.0
  Al  Al7  1  0.25073000  0.08125000  0.56030000  1.0
  H  H8  1  0.82816000  0.28993000  0.36106000  1.0
  H  H9  1  0.69522000  0.39638000  0.37413000  1.0
  H  H10  1  0.80282000  0.36089000  0.44895000  1.0
  H  H11  1  0.80961000  0.72183000  0.03307000  1.0
  H  H12  1  0.98977000  0.77111000  0.22684000  1.0
  H  H13  1  0.54309000  0.90828000  0.24376000  1.0
  H  H14  1  0.70048000  0.02267000  0.53299000  1.0
  H  H15  1  0.47898000  0.71014000  0.63867000  1.0
  H  H16  1  0.46554000  0.60368000  0.62565000  1.0
  H  H17  1  0.61248000  0.63909000  0.55085000  1.0
  H  H18  1  0.56430000  0.27823000  0.96687000  1.0
  H  H19  1  0.98724000  0.22897000  0.77299000  1.0
  H  H20  1  0.69476000  0.09158000  0.75637000  1.0
  H  H21  1  0.25606000  0.97734000  0.46713000  1.0
  H  H22  1  0.43934000  0.13858000  0.79005000  1.0
  H  H23  1  0.31971000  0.12523000  0.89646000  1.0
  H  H24  1  0.50209000  0.05053000  0.86085000  1.0
  H  H25  1  0.09288000  0.46678000  0.22149000  1.0
  H  H26  1  0.46645000  0.27296000  0.27113000  1.0
  H  H27  1  0.03656000  0.25619000  0.40813000  1.0
  H  H28  1  0.48321000  0.96699000  0.52292000  1.0
  H  H29  1  0.36837000  0.86112000  0.21004000  1.0
  H  H30  1  0.34156000  0.87427000  0.10370000  1.0
  H  H31  1  0.41330000  0.94927000  0.13922000  1.0
  H  H32  1  0.78107000  0.53319000  0.77836000  1.0
  H  H33  1  0.01036000  0.72708000  0.72880000  1.0
  H  H34  1  0.70084000  0.74375000  0.59168000  1.0
  H  H35  1  0.97320000  0.03301000  0.47719000  1.0
  H  H36  1  0.42184000  0.21007000  0.13894000  1.0
  H  H37  1  0.55479000  0.10361000  0.12588000  1.0
  H  H38  1  0.44719000  0.13910000  0.05106000  1.0
  H  H39  1  0.44038000  0.77818000  0.46693000  1.0
  H  H40  1  0.26023000  0.72888000  0.27317000  1.0
  H  H41  1  0.70690000  0.59171000  0.25625000  1.0
  H  H42  1  0.54954000  0.47733000  0.96700000  1.0
  H  H43  1  0.77102000  0.78987000  0.86133000  1.0
  H  H44  1  0.78447000  0.89632000  0.87436000  1.0
  H  H45  1  0.63752000  0.86091000  0.94916000  1.0
  H  H46  1  0.68572000  0.22177000  0.53312000  1.0
  H  H47  1  0.26277000  0.27103000  0.72701000  1.0
  H  H48  1  0.55525000  0.40842000  0.74362000  1.0
  H  H49  1  0.99396000  0.52266000  0.03287000  1.0
  H  H50  1  0.81066000  0.36142000  0.70995000  1.0
  H  H51  1  0.93030000  0.37477000  0.60355000  1.0
  H  H52  1  0.74791000  0.44947000  0.63915000  1.0
  H  H53  1  0.15711000  0.03322000  0.27850000  1.0
  H  H54  1  0.78354000  0.22704000  0.22887000  1.0
  H  H55  1  0.21343000  0.24381000  0.09187000  1.0
  H  H56  1  0.76677000  0.53302000  0.97709000  1.0
  H  H57  1  0.88163000  0.63888000  0.28996000  1.0
  H  H58  1  0.90844000  0.62573000  0.39630000  1.0
  H  H59  1  0.83670000  0.55073000  0.36078000  1.0
  H  H60  1  0.46893000  0.96682000  0.72165000  1.0
  H  H61  1  0.23964000  0.77293000  0.77120000  1.0
  H  H62  1  0.54916000  0.75626000  0.90833000  1.0
  H  H63  1  0.27681000  0.46699000  0.02279000  1.0
  C  C64  1  0.76391000  0.84304000  0.24274000  1.0
  C  C65  1  0.79622000  0.75562000  0.09239000  1.0
  C  C66  1  0.74808000  0.89361000  0.32057000  1.0
  C  C67  1  0.41085000  0.88082000  0.14128000  1.0
  C  C68  1  0.64502000  0.85984000  0.21010000  1.0
  C  C69  1  0.89831000  0.78297000  0.20120000  1.0
  C  C70  1  0.05715000  0.67912000  0.07444000  1.0
  C  C71  1  0.91446000  0.74056000  0.12446000  1.0
  C  C72  1  0.66061000  0.81410000  0.13572000  1.0
  C  C73  1  0.84924000  0.15699000  0.75722000  1.0
  C  C74  1  0.64397000  0.24442000  0.90755000  1.0
  C  C75  1  0.96196000  0.10639000  0.67948000  1.0
  C  C76  1  0.43298000  0.11890000  0.85881000  1.0
  C  C77  1  0.71459000  0.14011000  0.78993000  1.0
  C  C78  1  0.88203000  0.21713000  0.79872000  1.0
  C  C79  1  0.81065000  0.32090000  0.92545000  1.0
  C  C80  1  0.77918000  0.25952000  0.87546000  1.0
  C  C81  1  0.61015000  0.18588000  0.86428000  1.0
  C  C82  1  0.25645000  0.25710000  0.34299000  1.0
  C  C83  1  0.13867000  0.40743000  0.25534000  1.0
  C  C84  1  0.31847000  0.17936000  0.39370000  1.0
  C  C85  1  0.80213000  0.35873000  0.38059000  1.0
  C  C86  1  0.10495000  0.28977000  0.35966000  1.0
  C  C87  1  0.34939000  0.29862000  0.28291000  1.0
  C  C88  1  0.38174000  0.42542000  0.17914000  1.0
  C  C89  1  0.28894000  0.37535000  0.24043000  1.0
  C  C90  1  0.04631000  0.36411000  0.31378000  1.0
  C  C91  1  0.85643000  0.74284000  0.65692000  1.0
  C  C92  1  0.80137000  0.59253000  0.74452000  1.0
  C  C93  1  0.89145000  0.82056000  0.60624000  1.0
  C  C94  1  0.54127000  0.64131000  0.61920000  1.0
  C  C95  1  0.75429000  0.71018000  0.64019000  1.0
  C  C96  1  0.93083000  0.70133000  0.71700000  1.0
  C  C97  1  0.98634000  0.57452000  0.82074000  1.0
  C  C98  1  0.90469000  0.62459000  0.75945000  1.0
  C  C99  1  0.72407000  0.63586000  0.68608000  1.0
  C  C100  1  0.48609000  0.65695000  0.25727000  1.0
  C  C101  1  0.45377000  0.74438000  0.40762000  1.0
  C  C102  1  0.50192000  0.60638000  0.17944000  1.0
  C  C103  1  0.83914000  0.61918000  0.35872000  1.0
  C  C104  1  0.60496000  0.64016000  0.28991000  1.0
  C  C105  1  0.35168000  0.71703000  0.29881000  1.0
  C  C106  1  0.19283000  0.82087000  0.42555000  1.0
  C  C107  1  0.33554000  0.75944000  0.37554000  1.0
  C  C108  1  0.58939000  0.68590000  0.36428000  1.0
  C  C109  1  0.40078000  0.34300000  0.74277000  1.0
  C  C110  1  0.60606000  0.25557000  0.59243000  1.0
  C  C111  1  0.28805000  0.39362000  0.82051000  1.0
  C  C112  1  0.81702000  0.38110000  0.64120000  1.0
  C  C113  1  0.53542000  0.35988000  0.71007000  1.0
  C  C114  1  0.36799000  0.28286000  0.70127000  1.0
  C  C115  1  0.43936000  0.17910000  0.57454000  1.0
  C  C116  1  0.47084000  0.24048000  0.62453000  1.0
  C  C117  1  0.63987000  0.31412000  0.63571000  1.0
  C  C118  1  0.99354000  0.24289000  0.15701000  1.0
  C  C119  1  0.11132000  0.09256000  0.24466000  1.0
  C  C120  1  0.93155000  0.32063000  0.10629000  1.0
  C  C121  1  0.44788000  0.14126000  0.11942000  1.0
  C  C122  1  0.14503000  0.21023000  0.14034000  1.0
  C  C123  1  0.90060000  0.20138000  0.21709000  1.0
  C  C124  1  0.86824000  0.07458000  0.32086000  1.0
  C  C125  1  0.96104000  0.12465000  0.25957000  1.0
  C  C126  1  0.20368000  0.13589000  0.18622000  1.0
  C  C127  1  0.39357000  0.75717000  0.84309000  1.0
  C  C128  1  0.44863000  0.90748000  0.75549000  1.0
  C  C129  1  0.35854000  0.67944000  0.89375000  1.0
  C  C130  1  0.70873000  0.85869000  0.88081000  1.0
  C  C131  1  0.49570000  0.78983000  0.85982000  1.0
  C  C132  1  0.31917000  0.79867000  0.78300000  1.0
  C  C133  1  0.26368000  0.92549000  0.67926000  1.0
  C  C134  1  0.34530000  0.87542000  0.74056000  1.0
  C  C135  1  0.52595000  0.86414000  0.81392000  1.0
  O  O136  1  0.64723000  0.96722000  0.33574000  1.0
  O  O137  1  0.06366000  0.65438000  0.99944000  1.0
  O  O138  1  0.16045000  0.65568000  0.10897000  1.0
  O  O139  1  0.83762000  0.86067000  0.36461000  1.0
  O  O140  1  0.31058000  0.51457000  0.98981000  1.0
  O  O141  1  0.55243000  0.82185000  0.09978000  1.0
  O  O142  1  0.95003000  0.03271000  0.66440000  1.0
  O  O143  1  0.71741000  0.34573000  0.00043000  1.0
  O  O144  1  0.92517000  0.34419000  0.89096000  1.0
  O  O145  1  0.06262000  0.13931000  0.63547000  1.0
  O  O146  1  0.81508000  0.48541000  0.01007000  1.0
  O  O147  1  0.47386000  0.17803000  0.90027000  1.0
  O  O148  1  0.23288000  0.16440000  0.46742000  1.0
  O  O149  1  0.31323000  0.50042000  0.15433000  1.0
  O  O150  1  0.51954000  0.39102000  0.15587000  1.0
  O  O151  1  0.45197000  0.13523000  0.36079000  1.0
  O  O152  1  0.55035000  0.51031000  0.01457000  1.0
  O  O153  1  0.90224000  0.40006000  0.32140000  1.0
  O  O154  1  0.86473000  0.83549000  0.53249000  1.0
  O  O155  1  0.96803000  0.49951000  0.84555000  1.0
  O  O156  1  0.06651000  0.60892000  0.84398000  1.0
  O  O157  1  0.94788000  0.86470000  0.63921000  1.0
  O  O158  1  0.07530000  0.48974000  0.98529000  1.0
  O  O159  1  0.62349000  0.59998000  0.67844000  1.0
  O  O160  1  0.60274000  0.53279000  0.16427000  1.0
  O  O161  1  0.18633000  0.84562000  0.50057000  1.0
  O  O162  1  0.08956000  0.84431000  0.39103000  1.0
  O  O163  1  0.41236000  0.63933000  0.13539000  1.0
  O  O164  1  0.93944000  0.98542000  0.51018000  1.0
  O  O165  1  0.69757000  0.67815000  0.40022000  1.0
  O  O166  1  0.29998000  0.46729000  0.83559000  1.0
  O  O167  1  0.53261000  0.15427000  0.49956000  1.0
  O  O168  1  0.32485000  0.15581000  0.60903000  1.0
  O  O169  1  0.18738000  0.36069000  0.86452000  1.0
  O  O170  1  0.43492000  0.01459000  0.48993000  1.0
  O  O171  1  0.77614000  0.32198000  0.59973000  1.0
  O  O172  1  0.01713000  0.33560000  0.03258000  1.0
  O  O173  1  0.93674000  0.99958000  0.34566000  1.0
  O  O174  1  0.73043000  0.10898000  0.34413000  1.0
  O  O175  1  0.79805000  0.36476000  0.13920000  1.0
  O  O176  1  0.69964000  0.98970000  0.48543000  1.0
  O  O177  1  0.34776000  0.09993000  0.17859000  1.0
  O  O178  1  0.38527000  0.66450000  0.96752000  1.0
  O  O179  1  0.28197000  0.00049000  0.65445000  1.0
  O  O180  1  0.18351000  0.89107000  0.65601000  1.0
  O  O181  1  0.30213000  0.63531000  0.86079000  1.0
  O  O182  1  0.17470000  0.01026000  0.51471000  1.0
  O  O183  1  0.62652000  0.90002000  0.82157000  1.0
