# generated using pymatgen
data_Cu2H24C12S3Cl2
_symmetry_space_group_name_H-M   'P 1'
_cell_length_a   9.74996000
_cell_length_b   9.89590000
_cell_length_c   9.89595000
_cell_angle_alpha   107.44200000
_cell_angle_beta   102.54100000
_cell_angle_gamma   102.54000000
_symmetry_Int_Tables_number   1
_chemical_formula_structural   Cu2H24C12S3Cl2
_chemical_formula_sum   'Cu4 H48 C24 S6 Cl4'
_cell_volume   847.36238394
_cell_formula_units_Z   2
loop_
 _symmetry_equiv_pos_site_id
 _symmetry_equiv_pos_as_xyz
  1  'x, y, z'
loop_
 _atom_site_type_symbol
 _atom_site_label
 _atom_site_symmetry_multiplicity
 _atom_site_fract_x
 _atom_site_fract_y
 _atom_site_fract_z
 _atom_site_occupancy
  Cu  Cu0  1  0.87658000  0.39076000  0.97651000  1.0
  Cu  Cu1  1  0.62342000  0.02350000  0.60924000  1.0
  Cu  Cu2  1  0.12342000  0.60923000  0.02350000  1.0
  Cu  Cu3  1  0.37657000  0.97651000  0.39076000  1.0
  H  H4  1  0.64726000  0.47116000  0.77368000  1.0
  H  H5  1  0.85274000  0.22632000  0.52885000  1.0
  H  H6  1  0.35275000  0.52885000  0.22632000  1.0
  H  H7  1  0.14727000  0.77368000  0.47116000  1.0
  H  H8  1  0.51200000  0.29899000  0.64540000  1.0
  H  H9  1  0.98800000  0.35460000  0.70102000  1.0
  H  H10  1  0.48800000  0.70102000  0.35460000  1.0
  H  H11  1  0.01201000  0.64540000  0.29899000  1.0
  H  H12  1  0.62750000  0.50548000  0.53891000  1.0
  H  H13  1  0.87250000  0.46109000  0.49452000  1.0
  H  H14  1  0.37251000  0.49452000  0.46109000  1.0
  H  H15  1  0.12751000  0.53891000  0.50548000  1.0
  H  H16  1  0.61358000  0.31589000  0.44435000  1.0
  H  H17  1  0.88641000  0.55564000  0.68410000  1.0
  H  H18  1  0.38642000  0.68410000  0.55565000  1.0
  H  H19  1  0.11359000  0.44436000  0.31590000  1.0
  H  H20  1  0.65927000  0.10483000  0.13963000  1.0
  H  H21  1  0.84074000  0.86039000  0.89519000  1.0
  H  H22  1  0.34072000  0.89518000  0.86038000  1.0
  H  H23  1  0.15925000  0.13963000  0.10482000  1.0
  H  H24  1  0.64550000  0.11580000  0.95938000  1.0
  H  H25  1  0.85451000  0.04064000  0.88420000  1.0
  H  H26  1  0.35451000  0.88419000  0.04063000  1.0
  H  H27  1  0.14549000  0.95938000  0.11580000  1.0
  H  H28  1  0.46542000  0.20782000  0.16705000  1.0
  H  H29  1  0.03458000  0.83293000  0.79220000  1.0
  H  H30  1  0.53456000  0.79218000  0.83292000  1.0
  H  H31  1  0.96541000  0.16705000  0.20781000  1.0
  H  H32  1  0.40554000  0.12600000  0.96943000  1.0
  H  H33  1  0.09447000  0.03056000  0.87401000  1.0
  H  H34  1  0.59447000  0.87400000  0.03055000  1.0
  H  H35  1  0.90553000  0.96942000  0.12601000  1.0
  H  H36  1  0.52746000  0.35890000  0.94843000  1.0
  H  H37  1  0.97256000  0.05156000  0.64110000  1.0
  H  H38  1  0.47256000  0.64110000  0.05156000  1.0
  H  H39  1  0.02746000  0.94843000  0.35891000  1.0
  H  H40  1  0.42434000  0.40441000  0.07354000  1.0
  H  H41  1  0.07567000  0.92644000  0.59559000  1.0
  H  H42  1  0.57566000  0.59559000  0.92643000  1.0
  H  H43  1  0.92433000  0.07355000  0.40442000  1.0
  H  H44  1  0.71083000  0.56581000  0.16442000  1.0
  H  H45  1  0.78918000  0.83557000  0.43420000  1.0
  H  H46  1  0.28918000  0.43420000  0.83557000  1.0
  H  H47  1  0.21083000  0.16443000  0.56581000  1.0
  H  H48  1  0.65013000  0.48537000  0.28975000  1.0
  H  H49  1  0.84987000  0.71024000  0.51465000  1.0
  H  H50  1  0.34986000  0.51463000  0.71023000  1.0
  H  H51  1  0.15012000  0.28976000  0.48536000  1.0
  C  C52  1  0.62498000  0.37150000  0.67579000  1.0
  C  C53  1  0.87502000  0.32420000  0.62850000  1.0
  C  C54  1  0.37502000  0.62850000  0.32421000  1.0
  C  C55  1  0.12499000  0.67580000  0.37151000  1.0
  C  C56  1  0.66604000  0.41148000  0.54956000  1.0
  C  C57  1  0.83396000  0.45044000  0.58852000  1.0
  C  C58  1  0.33396000  0.58852000  0.45044000  1.0
  C  C59  1  0.16605000  0.54956000  0.41148000  1.0
  C  C60  1  0.63988000  0.17152000  0.07101000  1.0
  C  C61  1  0.86013000  0.92900000  0.82849000  1.0
  C  C62  1  0.36012000  0.82848000  0.92900000  1.0
  C  C63  1  0.13987000  0.07100000  0.17152000  1.0
  C  C64  1  0.49487000  0.20872000  0.06601000  1.0
  C  C65  1  0.00514000  0.93399000  0.79128000  1.0
  C  C66  1  0.50512000  0.79127000  0.93397000  1.0
  C  C67  1  0.99486000  0.06601000  0.20873000  1.0
  C  C68  1  0.51782000  0.36313000  0.05821000  1.0
  C  C69  1  0.98219000  0.94177000  0.63688000  1.0
  C  C70  1  0.48219000  0.63687000  0.94177000  1.0
  C  C71  1  0.01781000  0.05821000  0.36313000  1.0
  C  C72  1  0.66171000  0.46170000  0.17778000  1.0
  C  C73  1  0.83829000  0.82221000  0.53830000  1.0
  C  C74  1  0.33828000  0.53829000  0.82221000  1.0
  C  C75  1  0.16171000  0.17779000  0.46170000  1.0
  S  S76  1  0.75000000  0.26919000  0.73081000  1.0
  S  S77  1  0.25000000  0.73081000  0.26919000  1.0
  S  S78  1  0.78891000  0.35034000  0.15760000  1.0
  S  S79  1  0.71110000  0.84241000  0.64967000  1.0
  S  S80  1  0.21109000  0.64966000  0.84240000  1.0
  S  S81  1  0.28890000  0.15760000  0.35034000  1.0
  Cl  Cl82  1  0.10744000  0.35214000  0.98996000  1.0
  Cl  Cl83  1  0.39256000  0.01005000  0.64786000  1.0
  Cl  Cl84  1  0.89255000  0.64785000  0.01004000  1.0
  Cl  Cl85  1  0.60744000  0.98996000  0.35215000  1.0
