# generated using pymatgen
data_CoH8(CN)10
_symmetry_space_group_name_H-M   'P 1'
_cell_length_a   6.35040000
_cell_length_b   7.26824000
_cell_length_c   13.55120000
_cell_angle_alpha   89.99920000
_cell_angle_beta   89.99990000
_cell_angle_gamma   83.92090000
_symmetry_Int_Tables_number   1
_chemical_formula_structural   CoH8(CN)10
_chemical_formula_sum   'Co2 H16 C20 N20'
_cell_volume   621.95506565
_cell_formula_units_Z   2
loop_
 _symmetry_equiv_pos_site_id
 _symmetry_equiv_pos_as_xyz
  1  'x, y, z'
loop_
 _atom_site_type_symbol
 _atom_site_label
 _atom_site_symmetry_multiplicity
 _atom_site_fract_x
 _atom_site_fract_y
 _atom_site_fract_z
 _atom_site_occupancy
  Co  Co0  1  0.99999000  0.50000000  1.00000000  1.0
  Co  Co1  1  0.00000000  0.00001000  0.50000000  1.0
  H  H2  1  0.48038000  0.54668000  0.29179000  1.0
  H  H3  1  0.51963000  0.95332000  0.79179000  1.0
  H  H4  1  0.51962000  0.45333000  0.70821000  1.0
  H  H5  1  0.48037000  0.04668000  0.20820000  1.0
  H  H6  1  0.44228000  0.56755000  0.10144000  1.0
  H  H7  1  0.55772000  0.93244000  0.60144000  1.0
  H  H8  1  0.55770000  0.43243000  0.89856000  1.0
  H  H9  1  0.44229000  0.06756000  0.39856000  1.0
  H  H10  1  0.14998000  0.45352000  0.37254000  1.0
  H  H11  1  0.85003000  0.04648000  0.87254000  1.0
  H  H12  1  0.85002000  0.54649000  0.62747000  1.0
  H  H13  1  0.14996000  0.95352000  0.12746000  1.0
  H  H14  1  0.86631000  0.42003000  0.21862000  1.0
  H  H15  1  0.13370000  0.07996000  0.71861000  1.0
  H  H16  1  0.13369000  0.57998000  0.78139000  1.0
  H  H17  1  0.86630000  0.92002000  0.28138000  1.0
  C  C18  1  0.32218000  0.53115000  0.15270000  1.0
  C  C19  1  0.67781000  0.96885000  0.65270000  1.0
  C  C20  1  0.67781000  0.46884000  0.84730000  1.0
  C  C21  1  0.32220000  0.03115000  0.34729000  1.0
  C  C22  1  0.16523000  0.47268000  0.29384000  1.0
  C  C23  1  0.83478000  0.02732000  0.79383000  1.0
  C  C24  1  0.83476000  0.52733000  0.70617000  1.0
  C  C25  1  0.16521000  0.97268000  0.20617000  1.0
  C  C26  1  0.02698000  0.45616000  0.21729000  1.0
  C  C27  1  0.97302000  0.04383000  0.71729000  1.0
  C  C28  1  0.97299000  0.54384000  0.78271000  1.0
  C  C29  1  0.02699000  0.95617000  0.28271000  1.0
  C  C30  1  0.71193000  0.86827000  0.07133000  1.0
  C  C31  1  0.28808000  0.63173000  0.57133000  1.0
  C  C32  1  0.28809000  0.13170000  0.92868000  1.0
  C  C33  1  0.71193000  0.36830000  0.42867000  1.0
  C  C34  1  0.76650000  0.17482000  0.06267000  1.0
  C  C35  1  0.23350000  0.32520000  0.56266000  1.0
  C  C36  1  0.23352000  0.82517000  0.93733000  1.0
  C  C37  1  0.76651000  0.67482000  0.43734000  1.0
  N  N38  1  0.12650000  0.49332000  0.12997000  1.0
  N  N39  1  0.87350000  0.00668000  0.62997000  1.0
  N  N40  1  0.87349000  0.50668000  0.87004000  1.0
  N  N41  1  0.12651000  0.99332000  0.37003000  1.0
  N  N42  1  0.34948000  0.51922000  0.25170000  1.0
  N  N43  1  0.65053000  0.98078000  0.75171000  1.0
  N  N44  1  0.65052000  0.48078000  0.74829000  1.0
  N  N45  1  0.34947000  0.01922000  0.24829000  1.0
  N  N46  1  0.73717000  0.70885000  0.05279000  1.0
  N  N47  1  0.26283000  0.79117000  0.55279000  1.0
  N  N48  1  0.26283000  0.29113000  0.94721000  1.0
  N  N49  1  0.73717000  0.20886000  0.44721000  1.0
  N  N50  1  0.66990000  0.04059000  0.09879000  1.0
  N  N51  1  0.33009000  0.45943000  0.59879000  1.0
  N  N52  1  0.33011000  0.95940000  0.90121000  1.0
  N  N53  1  0.66991000  0.54060000  0.40121000  1.0
  N  N54  1  0.84457000  0.30530000  0.03559000  1.0
  N  N55  1  0.15542000  0.19471000  0.53558000  1.0
  N  N56  1  0.15542000  0.69467000  0.96441000  1.0
  N  N57  1  0.84459000  0.80532000  0.46442000  1.0
