# generated using pymatgen
data_CuH7C12SN2
_symmetry_space_group_name_H-M   'P 1'
_cell_length_a   3.77708000
_cell_length_b   12.73060000
_cell_length_c   19.03270000
_cell_angle_alpha   90.00000000
_cell_angle_beta   89.99990000
_cell_angle_gamma   93.85120000
_symmetry_Int_Tables_number   1
_chemical_formula_structural   CuH7C12SN2
_chemical_formula_sum   'Cu4 H28 C48 S4 N8'
_cell_volume   913.11114986
_cell_formula_units_Z   4
loop_
 _symmetry_equiv_pos_site_id
 _symmetry_equiv_pos_as_xyz
  1  'x, y, z'
loop_
 _atom_site_type_symbol
 _atom_site_label
 _atom_site_symmetry_multiplicity
 _atom_site_fract_x
 _atom_site_fract_y
 _atom_site_fract_z
 _atom_site_occupancy
  Cu  Cu0  1  0.58432000  0.02544000  0.42759000  1.0
  Cu  Cu1  1  0.41566000  0.47456000  0.92759000  1.0
  Cu  Cu2  1  0.41568000  0.97455000  0.57241000  1.0
  Cu  Cu3  1  0.58434000  0.52544000  0.07241000  1.0
  H  H4  1  0.28464000  0.02745000  0.26602000  1.0
  H  H5  1  0.71535000  0.47255000  0.76602000  1.0
  H  H6  1  0.71538000  0.97255000  0.73397000  1.0
  H  H7  1  0.28465000  0.52745000  0.23397000  1.0
  H  H8  1  0.23131000  0.16789000  0.17441000  1.0
  H  H9  1  0.76868000  0.33211000  0.67441000  1.0
  H  H10  1  0.76868000  0.83212000  0.82559000  1.0
  H  H11  1  0.23132000  0.66789000  0.32559000  1.0
  H  H12  1  0.49601000  0.34935000  0.19794000  1.0
  H  H13  1  0.50397000  0.15065000  0.69794000  1.0
  H  H14  1  0.50397000  0.65065000  0.80206000  1.0
  H  H15  1  0.49604000  0.84935000  0.30206000  1.0
  H  H16  1  0.82767000  0.47396000  0.28373000  1.0
  H  H17  1  0.17233000  0.02604000  0.78373000  1.0
  H  H18  1  0.17233000  0.52604000  0.71627000  1.0
  H  H19  1  0.82769000  0.97396000  0.21627000  1.0
  H  H20  1  0.13607000  0.50178000  0.39808000  1.0
  H  H21  1  0.86391000  0.99822000  0.89808000  1.0
  H  H22  1  0.86393000  0.49821000  0.60192000  1.0
  H  H23  1  0.13608000  0.00179000  0.10192000  1.0
  H  H24  1  0.30925000  0.42874000  0.51767000  1.0
  H  H25  1  0.69072000  0.07126000  0.01767000  1.0
  H  H26  1  0.69076000  0.57125000  0.48233000  1.0
  H  H27  1  0.30924000  0.92875000  0.98233000  1.0
  H  H28  1  0.27114000  0.27685000  0.60089000  1.0
  H  H29  1  0.72885000  0.22315000  0.10089000  1.0
  H  H30  1  0.72887000  0.72314000  0.39911000  1.0
  H  H31  1  0.27112000  0.77686000  0.89911000  1.0
  C  C32  1  0.39216000  0.10794000  0.27514000  1.0
  C  C33  1  0.60783000  0.39206000  0.77514000  1.0
  C  C34  1  0.60785000  0.89206000  0.72486000  1.0
  C  C35  1  0.39218000  0.60794000  0.22486000  1.0
  C  C36  1  0.36578000  0.18657000  0.22397000  1.0
  C  C37  1  0.63420000  0.31343000  0.72397000  1.0
  C  C38  1  0.63422000  0.81343000  0.77603000  1.0
  C  C39  1  0.36580000  0.68657000  0.27603000  1.0
  C  C40  1  0.50953000  0.28754000  0.23740000  1.0
  C  C41  1  0.49046000  0.21246000  0.73740000  1.0
  C  C42  1  0.49046000  0.71246000  0.76260000  1.0
  C  C43  1  0.50955000  0.78754000  0.26260000  1.0
  C  C44  1  0.67516000  0.30943000  0.30285000  1.0
  C  C45  1  0.32483000  0.19057000  0.80285000  1.0
  C  C46  1  0.32484000  0.69056000  0.69715000  1.0
  C  C47  1  0.67518000  0.80943000  0.19716000  1.0
  C  C48  1  0.68157000  0.22526000  0.35186000  1.0
  C  C49  1  0.31843000  0.27474000  0.85186000  1.0
  C  C50  1  0.31844000  0.77473000  0.64814000  1.0
  C  C51  1  0.68158000  0.72526000  0.14814000  1.0
  C  C52  1  0.83613000  0.41010000  0.32163000  1.0
  C  C53  1  0.16386000  0.08990000  0.82163000  1.0
  C  C54  1  0.16388000  0.58990000  0.67837000  1.0
  C  C55  1  0.83615000  0.91010000  0.17837000  1.0
  C  C56  1  0.00275000  0.42553000  0.38525000  1.0
  C  C57  1  0.99723000  0.07447000  0.88525000  1.0
  C  C58  1  0.99725000  0.57447000  0.61475000  1.0
  C  C59  1  0.00276000  0.92553000  0.11475000  1.0
  C  C60  1  0.00669000  0.34325000  0.43604000  1.0
  C  C61  1  0.99329000  0.15675000  0.93604000  1.0
  C  C62  1  0.99332000  0.65675000  0.56396000  1.0
  C  C63  1  0.00670000  0.84326000  0.06396000  1.0
  C  C64  1  0.83634000  0.24326000  0.42017000  1.0
  C  C65  1  0.16365000  0.25674000  0.92017000  1.0
  C  C66  1  0.16367000  0.75674000  0.57983000  1.0
  C  C67  1  0.83635000  0.74326000  0.07983000  1.0
  C  C68  1  0.16967000  0.35416000  0.50306000  1.0
  C  C69  1  0.83031000  0.14584000  0.00306000  1.0
  C  C70  1  0.83035000  0.64583000  0.49694000  1.0
  C  C71  1  0.16966000  0.85417000  0.99694000  1.0
  C  C72  1  0.14859000  0.27076000  0.54916000  1.0
  C  C73  1  0.85140000  0.22924000  0.04916000  1.0
  C  C74  1  0.85142000  0.72923000  0.45084000  1.0
  C  C75  1  0.14858000  0.77077000  0.95084000  1.0
  C  C76  1  0.95985000  0.17423000  0.53053000  1.0
  C  C77  1  0.04015000  0.32577000  0.03053000  1.0
  C  C78  1  0.04016000  0.82576000  0.46947000  1.0
  C  C79  1  0.95984000  0.67424000  0.96947000  1.0
  S  S80  1  0.91970000  0.07146000  0.59017000  1.0
  S  S81  1  0.08032000  0.42854000  0.09017000  1.0
  S  S82  1  0.08031000  0.92853000  0.40983000  1.0
  S  S83  1  0.91968000  0.57147000  0.90983000  1.0
  N  N84  1  0.54716000  0.12607000  0.33726000  1.0
  N  N85  1  0.45283000  0.37393000  0.83726000  1.0
  N  N86  1  0.45286000  0.87393000  0.66274000  1.0
  N  N87  1  0.54718000  0.62607000  0.16274000  1.0
  N  N88  1  0.80763000  0.16219000  0.46661000  1.0
  N  N89  1  0.19236000  0.33781000  0.96661000  1.0
  N  N90  1  0.19238000  0.83781000  0.53338000  1.0
  N  N91  1  0.80763000  0.66219000  0.03339000  1.0
