# generated using pymatgen
data_ZnH24C24(N3O2)2
_symmetry_space_group_name_H-M   'P 1'
_cell_length_a   9.29167000
_cell_length_b   11.77440000
_cell_length_c   12.91736924
_cell_angle_alpha   115.49144991
_cell_angle_beta   94.80317921
_cell_angle_gamma   108.01100000
_symmetry_Int_Tables_number   1
_chemical_formula_structural   ZnH24C24(N3O2)2
_chemical_formula_sum   'Zn2 H48 C48 N12 O8'
_cell_volume   1173.79424398
_cell_formula_units_Z   2
loop_
 _symmetry_equiv_pos_site_id
 _symmetry_equiv_pos_as_xyz
  1  'x, y, z'
loop_
 _atom_site_type_symbol
 _atom_site_label
 _atom_site_symmetry_multiplicity
 _atom_site_fract_x
 _atom_site_fract_y
 _atom_site_fract_z
 _atom_site_occupancy
  Zn  Zn0  1  0.37621000  0.74169000  0.44915000  1.0
  Zn  Zn1  1  0.62379000  0.25831000  0.55085000  1.0
  H  H2  1  0.50296000  0.05367000  0.66554000  1.0
  H  H3  1  0.49704000  0.94633000  0.33446000  1.0
  H  H4  1  0.06029000  0.73635000  0.55225000  1.0
  H  H5  1  0.93970000  0.26366000  0.44775000  1.0
  H  H6  1  0.25945000  0.21861000  0.79990000  1.0
  H  H7  1  0.74055000  0.78139000  0.20010000  1.0
  H  H8  1  0.45284000  0.23388000  0.83677000  1.0
  H  H9  1  0.54715000  0.76611000  0.16322000  1.0
  H  H10  1  0.01611000  0.25956000  0.92221000  1.0
  H  H11  1  0.98389000  0.74044000  0.07779000  1.0
  H  H12  1  0.92023000  0.08936000  0.88992000  1.0
  H  H13  1  0.07977000  0.91064000  0.11008000  1.0
  H  H14  1  0.03994000  0.12523000  0.80031000  1.0
  H  H15  1  0.96006000  0.87477000  0.19969000  1.0
  H  H16  1  0.98351000  0.28264000  0.11601000  1.0
  H  H17  1  0.01648000  0.71735000  0.88398000  1.0
  H  H18  1  0.99690000  0.20621000  0.20639000  1.0
  H  H19  1  0.00309000  0.79378000  0.79360000  1.0
  H  H20  1  0.89727000  0.10366000  0.05543000  1.0
  H  H21  1  0.10273000  0.89634000  0.94457000  1.0
  H  H22  1  0.58029000  0.11344000  0.17497000  1.0
  H  H23  1  0.41971000  0.88656000  0.82503000  1.0
  H  H24  1  0.53177000  0.22289000  0.29883000  1.0
  H  H25  1  0.46822000  0.77710000  0.70116000  1.0
  H  H26  1  0.65454000  0.28962000  0.22416000  1.0
  H  H27  1  0.34546000  0.71038000  0.77584000  1.0
  H  H28  1  0.57730000  0.14694000  0.89362000  1.0
  H  H29  1  0.42270000  0.85305000  0.10638000  1.0
  H  H30  1  0.60742000  0.09205000  0.99798000  1.0
  H  H31  1  0.39258000  0.90794000  0.00202000  1.0
  H  H32  1  0.67940000  0.26672000  0.04238000  1.0
  H  H33  1  0.32059000  0.73327000  0.95761000  1.0
  H  H34  1  0.13113000  0.13985000  0.27309000  1.0
  H  H35  1  0.86887000  0.86016000  0.72691000  1.0
  H  H36  1  0.32999000  0.17450000  0.32083000  1.0
  H  H37  1  0.67000000  0.82550000  0.67917000  1.0
  H  H38  1  0.43129000  0.47053000  0.30673000  1.0
  H  H39  1  0.56871000  0.52946000  0.69327000  1.0
  H  H40  1  0.18613000  0.55666000  0.57235000  1.0
  H  H41  1  0.81387000  0.44333000  0.42765000  1.0
  H  H42  1  0.81810000  0.07901000  0.61638000  1.0
  H  H43  1  0.18190000  0.92100000  0.38363000  1.0
  H  H44  1  0.90878000  0.75806000  0.34308000  1.0
  H  H45  1  0.09122000  0.24195000  0.65692000  1.0
  H  H46  1  0.83658000  0.51254000  0.14472000  1.0
  H  H47  1  0.16342000  0.48745000  0.85529000  1.0
  H  H48  1  0.28900000  0.59110000  0.07269000  1.0
  H  H49  1  0.71101000  0.40889000  0.92731000  1.0
  C  C50  1  0.38412000  0.99280000  0.65850000  1.0
  C  C51  1  0.61588000  0.00720000  0.34150000  1.0
  C  C52  1  0.15883000  0.83290000  0.60361000  1.0
  C  C53  1  0.84117000  0.16711000  0.39639000  1.0
  C  C54  1  0.33162000  0.17398000  0.82820000  1.0
  C  C55  1  0.66838000  0.82602000  0.17180000  1.0
  C  C56  1  0.30733000  0.17285000  0.94207000  1.0
  C  C57  1  0.69266000  0.82715000  0.05793000  1.0
  C  C58  1  0.16557000  0.17344000  0.97321000  1.0
  C  C59  1  0.83443000  0.82656000  0.02679000  1.0
  C  C60  1  0.14845000  0.18497000  0.08427000  1.0
  C  C61  1  0.85154000  0.81503000  0.91573000  1.0
  C  C62  1  0.27111000  0.19080000  0.16119000  1.0
  C  C63  1  0.72890000  0.80921000  0.83881000  1.0
  C  C64  1  0.41187000  0.18813000  0.12918000  1.0
  C  C65  1  0.58813000  0.81187000  0.87082000  1.0
  C  C66  1  0.42881000  0.17641000  0.01782000  1.0
  C  C67  1  0.57119000  0.82358000  0.98217000  1.0
  C  C68  1  0.02991000  0.16167000  0.89163000  1.0
  C  C69  1  0.97009000  0.83833000  0.10837000  1.0
  C  C70  1  0.99992000  0.19500000  0.11830000  1.0
  C  C71  1  0.00007000  0.80499000  0.88169000  1.0
  C  C72  1  0.55012000  0.20393000  0.21144000  1.0
  C  C73  1  0.44988000  0.79606000  0.78855000  1.0
  C  C74  1  0.57938000  0.17019000  0.98542000  1.0
  C  C75  1  0.42062000  0.82980000  0.01458000  1.0
  C  C76  1  0.24980000  0.20362000  0.27982000  1.0
  C  C77  1  0.75019000  0.79638000  0.72018000  1.0
  C  C78  1  0.35686000  0.46032000  0.36522000  1.0
  C  C79  1  0.64313000  0.53967000  0.63477000  1.0
  C  C80  1  0.23191000  0.50286000  0.50013000  1.0
  C  C81  1  0.76809000  0.49714000  0.49987000  1.0
  C  C82  1  0.68162000  0.81427000  0.44583000  1.0
  C  C83  1  0.31838000  0.18573000  0.55417000  1.0
  C  C84  1  0.84729000  0.90953000  0.47626000  1.0
  C  C85  1  0.15270000  0.09047000  0.52374000  1.0
  C  C86  1  0.89900000  0.04514000  0.56643000  1.0
  C  C87  1  0.10100000  0.95488000  0.43358000  1.0
  C  C88  1  0.94933000  0.86471000  0.41037000  1.0
  C  C89  1  0.05066000  0.13530000  0.58963000  1.0
  C  C90  1  0.14328000  0.62045000  0.25107000  1.0
  C  C91  1  0.85672000  0.37955000  0.74893000  1.0
  C  C92  1  0.07001000  0.55840000  0.12120000  1.0
  C  C93  1  0.93000000  0.44160000  0.87881000  1.0
  C  C94  1  0.90676000  0.50587000  0.08023000  1.0
  C  C95  1  0.09325000  0.49413000  0.91978000  1.0
  C  C96  1  0.16250000  0.55159000  0.03993000  1.0
  C  C97  1  0.83751000  0.44841000  0.96008000  1.0
  N  N98  1  0.30075000  0.86263000  0.57757000  1.0
  N  N99  1  0.69925000  0.13737000  0.42243000  1.0
  N  N100  1  0.15112000  0.93692000  0.69681000  1.0
  N  N101  1  0.84889000  0.06308000  0.30319000  1.0
  N  N102  1  0.29470000  0.03739000  0.72995000  1.0
  N  N103  1  0.70530000  0.96262000  0.27005000  1.0
  N  N104  1  0.33436000  0.56353000  0.45182000  1.0
  N  N105  1  0.66564000  0.43647000  0.54818000  1.0
  N  N106  1  0.19109000  0.36919000  0.44854000  1.0
  N  N107  1  0.80891000  0.63081000  0.55146000  1.0
  N  N108  1  0.27077000  0.34402000  0.36288000  1.0
  N  N109  1  0.72922000  0.65597000  0.63711000  1.0
  O  O110  1  0.59804000  0.86422000  0.51595000  1.0
  O  O111  1  0.40197000  0.13579000  0.48406000  1.0
  O  O112  1  0.62852000  0.69822000  0.35715000  1.0
  O  O113  1  0.37148000  0.30179000  0.64286000  1.0
  O  O114  1  0.29068000  0.70150000  0.28675000  1.0
  O  O115  1  0.70933000  0.29850000  0.71326000  1.0
  O  O116  1  0.06463000  0.59235000  0.31693000  1.0
  O  O117  1  0.93538000  0.40765000  0.68308000  1.0
