# generated using pymatgen
data_ZnH4C7N4O
_symmetry_space_group_name_H-M   'P 1'
_cell_length_a   8.89430000
_cell_length_b   9.62652000
_cell_length_c   9.71641000
_cell_angle_alpha   90.00000000
_cell_angle_beta   98.44880000
_cell_angle_gamma   89.99990000
_symmetry_Int_Tables_number   1
_chemical_formula_structural   ZnH4C7N4O
_chemical_formula_sum   'Zn4 H16 C28 N16 O4'
_cell_volume   822.90178474
_cell_formula_units_Z   4
loop_
 _symmetry_equiv_pos_site_id
 _symmetry_equiv_pos_as_xyz
  1  'x, y, z'
loop_
 _atom_site_type_symbol
 _atom_site_label
 _atom_site_symmetry_multiplicity
 _atom_site_fract_x
 _atom_site_fract_y
 _atom_site_fract_z
 _atom_site_occupancy
  Zn  Zn0  1  0.99241000  0.14236000  0.89823000  1.0
  Zn  Zn1  1  0.50759000  0.64236000  0.60178000  1.0
  Zn  Zn2  1  0.00759000  0.85764000  0.10178000  1.0
  Zn  Zn3  1  0.49241000  0.35764000  0.39822000  1.0
  H  H4  1  0.69965000  0.06377000  0.99696000  1.0
  H  H5  1  0.80035000  0.56377000  0.50303000  1.0
  H  H6  1  0.30035000  0.93623000  0.00303000  1.0
  H  H7  1  0.19965000  0.43623000  0.49696000  1.0
  H  H8  1  0.42313000  0.12993000  0.93453000  1.0
  H  H9  1  0.07687000  0.62993000  0.56547000  1.0
  H  H10  1  0.57687000  0.87007000  0.06547000  1.0
  H  H11  1  0.92313000  0.37007000  0.43453000  1.0
  H  H12  1  0.34917000  0.29679000  0.73881000  1.0
  H  H13  1  0.15083000  0.79679000  0.76119000  1.0
  H  H14  1  0.65083000  0.70321000  0.26119000  1.0
  H  H15  1  0.84917000  0.20321000  0.23881000  1.0
  H  H16  1  0.82343000  0.32699000  0.69479000  1.0
  H  H17  1  0.67657000  0.82699000  0.80521000  1.0
  H  H18  1  0.17657000  0.67301000  0.30521000  1.0
  H  H19  1  0.32343000  0.17301000  0.19479000  1.0
  C  C20  1  0.32702000  0.92925000  0.55860000  1.0
  C  C21  1  0.17298000  0.42925000  0.94140000  1.0
  C  C22  1  0.67298000  0.07075000  0.44140000  1.0
  C  C23  1  0.82703000  0.57075000  0.05860000  1.0
  C  C24  1  0.15747000  0.07107000  0.64414000  1.0
  C  C25  1  0.34253000  0.57107000  0.85586000  1.0
  C  C26  1  0.84253000  0.92893000  0.35586000  1.0
  C  C27  1  0.65747000  0.42893000  0.14414000  1.0
  C  C28  1  0.66102000  0.13783000  0.91455000  1.0
  C  C29  1  0.83898000  0.63783000  0.58545000  1.0
  C  C30  1  0.33897000  0.86217000  0.08545000  1.0
  C  C31  1  0.16103000  0.36217000  0.41455000  1.0
  C  C32  1  0.50910000  0.17491000  0.87876000  1.0
  C  C33  1  0.99090000  0.67491000  0.62124000  1.0
  C  C34  1  0.49090000  0.82509000  0.12124000  1.0
  C  C35  1  0.00910000  0.32509000  0.37876000  1.0
  C  C36  1  0.46792000  0.26908000  0.77112000  1.0
  C  C37  1  0.03208000  0.76908000  0.72888000  1.0
  C  C38  1  0.53208000  0.73092000  0.22888000  1.0
  C  C39  1  0.96792000  0.23092000  0.27112000  1.0
  C  C40  1  0.58055000  0.32751000  0.70113000  1.0
  C  C41  1  0.91945000  0.82751000  0.79887000  1.0
  C  C42  1  0.41945000  0.67249000  0.29887000  1.0
  C  C43  1  0.08055000  0.17249000  0.20113000  1.0
  C  C44  1  0.73145000  0.28491000  0.74516000  1.0
  C  C45  1  0.76854000  0.78491000  0.75484000  1.0
  C  C46  1  0.26854000  0.71509000  0.25484000  1.0
  C  C47  1  0.23145000  0.21509000  0.24516000  1.0
  N  N48  1  0.22643000  0.02694000  0.54543000  1.0
  N  N49  1  0.27358000  0.52694000  0.95458000  1.0
  N  N50  1  0.77357000  0.97306000  0.45458000  1.0
  N  N51  1  0.72643000  0.47306000  0.04542000  1.0
  N  N52  1  0.41982000  0.84168000  0.56096000  1.0
  N  N53  1  0.08018000  0.34168000  0.93905000  1.0
  N  N54  1  0.58018000  0.15832000  0.43904000  1.0
  N  N55  1  0.91982000  0.65832000  0.06096000  1.0
  N  N56  1  0.08996000  0.12027000  0.72781000  1.0
  N  N57  1  0.41004000  0.62027000  0.77219000  1.0
  N  N58  1  0.91004000  0.87973000  0.27220000  1.0
  N  N59  1  0.58996000  0.37973000  0.22780000  1.0
  N  N60  1  0.76931000  0.19243000  0.84741000  1.0
  N  N61  1  0.73069000  0.69244000  0.65259000  1.0
  N  N62  1  0.23069000  0.80757000  0.15259000  1.0
  N  N63  1  0.26931000  0.30756000  0.34741000  1.0
  O  O64  1  0.54910000  0.41725000  0.59685000  1.0
  O  O65  1  0.95090000  0.91725000  0.90315000  1.0
  O  O66  1  0.45090000  0.58275000  0.40315000  1.0
  O  O67  1  0.04910000  0.08275000  0.09685000  1.0
