# generated using pymatgen
data_CdH12(C2O)7
_symmetry_space_group_name_H-M   'P 1'
_cell_length_a   5.74537000
_cell_length_b   7.71490000
_cell_length_c   16.22622734
_cell_angle_alpha   103.71063421
_cell_angle_beta   100.15509044
_cell_angle_gamma   90.01910000
_symmetry_Int_Tables_number   1
_chemical_formula_structural   CdH12(C2O)7
_chemical_formula_sum   'Cd2 H24 C28 O14'
_cell_volume   687.11869904
_cell_formula_units_Z   2
loop_
 _symmetry_equiv_pos_site_id
 _symmetry_equiv_pos_as_xyz
  1  'x, y, z'
loop_
 _atom_site_type_symbol
 _atom_site_label
 _atom_site_symmetry_multiplicity
 _atom_site_fract_x
 _atom_site_fract_y
 _atom_site_fract_z
 _atom_site_occupancy
  Cd  Cd0  1  0.42850000  0.19168000  0.49994000  1.0
  Cd  Cd1  1  0.92811000  0.80777000  0.49991000  1.0
  H  H2  1  0.72146000  0.26788000  0.28345000  1.0
  H  H3  1  0.43619000  0.73303000  0.71726000  1.0
  H  H4  1  0.93622000  0.48482000  0.71699000  1.0
  H  H5  1  0.22033000  0.51498000  0.28320000  1.0
  H  H6  1  0.48527000  0.21077000  0.13402000  1.0
  H  H7  1  0.35056000  0.79122000  0.86690000  1.0
  H  H8  1  0.85067000  0.57666000  0.86666000  1.0
  H  H9  1  0.98463000  0.42307000  0.13373000  1.0
  H  H10  1  0.26666000  0.94036000  0.18739000  1.0
  H  H11  1  0.07900000  0.05892000  0.81216000  1.0
  H  H12  1  0.57844000  0.25358000  0.81219000  1.0
  H  H13  1  0.76644000  0.74653000  0.18738000  1.0
  H  H14  1  0.02733000  0.87480000  0.03873000  1.0
  H  H15  1  0.98973000  0.12532000  0.96112000  1.0
  H  H16  1  0.48913000  0.33632000  0.96110000  1.0
  H  H17  1  0.52747000  0.66401000  0.03866000  1.0
  H  H18  1  0.92933000  0.18387000  0.55006000  1.0
  H  H19  1  0.37900000  0.81566000  0.44959000  1.0
  H  H20  1  0.87928000  0.13344000  0.44947000  1.0
  H  H21  1  0.42899000  0.86581000  0.55019000  1.0
  H  H22  1  0.57034000  0.50058000  0.45033000  1.0
  H  H23  1  0.11956000  0.49904000  0.54954000  1.0
  H  H24  1  0.61969000  0.55006000  0.54970000  1.0
  H  H25  1  0.07088000  0.44978000  0.45018000  1.0
  C  C26  1  0.15013333  0.14169000  0.33333333  1.0
  C  C27  1  0.81485000  0.85775000  0.66657000  1.0
  C  C28  1  0.31416000  0.30861000  0.66644000  1.0
  C  C29  1  0.64906333  0.69105000  0.33333333  1.0
  C  C30  1  0.01071000  0.10940000  0.24451000  1.0
  C  C31  1  0.76515000  0.89052000  0.75560000  1.0
  C  C32  1  0.26476000  0.36534000  0.75549000  1.0
  C  C33  1  0.51009000  0.63458000  0.24438000  1.0
  C  C34  1  0.74317000  0.04090000  0.07840000  1.0
  C  C35  1  0.66489000  0.96031000  0.92200000  1.0
  C  C36  1  0.16458000  0.46239000  0.92184000  1.0
  C  C37  1  0.24282000  0.53755000  0.07823000  1.0
  C  C38  1  0.78979000  0.18511000  0.22947000  1.0
  C  C39  1  0.55915000  0.81556000  0.77103000  1.0
  C  C40  1  0.05903000  0.45607000  0.77084000  1.0
  C  C41  1  0.28904000  0.54385000  0.22927000  1.0
  C  C42  1  0.65713000  0.15301000  0.14662000  1.0
  C  C43  1  0.51000000  0.84830000  0.85402000  1.0
  C  C44  1  0.00993000  0.50655000  0.85382000  1.0
  C  C45  1  0.15661000  0.49334000  0.14638000  1.0
  C  C46  1  0.09624000  0.00004000  0.17506000  1.0
  C  C47  1  0.92086000  0.99971000  0.82481000  1.0
  C  C48  1  0.42044000  0.32550000  0.82477000  1.0
  C  C49  1  0.59592000  0.67461000  0.17498000  1.0
  C  C50  1  0.96315000  0.96400000  0.09196000  1.0
  C  C51  1  0.87163000  0.03634000  0.90808000  1.0
  C  C52  1  0.37121000  0.37233000  0.90802000  1.0
  C  C53  1  0.46304000  0.62787000  0.09184000  1.0
  O  O54  1  0.82599000  0.10027000  0.49977000  1.0
  O  O55  1  0.32583000  0.89913000  0.49988000  1.0
  O  O56  1  0.35989000  0.09030000  0.34659000  1.0
  O  O57  1  0.01126000  0.90882000  0.65296000  1.0
  O  O58  1  0.51047000  0.24373000  0.65287000  1.0
  O  O59  1  0.85901000  0.75544000  0.34663000  1.0
  O  O60  1  0.05098000  0.22459000  0.39672000  1.0
  O  O61  1  0.65192000  0.77481000  0.60349000  1.0
  O  O62  1  0.15112000  0.32827000  0.60334000  1.0
  O  O63  1  0.54936000  0.67165000  0.39659000  1.0
  O  O64  1  0.61984000  0.44648000  0.50001000  1.0
  O  O65  1  0.11990000  0.55333000  0.49993000  1.0
  O  O66  1  0.58845000  0.00110000  0.00024000  1.0
  O  O67  1  0.08810000  0.49984000  0.00008000  1.0
