# generated using pymatgen
data_CoH20C25(NO)4
_symmetry_space_group_name_H-M   'P 1'
_cell_length_a   9.94050000
_cell_length_b   10.97630000
_cell_length_c   14.14920000
_cell_angle_alpha   73.71130000
_cell_angle_beta   78.58650000
_cell_angle_gamma   81.01250000
_symmetry_Int_Tables_number   1
_chemical_formula_structural   CoH20C25(NO)4
_chemical_formula_sum   'Co2 H40 C50 N8 O8'
_cell_volume   1444.19987201
_cell_formula_units_Z   2
loop_
 _symmetry_equiv_pos_site_id
 _symmetry_equiv_pos_as_xyz
  1  'x, y, z'
loop_
 _atom_site_type_symbol
 _atom_site_label
 _atom_site_symmetry_multiplicity
 _atom_site_fract_x
 _atom_site_fract_y
 _atom_site_fract_z
 _atom_site_occupancy
  Co  Co0  1  0.44079000  0.80210000  0.19274000  1.0
  Co  Co1  1  0.55921000  0.19790000  0.80725000  1.0
  H  H2  1  0.05868000  0.67468000  0.99332000  1.0
  H  H3  1  0.94132000  0.32532000  0.00667000  1.0
  H  H4  1  0.11991000  0.60634000  0.16392000  1.0
  H  H5  1  0.88008000  0.39365000  0.83607000  1.0
  H  H6  1  0.94721000  0.62142000  0.31201000  1.0
  H  H7  1  0.05279000  0.37857000  0.68798000  1.0
  H  H8  1  0.70166000  0.71326000  0.29472000  1.0
  H  H9  1  0.29833000  0.28670000  0.70528000  1.0
  H  H10  1  0.56776000  0.86713000  0.95475000  1.0
  H  H11  1  0.43223000  0.13286000  0.04524000  1.0
  H  H12  1  0.94269000  0.80684000  0.85322000  1.0
  H  H13  1  0.05732000  0.19316000  0.14677000  1.0
  H  H14  1  0.78117000  0.88167000  0.82011000  1.0
  H  H15  1  0.21884000  0.11832000  0.17988000  1.0
  H  H16  1  0.87329000  0.68724000  0.75373000  1.0
  H  H17  1  0.12671000  0.31275000  0.24626000  1.0
  H  H18  1  0.86383000  0.59009000  0.87685000  1.0
  H  H19  1  0.13618000  0.40990000  0.12315000  1.0
  H  H20  1  0.60769000  0.63955000  0.90722000  1.0
  H  H21  1  0.39232000  0.36044000  0.09278000  1.0
  H  H22  1  0.61254000  0.75612000  0.79191000  1.0
  H  H23  1  0.38746000  0.24388000  0.20809000  1.0
  H  H24  1  0.64526000  0.33851000  0.57350000  1.0
  H  H25  1  0.35476000  0.66149000  0.42648000  1.0
  H  H26  1  0.74059000  0.50531000  0.42353000  1.0
  H  H27  1  0.25943000  0.49470000  0.57646000  1.0
  H  H28  1  0.79462000  0.70986000  0.44140000  1.0
  H  H29  1  0.20537000  0.29016000  0.55861000  1.0
  H  H30  1  0.75707000  0.75628000  0.60710000  1.0
  H  H31  1  0.24292000  0.24373000  0.39291000  1.0
  H  H32  1  0.57458000  0.41735000  0.91131000  1.0
  H  H33  1  0.42542000  0.58264000  0.08869000  1.0
  H  H34  1  0.01692000  0.94983000  0.18014000  1.0
  H  H35  1  0.98306000  0.05017000  0.81988000  1.0
  H  H36  1  0.20552000  0.94456000  0.88079000  1.0
  H  H37  1  0.79447000  0.05545000  0.11923000  1.0
  H  H38  1  0.54071000  0.16627000  0.33994000  1.0
  H  H39  1  0.45928000  0.83374000  0.66006000  1.0
  H  H40  1  0.44297000  0.78789000  0.49913000  1.0
  H  H41  1  0.55702000  0.21211000  0.50088000  1.0
  C  C42  1  0.74464000  0.74264000  0.13443000  1.0
  C  C43  1  0.25536000  0.25734000  0.86556000  1.0
  C  C44  1  0.84422000  0.73117000  0.04981000  1.0
  C  C45  1  0.15577000  0.26884000  0.95019000  1.0
  C  C46  1  0.98045000  0.68028000  0.05824000  1.0
  C  C47  1  0.01954000  0.31971000  0.94176000  1.0
  C  C48  1  0.01375000  0.64220000  0.15418000  1.0
  C  C49  1  0.98625000  0.35779000  0.84582000  1.0
  C  C50  1  0.91508000  0.65250000  0.23879000  1.0
  C  C51  1  0.08491000  0.34749000  0.76121000  1.0
  C  C52  1  0.77906000  0.70270000  0.23037000  1.0
  C  C53  1  0.22094000  0.29728000  0.76962000  1.0
  C  C54  1  0.64368000  0.82296000  0.00339000  1.0
  C  C55  1  0.35632000  0.17704000  0.99660000  1.0
  C  C56  1  0.83304000  0.79391000  0.86338000  1.0
  C  C57  1  0.16697000  0.20609000  0.13661000  1.0
  C  C58  1  0.81593000  0.67720000  0.82997000  1.0
  C  C59  1  0.18407000  0.32279000  0.17004000  1.0
  C  C60  1  0.66434000  0.66460000  0.83066000  1.0
  C  C61  1  0.33567000  0.33539000  0.16934000  1.0
  C  C62  1  0.68286000  0.57115000  0.68267000  1.0
  C  C63  1  0.31716000  0.42885000  0.31733000  1.0
  C  C64  1  0.65156000  0.45390000  0.67328000  1.0
  C  C65  1  0.34844000  0.54610000  0.32672000  1.0
  C  C66  1  0.67151000  0.42829000  0.57977000  1.0
  C  C67  1  0.32850000  0.57171000  0.42022000  1.0
  C  C68  1  0.72403000  0.52192000  0.49760000  1.0
  C  C69  1  0.27598000  0.47809000  0.50240000  1.0
  C  C70  1  0.75542000  0.63815000  0.50766000  1.0
  C  C71  1  0.24459000  0.36186000  0.49234000  1.0
  C  C72  1  0.73537000  0.66521000  0.60025000  1.0
  C  C73  1  0.26463000  0.33480000  0.39975000  1.0
  C  C74  1  0.60275000  0.45006000  0.83091000  1.0
  C  C75  1  0.39726000  0.54994000  0.16908000  1.0
  C  C76  1  0.25421000  0.87841000  0.06915000  1.0
  C  C77  1  0.74578000  0.12161000  0.93086000  1.0
  C  C78  1  0.12314000  0.94209000  0.03360000  1.0
  C  C79  1  0.87685000  0.05793000  0.96642000  1.0
  C  C80  1  0.00840000  0.97348000  0.10130000  1.0
  C  C81  1  0.99160000  0.02653000  0.89872000  1.0
  C  C82  1  0.11443000  0.96883000  0.93206000  1.0
  C  C83  1  0.88555000  0.03118000  0.06796000  1.0
  C  C84  1  0.47525000  0.95130000  0.31275000  1.0
  C  C85  1  0.52475000  0.04870000  0.68725000  1.0
  C  C86  1  0.48924000  0.97513000  0.40966000  1.0
  C  C87  1  0.51075000  0.02487000  0.59035000  1.0
  C  C88  1  0.52300000  0.09407000  0.41062000  1.0
  C  C89  1  0.47699000  0.90593000  0.58939000  1.0
  C  C90  1  0.46686000  0.88102000  0.50003000  1.0
  C  C91  1  0.53313000  0.11899000  0.49996000  1.0
  N  N92  1  0.62013000  0.79921000  0.10251000  1.0
  N  N93  1  0.37987000  0.20079000  0.89749000  1.0
  N  N94  1  0.77625000  0.78342000  0.96825000  1.0
  N  N95  1  0.22375000  0.21658000  0.03175000  1.0
  N  N96  1  0.64945000  0.56559000  0.78393000  1.0
  N  N97  1  0.35056000  0.43439000  0.21607000  1.0
  N  N98  1  0.60192000  0.38023000  0.76786000  1.0
  N  N99  1  0.39809000  0.61976000  0.23213000  1.0
  O  O100  1  0.46439000  0.83280000  0.31702000  1.0
  O  O101  1  0.53563000  0.16720000  0.68298000  1.0
  O  O102  1  0.47342000  0.04072000  0.23516000  1.0
  O  O103  1  0.52659000  0.95928000  0.76484000  1.0
  O  O104  1  0.27647000  0.90334000  0.14922000  1.0
  O  O105  1  0.72352000  0.09667000  0.85080000  1.0
  O  O106  1  0.33612000  0.80634000  0.02395000  1.0
  O  O107  1  0.66390000  0.19371000  0.97604000  1.0
