# generated using pymatgen
data_GdH10C11NO7
_symmetry_space_group_name_H-M   'P 1'
_cell_length_a   8.33996000
_cell_length_b   8.99651000
_cell_length_c   10.50730000
_cell_angle_alpha   105.13700000
_cell_angle_beta   101.16000000
_cell_angle_gamma   95.43600000
_symmetry_Int_Tables_number   1
_chemical_formula_structural   GdH10C11NO7
_chemical_formula_sum   'Gd2 H20 C22 N2 O14'
_cell_volume   737.78825089
_cell_formula_units_Z   2
loop_
 _symmetry_equiv_pos_site_id
 _symmetry_equiv_pos_as_xyz
  1  'x, y, z'
loop_
 _atom_site_type_symbol
 _atom_site_label
 _atom_site_symmetry_multiplicity
 _atom_site_fract_x
 _atom_site_fract_y
 _atom_site_fract_z
 _atom_site_occupancy
  Gd  Gd0  1  0.41729000  0.29372000  0.03009000  1.0
  Gd  Gd1  1  0.58271000  0.70627000  0.96991000  1.0
  H  H2  1  0.74981000  0.18723000  0.37879000  1.0
  H  H3  1  0.25018000  0.81277000  0.62121000  1.0
  H  H4  1  0.65409000  0.29033000  0.58556000  1.0
  H  H5  1  0.34590000  0.70969000  0.41445000  1.0
  H  H6  1  0.75936000  0.75674000  0.55973000  1.0
  H  H7  1  0.24064000  0.24327000  0.44025000  1.0
  H  H8  1  0.85770000  0.65861000  0.35277000  1.0
  H  H9  1  0.14229000  0.34139000  0.64722000  1.0
  H  H10  1  0.94510000  0.15241000  0.28004000  1.0
  H  H11  1  0.05491000  0.84759000  0.71997000  1.0
  H  H12  1  0.99720000  0.18555000  0.13535000  1.0
  H  H13  1  0.00281000  0.81444000  0.86466000  1.0
  H  H14  1  0.99840000  0.40003000  0.09067000  1.0
  H  H15  1  0.00160000  0.59996000  0.90933000  1.0
  H  H16  1  0.03513000  0.55931000  0.23665000  1.0
  H  H17  1  0.96487000  0.44068000  0.76334000  1.0
  H  H18  1  0.55135000  0.14976000  0.78962000  1.0
  H  H19  1  0.44865000  0.85025000  0.21037000  1.0
  H  H20  1  0.53444000  0.32303000  0.78195000  1.0
  H  H21  1  0.46556000  0.67697000  0.21806000  1.0
  C  C22  1  0.81920000  0.41464000  0.35097000  1.0
  C  C23  1  0.18080000  0.58536000  0.64903000  1.0
  C  C24  1  0.75624000  0.31262000  0.41833000  1.0
  C  C25  1  0.24375000  0.68739000  0.58167000  1.0
  C  C26  1  0.70165000  0.37070000  0.53519000  1.0
  C  C27  1  0.29835000  0.62931000  0.46481000  1.0
  C  C28  1  0.70459000  0.53135000  0.58981000  1.0
  C  C29  1  0.29541000  0.46867000  0.41019000  1.0
  C  C30  1  0.75991000  0.63218000  0.51988000  1.0
  C  C31  1  0.24009000  0.36783000  0.48011000  1.0
  C  C32  1  0.81508000  0.57617000  0.40305000  1.0
  C  C33  1  0.18492000  0.42383000  0.59694000  1.0
  C  C34  1  0.65599000  0.59245000  0.71792000  1.0
  C  C35  1  0.34401000  0.40757000  0.28208000  1.0
  C  C36  1  0.90078000  0.19721000  0.19381000  1.0
  C  C37  1  0.09923000  0.80278000  0.80620000  1.0
  C  C38  1  0.74382000  0.08925000  0.10441000  1.0
  C  C39  1  0.25619000  0.91074000  0.89560000  1.0
  C  C40  1  0.93927000  0.46384000  0.16876000  1.0
  C  C41  1  0.06073000  0.53615000  0.83123000  1.0
  C  C42  1  0.80886000  0.53869000  0.09586000  1.0
  C  C43  1  0.19114000  0.46129000  0.90413000  1.0
  N  N44  1  0.88291000  0.35939000  0.23957000  1.0
  N  N45  1  0.11709000  0.64060000  0.76044000  1.0
  O  O46  1  0.61933000  0.14997000  0.06557000  1.0
  O  O47  1  0.38067000  0.85001000  0.93445000  1.0
  O  O48  1  0.75161000  0.94505000  0.07446000  1.0
  O  O49  1  0.24840000  0.05494000  0.92555000  1.0
  O  O50  1  0.65346000  0.48836000  0.07203000  1.0
  O  O51  1  0.34654000  0.51162000  0.92797000  1.0
  O  O52  1  0.85864000  0.65432000  0.05845000  1.0
  O  O53  1  0.14135000  0.34566000  0.94154000  1.0
  O  O54  1  0.60893000  0.49815000  0.78329000  1.0
  O  O55  1  0.39107000  0.50186000  0.21670000  1.0
  O  O56  1  0.66431000  0.73930000  0.77167000  1.0
  O  O57  1  0.33569000  0.26071000  0.22833000  1.0
  O  O58  1  0.48255000  0.23105000  0.80549000  1.0
  O  O59  1  0.51746000  0.76896000  0.19451000  1.0
