# generated using pymatgen
data_ZnH8C10(SN3)2
_symmetry_space_group_name_H-M   'P 1'
_cell_length_a   8.56296000
_cell_length_b   9.07755000
_cell_length_c   9.07756000
_cell_angle_alpha   63.41600000
_cell_angle_beta   89.99990000
_cell_angle_gamma   89.99990000
_symmetry_Int_Tables_number   1
_chemical_formula_structural   ZnH8C10(SN3)2
_chemical_formula_sum   'Zn2 H16 C20 S4 N12'
_cell_volume   631.00796641
_cell_formula_units_Z   2
loop_
 _symmetry_equiv_pos_site_id
 _symmetry_equiv_pos_as_xyz
  1  'x, y, z'
loop_
 _atom_site_type_symbol
 _atom_site_label
 _atom_site_symmetry_multiplicity
 _atom_site_fract_x
 _atom_site_fract_y
 _atom_site_fract_z
 _atom_site_occupancy
  Zn  Zn0  1  0.00000000  0.00000000  0.00000000  1.0
  Zn  Zn1  1  0.50000000  0.50000000  0.50000000  1.0
  H  H2  1  0.25000000  0.70815000  0.20816000  1.0
  H  H3  1  0.75000000  0.79185000  0.29185000  1.0
  H  H4  1  0.75000000  0.29185000  0.79185000  1.0
  H  H5  1  0.25000000  0.20815000  0.70815000  1.0
  H  H6  1  0.05048000  0.07513000  0.29965000  1.0
  H  H7  1  0.55048000  0.42487000  0.20035000  1.0
  H  H8  1  0.44951000  0.79965000  0.57513000  1.0
  H  H9  1  0.94952000  0.70035000  0.92487000  1.0
  H  H10  1  0.94952000  0.92486000  0.70035000  1.0
  H  H11  1  0.44952000  0.57513000  0.79965000  1.0
  H  H12  1  0.55048000  0.20035000  0.42487000  1.0
  H  H13  1  0.05048000  0.29965000  0.07514000  1.0
  H  H14  1  0.25000000  0.02295000  0.52295000  1.0
  H  H15  1  0.75000000  0.47705000  0.97705000  1.0
  H  H16  1  0.75000000  0.97705000  0.47705000  1.0
  H  H17  1  0.25000000  0.52295000  0.02295000  1.0
  C  C18  1  0.25000000  0.77861000  0.27861000  1.0
  C  C19  1  0.75000000  0.72139000  0.22139000  1.0
  C  C20  1  0.75000000  0.22139000  0.72139000  1.0
  C  C21  1  0.25000000  0.27861000  0.77861000  1.0
  C  C22  1  0.14198000  0.98291000  0.32824000  1.0
  C  C23  1  0.64198000  0.51709000  0.17176000  1.0
  C  C24  1  0.35801000  0.82824000  0.48291000  1.0
  C  C25  1  0.85802000  0.67176000  0.01709000  1.0
  C  C26  1  0.85802000  0.01709000  0.67176000  1.0
  C  C27  1  0.35801000  0.48292000  0.82824000  1.0
  C  C28  1  0.64199000  0.17176000  0.51709000  1.0
  C  C29  1  0.14199000  0.32824000  0.98291000  1.0
  C  C30  1  0.25000000  0.95252000  0.45252000  1.0
  C  C31  1  0.75000000  0.54748000  0.04748000  1.0
  C  C32  1  0.75000000  0.04747000  0.54748000  1.0
  C  C33  1  0.25000000  0.45252000  0.95252000  1.0
  C  C34  1  0.28609000  0.88086000  0.88086000  1.0
  C  C35  1  0.78610000  0.61914000  0.61915000  1.0
  C  C36  1  0.21391000  0.38086000  0.38085000  1.0
  C  C37  1  0.71391000  0.11915000  0.11914000  1.0
  S  S38  1  0.46910000  0.85794000  0.85794000  1.0
  S  S39  1  0.96911000  0.64206000  0.64206000  1.0
  S  S40  1  0.03090000  0.35795000  0.35794000  1.0
  S  S41  1  0.53090000  0.14206000  0.14205000  1.0
  N  N42  1  0.14620000  0.90129000  0.23581000  1.0
  N  N43  1  0.64621000  0.59871000  0.26419000  1.0
  N  N44  1  0.35379000  0.73581000  0.40129000  1.0
  N  N45  1  0.85380000  0.76419000  0.09871000  1.0
  N  N46  1  0.85379000  0.09871000  0.76419000  1.0
  N  N47  1  0.35379000  0.40129000  0.73581000  1.0
  N  N48  1  0.64621000  0.26419000  0.59871000  1.0
  N  N49  1  0.14621000  0.23581000  0.90129000  1.0
  N  N50  1  0.14991000  0.89755000  0.89755000  1.0
  N  N51  1  0.64992000  0.60245000  0.60245000  1.0
  N  N52  1  0.35009000  0.39755000  0.39755000  1.0
  N  N53  1  0.85009000  0.10245000  0.10245000  1.0
