# generated using pymatgen
data_CdH12C16N4O5
_symmetry_space_group_name_H-M   'P 1'
_cell_length_a   9.01460000
_cell_length_b   9.94229000
_cell_length_c   11.19620000
_cell_angle_alpha   91.44230000
_cell_angle_beta   98.38140000
_cell_angle_gamma   107.72900000
_symmetry_Int_Tables_number   1
_chemical_formula_structural   CdH12C16N4O5
_chemical_formula_sum   'Cd2 H24 C32 N8 O10'
_cell_volume   943.02290558
_cell_formula_units_Z   2
loop_
 _symmetry_equiv_pos_site_id
 _symmetry_equiv_pos_as_xyz
  1  'x, y, z'
loop_
 _atom_site_type_symbol
 _atom_site_label
 _atom_site_symmetry_multiplicity
 _atom_site_fract_x
 _atom_site_fract_y
 _atom_site_fract_z
 _atom_site_occupancy
  Cd  Cd0  1  0.50921000  0.58462000  0.71739000  1.0
  Cd  Cd1  1  0.49080000  0.41538000  0.28261000  1.0
  H  H2  1  0.72473000  0.23416000  0.53470000  1.0
  H  H3  1  0.27527000  0.76584000  0.46529000  1.0
  H  H4  1  0.48913000  0.86264000  0.81272000  1.0
  H  H5  1  0.51086000  0.13736000  0.18728000  1.0
  H  H6  1  0.90561000  0.64786000  0.73337000  1.0
  H  H7  1  0.09440000  0.35214000  0.26663000  1.0
  H  H8  1  0.52864000  0.65332000  0.02016000  1.0
  H  H9  1  0.47137000  0.34668000  0.97984000  1.0
  H  H10  1  0.74430000  0.72998000  0.48051000  1.0
  H  H11  1  0.25569000  0.27000000  0.51949000  1.0
  H  H12  1  0.46408000  0.10672000  0.82954000  1.0
  H  H13  1  0.53592000  0.89329000  0.17044000  1.0
  H  H14  1  0.10052000  0.70660000  0.18368000  1.0
  H  H15  1  0.89948000  0.29339000  0.81632000  1.0
  H  H16  1  0.27707000  0.69300000  0.03488000  1.0
  H  H17  1  0.72295000  0.30701000  0.96513000  1.0
  H  H18  1  0.79350000  0.98940000  0.43180000  1.0
  H  H19  1  0.20648000  0.01058000  0.56819000  1.0
  H  H20  1  0.75942000  0.68388000  0.18145000  1.0
  H  H21  1  0.24059000  0.31613000  0.81855000  1.0
  H  H22  1  0.30756000  0.53437000  0.48858000  1.0
  H  H23  1  0.69244000  0.46564000  0.51142000  1.0
  H  H24  1  0.22738000  0.56350000  0.60219000  1.0
  H  H25  1  0.77262000  0.43651000  0.39782000  1.0
  C  C26  1  0.59162000  0.18227000  0.68386000  1.0
  C  C27  1  0.40838000  0.81773000  0.31613000  1.0
  C  C28  1  0.67505000  0.15423000  0.59505000  1.0
  C  C29  1  0.32495000  0.84577000  0.40495000  1.0
  C  C30  1  0.56265000  0.32182000  0.69598000  1.0
  C  C31  1  0.43734000  0.67818000  0.30401000  1.0
  C  C32  1  0.68492000  0.01719000  0.58497000  1.0
  C  C33  1  0.31507000  0.98281000  0.41503000  1.0
  C  C34  1  0.53978000  0.94300000  0.75308000  1.0
  C  C35  1  0.46021000  0.05701000  0.24692000  1.0
  C  C36  1  0.94625000  0.66335000  0.83060000  1.0
  C  C37  1  0.05376000  0.33663000  0.16941000  1.0
  C  C38  1  0.90163000  0.68452000  0.03979000  1.0
  C  C39  1  0.09838000  0.31547000  0.96021000  1.0
  C  C40  1  0.84593000  0.66723000  0.91329000  1.0
  C  C41  1  0.15408000  0.33277000  0.08672000  1.0
  C  C42  1  0.20762000  0.65760000  0.78883000  1.0
  C  C43  1  0.79239000  0.34241000  0.21117000  1.0
  C  C44  1  0.61702000  0.91201000  0.66125000  1.0
  C  C45  1  0.38297000  0.08799000  0.33875000  1.0
  C  C46  1  0.64623000  0.66212000  0.00282000  1.0
  C  C47  1  0.35378000  0.33787000  0.99718000  1.0
  C  C48  1  0.71368000  0.80989000  0.53152000  1.0
  C  C49  1  0.28630000  0.19010000  0.46848000  1.0
  C  C50  1  0.52666000  0.07795000  0.76185000  1.0
  C  C51  1  0.47333000  0.92206000  0.23814000  1.0
  C  C52  1  0.10196000  0.67329000  0.87672000  1.0
  C  C53  1  0.89805000  0.32671000  0.12329000  1.0
  C  C54  1  0.05763000  0.69565000  0.08666000  1.0
  C  C55  1  0.94237000  0.30435000  0.91334000  1.0
  C  C56  1  0.15554000  0.68862000  0.00313000  1.0
  C  C57  1  0.84447000  0.31138000  0.99688000  1.0
  N  N58  1  0.68562000  0.65294000  0.89412000  1.0
  N  N59  1  0.31438000  0.34705000  0.10588000  1.0
  N  N60  1  0.63659000  0.78472000  0.62503000  1.0
  N  N61  1  0.36340000  0.21528000  0.37497000  1.0
  N  N62  1  0.74735000  0.94835000  0.50525000  1.0
  N  N63  1  0.25265000  0.05165000  0.49474000  1.0
  N  N64  1  0.77155000  0.68261000  0.09258000  1.0
  N  N65  1  0.22846000  0.31739000  0.90742000  1.0
  O  O66  1  0.45671000  0.33138000  0.75652000  1.0
  O  O67  1  0.54329000  0.66862000  0.24347000  1.0
  O  O68  1  0.28661000  0.50163000  0.56975000  1.0
  O  O69  1  0.71339000  0.49839000  0.43025000  1.0
  O  O70  1  0.16188000  0.66411000  0.67691000  1.0
  O  O71  1  0.83814000  0.33589000  0.32309000  1.0
  O  O72  1  0.64329000  0.42793000  0.64562000  1.0
  O  O73  1  0.35671000  0.57207000  0.35438000  1.0
  O  O74  1  0.33712000  0.63527000  0.83340000  1.0
  O  O75  1  0.66289000  0.36473000  0.16661000  1.0
