# generated using pymatgen
data_SmH10C8SO10
_symmetry_space_group_name_H-M   'P 1'
_cell_length_a   5.89216000
_cell_length_b   7.80671000
_cell_length_c   14.74202882
_cell_angle_alpha   76.36553286
_cell_angle_beta   87.37165894
_cell_angle_gamma   74.02680000
_symmetry_Int_Tables_number   1
_chemical_formula_structural   SmH10C8SO10
_chemical_formula_sum   'Sm2 H20 C16 S2 O20'
_cell_volume   633.42512534
_cell_formula_units_Z   2
loop_
 _symmetry_equiv_pos_site_id
 _symmetry_equiv_pos_as_xyz
  1  'x, y, z'
loop_
 _atom_site_type_symbol
 _atom_site_label
 _atom_site_symmetry_multiplicity
 _atom_site_fract_x
 _atom_site_fract_y
 _atom_site_fract_z
 _atom_site_occupancy
  Sm  Sm0  1  0.67098000  0.14294000  0.81818000  1.0
  Sm  Sm1  1  0.32903000  0.85706000  0.18182000  1.0
  H  H2  1  0.73484000  0.33357000  0.59469000  1.0
  H  H3  1  0.26515000  0.66643000  0.40531000  1.0
  H  H4  1  0.64941000  0.35215000  0.42761000  1.0
  H  H5  1  0.35057000  0.64785000  0.57239000  1.0
  H  H6  1  0.39567000  0.15989000  0.38191000  1.0
  H  H7  1  0.60431000  0.84012000  0.61809000  1.0
  H  H8  1  0.47808000  0.15435000  0.54733000  1.0
  H  H9  1  0.52192000  0.84564000  0.45267000  1.0
  H  H10  1  0.28631000  0.25534000  0.95764000  1.0
  H  H11  1  0.71370000  0.74467000  0.04236000  1.0
  H  H12  1  0.23302000  0.40544000  0.86294000  1.0
  H  H13  1  0.76698000  0.59456000  0.13706000  1.0
  H  H14  1  0.52934000  0.79874000  0.90072000  1.0
  H  H15  1  0.47065000  0.20125000  0.09929000  1.0
  H  H16  1  0.34998000  0.88415000  0.81680000  1.0
  H  H17  1  0.65002000  0.11586000  0.18320000  1.0
  H  H18  1  0.77632000  0.49989000  0.76179000  1.0
  H  H19  1  0.22368000  0.50011000  0.23821000  1.0
  H  H20  1  0.49719000  0.57444000  0.74786000  1.0
  H  H21  1  0.50282000  0.42555000  0.25214000  1.0
  C  C22  1  0.17188000  0.21482000  0.68231000  1.0
  C  C23  1  0.82812000  0.78518000  0.31768000  1.0
  C  C24  1  0.11257000  0.23907000  0.58133000  1.0
  C  C25  1  0.88742000  0.76093000  0.41867000  1.0
  C  C26  1  0.87872000  0.29596000  0.54776000  1.0
  C  C27  1  0.12127000  0.70404000  0.45224000  1.0
  C  C28  1  0.83053000  0.30575000  0.45457000  1.0
  C  C29  1  0.16946000  0.69425000  0.54543000  1.0
  C  C30  1  0.01752000  0.25261000  0.39632000  1.0
  C  C31  1  0.98247000  0.74740000  0.60368000  1.0
  C  C32  1  0.25180000  0.19982000  0.42833000  1.0
  C  C33  1  0.74819000  0.80017000  0.57167000  1.0
  C  C34  1  0.29761000  0.19592000  0.52047000  1.0
  C  C35  1  0.70238000  0.80407000  0.47953000  1.0
  C  C36  1  0.01239000  0.09757000  0.99421000  1.0
  C  C37  1  0.98764000  0.90243000  0.00580000  1.0
  S  S38  1  0.96724000  0.25386000  0.27834000  1.0
  S  S39  1  0.03276000  0.74615000  0.72165000  1.0
  O  O40  1  0.37965000  0.21758000  0.70138000  1.0
  O  O41  1  0.62035000  0.78241000  0.29862000  1.0
  O  O42  1  0.01836000  0.18787000  0.74283000  1.0
  O  O43  1  0.98165000  0.81212000  0.25717000  1.0
  O  O44  1  0.16593000  0.10904000  0.25696000  1.0
  O  O45  1  0.83407000  0.89094000  0.74305000  1.0
  O  O46  1  0.97094000  0.43639000  0.22226000  1.0
  O  O47  1  0.02907000  0.56360000  0.77774000  1.0
  O  O48  1  0.73490000  0.21936000  0.27214000  1.0
  O  O49  1  0.26510000  0.78064000  0.72786000  1.0
  O  O50  1  0.88716000  0.22373000  0.93294000  1.0
  O  O51  1  0.11284000  0.77630000  0.06705000  1.0
  O  O52  1  0.16575000  0.11411000  0.04806000  1.0
  O  O53  1  0.83425000  0.88589000  0.95194000  1.0
  O  O54  1  0.36310000  0.31482000  0.90283000  1.0
  O  O55  1  0.63690000  0.68518000  0.09717000  1.0
  O  O56  1  0.42613000  0.91470000  0.86689000  1.0
  O  O57  1  0.57387000  0.08530000  0.13311000  1.0
  O  O58  1  0.63226000  0.46580000  0.74957000  1.0
  O  O59  1  0.36775000  0.53420000  0.25044000  1.0
