# generated using pymatgen
data_CdH8C8S2(N2O)2
_symmetry_space_group_name_H-M   'P 1'
_cell_length_a   5.77557000
_cell_length_b   7.15173000
_cell_length_c   7.48353000
_cell_angle_alpha   72.57810000
_cell_angle_beta   86.90720000
_cell_angle_gamma   87.07490000
_symmetry_Int_Tables_number   1
_chemical_formula_structural   CdH8C8S2(N2O)2
_chemical_formula_sum   'Cd1 H8 C8 S2 N4 O2'
_cell_volume   294.30250900
_cell_formula_units_Z   1
loop_
 _symmetry_equiv_pos_site_id
 _symmetry_equiv_pos_as_xyz
  1  'x, y, z'
loop_
 _atom_site_type_symbol
 _atom_site_label
 _atom_site_symmetry_multiplicity
 _atom_site_fract_x
 _atom_site_fract_y
 _atom_site_fract_z
 _atom_site_occupancy
  Cd  Cd0  1  0.49999000  0.50001000  0.00000000  1.0
  H  H1  1  0.11514000  0.80257000  0.26613000  1.0
  H  H2  1  0.88487000  0.19742000  0.73387000  1.0
  H  H3  1  0.33116000  0.12725000  0.41775000  1.0
  H  H4  1  0.66886000  0.87275000  0.58225000  1.0
  H  H5  1  0.25736000  0.04089000  0.66472000  1.0
  H  H6  1  0.74264000  0.95910000  0.33528000  1.0
  H  H7  1  0.48590000  0.20812000  0.57683000  1.0
  H  H8  1  0.51411000  0.79186000  0.42319000  1.0
  C  C9  1  0.99290000  0.74815000  0.91177000  1.0
  C  C10  1  0.00709000  0.25187000  0.08823000  1.0
  C  C11  1  0.05850000  0.66984000  0.37146000  1.0
  C  C12  1  0.94151000  0.33015000  0.62855000  1.0
  C  C13  1  0.14905000  0.33603000  0.52726000  1.0
  C  C14  1  0.85096000  0.66397000  0.47275000  1.0
  C  C15  1  0.31422000  0.16656000  0.54933000  1.0
  C  C16  1  0.68579000  0.83343000  0.45068000  1.0
  S  S17  1  0.73552000  0.84078000  0.94362000  1.0
  S  S18  1  0.26445000  0.15924000  0.05637000  1.0
  N  N19  1  0.18021000  0.68382000  0.88529000  1.0
  N  N20  1  0.81976000  0.31621000  0.11472000  1.0
  N  N21  1  0.20619000  0.51034000  0.39694000  1.0
  N  N22  1  0.79383000  0.48965000  0.60307000  1.0
  O  O23  1  0.40554000  0.52402000  0.30387000  1.0
  O  O24  1  0.59447000  0.47596000  0.69614000  1.0
