# generated using pymatgen
data_CaH10(C3O4)2
_symmetry_space_group_name_H-M   'P 1'
_cell_length_a   11.18510000
_cell_length_b   11.21920000
_cell_length_c   12.97500000
_cell_angle_alpha   76.02460000
_cell_angle_beta   75.98110000
_cell_angle_gamma   61.45170000
_symmetry_Int_Tables_number   1
_chemical_formula_structural   CaH10(C3O4)2
_chemical_formula_sum   'Ca6 H60 C36 O48'
_cell_volume   1372.45526514
_cell_formula_units_Z   6
loop_
 _symmetry_equiv_pos_site_id
 _symmetry_equiv_pos_as_xyz
  1  'x, y, z'
loop_
 _atom_site_type_symbol
 _atom_site_label
 _atom_site_symmetry_multiplicity
 _atom_site_fract_x
 _atom_site_fract_y
 _atom_site_fract_z
 _atom_site_occupancy
  Ca  Ca0  1  0.53671000  0.73274000  0.97485000  1.0
  Ca  Ca1  1  0.26722000  0.46385000  0.52508000  1.0
  Ca  Ca2  1  0.46329000  0.26726000  0.02515000  1.0
  Ca  Ca3  1  0.73278000  0.53615000  0.47492000  1.0
  Ca  Ca4  1  0.00000000  0.50000000  0.00000000  1.0
  Ca  Ca5  1  0.50000000  0.00000000  0.50000000  1.0
  H  H6  1  0.75414000  0.19182000  0.12671000  1.0
  H  H7  1  0.80775000  0.24562000  0.37337000  1.0
  H  H8  1  0.24586000  0.80818000  0.87329000  1.0
  H  H9  1  0.19225000  0.75438000  0.62663000  1.0
  H  H10  1  0.96452000  0.75033000  0.17937000  1.0
  H  H11  1  0.25073000  0.03520000  0.32068000  1.0
  H  H12  1  0.03548000  0.24966000  0.82063000  1.0
  H  H13  1  0.74927000  0.96480000  0.67933000  1.0
  H  H14  1  0.19626000  0.98306000  0.08745000  1.0
  H  H15  1  0.01647000  0.80497000  0.41244000  1.0
  H  H16  1  0.80374000  0.01694000  0.91255000  1.0
  H  H17  1  0.98353000  0.19503000  0.58756000  1.0
  H  H18  1  0.60003000  0.97243000  0.89629000  1.0
  H  H19  1  0.02743000  0.39968000  0.60368000  1.0
  H  H20  1  0.39997000  0.02757000  0.10371000  1.0
  H  H21  1  0.97257000  0.60032000  0.39632000  1.0
  H  H22  1  0.74588000  0.84266000  0.91611000  1.0
  H  H23  1  0.15768000  0.25425000  0.58387000  1.0
  H  H24  1  0.25412000  0.15734000  0.08389000  1.0
  H  H25  1  0.84232000  0.74575000  0.41613000  1.0
  H  H26  1  0.71405000  0.45406000  0.09234000  1.0
  H  H27  1  0.54600000  0.28600000  0.40769000  1.0
  H  H28  1  0.28595000  0.54594000  0.90766000  1.0
  H  H29  1  0.45400000  0.71400000  0.59231000  1.0
  H  H30  1  0.55931000  0.48051000  0.12735000  1.0
  H  H31  1  0.52016000  0.44033000  0.37252000  1.0
  H  H32  1  0.44068000  0.51949000  0.87265000  1.0
  H  H33  1  0.47984000  0.55967000  0.62748000  1.0
  H  H34  1  0.57435000  0.85267000  0.14672000  1.0
  H  H35  1  0.14761000  0.42564000  0.35308000  1.0
  H  H36  1  0.42565000  0.14733000  0.85328000  1.0
  H  H37  1  0.85239000  0.57436000  0.64692000  1.0
  H  H38  1  0.44415000  0.82577000  0.19462000  1.0
  H  H39  1  0.17427000  0.55575000  0.30524000  1.0
  H  H40  1  0.55585000  0.17424000  0.80538000  1.0
  H  H41  1  0.82573000  0.44425000  0.69476000  1.0
  H  H42  1  0.52937000  0.64202000  0.75955000  1.0
  H  H43  1  0.35775000  0.47086000  0.74041000  1.0
  H  H44  1  0.47063000  0.35798000  0.24045000  1.0
  H  H45  1  0.64225000  0.52914000  0.25959000  1.0
  H  H46  1  0.62945000  0.51949000  0.83330000  1.0
  H  H47  1  0.48046000  0.37067000  0.66666667  1.0
  H  H48  1  0.37055000  0.48051000  0.16670000  1.0
  H  H49  1  0.51954000  0.62933000  0.33333333  1.0
  H  H50  1  0.81420000  0.63665000  0.83147000  1.0
  H  H51  1  0.36302000  0.18599000  0.66843000  1.0
  H  H52  1  0.18580000  0.36335000  0.16853000  1.0
  H  H53  1  0.63698000  0.81401000  0.33157000  1.0
  H  H54  1  0.80455000  0.49986000  0.88519000  1.0
  H  H55  1  0.50021000  0.19539000  0.61476000  1.0
  H  H56  1  0.19545000  0.50014000  0.11481000  1.0
  H  H57  1  0.49979000  0.80461000  0.38524000  1.0
  H  H58  1  0.10762000  0.47086000  0.76462000  1.0
  H  H59  1  0.52897000  0.89260000  0.73535000  1.0
  H  H60  1  0.89238000  0.52914000  0.23538000  1.0
  H  H61  1  0.47103000  0.10740000  0.26465000  1.0
  H  H62  1  0.17750000  0.31757000  0.82526000  1.0
  H  H63  1  0.68256000  0.82250000  0.67459000  1.0
  H  H64  1  0.82250000  0.68243000  0.17474000  1.0
  H  H65  1  0.31744000  0.17750000  0.32541000  1.0
  C  C66  1  0.97561000  0.10277000  0.10899000  1.0
  C  C67  1  0.89684000  0.02485000  0.39099000  1.0
  C  C68  1  0.02439000  0.89723000  0.89101000  1.0
  C  C69  1  0.10316000  0.97515000  0.60901000  1.0
  C  C70  1  0.84934000  0.09723000  0.13118000  1.0
  C  C71  1  0.90254000  0.15063000  0.36889000  1.0
  C  C72  1  0.15066000  0.90277000  0.86882000  1.0
  C  C73  1  0.09746000  0.84937000  0.63111000  1.0
  C  C74  1  0.84436000  0.97103000  0.15507000  1.0
  C  C75  1  0.02923000  0.15545000  0.34500000  1.0
  C  C76  1  0.15564000  0.02897000  0.84493000  1.0
  C  C77  1  0.97077000  0.84456000  0.65500000  1.0
  C  C78  1  0.96695000  0.84912000  0.16010000  1.0
  C  C79  1  0.15150000  0.03300000  0.33997000  1.0
  C  C80  1  0.03305000  0.15088000  0.83990000  1.0
  C  C81  1  0.84850000  0.96700000  0.66003000  1.0
  C  C82  1  0.09357000  0.85357000  0.13495000  1.0
  C  C83  1  0.14668000  0.90687000  0.36514000  1.0
  C  C84  1  0.90643000  0.14643000  0.86505000  1.0
  C  C85  1  0.85332000  0.09313000  0.63486000  1.0
  C  C86  1  0.09719000  0.98045000  0.10928000  1.0
  C  C87  1  0.01932000  0.90360000  0.39069000  1.0
  C  C88  1  0.90281000  0.01955000  0.89072000  1.0
  C  C89  1  0.98068000  0.09640000  0.60931000  1.0
  C  C90  1  0.98149000  0.23775000  0.07626000  1.0
  C  C91  1  0.76167000  0.01873000  0.42364000  1.0
  C  C92  1  0.01851000  0.76225000  0.92374000  1.0
  C  C93  1  0.23833000  0.98127000  0.57636000  1.0
  C  C94  1  0.70889000  0.96870000  0.16741000  1.0
  C  C95  1  0.03148000  0.29067000  0.33254000  1.0
  C  C96  1  0.29111000  0.03130000  0.83259000  1.0
  C  C97  1  0.96852000  0.70933000  0.66746000  1.0
  C  C98  1  0.22581000  0.72488000  0.12606000  1.0
  C  C99  1  0.27515000  0.77445000  0.37394000  1.0
  C  C100  1  0.77419000  0.27511000  0.87394000  1.0
  C  C101  1  0.72485000  0.22555000  0.62606000  1.0
  O  O102  1  0.87212000  0.34817000  0.06097000  1.0
  O  O103  1  0.65083000  0.12771000  0.43903000  1.0
  O  O104  1  0.12788000  0.65183000  0.93903000  1.0
  O  O105  1  0.34916000  0.87229000  0.56097000  1.0
  O  O106  1  0.09670000  0.24159000  0.05983000  1.0
  O  O107  1  0.75816000  0.90373000  0.43986000  1.0
  O  O108  1  0.90330000  0.75841000  0.94017000  1.0
  O  O109  1  0.24184000  0.09627000  0.56014000  1.0
  O  O110  1  0.33168000  0.73302000  0.07122000  1.0
  O  O111  1  0.26640000  0.66906000  0.42855000  1.0
  O  O112  1  0.66833000  0.26698000  0.92878000  1.0
  O  O113  1  0.73360000  0.33095000  0.57145000  1.0
  O  O114  1  0.22400000  0.61040000  0.17407000  1.0
  O  O115  1  0.39021000  0.77565000  0.32583000  1.0
  O  O116  1  0.77601000  0.38960000  0.82593000  1.0
  O  O117  1  0.60979000  0.22435000  0.67417000  1.0
  O  O118  1  0.60318000  0.08217000  0.15101000  1.0
  O  O119  1  0.91765000  0.39615000  0.34893000  1.0
  O  O120  1  0.39682000  0.91783000  0.84899000  1.0
  O  O121  1  0.08235000  0.60385000  0.65107000  1.0
  O  O122  1  0.70434000  0.85261000  0.19323000  1.0
  O  O123  1  0.14787000  0.29535000  0.30654000  1.0
  O  O124  1  0.29567000  0.14739000  0.80677000  1.0
  O  O125  1  0.85213000  0.70466000  0.69346000  1.0
  O  O126  1  0.65018000  0.87078000  0.90528000  1.0
  O  O127  1  0.12943000  0.34972000  0.59450000  1.0
  O  O128  1  0.34982000  0.12922000  0.09472000  1.0
  O  O129  1  0.87057000  0.65028000  0.40550000  1.0
  O  O130  1  0.61924000  0.52809000  0.10934000  1.0
  O  O131  1  0.47220000  0.38078000  0.39068000  1.0
  O  O132  1  0.38076000  0.47191000  0.89066000  1.0
  O  O133  1  0.52780000  0.61922000  0.60931000  1.0
  O  O134  1  0.49470000  0.85095000  0.12535000  1.0
  O  O135  1  0.14921000  0.50510000  0.37444000  1.0
  O  O136  1  0.50530000  0.14905000  0.87466000  1.0
  O  O137  1  0.85079000  0.49490000  0.62556000  1.0
  O  O138  1  0.54031000  0.60809000  0.83601000  1.0
  O  O139  1  0.39188000  0.45990000  0.66394000  1.0
  O  O140  1  0.45969000  0.39191000  0.16399000  1.0
  O  O141  1  0.60812000  0.54010000  0.33606000  1.0
  O  O142  1  0.79743000  0.58464000  0.90250000  1.0
  O  O143  1  0.41509000  0.20280000  0.59739000  1.0
  O  O144  1  0.20257000  0.41536000  0.09750000  1.0
  O  O145  1  0.58491000  0.79720000  0.40261000  1.0
  O  O146  1  0.12060000  0.41477000  0.83640000  1.0
  O  O147  1  0.58511000  0.87963000  0.66346000  1.0
  O  O148  1  0.87940000  0.58523000  0.16360000  1.0
  O  O149  1  0.41489000  0.12037000  0.33654000  1.0
