# generated using pymatgen
data_SmH16C15O11
_symmetry_space_group_name_H-M   'P 1'
_cell_length_a   7.58072000
_cell_length_b   9.45738000
_cell_length_c   13.05180000
_cell_angle_alpha   103.07000000
_cell_angle_beta   99.40820000
_cell_angle_gamma   107.58700000
_symmetry_Int_Tables_number   1
_chemical_formula_structural   SmH16C15O11
_chemical_formula_sum   'Sm2 H32 C30 O22'
_cell_volume   841.38043104
_cell_formula_units_Z   2
loop_
 _symmetry_equiv_pos_site_id
 _symmetry_equiv_pos_as_xyz
  1  'x, y, z'
loop_
 _atom_site_type_symbol
 _atom_site_label
 _atom_site_symmetry_multiplicity
 _atom_site_fract_x
 _atom_site_fract_y
 _atom_site_fract_z
 _atom_site_occupancy
  Sm  Sm0  1  0.85150000  0.28361000  0.48732000  1.0
  Sm  Sm1  1  0.14851000  0.71640000  0.51268000  1.0
  H  H2  1  0.41990000  0.28070000  0.32269000  1.0
  H  H3  1  0.58009000  0.71931000  0.67732000  1.0
  H  H4  1  0.22304000  0.25464000  0.21900000  1.0
  H  H5  1  0.77695000  0.74536000  0.78101000  1.0
  H  H6  1  0.14281000  0.29724000  0.08580000  1.0
  H  H7  1  0.85719000  0.70275000  0.91420000  1.0
  H  H8  1  0.07321000  0.38032000  0.92593000  1.0
  H  H9  1  0.92678000  0.61967000  0.07407000  1.0
  H  H10  1  0.54922000  0.81058000  0.07096000  1.0
  H  H11  1  0.45077000  0.18941000  0.92903000  1.0
  H  H12  1  0.61364000  0.72655000  0.23892000  1.0
  H  H13  1  0.38634000  0.27346000  0.76108000  1.0
  H  H14  1  0.01817000  0.51145000  0.79908000  1.0
  H  H15  1  0.98181000  0.48855000  0.20091000  1.0
  H  H16  1  0.20507000  0.43733000  0.78382000  1.0
  H  H17  1  0.79492000  0.56268000  0.21618000  1.0
  H  H18  1  0.97235000  0.94978000  0.69513000  1.0
  H  H19  1  0.02764000  0.05021000  0.30486000  1.0
  H  H20  1  0.14287000  0.13229000  0.78011000  1.0
  H  H21  1  0.85714000  0.86770000  0.21988000  1.0
  H  H22  1  0.16067000  0.95081000  0.85102000  1.0
  H  H23  1  0.83936000  0.04920000  0.14899000  1.0
  H  H24  1  0.73659000  0.10426000  0.97882000  1.0
  H  H25  1  0.26344000  0.89574000  0.02119000  1.0
  H  H26  1  0.61046000  0.94796000  0.34477000  1.0
  H  H27  1  0.38954000  0.05206000  0.65523000  1.0
  H  H28  1  0.80278000  0.93026000  0.40816000  1.0
  H  H29  1  0.19722000  0.06974000  0.59184000  1.0
  H  H30  1  0.42451000  0.10524000  0.49889000  1.0
  H  H31  1  0.57549000  0.89476000  0.50111000  1.0
  H  H32  1  0.50706000  0.28584000  0.52463000  1.0
  H  H33  1  0.49293000  0.71415000  0.47537000  1.0
  C  C34  1  0.23099000  0.39237000  0.37639000  1.0
  C  C35  1  0.76901000  0.60764000  0.62361000  1.0
  C  C36  1  0.33058000  0.34078000  0.29038000  1.0
  C  C37  1  0.66942000  0.65922000  0.70963000  1.0
  C  C38  1  0.38673000  0.50692000  0.17361000  1.0
  C  C39  1  0.61327000  0.49308000  0.82639000  1.0
  C  C40  1  0.23326000  0.41100000  0.08578000  1.0
  C  C41  1  0.76674000  0.58899000  0.91422000  1.0
  C  C42  1  0.19470000  0.45788000  0.99269000  1.0
  C  C43  1  0.80529000  0.54211000  0.00731000  1.0
  C  C44  1  0.31044000  0.60054000  0.98651000  1.0
  C  C45  1  0.68955000  0.39946000  0.01349000  1.0
  C  C46  1  0.45966000  0.69955000  0.07651000  1.0
  C  C47  1  0.54033000  0.30045000  0.92349000  1.0
  C  C48  1  0.49569000  0.65320000  0.16898000  1.0
  C  C49  1  0.50429000  0.34680000  0.83101000  1.0
  C  C50  1  0.17085000  0.54421000  0.79831000  1.0
  C  C51  1  0.82913000  0.45579000  0.20168000  1.0
  C  C52  1  0.19451000  0.60587000  0.70208000  1.0
  C  C53  1  0.80548000  0.39414000  0.29792000  1.0
  C  C54  1  0.94084000  0.14710000  0.65451000  1.0
  C  C55  1  0.05917000  0.85289000  0.34549000  1.0
  C  C56  1  0.99055000  0.07023000  0.73814000  1.0
  C  C57  1  0.00946000  0.92976000  0.26185000  1.0
  C  C58  1  0.94117000  0.03390000  0.90419000  1.0
  C  C59  1  0.05886000  0.96610000  0.09582000  1.0
  C  C60  1  0.09105000  0.97580000  0.91599000  1.0
  C  C61  1  0.90898000  0.02420000  0.08402000  1.0
  C  C62  1  0.85018000  0.05663000  0.98793000  1.0
  C  C63  1  0.14985000  0.94337000  0.01209000  1.0
  O  O64  1  0.10333000  0.28605000  0.39552000  1.0
  O  O65  1  0.89667000  0.71396000  0.60448000  1.0
  O  O66  1  0.28153000  0.53658000  0.42356000  1.0
  O  O67  1  0.71846000  0.46343000  0.57644000  1.0
  O  O68  1  0.45176000  0.46771000  0.26442000  1.0
  O  O69  1  0.54823000  0.53229000  0.73558000  1.0
  O  O70  1  0.29034000  0.65446000  0.89698000  1.0
  O  O71  1  0.70964000  0.34555000  0.10302000  1.0
  O  O72  1  0.28291000  0.74557000  0.71006000  1.0
  O  O73  1  0.71708000  0.25442000  0.28995000  1.0
  O  O74  1  0.10892000  0.50527000  0.60772000  1.0
  O  O75  1  0.89108000  0.49474000  0.39228000  1.0
  O  O76  1  0.04847000  0.15912000  0.58718000  1.0
  O  O77  1  0.95153000  0.84087000  0.41281000  1.0
  O  O78  1  0.80383000  0.19681000  0.64890000  1.0
  O  O79  1  0.19619000  0.80320000  0.35111000  1.0
  O  O80  1  0.87722000  0.07419000  0.81406000  1.0
  O  O81  1  0.12281000  0.92580000  0.18595000  1.0
  O  O82  1  0.71353000  0.99269000  0.41106000  1.0
  O  O83  1  0.28648000  0.00731000  0.58894000  1.0
  O  O84  1  0.49468000  0.18865000  0.47144000  1.0
  O  O85  1  0.50533000  0.81135000  0.52857000  1.0
