# generated using pymatgen
data_ZnH6C25(N2O5)2
_symmetry_space_group_name_H-M   'P 1'
_cell_length_a   13.20480000
_cell_length_b   14.43630000
_cell_length_c   28.06670000
_cell_angle_alpha   90.00000000
_cell_angle_beta   90.00010000
_cell_angle_gamma   89.97600000
_symmetry_Int_Tables_number   1
_chemical_formula_structural   ZnH6C25(N2O5)2
_chemical_formula_sum   'Zn2 H12 C50 N8 O20'
_cell_volume   5350.31116723
_cell_formula_units_Z   2
loop_
 _symmetry_equiv_pos_site_id
 _symmetry_equiv_pos_as_xyz
  1  'x, y, z'
loop_
 _atom_site_type_symbol
 _atom_site_label
 _atom_site_symmetry_multiplicity
 _atom_site_fract_x
 _atom_site_fract_y
 _atom_site_fract_z
 _atom_site_occupancy
  Zn  Zn0  1  0.39444000  0.50002000  0.50000000  1.0
  Zn  Zn1  1  0.60556000  0.49998000  0.50000000  1.0
  H  H2  1  0.33784000  0.51533000  0.65271000  1.0
  H  H3  1  0.33793000  0.48399000  0.34729000  1.0
  H  H4  1  0.66216000  0.48467000  0.65271000  1.0
  H  H5  1  0.66207000  0.51601000  0.34729000  1.0
  H  H6  1  0.47678000  0.73203000  0.87784000  1.0
  H  H7  1  0.47810000  0.26789000  0.12217000  1.0
  H  H8  1  0.52321000  0.26796000  0.87784000  1.0
  H  H9  1  0.52189000  0.73211000  0.12217000  1.0
  H  H10  1  0.51756000  0.73463000  0.03403000  1.0
  H  H11  1  0.51908000  0.26544000  0.96598000  1.0
  H  H12  1  0.48244000  0.26536000  0.03403000  1.0
  H  H13  1  0.48091000  0.73456000  0.96598000  1.0
  C  C14  1  0.49998000  0.67975000  0.50000000  1.0
  C  C15  1  0.50002000  0.32025000  0.50000000  1.0
  C  C16  1  0.50000000  0.50000000  0.59304000  1.0
  C  C17  1  0.50000000  0.50000000  0.40696000  1.0
  C  C18  1  0.49022000  0.58675000  0.82068000  1.0
  C  C19  1  0.49068000  0.41322000  0.17933000  1.0
  C  C20  1  0.50978000  0.41325000  0.82068000  1.0
  C  C21  1  0.50932000  0.58678000  0.17933000  1.0
  C  C22  1  0.59012000  0.49296000  0.72122000  1.0
  C  C23  1  0.59008000  0.50748000  0.27878000  1.0
  C  C24  1  0.40988000  0.50704000  0.72122000  1.0
  C  C25  1  0.40993000  0.49252000  0.27878000  1.0
  C  C26  1  0.59079000  0.49175000  0.67170000  1.0
  C  C27  1  0.59074000  0.50864000  0.32831000  1.0
  C  C28  1  0.40920000  0.50825000  0.67170000  1.0
  C  C29  1  0.40926000  0.49135000  0.32831000  1.0
  C  C30  1  0.50000000  0.50000000  0.74744000  1.0
  C  C31  1  0.50000000  0.50000000  0.25256000  1.0
  C  C32  1  0.50000000  0.50000000  0.89814000  1.0
  C  C33  1  0.50000000  0.50000000  0.10186000  1.0
  C  C34  1  0.49202000  0.58497000  0.87310000  1.0
  C  C35  1  0.49245000  0.41501000  0.12691000  1.0
  C  C36  1  0.50797000  0.41502000  0.87310000  1.0
  C  C37  1  0.50755000  0.58499000  0.12691000  1.0
  C  C38  1  0.48442000  0.66786000  0.89798000  1.0
  C  C39  1  0.48536000  0.33210000  0.10203000  1.0
  C  C40  1  0.51558000  0.33214000  0.89798000  1.0
  C  C41  1  0.51464000  0.66790000  0.10203000  1.0
  C  C42  1  0.50000000  0.50000000  0.64663000  1.0
  C  C43  1  0.50000000  0.50000000  0.35337000  1.0
  C  C44  1  0.50293000  0.58635000  0.02601000  1.0
  C  C45  1  0.50354000  0.41367000  0.97400000  1.0
  C  C46  1  0.49707000  0.41365000  0.02601000  1.0
  C  C47  1  0.49646000  0.58633000  0.97400000  1.0
  C  C48  1  0.50000000  0.50000000  0.05091000  1.0
  C  C49  1  0.50000000  0.50000000  0.94910000  1.0
  C  C50  1  0.51183000  0.66835000  0.05232000  1.0
  C  C51  1  0.51296000  0.33169000  0.94769000  1.0
  C  C52  1  0.48817000  0.33164000  0.05232000  1.0
  C  C53  1  0.48704000  0.66831000  0.94769000  1.0
  C  C54  1  0.49995000  0.77949000  0.49999000  1.0
  C  C55  1  0.50005000  0.22051000  0.49999000  1.0
  C  C56  1  0.49995000  0.86446000  0.49999000  1.0
  C  C57  1  0.50005000  0.13554000  0.49999000  1.0
  C  C58  1  0.49998000  0.95728000  0.49999000  1.0
  C  C59  1  0.50002000  0.04272000  0.49998000  1.0
  C  C60  1  0.85130000  0.49998000  0.50000000  1.0
  C  C61  1  0.14869000  0.50002000  0.50000000  1.0
  C  C62  1  0.95376000  0.50000000  0.50000000  1.0
  C  C63  1  0.04623000  0.50001000  0.50000000  1.0
  N  N64  1  0.50000000  0.50000000  0.79822000  1.0
  N  N65  1  0.50000000  0.50000000  0.20179000  1.0
  N  N66  1  0.76299000  0.49997000  0.50000000  1.0
  N  N67  1  0.23701000  0.50003000  0.50000000  1.0
  N  N68  1  0.31016000  0.51422000  0.74524000  1.0
  N  N69  1  0.31024000  0.48491000  0.25477000  1.0
  N  N70  1  0.68984000  0.48578000  0.74524000  1.0
  N  N71  1  0.68976000  0.51509000  0.25477000  1.0
  O  O72  1  0.41348000  0.64057000  0.49950000  1.0
  O  O73  1  0.58651000  0.35943000  0.49950000  1.0
  O  O74  1  0.41350000  0.35944000  0.50050000  1.0
  O  O75  1  0.58650000  0.64056000  0.50050000  1.0
  O  O76  1  0.41390000  0.50114000  0.57272000  1.0
  O  O77  1  0.58610000  0.50114000  0.42729000  1.0
  O  O78  1  0.41390000  0.49886000  0.42729000  1.0
  O  O79  1  0.58610000  0.49887000  0.57272000  1.0
  O  O80  1  0.48053000  0.65736000  0.79655000  1.0
  O  O81  1  0.48141000  0.34256000  0.20346000  1.0
  O  O82  1  0.51946000  0.34263000  0.79655000  1.0
  O  O83  1  0.51860000  0.65744000  0.20346000  1.0
  O  O84  1  0.24378000  0.55821000  0.72385000  1.0
  O  O85  1  0.29923000  0.47505000  0.78411000  1.0
  O  O86  1  0.24409000  0.44071000  0.27618000  1.0
  O  O87  1  0.29910000  0.52399000  0.21588000  1.0
  O  O88  1  0.75621000  0.44179000  0.72385000  1.0
  O  O89  1  0.70076000  0.52495000  0.78412000  1.0
  O  O90  1  0.75591000  0.55929000  0.27618000  1.0
  O  O91  1  0.70090000  0.47601000  0.21588000  1.0
