# generated using pymatgen
data_ZnH17C27NO4
_symmetry_space_group_name_H-M   'P 1'
_cell_length_a   9.65471000
_cell_length_b   11.40860000
_cell_length_c   15.86930000
_cell_angle_alpha   89.96330000
_cell_angle_beta   77.22020000
_cell_angle_gamma   72.77670000
_symmetry_Int_Tables_number   1
_chemical_formula_structural   ZnH17C27NO4
_chemical_formula_sum   'Zn2 H34 C54 N2 O8'
_cell_volume   1624.25872435
_cell_formula_units_Z   2
loop_
 _symmetry_equiv_pos_site_id
 _symmetry_equiv_pos_as_xyz
  1  'x, y, z'
loop_
 _atom_site_type_symbol
 _atom_site_label
 _atom_site_symmetry_multiplicity
 _atom_site_fract_x
 _atom_site_fract_y
 _atom_site_fract_z
 _atom_site_occupancy
  Zn  Zn0  1  0.16187000  0.96911000  0.97783000  1.0
  Zn  Zn1  1  0.83814000  0.03089000  0.02218000  1.0
  H  H2  1  0.19329000  0.27824000  0.13851000  1.0
  H  H3  1  0.18764000  0.40331000  0.26759000  1.0
  H  H4  1  0.78374000  0.33252000  0.40130000  1.0
  H  H5  1  0.78660000  0.21287000  0.26944000  1.0
  H  H6  1  0.05653000  0.69774000  0.49545000  1.0
  H  H7  1  0.37629000  0.11019000  0.97852000  1.0
  H  H8  1  0.60850000  0.12827000  0.87868000  1.0
  H  H9  1  0.80560000  0.05501000  0.74770000  1.0
  H  H10  1  0.60820000  0.81551000  0.72487000  1.0
  H  H11  1  0.38360000  0.80596000  0.83443000  1.0
  H  H12  1  0.26703000  0.61040000  0.32460000  1.0
  H  H13  1  0.81336000  0.77796000  0.21018000  1.0
  H  H14  1  0.80392000  0.65358000  0.33985000  1.0
  H  H15  1  0.27855000  0.72501000  0.19062000  1.0
  H  H16  1  0.71782000  0.90056000  0.62107000  1.0
  H  H17  1  0.82228000  0.89318000  0.47443000  1.0
  H  H18  1  0.99829000  0.06790000  0.64954000  1.0
  H  H19  1  0.80669000  0.72176000  0.86149000  1.0
  H  H20  1  0.81235000  0.59669000  0.73242000  1.0
  H  H21  1  0.21626000  0.66747000  0.59871000  1.0
  H  H22  1  0.21340000  0.78712000  0.73056000  1.0
  H  H23  1  0.94345000  0.30226000  0.50456000  1.0
  H  H24  1  0.62371000  0.88982000  0.02148000  1.0
  H  H25  1  0.39151000  0.87173000  0.12132000  1.0
  H  H26  1  0.19441000  0.94499000  0.25230000  1.0
  H  H27  1  0.39180000  0.18449000  0.27513000  1.0
  H  H28  1  0.61639000  0.19405000  0.16556000  1.0
  H  H29  1  0.73297000  0.38959000  0.67540000  1.0
  H  H30  1  0.18664000  0.22204000  0.78982000  1.0
  H  H31  1  0.19607000  0.34642000  0.66015000  1.0
  H  H32  1  0.72145000  0.27498000  0.80938000  1.0
  H  H33  1  0.28221000  0.09943000  0.37892000  1.0
  H  H34  1  0.17773000  0.10683000  0.52557000  1.0
  H  H35  1  0.00172000  0.93211000  0.35046000  1.0
  C  C36  1  0.99724000  0.15963000  0.11846000  1.0
  C  C37  1  0.98970000  0.23876000  0.19556000  1.0
  C  C38  1  0.10228000  0.29275000  0.19578000  1.0
  C  C39  1  0.09916000  0.36194000  0.26849000  1.0
  C  C40  1  0.98532000  0.37689000  0.34396000  1.0
  C  C41  1  0.87311000  0.32184000  0.34340000  1.0
  C  C42  1  0.87409000  0.25508000  0.26974000  1.0
  C  C43  1  0.98842000  0.44380000  0.42304000  1.0
  C  C44  1  0.03559000  0.60879000  0.49719000  1.0
  C  C45  1  0.02345000  0.55590000  0.42078000  1.0
  C  C46  1  0.43316000  0.04666000  0.92160000  1.0
  C  C47  1  0.55955000  0.05788000  0.86477000  1.0
  C  C48  1  0.62406000  0.97795000  0.78949000  1.0
  C  C49  1  0.74740000  0.99667000  0.72545000  1.0
  C  C50  1  0.56027000  0.88406000  0.77944000  1.0
  C  C51  1  0.43684000  0.87654000  0.84042000  1.0
  C  C52  1  0.03443000  0.62460000  0.34131000  1.0
  C  C53  1  0.16744000  0.64658000  0.29934000  1.0
  C  C54  1  0.04753000  0.83710000  0.11597000  1.0
  C  C55  1  0.04625000  0.75962000  0.19255000  1.0
  C  C56  1  0.91258000  0.73920000  0.23515000  1.0
  C  C57  1  0.90746000  0.67093000  0.30771000  1.0
  C  C58  1  0.17407000  0.71120000  0.22467000  1.0
  C  C59  1  0.78328000  0.95427000  0.64129000  1.0
  C  C60  1  0.89536000  0.97746000  0.57162000  1.0
  C  C61  1  0.90057000  0.94030000  0.48568000  1.0
  C  C62  1  0.99809000  0.03774000  0.58441000  1.0
  C  C63  1  0.00276000  0.84037000  0.88154000  1.0
  C  C64  1  0.01029000  0.76125000  0.80444000  1.0
  C  C65  1  0.89770000  0.70726000  0.80423000  1.0
  C  C66  1  0.90083000  0.63806000  0.73152000  1.0
  C  C67  1  0.01466000  0.62311000  0.65605000  1.0
  C  C68  1  0.12688000  0.67815000  0.65660000  1.0
  C  C69  1  0.12591000  0.74491000  0.73026000  1.0
  C  C70  1  0.01156000  0.55621000  0.57696000  1.0
  C  C71  1  0.96439000  0.39121000  0.50281000  1.0
  C  C72  1  0.97653000  0.44410000  0.57922000  1.0
  C  C73  1  0.56684000  0.95334000  0.07839000  1.0
  C  C74  1  0.44046000  0.94212000  0.13522000  1.0
  C  C75  1  0.37594000  0.02204000  0.21051000  1.0
  C  C76  1  0.25262000  0.00333000  0.27455000  1.0
  C  C77  1  0.43973000  0.11595000  0.22056000  1.0
  C  C78  1  0.56316000  0.12346000  0.15958000  1.0
  C  C79  1  0.96556000  0.37540000  0.65869000  1.0
  C  C80  1  0.83256000  0.35341000  0.70066000  1.0
  C  C81  1  0.95247000  0.16289000  0.88404000  1.0
  C  C82  1  0.95375000  0.24038000  0.80745000  1.0
  C  C83  1  0.08742000  0.26080000  0.76485000  1.0
  C  C84  1  0.09254000  0.32907000  0.69229000  1.0
  C  C85  1  0.82593000  0.28880000  0.77533000  1.0
  C  C86  1  0.21675000  0.04572000  0.35871000  1.0
  C  C87  1  0.10466000  0.02254000  0.42838000  1.0
  C  C88  1  0.09945000  0.05971000  0.51432000  1.0
  C  C89  1  0.00192000  0.96226000  0.41558000  1.0
  N  N90  1  0.37204000  0.95758000  0.91012000  1.0
  N  N91  1  0.62796000  0.04242000  0.08988000  1.0
  O  O92  1  0.17269000  0.84677000  0.07413000  1.0
  O  O93  1  0.92173000  0.88993000  0.09995000  1.0
  O  O94  1  0.87458000  0.14991000  0.10694000  1.0
  O  O95  1  0.12667000  0.10606000  0.07178000  1.0
  O  O96  1  0.82731000  0.15323000  0.92588000  1.0
  O  O97  1  0.07827000  0.11007000  0.90006000  1.0
  O  O98  1  0.12542000  0.85009000  0.89306000  1.0
  O  O99  1  0.87333000  0.89395000  0.92823000  1.0
