# generated using pymatgen
data_CuH7C10IN2
_symmetry_space_group_name_H-M   'P 1'
_cell_length_a   9.30666000
_cell_length_b   9.30665000
_cell_length_c   11.59360000
_cell_angle_alpha   90.72590000
_cell_angle_beta   90.72600000
_cell_angle_gamma   103.83100000
_symmetry_Int_Tables_number   1
_chemical_formula_structural   CuH7C10IN2
_chemical_formula_sum   'Cu4 H28 C40 I4 N8'
_cell_volume   974.84463664
_cell_formula_units_Z   4
loop_
 _symmetry_equiv_pos_site_id
 _symmetry_equiv_pos_as_xyz
  1  'x, y, z'
loop_
 _atom_site_type_symbol
 _atom_site_label
 _atom_site_symmetry_multiplicity
 _atom_site_fract_x
 _atom_site_fract_y
 _atom_site_fract_z
 _atom_site_occupancy
  Cu  Cu0  1  0.13020000  0.50947000  0.04628000  1.0
  Cu  Cu1  1  0.49053000  0.86980000  0.45372000  1.0
  Cu  Cu2  1  0.86981000  0.49053000  0.95372000  1.0
  Cu  Cu3  1  0.50946000  0.13020000  0.54628000  1.0
  H  H4  1  0.14018000  0.28067000  0.85321000  1.0
  H  H5  1  0.71933000  0.85983000  0.64679000  1.0
  H  H6  1  0.85983000  0.71933000  0.14679000  1.0
  H  H7  1  0.28066000  0.14018000  0.35321000  1.0
  H  H8  1  0.29450000  0.09642000  0.81483000  1.0
  H  H9  1  0.90358000  0.70550000  0.68517000  1.0
  H  H10  1  0.70550000  0.90357000  0.18517000  1.0
  H  H11  1  0.09642000  0.29450000  0.31483000  1.0
  H  H12  1  0.50640000  0.09513000  0.94867000  1.0
  H  H13  1  0.90486000  0.49360000  0.55134000  1.0
  H  H14  1  0.49360000  0.90486000  0.05134000  1.0
  H  H15  1  0.09513000  0.50640000  0.44866000  1.0
  H  H16  1  0.55890000  0.27301000  0.11509000  1.0
  H  H17  1  0.72698000  0.44110000  0.38491000  1.0
  H  H18  1  0.44110000  0.72698000  0.88491000  1.0
  H  H19  1  0.27301000  0.55890000  0.61509000  1.0
  H  H20  1  0.57987000  0.42013000  0.25000000  1.0
  H  H21  1  0.42013000  0.57987000  0.75000000  1.0
  H  H22  1  0.24680000  0.82964000  0.06872000  1.0
  H  H23  1  0.17038000  0.75320000  0.43128000  1.0
  H  H24  1  0.75320000  0.17038000  0.93127000  1.0
  H  H25  1  0.82964000  0.24680000  0.56872000  1.0
  H  H26  1  0.08797000  0.00871000  0.07131000  1.0
  H  H27  1  0.99130000  0.91202000  0.42870000  1.0
  H  H28  1  0.91202000  0.99130000  0.92869000  1.0
  H  H29  1  0.00871000  0.08797000  0.57131000  1.0
  H  H30  1  0.95418000  0.04582000  0.25000000  1.0
  H  H31  1  0.04582000  0.95418000  0.75000000  1.0
  C  C32  1  0.23257000  0.27329000  0.90970000  1.0
  C  C33  1  0.72671000  0.76743000  0.59030000  1.0
  C  C34  1  0.76743000  0.72671000  0.09030000  1.0
  C  C35  1  0.27329000  0.23257000  0.40970000  1.0
  C  C36  1  0.31820000  0.17210000  0.88891000  1.0
  C  C37  1  0.82789000  0.68181000  0.61108000  1.0
  C  C38  1  0.68181000  0.82789000  0.11108000  1.0
  C  C39  1  0.17210000  0.31820000  0.38891000  1.0
  C  C40  1  0.43613000  0.17135000  0.96414000  1.0
  C  C41  1  0.82865000  0.56387000  0.53587000  1.0
  C  C42  1  0.56387000  0.82865000  0.03586000  1.0
  C  C43  1  0.17134000  0.43613000  0.46414000  1.0
  C  C44  1  0.46543000  0.27091000  0.05700000  1.0
  C  C45  1  0.72909000  0.53458000  0.44301000  1.0
  C  C46  1  0.53458000  0.72909000  0.94300000  1.0
  C  C47  1  0.27090000  0.46543000  0.55700000  1.0
  C  C48  1  0.37398000  0.36924000  0.07213000  1.0
  C  C49  1  0.63076000  0.62602000  0.42788000  1.0
  C  C50  1  0.62602000  0.63076000  0.92787000  1.0
  C  C51  1  0.36924000  0.37398000  0.57213000  1.0
  C  C52  1  0.39610000  0.48191000  0.16503000  1.0
  C  C53  1  0.51809000  0.60390000  0.33497000  1.0
  C  C54  1  0.60390000  0.51809000  0.83497000  1.0
  C  C55  1  0.48191000  0.39610000  0.66503000  1.0
  C  C56  1  0.50564000  0.49436000  0.25000000  1.0
  C  C57  1  0.49436000  0.50563000  0.75000000  1.0
  C  C58  1  0.32106000  0.67895000  0.25000000  1.0
  C  C59  1  0.67894000  0.32106000  0.74999000  1.0
  C  C60  1  0.21996000  0.78005000  0.25000000  1.0
  C  C61  1  0.78005000  0.21996000  0.75000000  1.0
  C  C62  1  0.19447000  0.85120000  0.14847000  1.0
  C  C63  1  0.14881000  0.80553000  0.35153000  1.0
  C  C64  1  0.80553000  0.14881000  0.85153000  1.0
  C  C65  1  0.85120000  0.19447000  0.64846000  1.0
  C  C66  1  0.10281000  0.94986000  0.14959000  1.0
  C  C67  1  0.05014000  0.89718000  0.35042000  1.0
  C  C68  1  0.89718000  0.05015000  0.85042000  1.0
  C  C69  1  0.94986000  0.10281000  0.64959000  1.0
  C  C70  1  0.02866000  0.97134000  0.25000000  1.0
  C  C71  1  0.97134000  0.02865000  0.75000000  1.0
  I  I72  1  0.89637000  0.36460000  0.14962000  1.0
  I  I73  1  0.63541000  0.10363000  0.35038000  1.0
  I  I74  1  0.10364000  0.63540000  0.85037000  1.0
  I  I75  1  0.36460000  0.89637000  0.64963000  1.0
  N  N76  1  0.30274000  0.57479000  0.16538000  1.0
  N  N77  1  0.42522000  0.69727000  0.33462000  1.0
  N  N78  1  0.69727000  0.42522000  0.83461000  1.0
  N  N79  1  0.57478000  0.30273000  0.66538000  1.0
  N  N80  1  0.25848000  0.36798000  0.99973000  1.0
  N  N81  1  0.63202000  0.74152000  0.50027000  1.0
  N  N82  1  0.74153000  0.63202000  0.00026000  1.0
  N  N83  1  0.36797000  0.25848000  0.49973000  1.0
