# generated using pymatgen
data_ZnCu2H12(C3N2)4
_symmetry_space_group_name_H-M   'P 1'
_cell_length_a   6.06137000
_cell_length_b   10.98640000
_cell_length_c   10.98660000
_cell_angle_alpha   89.99990000
_cell_angle_beta   90.00000000
_cell_angle_gamma   89.99990000
_symmetry_Int_Tables_number   1
_chemical_formula_structural   ZnCu2H12(C3N2)4
_chemical_formula_sum   'Zn2 Cu4 H24 C24 N16'
_cell_volume   731.62664773
_cell_formula_units_Z   2
loop_
 _symmetry_equiv_pos_site_id
 _symmetry_equiv_pos_as_xyz
  1  'x, y, z'
loop_
 _atom_site_type_symbol
 _atom_site_label
 _atom_site_symmetry_multiplicity
 _atom_site_fract_x
 _atom_site_fract_y
 _atom_site_fract_z
 _atom_site_occupancy
  Zn  Zn0  1  0.49999000  0.00000000  1.00000000  1.0
  Zn  Zn1  1  0.00001000  0.50000000  0.50000000  1.0
  Cu  Cu2  1  0.85012000  0.50000000  0.00000000  1.0
  Cu  Cu3  1  0.14990000  0.00000000  0.50000000  1.0
  Cu  Cu4  1  0.64987000  0.00000000  0.50000000  1.0
  Cu  Cu5  1  0.35012000  0.50000000  1.00000000  1.0
  H  H6  1  0.57960000  0.72252000  0.90021000  1.0
  H  H7  1  0.57961000  0.27749000  0.09979000  1.0
  H  H8  1  0.42039000  0.09979000  0.72251000  1.0
  H  H9  1  0.42040000  0.90021000  0.27749000  1.0
  H  H10  1  0.92038000  0.77750000  0.40021000  1.0
  H  H11  1  0.92038000  0.22251000  0.59979000  1.0
  H  H12  1  0.07962000  0.40019000  0.22251000  1.0
  H  H13  1  0.07962000  0.59980000  0.77749000  1.0
  H  H14  1  0.88063000  0.92296000  0.18194000  1.0
  H  H15  1  0.88063000  0.07704000  0.81807000  1.0
  H  H16  1  0.11936000  0.81806000  0.92296000  1.0
  H  H17  1  0.11936000  0.18194000  0.07704000  1.0
  H  H18  1  0.61939000  0.57703000  0.68193000  1.0
  H  H19  1  0.61939000  0.42297000  0.31807000  1.0
  H  H20  1  0.38062000  0.68193000  0.42296000  1.0
  H  H21  1  0.38062000  0.31807000  0.57703000  1.0
  H  H22  1  0.06463000  0.69245000  0.17503000  1.0
  H  H23  1  0.06463000  0.30755000  0.82497000  1.0
  H  H24  1  0.93536000  0.82497000  0.69245000  1.0
  H  H25  1  0.93536000  0.17503000  0.30755000  1.0
  H  H26  1  0.43537000  0.80754000  0.67503000  1.0
  H  H27  1  0.43537000  0.19246000  0.32497000  1.0
  H  H28  1  0.56463000  0.67502000  0.19245000  1.0
  H  H29  1  0.56463000  0.32497000  0.80754000  1.0
  C  C30  1  0.68621000  0.74512000  0.97627000  1.0
  C  C31  1  0.68621000  0.25488000  0.02373000  1.0
  C  C32  1  0.31379000  0.02373000  0.74512000  1.0
  C  C33  1  0.31379000  0.97627000  0.25488000  1.0
  C  C34  1  0.81378000  0.75489000  0.47626000  1.0
  C  C35  1  0.81378000  0.24511000  0.52374000  1.0
  C  C36  1  0.18621000  0.47626000  0.24511000  1.0
  C  C37  1  0.18622000  0.52374000  0.75489000  1.0
  C  C38  1  0.84388000  0.84634000  0.12310000  1.0
  C  C39  1  0.84388000  0.15367000  0.87690000  1.0
  C  C40  1  0.15611000  0.87690000  0.84633000  1.0
  C  C41  1  0.15611000  0.12310000  0.15367000  1.0
  C  C42  1  0.65613000  0.65366000  0.62310000  1.0
  C  C43  1  0.65613000  0.34634000  0.37690000  1.0
  C  C44  1  0.34387000  0.62309000  0.34633000  1.0
  C  C45  1  0.34388000  0.37690000  0.65366000  1.0
  C  C46  1  0.93598000  0.73183000  0.11923000  1.0
  C  C47  1  0.93598000  0.26817000  0.88077000  1.0
  C  C48  1  0.06402000  0.88077000  0.73183000  1.0
  C  C49  1  0.06402000  0.11923000  0.26817000  1.0
  C  C50  1  0.56403000  0.76816000  0.61923000  1.0
  C  C51  1  0.56403000  0.23184000  0.38077000  1.0
  C  C52  1  0.43598000  0.61922000  0.23183000  1.0
  C  C53  1  0.43598000  0.38077000  0.76816000  1.0
  N  N54  1  0.68636000  0.85391000  0.03261000  1.0
  N  N55  1  0.68636000  0.14609000  0.96739000  1.0
  N  N56  1  0.31363000  0.96739000  0.85391000  1.0
  N  N57  1  0.31363000  0.03261000  0.14609000  1.0
  N  N58  1  0.81364000  0.64609000  0.53260000  1.0
  N  N59  1  0.81364000  0.35391000  0.46740000  1.0
  N  N60  1  0.18637000  0.53259000  0.35390000  1.0
  N  N61  1  0.18637000  0.46740000  0.64609000  1.0
  N  N62  1  0.83512000  0.66747000  0.02584000  1.0
  N  N63  1  0.83512000  0.33253000  0.97416000  1.0
  N  N64  1  0.16488000  0.97416000  0.66747000  1.0
  N  N65  1  0.16489000  0.02584000  0.33253000  1.0
  N  N66  1  0.66488000  0.83253000  0.52584000  1.0
  N  N67  1  0.66488000  0.16747000  0.47416000  1.0
  N  N68  1  0.33512000  0.52583000  0.16747000  1.0
  N  N69  1  0.33512000  0.47416000  0.83253000  1.0
