# generated using pymatgen
data_CdH21C31N9O4
_symmetry_space_group_name_H-M   'P 1'
_cell_length_a   8.37896000
_cell_length_b   12.09410000
_cell_length_c   17.06270000
_cell_angle_alpha   75.61390000
_cell_angle_beta   84.24890000
_cell_angle_gamma   81.92220000
_symmetry_Int_Tables_number   1
_chemical_formula_structural   CdH21C31N9O4
_chemical_formula_sum   'Cd2 H42 C62 N18 O8'
_cell_volume   1654.38260309
_cell_formula_units_Z   2
loop_
 _symmetry_equiv_pos_site_id
 _symmetry_equiv_pos_as_xyz
  1  'x, y, z'
loop_
 _atom_site_type_symbol
 _atom_site_label
 _atom_site_symmetry_multiplicity
 _atom_site_fract_x
 _atom_site_fract_y
 _atom_site_fract_z
 _atom_site_occupancy
  Cd  Cd0  1  0.80451000  0.44006000  0.56200000  1.0
  Cd  Cd1  1  0.19549000  0.55994000  0.43800000  1.0
  H  H2  1  0.92040000  0.24437000  0.93555000  1.0
  H  H3  1  0.07960000  0.75563000  0.06445000  1.0
  H  H4  1  0.67380000  0.31947000  0.32634000  1.0
  H  H5  1  0.32621000  0.68052000  0.67366000  1.0
  H  H6  1  0.72695000  0.27625000  0.18929000  1.0
  H  H7  1  0.27305000  0.72374000  0.81071000  1.0
  H  H8  1  0.13483000  0.46837000  0.14336000  1.0
  H  H9  1  0.86516000  0.53163000  0.85664000  1.0
  H  H10  1  0.07691000  0.51594000  0.27761000  1.0
  H  H11  1  0.92309000  0.48406000  0.72239000  1.0
  H  H12  1  0.37678000  0.42261000  0.95590000  1.0
  H  H13  1  0.62321000  0.57740000  0.04410000  1.0
  H  H14  1  0.59008000  0.44261000  0.84061000  1.0
  H  H15  1  0.40991000  0.55740000  0.15939000  1.0
  H  H16  1  0.32844000  0.26234000  0.71918000  1.0
  H  H17  1  0.67156000  0.73767000  0.28081000  1.0
  H  H18  1  0.11933000  0.23620000  0.83449000  1.0
  H  H19  1  0.88067000  0.76382000  0.16550000  1.0
  H  H20  1  0.94873000  0.21919000  0.47331000  1.0
  H  H21  1  0.05127000  0.78081000  0.52669000  1.0
  H  H22  1  0.06000000  0.25439000  0.69947000  1.0
  H  H23  1  0.94001000  0.74560000  0.30053000  1.0
  H  H24  1  0.25748000  0.06614000  0.66466000  1.0
  H  H25  1  0.74251000  0.93385000  0.33534000  1.0
  H  H26  1  0.28699000  0.81922000  0.28607000  1.0
  H  H27  1  0.71301000  0.18078000  0.71394000  1.0
  H  H28  1  0.10270000  0.16876000  0.27115000  1.0
  H  H29  1  0.89730000  0.83124000  0.72885000  1.0
  H  H30  1  0.04937000  0.10883000  0.13150000  1.0
  H  H31  1  0.95064000  0.89117000  0.86849000  1.0
  H  H32  1  0.54238000  0.83489000  0.64716000  1.0
  H  H33  1  0.45761000  0.16511000  0.35284000  1.0
  H  H34  1  0.55040000  0.67183000  0.45208000  1.0
  H  H35  1  0.44960000  0.32817000  0.54791000  1.0
  H  H36  1  0.74787000  0.63238000  0.67688000  1.0
  H  H37  1  0.25214000  0.36763000  0.32312000  1.0
  H  H38  1  0.08225000  0.12215000  0.40069000  1.0
  H  H39  1  0.91775000  0.87785000  0.59931000  1.0
  H  H40  1  0.43007000  0.82877000  0.38333000  1.0
  H  H41  1  0.56994000  0.17123000  0.61667000  1.0
  H  H42  1  0.32917000  0.92879000  0.61070000  1.0
  H  H43  1  0.67081000  0.07120000  0.38930000  1.0
  C  C44  1  0.84753000  0.43731000  0.39569000  1.0
  C  C45  1  0.15247000  0.56269000  0.60432000  1.0
  C  C46  1  0.87463000  0.41707000  0.31206000  1.0
  C  C47  1  0.12537000  0.58293000  0.68794000  1.0
  C  C48  1  0.77548000  0.35064000  0.28605000  1.0
  C  C49  1  0.22453000  0.64935000  0.71396000  1.0
  C  C50  1  0.80471000  0.32701000  0.20980000  1.0
  C  C51  1  0.19529000  0.67298000  0.79020000  1.0
  C  C52  1  0.93611000  0.36817000  0.15823000  1.0
  C  C53  1  0.06389000  0.63182000  0.84177000  1.0
  C  C54  1  0.03395000  0.43587000  0.18390000  1.0
  C  C55  1  0.96604000  0.56413000  0.81610000  1.0
  C  C56  1  0.00192000  0.46150000  0.25934000  1.0
  C  C57  1  0.99808000  0.53850000  0.74066000  1.0
  C  C58  1  0.97519000  0.34152000  0.07907000  1.0
  C  C59  1  0.02481000  0.65848000  0.92093000  1.0
  C  C60  1  0.10983000  0.32446000  0.96907000  1.0
  C  C61  1  0.89017000  0.67554000  0.03093000  1.0
  C  C62  1  0.23417000  0.32930000  0.90258000  1.0
  C  C63  1  0.76582000  0.67071000  0.09742000  1.0
  C  C64  1  0.36871000  0.38624000  0.90428000  1.0
  C  C65  1  0.63128000  0.61377000  0.09572000  1.0
  C  C66  1  0.48641000  0.39744000  0.84043000  1.0
  C  C67  1  0.51359000  0.60257000  0.15958000  1.0
  C  C68  1  0.47139000  0.35362000  0.77315000  1.0
  C  C69  1  0.52861000  0.64639000  0.22685000  1.0
  C  C70  1  0.33897000  0.29509000  0.77216000  1.0
  C  C71  1  0.66102000  0.70493000  0.22784000  1.0
  C  C72  1  0.22190000  0.28189000  0.83643000  1.0
  C  C73  1  0.77810000  0.71812000  0.16357000  1.0
  C  C74  1  0.59299000  0.37252000  0.70209000  1.0
  C  C75  1  0.40701000  0.62749000  0.29791000  1.0
  C  C76  1  0.00761000  0.20424000  0.52927000  1.0
  C  C77  1  0.99239000  0.79576000  0.47073000  1.0
  C  C78  1  0.06802000  0.21822000  0.64703000  1.0
  C  C79  1  0.93199000  0.78177000  0.35297000  1.0
  C  C80  1  0.16562000  0.12489000  0.63045000  1.0
  C  C81  1  0.83437000  0.87510000  0.36955000  1.0
  C  C82  1  0.23170000  0.90540000  0.26020000  1.0
  C  C83  1  0.76830000  0.09459000  0.73979000  1.0
  C  C84  1  0.13087000  0.08737000  0.25407000  1.0
  C  C85  1  0.86914000  0.91263000  0.74593000  1.0
  C  C86  1  0.10722000  0.05590000  0.18453000  1.0
  C  C87  1  0.89279000  0.94411000  0.81547000  1.0
  C  C88  1  0.57320000  0.77117000  0.61188000  1.0
  C  C89  1  0.42679000  0.22884000  0.38812000  1.0
  C  C90  1  0.58053000  0.68902000  0.50815000  1.0
  C  C91  1  0.41947000  0.31098000  0.49185000  1.0
  C  C92  1  0.67702000  0.67181000  0.62534000  1.0
  C  C93  1  0.32299000  0.32819000  0.37466000  1.0
  C  C94  1  0.20206000  0.03634000  0.50999000  1.0
  C  C95  1  0.79793000  0.96366000  0.49001000  1.0
  C  C96  1  0.16924000  0.05198000  0.42906000  1.0
  C  C97  1  0.83076000  0.94802000  0.57094000  1.0
  C  C98  1  0.24967000  0.97609000  0.38416000  1.0
  C  C99  1  0.75034000  0.02391000  0.61584000  1.0
  C  C100  1  0.36651000  0.88717000  0.41863000  1.0
  C  C101  1  0.63350000  0.11283000  0.58137000  1.0
  C  C102  1  0.39487000  0.87134000  0.50022000  1.0
  C  C103  1  0.60512000  0.12866000  0.49978000  1.0
  C  C104  1  0.31049000  0.94401000  0.54673000  1.0
  C  C105  1  0.68950000  0.05599000  0.45327000  1.0
  N  N106  1  0.11691000  0.36414000  0.03478000  1.0
  N  N107  1  0.88308000  0.63587000  0.96522000  1.0
  N  N108  1  0.96645000  0.28040000  0.97483000  1.0
  N  N109  1  0.03355000  0.71959000  0.02517000  1.0
  N  N110  1  0.87888000  0.29012000  0.04438000  1.0
  N  N111  1  0.12112000  0.70988000  0.95562000  1.0
  N  N112  1  0.97068000  0.26634000  0.58365000  1.0
  N  N113  1  0.02932000  0.73366000  0.41635000  1.0
  N  N114  1  0.12703000  0.11634000  0.55466000  1.0
  N  N115  1  0.87296000  0.88365000  0.44534000  1.0
  N  N116  1  0.16940000  0.94224000  0.18911000  1.0
  N  N117  1  0.83060000  0.05776000  0.81089000  1.0
  N  N118  1  0.21210000  0.99029000  0.30310000  1.0
  N  N119  1  0.78790000  0.00971000  0.69690000  1.0
  N  N120  1  0.68055000  0.62186000  0.56027000  1.0
  N  N121  1  0.31945000  0.37814000  0.43973000  1.0
  N  N122  1  0.51196000  0.78252000  0.53696000  1.0
  N  N123  1  0.48803000  0.21748000  0.46304000  1.0
  O  O124  1  0.73831000  0.38788000  0.44392000  1.0
  O  O125  1  0.26169000  0.61212000  0.55608000  1.0
  O  O126  1  0.93675000  0.49964000  0.41828000  1.0
  O  O127  1  0.06326000  0.50035000  0.58172000  1.0
  O  O128  1  0.56292000  0.34803000  0.63666000  1.0
  O  O129  1  0.43709000  0.65197000  0.36335000  1.0
  O  O130  1  0.72252000  0.41206000  0.70885000  1.0
  O  O131  1  0.27748000  0.58795000  0.29115000  1.0
