# generated using pymatgen
data_CoH36C52S(N4O3)2
_symmetry_space_group_name_H-M   'P 1'
_cell_length_a   12.43670000
_cell_length_b   13.87880000
_cell_length_c   14.47630000
_cell_angle_alpha   90.07940000
_cell_angle_beta   108.17270000
_cell_angle_gamma   98.48110000
_symmetry_Int_Tables_number   1
_chemical_formula_structural   CoH36C52S(N4O3)2
_chemical_formula_sum   'Co2 H72 C104 S2 N16 O12'
_cell_volume   2345.12139165
_cell_formula_units_Z   2
loop_
 _symmetry_equiv_pos_site_id
 _symmetry_equiv_pos_as_xyz
  1  'x, y, z'
loop_
 _atom_site_type_symbol
 _atom_site_label
 _atom_site_symmetry_multiplicity
 _atom_site_fract_x
 _atom_site_fract_y
 _atom_site_fract_z
 _atom_site_occupancy
  Co  Co0  1  0.24388000  0.70904000  0.86273000  1.0
  Co  Co1  1  0.75614000  0.29095000  0.13728000  1.0
  H  H2  1  0.45411000  0.41250000  0.82579000  1.0
  H  H3  1  0.54587000  0.58744000  0.17421000  1.0
  H  H4  1  0.25038000  0.61332000  0.06973000  1.0
  H  H5  1  0.74964000  0.38669000  0.93027000  1.0
  H  H6  1  0.18756000  0.48749000  0.55283000  1.0
  H  H7  1  0.81241000  0.51251000  0.44722000  1.0
  H  H8  1  0.51202000  0.13308000  0.49975000  1.0
  H  H9  1  0.48797000  0.86694000  0.50023000  1.0
  H  H10  1  0.17568000  0.98607000  0.59491000  1.0
  H  H11  1  0.82432000  0.01391000  0.40507000  1.0
  H  H12  1  0.27200000  0.61997000  0.65693000  1.0
  H  H13  1  0.72805000  0.38005000  0.34313000  1.0
  H  H14  1  0.23714000  0.82751000  0.65866000  1.0
  H  H15  1  0.76283000  0.17249000  0.34130000  1.0
  H  H16  1  0.54005000  0.03683000  0.64720000  1.0
  H  H17  1  0.45995000  0.96317000  0.35277000  1.0
  H  H18  1  0.41423000  0.54932000  0.94765000  1.0
  H  H19  1  0.58580000  0.45061000  0.05239000  1.0
  H  H20  1  0.80312000  0.76827000  0.06760000  1.0
  H  H21  1  0.19691000  0.23174000  0.93242000  1.0
  H  H22  1  0.03423000  0.56539000  0.47250000  1.0
  H  H23  1  0.96581000  0.43460000  0.52749000  1.0
  H  H24  1  0.41140000  0.42370000  0.31334000  1.0
  H  H25  1  0.58857000  0.57633000  0.68671000  1.0
  H  H26  1  0.04279000  0.35559000  0.91419000  1.0
  H  H27  1  0.95723000  0.64442000  0.08583000  1.0
  H  H28  1  0.54526000  0.78238000  0.26850000  1.0
  H  H29  1  0.45471000  0.21763000  0.73148000  1.0
  H  H30  1  0.05493000  0.50465000  0.78596000  1.0
  H  H31  1  0.94506000  0.49535000  0.21404000  1.0
  H  H32  1  0.75758000  0.81716000  0.34667000  1.0
  H  H33  1  0.24239000  0.18285000  0.65334000  1.0
  H  H34  1  0.03346000  0.83710000  0.61623000  1.0
  H  H35  1  0.96657000  0.16285000  0.38381000  1.0
  H  H36  1  0.14794000  0.08283000  0.44682000  1.0
  H  H37  1  0.85204000  0.91717000  0.55317000  1.0
  H  H38  1  0.46643000  0.89388000  0.94146000  1.0
  H  H39  1  0.53358000  0.10608000  0.05850000  1.0
  H  H40  1  0.98384000  0.64013000  0.31338000  1.0
  H  H41  1  0.01614000  0.35988000  0.68662000  1.0
  H  H42  1  0.16415000  0.39230000  0.40253000  1.0
  H  H43  1  0.83579000  0.60772000  0.59750000  1.0
  H  H44  1  0.24853000  0.80658000  0.06991000  1.0
  H  H45  1  0.75150000  0.19343000  0.93009000  1.0
  H  H46  1  0.51527000  0.39436000  0.68599000  1.0
  H  H47  1  0.48471000  0.60566000  0.31400000  1.0
  H  H48  1  0.48654000  0.29256000  0.53849000  1.0
  H  H49  1  0.51341000  0.70746000  0.46148000  1.0
  H  H50  1  0.35111000  0.50831000  0.15955000  1.0
  H  H51  1  0.64889000  0.49172000  0.84050000  1.0
  H  H52  1  0.09145000  0.88691000  0.78389000  1.0
  H  H53  1  0.90858000  0.11310000  0.21609000  1.0
  H  H54  1  0.31114000  0.11800000  0.05365000  1.0
  H  H55  1  0.68886000  0.88200000  0.94634000  1.0
  H  H56  1  0.08860000  0.23053000  0.22477000  1.0
  H  H57  1  0.91140000  0.76946000  0.77520000  1.0
  H  H58  1  0.98083000  0.91360000  0.45329000  1.0
  H  H59  1  0.01914000  0.08638000  0.54677000  1.0
  H  H60  1  0.02401000  0.31987000  0.07573000  1.0
  H  H61  1  0.97602000  0.68013000  0.92424000  1.0
  H  H62  1  0.10705000  0.04064000  0.91296000  1.0
  H  H63  1  0.89293000  0.95936000  0.08702000  1.0
  H  H64  1  0.36787000  0.21757000  0.20793000  1.0
  H  H65  1  0.63213000  0.78245000  0.79205000  1.0
  H  H66  1  0.51255000  0.04061000  0.82097000  1.0
  H  H67  1  0.48748000  0.95935000  0.17899000  1.0
  H  H68  1  0.58837000  0.73343000  0.99073000  1.0
  H  H69  1  0.41166000  0.26657000  0.00928000  1.0
  H  H70  1  0.14249000  0.88608000  0.17961000  1.0
  H  H71  1  0.85748000  0.11394000  0.82037000  1.0
  H  H72  1  0.19929000  0.98376000  0.33343000  1.0
  H  H73  1  0.80069000  0.01627000  0.66655000  1.0
  C  C74  1  0.41344000  0.47690000  0.81041000  1.0
  C  C75  1  0.58656000  0.52306000  0.18961000  1.0
  C  C76  1  0.19616000  0.56360000  0.00940000  1.0
  C  C77  1  0.80385000  0.43642000  0.99060000  1.0
  C  C78  1  0.18454000  0.41880000  0.10678000  1.0
  C  C79  1  0.81547000  0.58122000  0.89323000  1.0
  C  C80  1  0.25577000  0.31941000  0.27912000  1.0
  C  C81  1  0.74421000  0.68061000  0.72088000  1.0
  C  C82  1  0.32083000  0.33098000  0.46048000  1.0
  C  C83  1  0.67912000  0.66903000  0.53952000  1.0
  C  C84  1  0.25478000  0.44715000  0.54852000  1.0
  C  C85  1  0.74518000  0.55285000  0.45151000  1.0
  C  C86  1  0.43773000  0.10207000  0.52073000  1.0
  C  C87  1  0.56226000  0.89795000  0.47925000  1.0
  C  C88  1  0.29723000  0.26835000  0.37113000  1.0
  C  C89  1  0.70273000  0.73165000  0.62887000  1.0
  C  C90  1  0.35290000  0.44755000  0.62904000  1.0
  C  C91  1  0.64707000  0.55245000  0.37097000  1.0
  C  C92  1  0.28365000  0.11043000  0.28180000  1.0
  C  C93  1  0.71635000  0.88959000  0.71818000  1.0
  C  C94  1  0.24882000  0.01721000  0.57256000  1.0
  C  C95  1  0.75117000  0.98278000  0.42741000  1.0
  C  C96  1  0.35919000  0.00501000  0.62957000  1.0
  C  C97  1  0.64081000  0.99498000  0.37040000  1.0
  C  C98  1  0.03831000  0.69710000  0.55495000  1.0
  C  C99  1  0.96172000  0.30287000  0.44507000  1.0
  C  C100  1  0.55530000  0.75838000  0.12519000  1.0
  C  C101  1  0.44470000  0.24162000  0.87480000  1.0
  C  C102  1  0.31562000  0.58360000  0.72062000  1.0
  C  C103  1  0.68441000  0.41640000  0.27943000  1.0
  C  C104  1  0.30570000  0.86395000  0.72009000  1.0
  C  C105  1  0.69430000  0.13603000  0.27987000  1.0
  C  C106  1  0.45409000  0.04755000  0.60363000  1.0
  C  C107  1  0.54590000  0.95246000  0.39634000  1.0
  C  C108  1  0.32795000  0.11678000  0.46363000  1.0
  C  C109  1  0.67204000  0.88323000  0.53635000  1.0
  C  C110  1  0.79115000  0.79752000  0.21034000  1.0
  C  C111  1  0.20886000  0.20250000  0.78968000  1.0
  C  C112  1  0.39164000  0.54401000  0.86908000  1.0
  C  C113  1  0.60838000  0.45594000  0.13097000  1.0
  C  C114  1  0.74584000  0.77263000  0.11057000  1.0
  C  C115  1  0.25418000  0.22738000  0.88944000  1.0
  C  C116  1  0.02450000  0.64204000  0.46964000  1.0
  C  C117  1  0.97551000  0.35795000  0.53036000  1.0
  C  C118  1  0.30659000  0.17147000  0.37213000  1.0
  C  C119  1  0.69340000  0.82856000  0.62786000  1.0
  C  C120  1  0.06939000  0.64959000  0.65212000  1.0
  C  C121  1  0.93068000  0.35036000  0.34789000  1.0
  C  C122  1  0.32692000  0.40025000  0.26063000  1.0
  C  C123  1  0.67306000  0.59978000  0.73939000  1.0
  C  C124  1  0.21997000  0.99759000  0.10635000  1.0
  C  C125  1  0.78002000  0.00242000  0.89363000  1.0
  C  C126  1  0.97950000  0.78106000  0.37557000  1.0
  C  C127  1  0.02046000  0.21894000  0.62445000  1.0
  C  C128  1  0.08530000  0.43061000  0.92714000  1.0
  C  C129  1  0.91472000  0.56939000  0.07288000  1.0
  C  C130  1  0.60286000  0.78121000  0.22541000  1.0
  C  C131  1  0.39712000  0.21879000  0.77458000  1.0
  C  C132  1  0.09195000  0.50380000  0.86455000  1.0
  C  C133  1  0.90804000  0.49622000  0.13546000  1.0
  C  C134  1  0.72086000  0.80058000  0.26862000  1.0
  C  C135  1  0.27911000  0.19944000  0.73138000  1.0
  C  C136  1  0.02262000  0.79512000  0.54934000  1.0
  C  C137  1  0.97738000  0.20484000  0.45069000  1.0
  C  C138  1  0.23390000  0.07264000  0.49065000  1.0
  C  C139  1  0.76609000  0.92737000  0.50934000  1.0
  C  C140  1  0.42595000  0.90198000  0.86453000  1.0
  C  C141  1  0.57405000  0.09797000  0.13542000  1.0
  C  C142  1  0.99514000  0.68340000  0.37948000  1.0
  C  C143  1  0.00485000  0.31660000  0.62054000  1.0
  C  C144  1  0.24067000  0.39122000  0.46477000  1.0
  C  C145  1  0.75928000  0.60879000  0.53525000  1.0
  C  C146  1  0.20536000  0.84718000  0.00865000  1.0
  C  C147  1  0.79465000  0.15284000  0.99134000  1.0
  C  C148  1  0.43714000  0.39275000  0.62462000  1.0
  C  C149  1  0.56284000  0.60727000  0.37538000  1.0
  C  C150  1  0.42655000  0.73457000  0.08205000  1.0
  C  C151  1  0.57346000  0.26545000  0.91794000  1.0
  C  C152  1  0.42026000  0.33463000  0.54118000  1.0
  C  C153  1  0.57970000  0.66538000  0.45880000  1.0
  C  C154  1  0.29300000  0.44842000  0.17473000  1.0
  C  C155  1  0.70699000  0.55161000  0.82528000  1.0
  C  C156  1  0.12565000  0.89263000  0.86247000  1.0
  C  C157  1  0.87438000  0.10737000  0.13752000  1.0
  C  C158  1  0.28409000  0.09065000  0.11460000  1.0
  C  C159  1  0.71592000  0.90935000  0.88538000  1.0
  C  C160  1  0.14684000  0.29132000  0.21094000  1.0
  C  C161  1  0.85316000  0.70868000  0.78905000  1.0
  C  C162  1  0.99299000  0.83752000  0.45963000  1.0
  C  C163  1  0.00699000  0.16246000  0.54041000  1.0
  C  C164  1  0.11055000  0.34081000  0.12566000  1.0
  C  C165  1  0.88946000  0.65918000  0.87432000  1.0
  C  C166  1  0.13469000  0.97013000  0.92479000  1.0
  C  C167  1  0.86531000  0.02988000  0.07519000  1.0
  C  C168  1  0.31614000  0.14597000  0.20166000  1.0
  C  C169  1  0.68385000  0.85406000  0.79833000  1.0
  C  C170  1  0.45032000  0.97453000  0.80629000  1.0
  C  C171  1  0.54970000  0.02543000  0.19366000  1.0
  C  C172  1  0.62722000  0.75359000  0.06817000  1.0
  C  C173  1  0.37279000  0.24641000  0.93182000  1.0
  C  C174  1  0.19277000  0.95839000  0.18623000  1.0
  C  C175  1  0.80721000  0.04164000  0.81376000  1.0
  C  C176  1  0.22513000  0.01431000  0.27301000  1.0
  C  C177  1  0.77486000  0.98571000  0.72697000  1.0
  S  S178  1  0.94100000  0.83533000  0.26189000  1.0
  S  S179  1  0.05899000  0.16469000  0.73816000  1.0
  N  N180  1  0.17114000  0.81698000  0.91536000  1.0
  N  N181  1  0.82889000  0.18303000  0.08464000  1.0
  N  N182  1  0.18592000  0.94050000  0.01755000  1.0
  N  N183  1  0.81408000  0.05951000  0.98243000  1.0
  N  N184  1  0.16165000  0.58616000  0.91667000  1.0
  N  N185  1  0.83835000  0.41386000  0.08334000  1.0
  N  N186  1  0.15291000  0.46905000  0.01933000  1.0
  N  N187  1  0.84712000  0.53096000  0.98068000  1.0
  N  N188  1  0.33036000  0.60997000  0.81223000  1.0
  N  N189  1  0.66969000  0.39001000  0.18783000  1.0
  N  N190  1  0.33614000  0.83347000  0.80994000  1.0
  N  N191  1  0.66385000  0.16650000  0.19002000  1.0
  N  N192  1  0.37288000  0.94983000  0.71409000  1.0
  N  N193  1  0.62713000  0.05014000  0.28586000  1.0
  N  N194  1  0.36405000  0.50225000  0.71541000  1.0
  N  N195  1  0.63595000  0.49773000  0.28462000  1.0
  O  O196  1  0.38745000  0.72756000  0.98903000  1.0
  O  O197  1  0.61257000  0.27245000  0.01096000  1.0
  O  O198  1  0.11878000  0.70932000  0.72632000  1.0
  O  O199  1  0.88124000  0.29064000  0.27369000  1.0
  O  O200  1  0.04626000  0.55845000  0.65098000  1.0
  O  O201  1  0.95390000  0.44150000  0.34901000  1.0
  O  O202  1  0.96106000  0.94043000  0.28211000  1.0
  O  O203  1  0.03893000  0.05958000  0.71793000  1.0
  O  O204  1  0.99537000  0.79425000  0.19868000  1.0
  O  O205  1  0.00464000  0.20577000  0.80137000  1.0
  O  O206  1  0.36936000  0.72287000  0.14082000  1.0
  O  O207  1  0.63063000  0.27715000  0.85915000  1.0
