# generated using pymatgen
data_SrH8(C3O4)2
_symmetry_space_group_name_H-M   'P 1'
_cell_length_a   10.12660000
_cell_length_b   10.27910000
_cell_length_c   10.34600000
_cell_angle_alpha   90.00000000
_cell_angle_beta   90.00000000
_cell_angle_gamma   117.76500000
_symmetry_Int_Tables_number   1
_chemical_formula_structural   SrH8(C3O4)2
_chemical_formula_sum   'Sr4 H32 C24 O32'
_cell_volume   952.94664737
_cell_formula_units_Z   4
loop_
 _symmetry_equiv_pos_site_id
 _symmetry_equiv_pos_as_xyz
  1  'x, y, z'
loop_
 _atom_site_type_symbol
 _atom_site_label
 _atom_site_symmetry_multiplicity
 _atom_site_fract_x
 _atom_site_fract_y
 _atom_site_fract_z
 _atom_site_occupancy
  Sr  Sr0  1  0.99037000  0.35770000  0.15580000  1.0
  Sr  Sr1  1  0.50963000  0.64230000  0.65580000  1.0
  Sr  Sr2  1  0.00963000  0.64230000  0.84420000  1.0
  Sr  Sr3  1  0.49037000  0.35770000  0.34420000  1.0
  H  H4  1  0.10270000  0.45934000  0.58029000  1.0
  H  H5  1  0.39730000  0.54066000  0.08029000  1.0
  H  H6  1  0.89730000  0.54066000  0.41971000  1.0
  H  H7  1  0.60270000  0.45934000  0.91971000  1.0
  H  H8  1  0.25147000  0.67806000  0.45195000  1.0
  H  H9  1  0.24853000  0.32194000  0.95195000  1.0
  H  H10  1  0.74853000  0.32194000  0.54805000  1.0
  H  H11  1  0.75147000  0.67806000  0.04805000  1.0
  H  H12  1  0.95027000  0.91401000  0.12737000  1.0
  H  H13  1  0.54973000  0.08599000  0.62737000  1.0
  H  H14  1  0.04973000  0.08599000  0.87263000  1.0
  H  H15  1  0.45027000  0.91401000  0.37263000  1.0
  H  H16  1  0.74276000  0.91176000  0.98777000  1.0
  H  H17  1  0.75724000  0.08824000  0.48777000  1.0
  H  H18  1  0.25724000  0.08824000  0.01223000  1.0
  H  H19  1  0.24276000  0.91176000  0.51223000  1.0
  H  H20  1  0.14241000  0.13212000  0.17822000  1.0
  H  H21  1  0.35759000  0.86788000  0.67822000  1.0
  H  H22  1  0.85759000  0.86788000  0.82178000  1.0
  H  H23  1  0.64241000  0.13212000  0.32178000  1.0
  H  H24  1  0.84114000  0.13253000  0.88997000  1.0
  H  H25  1  0.65886000  0.86748000  0.38997000  1.0
  H  H26  1  0.15886000  0.86748000  0.11003000  1.0
  H  H27  1  0.34114000  0.13253000  0.61003000  1.0
  H  H28  1  0.14024000  0.70466000  0.28402000  1.0
  H  H29  1  0.35976000  0.29534000  0.78402000  1.0
  H  H30  1  0.85976000  0.29534000  0.71598000  1.0
  H  H31  1  0.64024000  0.70466000  0.21598000  1.0
  H  H32  1  0.01693000  0.26709000  0.45281000  1.0
  H  H33  1  0.48307000  0.73291000  0.95281000  1.0
  H  H34  1  0.98307000  0.73291000  0.54719000  1.0
  H  H35  1  0.51693000  0.26709000  0.04719000  1.0
  C  C36  1  0.05606000  0.47125000  0.48773000  1.0
  C  C37  1  0.44394000  0.52875000  0.98773000  1.0
  C  C38  1  0.94394000  0.52875000  0.51227000  1.0
  C  C39  1  0.55606000  0.47125000  0.01227000  1.0
  C  C40  1  0.18383000  0.57534000  0.39910000  1.0
  C  C41  1  0.31617000  0.42466000  0.89910000  1.0
  C  C42  1  0.81617000  0.42466000  0.60090000  1.0
  C  C43  1  0.68383000  0.57534000  0.10090000  1.0
  C  C44  1  0.27903000  0.49952000  0.36923000  1.0
  C  C45  1  0.22096000  0.50048000  0.86923000  1.0
  C  C46  1  0.72097000  0.50048000  0.63076000  1.0
  C  C47  1  0.77903000  0.49952000  0.13076000  1.0
  C  C48  1  0.96724000  0.00797000  0.06527000  1.0
  C  C49  1  0.53276000  0.99203000  0.56527000  1.0
  C  C50  1  0.03276000  0.99203000  0.93473000  1.0
  C  C51  1  0.46724000  0.00797000  0.43473000  1.0
  C  C52  1  0.81602000  0.00804000  0.04614000  1.0
  C  C53  1  0.68398000  0.99196000  0.54614000  1.0
  C  C54  1  0.18398000  0.99196000  0.95386000  1.0
  C  C55  1  0.31602000  0.00804000  0.45386000  1.0
  C  C56  1  0.74211000  0.99702000  0.17788000  1.0
  C  C57  1  0.75789000  0.00298000  0.67788000  1.0
  C  C58  1  0.25789000  0.00298000  0.82212000  1.0
  C  C59  1  0.24210000  0.99702000  0.32212000  1.0
  O  O60  1  0.97413000  0.32979000  0.42493000  1.0
  O  O61  1  0.52587000  0.67021000  0.92493000  1.0
  O  O62  1  0.02587000  0.67021000  0.57507000  1.0
  O  O63  1  0.47413000  0.32979000  0.07507000  1.0
  O  O64  1  0.12529000  0.60131000  0.28257000  1.0
  O  O65  1  0.37470000  0.39869000  0.78257000  1.0
  O  O66  1  0.87471000  0.39869000  0.71743000  1.0
  O  O67  1  0.62529000  0.60131000  0.21743000  1.0
  O  O68  1  0.37225000  0.50717000  0.45556000  1.0
  O  O69  1  0.12775000  0.49283000  0.95556000  1.0
  O  O70  1  0.62775000  0.49283000  0.54444000  1.0
  O  O71  1  0.87225000  0.50717000  0.04444000  1.0
  O  O72  1  0.25547000  0.42589000  0.26593000  1.0
  O  O73  1  0.24453000  0.57411000  0.76593000  1.0
  O  O74  1  0.74453000  0.57411000  0.73407000  1.0
  O  O75  1  0.75547000  0.42589000  0.23407000  1.0
  O  O76  1  0.06480000  0.14404000  0.12596000  1.0
  O  O77  1  0.43521000  0.85596000  0.62596000  1.0
  O  O78  1  0.93521000  0.85596000  0.87404000  1.0
  O  O79  1  0.56479000  0.14403000  0.37404000  1.0
  O  O80  1  0.83815000  0.14192000  0.98635000  1.0
  O  O81  1  0.66185000  0.85808000  0.48635000  1.0
  O  O82  1  0.16185000  0.85808000  0.01365000  1.0
  O  O83  1  0.33815000  0.14192000  0.51365000  1.0
  O  O84  1  0.76410000  0.11675000  0.23092000  1.0
  O  O85  1  0.73590000  0.88325000  0.73092000  1.0
  O  O86  1  0.23590000  0.88325000  0.76908000  1.0
  O  O87  1  0.26410000  0.11675000  0.26908000  1.0
  O  O88  1  0.66568000  0.87089000  0.22869000  1.0
  O  O89  1  0.83432000  0.12912000  0.72869000  1.0
  O  O90  1  0.33432000  0.12912000  0.77131000  1.0
  O  O91  1  0.16568000  0.87089000  0.27131000  1.0
