# generated using pymatgen
data_CdSiH32C52N8(O4F3)2
_symmetry_space_group_name_H-M   'P 1'
_cell_length_a   16.43640000
_cell_length_b   21.45210000
_cell_length_c   21.45210000
_cell_angle_alpha   90.00000000
_cell_angle_beta   90.00000000
_cell_angle_gamma   90.00000000
_symmetry_Int_Tables_number   1
_chemical_formula_structural   CdSiH32C52N8(O4F3)2
_chemical_formula_sum   'Cd4 Si4 H128 C208 N32 O32 F24'
_cell_volume   7563.90955876
_cell_formula_units_Z   4
loop_
 _symmetry_equiv_pos_site_id
 _symmetry_equiv_pos_as_xyz
  1  'x, y, z'
loop_
 _atom_site_type_symbol
 _atom_site_label
 _atom_site_symmetry_multiplicity
 _atom_site_fract_x
 _atom_site_fract_y
 _atom_site_fract_z
 _atom_site_occupancy
  Cd  Cd0  1  0.15691000  0.75000000  0.75000000  1.0
  Cd  Cd1  1  0.84309000  0.25000000  0.25000000  1.0
  Cd  Cd2  1  0.34269000  0.25000000  0.25000000  1.0
  Cd  Cd3  1  0.65731000  0.75000000  0.75000000  1.0
  Si  Si4  1  0.09212000  0.25000000  0.25000000  1.0
  Si  Si5  1  0.90788000  0.75000000  0.75000000  1.0
  Si  Si6  1  0.40805000  0.75000000  0.75000000  1.0
  Si  Si7  1  0.59195000  0.25000000  0.25000000  1.0
  H  H8  1  0.03272000  0.76602000  0.86360000  1.0
  H  H9  1  0.03272000  0.73398000  0.63640000  1.0
  H  H10  1  0.03272000  0.63640000  0.76602000  1.0
  H  H11  1  0.03272000  0.86360000  0.73398000  1.0
  H  H12  1  0.96728000  0.23398000  0.13640000  1.0
  H  H13  1  0.96728000  0.26602000  0.36360000  1.0
  H  H14  1  0.96728000  0.36360000  0.23398000  1.0
  H  H15  1  0.96728000  0.13640000  0.26602000  1.0
  H  H16  1  0.02892000  0.80265000  0.97464000  1.0
  H  H17  1  0.02892000  0.69734000  0.52536000  1.0
  H  H18  1  0.02892000  0.52536000  0.80265000  1.0
  H  H19  1  0.02892000  0.97464000  0.69734000  1.0
  H  H20  1  0.97108000  0.19734000  0.02536000  1.0
  H  H21  1  0.97108000  0.30266000  0.47464000  1.0
  H  H22  1  0.97108000  0.47464000  0.19734000  1.0
  H  H23  1  0.97108000  0.02536000  0.30266000  1.0
  H  H24  1  0.28329000  0.85032000  0.95694000  1.0
  H  H25  1  0.28329000  0.64968000  0.54306000  1.0
  H  H26  1  0.28329000  0.54306000  0.85032000  1.0
  H  H27  1  0.28329000  0.95694000  0.64968000  1.0
  H  H28  1  0.71671000  0.14968000  0.04306000  1.0
  H  H29  1  0.71671000  0.35032000  0.45694000  1.0
  H  H30  1  0.71671000  0.45694000  0.14968000  1.0
  H  H31  1  0.71671000  0.04306000  0.35032000  1.0
  H  H32  1  0.27928000  0.80741000  0.84846000  1.0
  H  H33  1  0.27928000  0.69259000  0.65153000  1.0
  H  H34  1  0.27928000  0.65154000  0.80741000  1.0
  H  H35  1  0.27928000  0.84846000  0.69259000  1.0
  H  H36  1  0.72072000  0.19259000  0.15154000  1.0
  H  H37  1  0.72072000  0.30741000  0.34847000  1.0
  H  H38  1  0.72072000  0.34847000  0.19259000  1.0
  H  H39  1  0.72072000  0.15153000  0.30741000  1.0
  H  H40  1  0.19954000  0.89231000  0.04592000  1.0
  H  H41  1  0.19954000  0.60769000  0.45408000  1.0
  H  H42  1  0.19953000  0.45408000  0.89231000  1.0
  H  H43  1  0.19953000  0.04592000  0.60769000  1.0
  H  H44  1  0.80046000  0.10769000  0.95408000  1.0
  H  H45  1  0.80046000  0.39231000  0.54592000  1.0
  H  H46  1  0.80047000  0.54592000  0.10769000  1.0
  H  H47  1  0.80046000  0.95408000  0.39231000  1.0
  H  H48  1  0.09662000  0.86734000  0.05618000  1.0
  H  H49  1  0.09662000  0.63266000  0.44382000  1.0
  H  H50  1  0.09662000  0.44382000  0.86734000  1.0
  H  H51  1  0.09662000  0.05618000  0.63266000  1.0
  H  H52  1  0.90338000  0.13266000  0.94382000  1.0
  H  H53  1  0.90338000  0.36734000  0.55618000  1.0
  H  H54  1  0.90338000  0.55618000  0.13266000  1.0
  H  H55  1  0.90338000  0.94382000  0.36734000  1.0
  H  H56  1  0.42211000  0.76042000  0.11715000  1.0
  H  H57  1  0.42211000  0.73958000  0.38285000  1.0
  H  H58  1  0.42211000  0.38285000  0.76042000  1.0
  H  H59  1  0.42211000  0.11715000  0.73958000  1.0
  H  H60  1  0.57789000  0.23958000  0.88285000  1.0
  H  H61  1  0.57789000  0.26042000  0.61715000  1.0
  H  H62  1  0.57789000  0.61715000  0.23958000  1.0
  H  H63  1  0.57789000  0.88285000  0.26042000  1.0
  H  H64  1  0.46787000  0.68073000  0.19366000  1.0
  H  H65  1  0.46787000  0.81927000  0.30634000  1.0
  H  H66  1  0.46787000  0.30634000  0.68073000  1.0
  H  H67  1  0.46787000  0.19366000  0.81927000  1.0
  H  H68  1  0.53213000  0.31927000  0.80634000  1.0
  H  H69  1  0.53213000  0.18073000  0.69366000  1.0
  H  H70  1  0.53213000  0.69366000  0.31927000  1.0
  H  H71  1  0.53213000  0.80634000  0.18073000  1.0
  H  H72  1  0.07718000  0.61773000  0.26562000  1.0
  H  H73  1  0.07718000  0.88227000  0.23438000  1.0
  H  H74  1  0.07718000  0.23438000  0.61773000  1.0
  H  H75  1  0.07718000  0.26562000  0.88227000  1.0
  H  H76  1  0.92282000  0.38227000  0.73438000  1.0
  H  H77  1  0.92282000  0.11774000  0.76562000  1.0
  H  H78  1  0.92282000  0.76562000  0.38227000  1.0
  H  H79  1  0.92282000  0.73438000  0.11773000  1.0
  H  H80  1  0.03137000  0.69382000  0.18549000  1.0
  H  H81  1  0.03137000  0.80618000  0.31450000  1.0
  H  H82  1  0.03137000  0.31450000  0.69382000  1.0
  H  H83  1  0.03137000  0.18550000  0.80618000  1.0
  H  H84  1  0.96863000  0.30618000  0.81451000  1.0
  H  H85  1  0.96863000  0.19382000  0.68550000  1.0
  H  H86  1  0.96863000  0.68550000  0.30618000  1.0
  H  H87  1  0.96863000  0.81450000  0.19382000  1.0
  H  H88  1  0.29896000  0.54568000  0.39578000  1.0
  H  H89  1  0.29896000  0.95432000  0.10422000  1.0
  H  H90  1  0.29896000  0.10422000  0.54568000  1.0
  H  H91  1  0.29896000  0.39578000  0.95432000  1.0
  H  H92  1  0.70104000  0.45432000  0.60422000  1.0
  H  H93  1  0.70104000  0.04568000  0.89578000  1.0
  H  H94  1  0.70104000  0.89578000  0.45432000  1.0
  H  H95  1  0.70104000  0.60422000  0.04568000  1.0
  H  H96  1  0.40209000  0.55512000  0.37089000  1.0
  H  H97  1  0.40209000  0.94488000  0.12911000  1.0
  H  H98  1  0.40209000  0.12911000  0.55512000  1.0
  H  H99  1  0.40209000  0.37089000  0.94488000  1.0
  H  H100  1  0.59791000  0.44488000  0.62911000  1.0
  H  H101  1  0.59791000  0.05512000  0.87089000  1.0
  H  H102  1  0.59791000  0.87089000  0.44488000  1.0
  H  H103  1  0.59791000  0.62911000  0.05512000  1.0
  H  H104  1  0.46997000  0.47330000  0.30860000  1.0
  H  H105  1  0.46997000  0.02670000  0.19140000  1.0
  H  H106  1  0.46997000  0.19140000  0.47330000  1.0
  H  H107  1  0.46997000  0.30860000  0.02670000  1.0
  H  H108  1  0.53003000  0.52670000  0.69140000  1.0
  H  H109  1  0.53003000  0.97330000  0.80860000  1.0
  H  H110  1  0.53003000  0.80860000  0.52670000  1.0
  H  H111  1  0.53003000  0.69140000  0.97330000  1.0
  H  H112  1  0.46688000  0.36278000  0.27077000  1.0
  H  H113  1  0.46687000  0.13722000  0.22923000  1.0
  H  H114  1  0.46688000  0.22923000  0.36278000  1.0
  H  H115  1  0.46688000  0.27077000  0.13722000  1.0
  H  H116  1  0.53313000  0.63722000  0.72923000  1.0
  H  H117  1  0.53313000  0.86278000  0.77077000  1.0
  H  H118  1  0.53312000  0.77077000  0.63722000  1.0
  H  H119  1  0.53313000  0.72923000  0.86278000  1.0
  H  H120  1  0.21967000  0.34698000  0.31106000  1.0
  H  H121  1  0.21967000  0.15302000  0.18894000  1.0
  H  H122  1  0.21967000  0.18894000  0.34698000  1.0
  H  H123  1  0.21967000  0.31106000  0.15302000  1.0
  H  H124  1  0.78033000  0.65302000  0.68893000  1.0
  H  H125  1  0.78033000  0.84697000  0.81107000  1.0
  H  H126  1  0.78033000  0.81106000  0.65302000  1.0
  H  H127  1  0.78033000  0.68893000  0.84698000  1.0
  H  H128  1  0.21471000  0.45552000  0.35328000  1.0
  H  H129  1  0.21471000  0.04448000  0.14671000  1.0
  H  H130  1  0.21471000  0.14671000  0.45552000  1.0
  H  H131  1  0.21471000  0.35328000  0.04448000  1.0
  H  H132  1  0.78529000  0.54448000  0.64671000  1.0
  H  H133  1  0.78529000  0.95552000  0.85329000  1.0
  H  H134  1  0.78529000  0.85329000  0.54448000  1.0
  H  H135  1  0.78529000  0.64671000  0.95552000  1.0
  C  C136  1  0.08717000  0.78408000  0.88659000  1.0
  C  C137  1  0.08716000  0.71592000  0.61341000  1.0
  C  C138  1  0.08716000  0.61341000  0.78408000  1.0
  C  C139  1  0.08716000  0.88659000  0.71592000  1.0
  C  C140  1  0.91284000  0.21592000  0.11341000  1.0
  C  C141  1  0.91284000  0.28408000  0.38659000  1.0
  C  C142  1  0.91284000  0.38659000  0.21592000  1.0
  C  C143  1  0.91284000  0.11341000  0.28408000  1.0
  C  C144  1  0.08526000  0.80529000  0.94798000  1.0
  C  C145  1  0.08526000  0.69471000  0.55202000  1.0
  C  C146  1  0.08526000  0.55202000  0.80529000  1.0
  C  C147  1  0.08526000  0.94798000  0.69471000  1.0
  C  C148  1  0.91474000  0.19471000  0.05202000  1.0
  C  C149  1  0.91474000  0.30529000  0.44798000  1.0
  C  C150  1  0.91474000  0.44798000  0.19471000  1.0
  C  C151  1  0.91474000  0.05202000  0.30529000  1.0
  C  C152  1  0.15617000  0.82985000  0.97446000  1.0
  C  C153  1  0.15617000  0.67015000  0.52554000  1.0
  C  C154  1  0.15617000  0.52554000  0.82985000  1.0
  C  C155  1  0.15617000  0.97446000  0.67015000  1.0
  C  C156  1  0.84383000  0.17015000  0.02554000  1.0
  C  C157  1  0.84383000  0.32985000  0.47446000  1.0
  C  C158  1  0.84383000  0.47446000  0.17015000  1.0
  C  C159  1  0.84383000  0.02554000  0.32985000  1.0
  C  C160  1  0.22679000  0.83176000  0.93803000  1.0
  C  C161  1  0.22679000  0.66824000  0.56196000  1.0
  C  C162  1  0.22678000  0.56196000  0.83176000  1.0
  C  C163  1  0.22678000  0.93804000  0.66824000  1.0
  C  C164  1  0.77321000  0.16824000  0.06196000  1.0
  C  C165  1  0.77322000  0.33176000  0.43804000  1.0
  C  C166  1  0.77322000  0.43804000  0.16824000  1.0
  C  C167  1  0.77322000  0.06196000  0.33176000  1.0
  C  C168  1  0.22463000  0.80860000  0.87749000  1.0
  C  C169  1  0.22463000  0.69140000  0.62251000  1.0
  C  C170  1  0.22463000  0.62251000  0.80860000  1.0
  C  C171  1  0.22463000  0.87749000  0.69140000  1.0
  C  C172  1  0.77537000  0.19140000  0.12251000  1.0
  C  C173  1  0.77537000  0.30860000  0.37749000  1.0
  C  C174  1  0.77537000  0.37749000  0.19140000  1.0
  C  C175  1  0.77537000  0.12251000  0.30860000  1.0
  C  C176  1  0.15736000  0.85317000  0.04091000  1.0
  C  C177  1  0.15736000  0.64683000  0.45909000  1.0
  C  C178  1  0.15736000  0.45909000  0.85317000  1.0
  C  C179  1  0.15736000  0.04091000  0.64683000  1.0
  C  C180  1  0.84264000  0.14683000  0.95909000  1.0
  C  C181  1  0.84264000  0.35317000  0.54091000  1.0
  C  C182  1  0.84264000  0.54091000  0.14683000  1.0
  C  C183  1  0.84264000  0.95909000  0.35317000  1.0
  C  C184  1  0.12474000  0.76883000  0.11439000  1.0
  C  C185  1  0.12473000  0.73117000  0.38561000  1.0
  C  C186  1  0.12473000  0.38561000  0.76883000  1.0
  C  C187  1  0.12474000  0.11439000  0.73117000  1.0
  C  C188  1  0.87526000  0.23117000  0.88561000  1.0
  C  C189  1  0.87526000  0.26883000  0.61439000  1.0
  C  C190  1  0.87527000  0.61439000  0.23117000  1.0
  C  C191  1  0.87527000  0.88561000  0.26883000  1.0
  C  C192  1  0.15238000  0.72234000  0.16076000  1.0
  C  C193  1  0.15238000  0.77766000  0.33924000  1.0
  C  C194  1  0.15238000  0.33924000  0.72234000  1.0
  C  C195  1  0.15238000  0.16076000  0.77766000  1.0
  C  C196  1  0.84762000  0.27766000  0.83924000  1.0
  C  C197  1  0.84762000  0.22234000  0.66076000  1.0
  C  C198  1  0.84762000  0.66076000  0.27766000  1.0
  C  C199  1  0.84762000  0.83924000  0.22234000  1.0
  C  C200  1  0.23659000  0.71301000  0.17061000  1.0
  C  C201  1  0.23659000  0.78699000  0.32939000  1.0
  C  C202  1  0.23659000  0.32939000  0.71301000  1.0
  C  C203  1  0.23659000  0.17061000  0.78699000  1.0
  C  C204  1  0.76341000  0.28699000  0.82939000  1.0
  C  C205  1  0.76341000  0.21301000  0.67061000  1.0
  C  C206  1  0.76341000  0.67061000  0.28699000  1.0
  C  C207  1  0.76341000  0.82939000  0.21301000  1.0
  C  C208  1  0.29521000  0.74739000  0.13672000  1.0
  C  C209  1  0.29521000  0.75261000  0.36328000  1.0
  C  C210  1  0.29521000  0.36328000  0.74739000  1.0
  C  C211  1  0.29521000  0.13672000  0.75261000  1.0
  C  C212  1  0.70479000  0.25261000  0.86328000  1.0
  C  C213  1  0.70479000  0.24739000  0.63672000  1.0
  C  C214  1  0.70479000  0.63672000  0.25261000  1.0
  C  C215  1  0.70479000  0.86328000  0.24739000  1.0
  C  C216  1  0.26899000  0.79724000  0.09344000  1.0
  C  C217  1  0.26899000  0.70276000  0.40656000  1.0
  C  C218  1  0.26899000  0.40656000  0.79724000  1.0
  C  C219  1  0.26899000  0.09344000  0.70276000  1.0
  C  C220  1  0.73101000  0.20276000  0.90656000  1.0
  C  C221  1  0.73101000  0.29724000  0.59344000  1.0
  C  C222  1  0.73101000  0.59344000  0.20276000  1.0
  C  C223  1  0.73101000  0.90656000  0.29724000  1.0
  C  C224  1  0.37747000  0.73522000  0.14488000  1.0
  C  C225  1  0.37747000  0.76478000  0.35512000  1.0
  C  C226  1  0.37747000  0.35512000  0.73522000  1.0
  C  C227  1  0.37747000  0.14488000  0.76478000  1.0
  C  C228  1  0.62253000  0.26478000  0.85512000  1.0
  C  C229  1  0.62253000  0.23522000  0.64488000  1.0
  C  C230  1  0.62253000  0.64488000  0.26478000  1.0
  C  C231  1  0.62253000  0.85512000  0.23522000  1.0
  C  C232  1  0.40322000  0.69021000  0.18814000  1.0
  C  C233  1  0.40322000  0.80979000  0.31186000  1.0
  C  C234  1  0.40322000  0.31186000  0.69021000  1.0
  C  C235  1  0.40322000  0.18814000  0.80979000  1.0
  C  C236  1  0.59678000  0.30979000  0.81186000  1.0
  C  C237  1  0.59678000  0.19021000  0.68814000  1.0
  C  C238  1  0.59678000  0.68814000  0.30979000  1.0
  C  C239  1  0.59678000  0.81186000  0.19021000  1.0
  C  C240  1  0.34697000  0.65785000  0.22409000  1.0
  C  C241  1  0.34697000  0.84215000  0.27591000  1.0
  C  C242  1  0.34697000  0.27591000  0.65785000  1.0
  C  C243  1  0.34697000  0.22409000  0.84215000  1.0
  C  C244  1  0.65303000  0.34215000  0.77591000  1.0
  C  C245  1  0.65303000  0.15785000  0.72409000  1.0
  C  C246  1  0.65303000  0.72409000  0.34215000  1.0
  C  C247  1  0.65303000  0.77591000  0.15785000  1.0
  C  C248  1  0.37457000  0.61227000  0.27146000  1.0
  C  C249  1  0.37457000  0.88773000  0.22854000  1.0
  C  C250  1  0.37457000  0.22854000  0.61227000  1.0
  C  C251  1  0.37457000  0.27146000  0.88773000  1.0
  C  C252  1  0.62543000  0.38773000  0.72854000  1.0
  C  C253  1  0.62543000  0.11227000  0.77146000  1.0
  C  C254  1  0.62543000  0.77146000  0.38773000  1.0
  C  C255  1  0.62543000  0.72854000  0.11227000  1.0
  C  C256  1  0.23024000  0.59208000  0.30034000  1.0
  C  C257  1  0.23024000  0.90792000  0.19966000  1.0
  C  C258  1  0.23024000  0.19966000  0.59208000  1.0
  C  C259  1  0.23024000  0.30034000  0.90792000  1.0
  C  C260  1  0.76976000  0.40792000  0.69966000  1.0
  C  C261  1  0.76976000  0.09208000  0.80034000  1.0
  C  C262  1  0.76976000  0.80034000  0.40792000  1.0
  C  C263  1  0.76976000  0.69966000  0.09208000  1.0
  C  C264  1  0.20412000  0.63551000  0.25067000  1.0
  C  C265  1  0.20412000  0.86449000  0.24933000  1.0
  C  C266  1  0.20412000  0.24933000  0.63551000  1.0
  C  C267  1  0.20412000  0.25067000  0.86449000  1.0
  C  C268  1  0.79588000  0.36449000  0.74933000  1.0
  C  C269  1  0.79588000  0.13551000  0.75067000  1.0
  C  C270  1  0.79588000  0.75067000  0.36449000  1.0
  C  C271  1  0.79588000  0.74933000  0.13551000  1.0
  C  C272  1  0.26278000  0.66842000  0.21540000  1.0
  C  C273  1  0.26279000  0.83158000  0.28460000  1.0
  C  C274  1  0.26279000  0.28460000  0.66842000  1.0
  C  C275  1  0.26279000  0.21540000  0.83158000  1.0
  C  C276  1  0.73721000  0.33158000  0.78460000  1.0
  C  C277  1  0.73722000  0.16842000  0.71540000  1.0
  C  C278  1  0.73721000  0.71540000  0.33158000  1.0
  C  C279  1  0.73721000  0.78460000  0.16842000  1.0
  C  C280  1  0.12180000  0.64464000  0.23953000  1.0
  C  C281  1  0.12180000  0.85536000  0.26047000  1.0
  C  C282  1  0.12181000  0.26047000  0.64464000  1.0
  C  C283  1  0.12180000  0.23953000  0.85536000  1.0
  C  C284  1  0.87820000  0.35536000  0.76047000  1.0
  C  C285  1  0.87820000  0.14464000  0.73953000  1.0
  C  C286  1  0.87820000  0.73953000  0.35536000  1.0
  C  C287  1  0.87820000  0.76047000  0.14464000  1.0
  C  C288  1  0.09606000  0.68763000  0.19431000  1.0
  C  C289  1  0.09606000  0.81237000  0.30569000  1.0
  C  C290  1  0.09606000  0.30569000  0.68763000  1.0
  C  C291  1  0.09606000  0.19431000  0.81237000  1.0
  C  C292  1  0.90394000  0.31237000  0.80569000  1.0
  C  C293  1  0.90394000  0.18763000  0.69431000  1.0
  C  C294  1  0.90394000  0.69431000  0.31237000  1.0
  C  C295  1  0.90394000  0.80569000  0.18763000  1.0
  C  C296  1  0.34128000  0.53989000  0.35684000  1.0
  C  C297  1  0.34128000  0.96011000  0.14316000  1.0
  C  C298  1  0.34128000  0.14316000  0.53989000  1.0
  C  C299  1  0.34128000  0.35684000  0.96011000  1.0
  C  C300  1  0.65872000  0.46011000  0.64316000  1.0
  C  C301  1  0.65872000  0.03989000  0.85684000  1.0
  C  C302  1  0.65872000  0.85684000  0.46011000  1.0
  C  C303  1  0.65872000  0.64316000  0.03989000  1.0
  C  C304  1  0.34230000  0.47317000  0.33425000  1.0
  C  C305  1  0.34230000  0.02683000  0.16575000  1.0
  C  C306  1  0.34230000  0.16575000  0.47317000  1.0
  C  C307  1  0.34230000  0.33425000  0.02683000  1.0
  C  C308  1  0.65770000  0.52683000  0.66575000  1.0
  C  C309  1  0.65770000  0.97317000  0.83425000  1.0
  C  C310  1  0.65770000  0.83425000  0.52683000  1.0
  C  C311  1  0.65770000  0.66575000  0.97317000  1.0
  C  C312  1  0.41361000  0.44659000  0.31056000  1.0
  C  C313  1  0.41361000  0.05341000  0.18944000  1.0
  C  C314  1  0.41361000  0.18944000  0.44659000  1.0
  C  C315  1  0.41361000  0.31056000  0.05341000  1.0
  C  C316  1  0.58639000  0.55341000  0.68944000  1.0
  C  C317  1  0.58639000  0.94659000  0.81056000  1.0
  C  C318  1  0.58639000  0.81056000  0.55341000  1.0
  C  C319  1  0.58639000  0.68944000  0.94659000  1.0
  C  C320  1  0.41211000  0.38534000  0.28897000  1.0
  C  C321  1  0.41211000  0.11466000  0.21103000  1.0
  C  C322  1  0.41211000  0.21104000  0.38534000  1.0
  C  C323  1  0.41211000  0.28897000  0.11467000  1.0
  C  C324  1  0.58789000  0.61466000  0.71104000  1.0
  C  C325  1  0.58789000  0.88534000  0.78896000  1.0
  C  C326  1  0.58789000  0.78897000  0.61466000  1.0
  C  C327  1  0.58789000  0.71103000  0.88534000  1.0
  C  C328  1  0.27428000  0.37612000  0.31231000  1.0
  C  C329  1  0.27428000  0.12388000  0.18769000  1.0
  C  C330  1  0.27428000  0.18769000  0.37612000  1.0
  C  C331  1  0.27428000  0.31230000  0.12388000  1.0
  C  C332  1  0.72572000  0.62388000  0.68769000  1.0
  C  C333  1  0.72572000  0.87612000  0.81231000  1.0
  C  C334  1  0.72572000  0.81231000  0.62388000  1.0
  C  C335  1  0.72572000  0.68769000  0.87612000  1.0
  C  C336  1  0.27166000  0.43671000  0.33543000  1.0
  C  C337  1  0.27166000  0.06329000  0.16457000  1.0
  C  C338  1  0.27166000  0.16457000  0.43671000  1.0
  C  C339  1  0.27166000  0.33543000  0.06329000  1.0
  C  C340  1  0.72834000  0.56329000  0.66456000  1.0
  C  C341  1  0.72834000  0.93671000  0.83544000  1.0
  C  C342  1  0.72834000  0.83543000  0.56329000  1.0
  C  C343  1  0.72834000  0.66456000  0.93671000  1.0
  N  N344  1  0.15585000  0.78549000  0.85242000  1.0
  N  N345  1  0.15585000  0.71451000  0.64758000  1.0
  N  N346  1  0.15585000  0.64758000  0.78549000  1.0
  N  N347  1  0.15585000  0.85242000  0.71451000  1.0
  N  N348  1  0.84415000  0.21451000  0.14758000  1.0
  N  N349  1  0.84415000  0.28549000  0.35242000  1.0
  N  N350  1  0.84415000  0.35242000  0.21451000  1.0
  N  N351  1  0.84415000  0.14758000  0.28549000  1.0
  N  N352  1  0.18481000  0.80426000  0.08462000  1.0
  N  N353  1  0.18481000  0.69574000  0.41538000  1.0
  N  N354  1  0.18481000  0.41538000  0.80426000  1.0
  N  N355  1  0.18481000  0.08462000  0.69574000  1.0
  N  N356  1  0.81519000  0.19574000  0.91538000  1.0
  N  N357  1  0.81519000  0.30426000  0.58462000  1.0
  N  N358  1  0.81519000  0.58462000  0.19574000  1.0
  N  N359  1  0.81519000  0.91538000  0.30426000  1.0
  N  N360  1  0.34339000  0.35113000  0.28959000  1.0
  N  N361  1  0.34338000  0.14887000  0.21041000  1.0
  N  N362  1  0.34339000  0.21041000  0.35114000  1.0
  N  N363  1  0.34339000  0.28959000  0.14887000  1.0
  N  N364  1  0.65662000  0.64887000  0.71041000  1.0
  N  N365  1  0.65662000  0.85113000  0.78959000  1.0
  N  N366  1  0.65661000  0.78959000  0.64887000  1.0
  N  N367  1  0.65662000  0.71041000  0.85113000  1.0
  N  N368  1  0.31434000  0.58303000  0.30727000  1.0
  N  N369  1  0.31434000  0.91697000  0.19273000  1.0
  N  N370  1  0.31434000  0.19273000  0.58303000  1.0
  N  N371  1  0.31434000  0.30727000  0.91697000  1.0
  N  N372  1  0.68566000  0.41697000  0.69273000  1.0
  N  N373  1  0.68566000  0.08303000  0.80727000  1.0
  N  N374  1  0.68566000  0.80727000  0.41697000  1.0
  N  N375  1  0.68566000  0.69273000  0.08303000  1.0
  O  O376  1  0.05212000  0.77742000  0.10260000  1.0
  O  O377  1  0.05212000  0.72258000  0.39740000  1.0
  O  O378  1  0.05212000  0.39740000  0.77742000  1.0
  O  O379  1  0.05212000  0.10260000  0.72258000  1.0
  O  O380  1  0.94788000  0.22258000  0.89740000  1.0
  O  O381  1  0.94788000  0.27742000  0.60260000  1.0
  O  O382  1  0.94788000  0.60260000  0.22258000  1.0
  O  O383  1  0.94788000  0.89740000  0.27742000  1.0
  O  O384  1  0.31761000  0.83202000  0.06693000  1.0
  O  O385  1  0.31760000  0.66798000  0.43307000  1.0
  O  O386  1  0.31760000  0.43307000  0.83202000  1.0
  O  O387  1  0.31761000  0.06693000  0.66798000  1.0
  O  O388  1  0.68239000  0.16798000  0.93307000  1.0
  O  O389  1  0.68239000  0.33202000  0.56693000  1.0
  O  O390  1  0.68240000  0.56693000  0.16798000  1.0
  O  O391  1  0.68240000  0.93307000  0.33202000  1.0
  O  O392  1  0.18152000  0.56572000  0.33517000  1.0
  O  O393  1  0.18152000  0.93428000  0.16483000  1.0
  O  O394  1  0.18152000  0.16483000  0.56572000  1.0
  O  O395  1  0.18152000  0.33517000  0.93428000  1.0
  O  O396  1  0.81848000  0.43428000  0.66483000  1.0
  O  O397  1  0.81848000  0.06572000  0.83517000  1.0
  O  O398  1  0.81848000  0.83517000  0.43428000  1.0
  O  O399  1  0.81848000  0.66483000  0.06572000  1.0
  O  O400  1  0.44719000  0.60076000  0.28040000  1.0
  O  O401  1  0.44719000  0.89924000  0.21960000  1.0
  O  O402  1  0.44719000  0.21960000  0.60076000  1.0
  O  O403  1  0.44719000  0.28040000  0.89924000  1.0
  O  O404  1  0.55281000  0.39924000  0.71960000  1.0
  O  O405  1  0.55281000  0.10076000  0.78040000  1.0
  O  O406  1  0.55281000  0.78040000  0.39924000  1.0
  O  O407  1  0.55282000  0.71960000  0.10076000  1.0
  F  F408  1  0.51558000  0.75000000  0.75000000  1.0
  F  F409  1  0.48442000  0.25000000  0.25000000  1.0
  F  F410  1  0.40817000  0.73382000  0.67218000  1.0
  F  F411  1  0.40817000  0.76618000  0.82782000  1.0
  F  F412  1  0.40817000  0.82782000  0.73382000  1.0
  F  F413  1  0.40817000  0.67218000  0.76618000  1.0
  F  F414  1  0.59183000  0.26618000  0.32782000  1.0
  F  F415  1  0.59183000  0.23382000  0.17218000  1.0
  F  F416  1  0.59183000  0.17218000  0.26618000  1.0
  F  F417  1  0.59183000  0.32782000  0.23382000  1.0
  F  F418  1  0.30013000  0.75000000  0.75000000  1.0
  F  F419  1  0.69987000  0.25000000  0.25000000  1.0
  F  F420  1  0.09176000  0.18848000  0.19967000  1.0
  F  F421  1  0.09175000  0.31153000  0.30033000  1.0
  F  F422  1  0.09176000  0.30033000  0.18848000  1.0
  F  F423  1  0.09176000  0.19967000  0.31153000  1.0
  F  F424  1  0.90824000  0.81152000  0.80033000  1.0
  F  F425  1  0.90825000  0.68847000  0.69967000  1.0
  F  F426  1  0.90824000  0.69967000  0.81152000  1.0
  F  F427  1  0.90824000  0.80033000  0.68848000  1.0
  F  F428  1  0.98453000  0.25000000  0.25000000  1.0
  F  F429  1  0.01547000  0.75000000  0.75000000  1.0
  F  F430  1  0.19982000  0.25000000  0.25000000  1.0
  F  F431  1  0.80018000  0.75000000  0.75000000  1.0
