# generated using pymatgen
data_ZnH6C7N4O3
_symmetry_space_group_name_H-M   'P 1'
_cell_length_a   4.82575000
_cell_length_b   10.46660000
_cell_length_c   17.33620000
_cell_angle_alpha   90.00000000
_cell_angle_beta   91.15300000
_cell_angle_gamma   89.99990000
_symmetry_Int_Tables_number   1
_chemical_formula_structural   ZnH6C7N4O3
_chemical_formula_sum   'Zn4 H24 C28 N16 O12'
_cell_volume   875.46021189
_cell_formula_units_Z   4
loop_
 _symmetry_equiv_pos_site_id
 _symmetry_equiv_pos_as_xyz
  1  'x, y, z'
loop_
 _atom_site_type_symbol
 _atom_site_label
 _atom_site_symmetry_multiplicity
 _atom_site_fract_x
 _atom_site_fract_y
 _atom_site_fract_z
 _atom_site_occupancy
  Zn  Zn0  1  0.84652000  0.25140000  0.82107000  1.0
  Zn  Zn1  1  0.65348000  0.75140000  0.67892000  1.0
  Zn  Zn2  1  0.15348000  0.74860000  0.17892000  1.0
  Zn  Zn3  1  0.34652000  0.24860000  0.32108000  1.0
  H  H4  1  0.54200000  0.03553000  0.72357000  1.0
  H  H5  1  0.95800000  0.53553000  0.77643000  1.0
  H  H6  1  0.45800000  0.96447000  0.27643000  1.0
  H  H7  1  0.04200000  0.46447000  0.22357000  1.0
  H  H8  1  0.48199000  0.88287000  0.97899000  1.0
  H  H9  1  0.01801000  0.38287000  0.52101000  1.0
  H  H10  1  0.51801000  0.11713000  0.02101000  1.0
  H  H11  1  0.98199000  0.61713000  0.47899000  1.0
  H  H12  1  0.38965000  0.68237000  0.92280000  1.0
  H  H13  1  0.11034000  0.18238000  0.57720000  1.0
  H  H14  1  0.61034000  0.31762000  0.07720000  1.0
  H  H15  1  0.88966000  0.81762000  0.42280000  1.0
  H  H16  1  0.05097000  0.46257000  0.93302000  1.0
  H  H17  1  0.44903000  0.96257000  0.56698000  1.0
  H  H18  1  0.94903000  0.53743000  0.06698000  1.0
  H  H19  1  0.55097000  0.03743000  0.43302000  1.0
  H  H20  1  0.33501000  0.44951000  0.00046000  1.0
  H  H21  1  0.16499000  0.94952000  0.49954000  1.0
  H  H22  1  0.66499000  0.55049000  0.99954000  1.0
  H  H23  1  0.83501000  0.05049000  0.50046000  1.0
  H  H24  1  0.08825000  0.32356000  0.98922000  1.0
  H  H25  1  0.41175000  0.82356000  0.51077000  1.0
  H  H26  1  0.91175000  0.67644000  0.01078000  1.0
  H  H27  1  0.58825000  0.17644000  0.48922000  1.0
  C  C28  1  0.99968000  0.97669000  0.85574000  1.0
  C  C29  1  0.50032000  0.47669000  0.64426000  1.0
  C  C30  1  0.00032000  0.02331000  0.14426000  1.0
  C  C31  1  0.49968000  0.52331000  0.35574000  1.0
  C  C32  1  0.95089000  0.85483000  0.82415000  1.0
  C  C33  1  0.54910000  0.35483000  0.67585000  1.0
  C  C34  1  0.04910000  0.14517000  0.17585000  1.0
  C  C35  1  0.45090000  0.64517000  0.32415000  1.0
  C  C36  1  0.68897000  0.99296000  0.76451000  1.0
  C  C37  1  0.81103000  0.49296000  0.73549000  1.0
  C  C38  1  0.31103000  0.00704000  0.23549000  1.0
  C  C39  1  0.18897000  0.50704000  0.26451000  1.0
  C  C40  1  0.19218000  0.99217000  0.91869000  1.0
  C  C41  1  0.30781000  0.49218000  0.58130000  1.0
  C  C42  1  0.80782000  0.00782000  0.08131000  1.0
  C  C43  1  0.69218000  0.50782000  0.41869000  1.0
  C  C44  1  0.26840000  0.76317000  0.90137000  1.0
  C  C45  1  0.23160000  0.26317000  0.59863000  1.0
  C  C46  1  0.73160000  0.23683000  0.09863000  1.0
  C  C47  1  0.76840000  0.73683000  0.40137000  1.0
  C  C48  1  0.36990000  0.33503000  0.89721000  1.0
  C  C49  1  0.13010000  0.83503000  0.60279000  1.0
  C  C50  1  0.63010000  0.66497000  0.10279000  1.0
  C  C51  1  0.86990000  0.16497000  0.39721000  1.0
  C  C52  1  0.20426000  0.39769000  0.95894000  1.0
  C  C53  1  0.29574000  0.89769000  0.54106000  1.0
  C  C54  1  0.79574000  0.60231000  0.04106000  1.0
  C  C55  1  0.70426000  0.10231000  0.45894000  1.0
  N  N56  1  0.83203000  0.06324000  0.81674000  1.0
  N  N57  1  0.66797000  0.56324000  0.68326000  1.0
  N  N58  1  0.16797000  0.93676000  0.18326000  1.0
  N  N59  1  0.33203000  0.43676000  0.31674000  1.0
  N  N60  1  0.08091000  0.74493000  0.84645000  1.0
  N  N61  1  0.41909000  0.24493000  0.65355000  1.0
  N  N62  1  0.91909000  0.25507000  0.15355000  1.0
  N  N63  1  0.58091000  0.75507000  0.34645000  1.0
  N  N64  1  0.75157000  0.86690000  0.76686000  1.0
  N  N65  1  0.74843000  0.36690000  0.73314000  1.0
  N  N66  1  0.24843000  0.13310000  0.23314000  1.0
  N  N67  1  0.25157000  0.63310000  0.26686000  1.0
  N  N68  1  0.32730000  0.87708000  0.93583000  1.0
  N  N69  1  0.17270000  0.37708000  0.56417000  1.0
  N  N70  1  0.67270000  0.12291000  0.06417000  1.0
  N  N71  1  0.82730000  0.62292000  0.43583000  1.0
  O  O72  1  0.63212000  0.32647000  0.90803000  1.0
  O  O73  1  0.86788000  0.82647000  0.59196000  1.0
  O  O74  1  0.36788000  0.67353000  0.09197000  1.0
  O  O75  1  0.13212000  0.17353000  0.40804000  1.0
  O  O76  1  0.24946000  0.29402000  0.83599000  1.0
  O  O77  1  0.25055000  0.79403000  0.66401000  1.0
  O  O78  1  0.75054000  0.70598000  0.16401000  1.0
  O  O79  1  0.74946000  0.20598000  0.33599000  1.0
  O  O80  1  0.24398000  0.09148000  0.95672000  1.0
  O  O81  1  0.25603000  0.59147000  0.54328000  1.0
  O  O82  1  0.75603000  0.90853000  0.04328000  1.0
  O  O83  1  0.74397000  0.40853000  0.45672000  1.0
