# generated using pymatgen
data_Zn2H14C28N5ClO14
_symmetry_space_group_name_H-M   'P 1'
_cell_length_a   9.74995000
_cell_length_b   11.16060000
_cell_length_c   13.44760000
_cell_angle_alpha   92.23130000
_cell_angle_beta   95.25620000
_cell_angle_gamma   95.70210000
_symmetry_Int_Tables_number   1
_chemical_formula_structural   Zn2H14C28N5ClO14
_chemical_formula_sum   'Zn2 H14 C28 N5 Cl1 O14'
_cell_volume   1448.23647281
_cell_formula_units_Z   1
loop_
 _symmetry_equiv_pos_site_id
 _symmetry_equiv_pos_as_xyz
  1  'x, y, z'
loop_
 _atom_site_type_symbol
 _atom_site_label
 _atom_site_symmetry_multiplicity
 _atom_site_fract_x
 _atom_site_fract_y
 _atom_site_fract_z
 _atom_site_occupancy
  Zn  Zn0  1  0.86587000  0.47622000  0.53501000  1.0
  Zn  Zn1  1  0.13934000  0.49762000  0.48053000  1.0
  H  H2  1  0.22485000  0.49756000  0.16365000  1.0
  H  H3  1  0.68586000  0.49315000  0.24072000  1.0
  H  H4  1  0.03876000  0.31765000  0.17800000  1.0
  H  H5  1  0.71930000  0.22725000  0.88579000  1.0
  H  H6  1  0.04571000  0.52542000  0.03498000  1.0
  H  H7  1  0.95348000  0.51707000  0.85433000  1.0
  H  H8  1  0.49533000  0.28608000  0.82788000  1.0
  H  H9  1  0.92127000  0.24072000  0.01142000  1.0
  H  H10  1  0.20368000  0.12183000  0.54417000  1.0
  H  H11  1  0.88667000  0.07238000  0.49538000  1.0
  H  H12  1  0.90201000  0.87830000  0.48673000  1.0
  H  H13  1  0.59941000  0.31749000  0.46700000  1.0
  H  H14  1  0.62498000  0.54982000  0.57884000  1.0
  H  H15  1  0.34831000  0.32866000  0.47386000  1.0
  C  C16  1  0.00782000  0.71773000  0.51520000  1.0
  C  C17  1  0.08716000  0.47896000  0.69603000  1.0
  C  C18  1  0.99381000  0.25390000  0.50288000  1.0
  C  C19  1  0.93356000  0.45905000  0.31727000  1.0
  C  C20  1  0.14212000  0.46519000  0.80280000  1.0
  C  C21  1  0.86540000  0.41031000  0.21728000  1.0
  C  C22  1  0.10796000  0.49772000  0.97661000  1.0
  C  C23  1  0.05715000  0.49406000  0.87772000  1.0
  C  C24  1  0.27423000  0.43304000  0.83046000  1.0
  C  C25  1  0.32843000  0.42561000  0.93172000  1.0
  C  C26  1  0.24222000  0.46553000  0.00474000  1.0
  C  C27  1  0.46158000  0.38505000  0.96577000  1.0
  C  C28  1  0.51604000  0.40718000  0.06770000  1.0
  C  C29  1  0.42334000  0.44611000  0.13564000  1.0
  C  C30  1  0.29211000  0.47259000  0.10739000  1.0
  C  C31  1  0.53940000  0.31747000  0.90253000  1.0
  C  C32  1  0.66588000  0.28261000  0.93523000  1.0
  C  C33  1  0.73167000  0.32005000  0.03170000  1.0
  C  C34  1  0.65819000  0.38709000  0.09822000  1.0
  C  C35  1  0.86803000  0.29412000  0.06244000  1.0
  C  C36  1  0.93398000  0.33745000  0.15382000  1.0
  C  C37  1  0.73044000  0.43377000  0.18948000  1.0
  C  C38  1  0.10469000  0.06634000  0.52974000  1.0
  C  C39  1  0.98971000  0.12132000  0.50759000  1.0
  C  C40  1  0.10774000  0.93730000  0.53742000  1.0
  C  C41  1  0.00283000  0.85046000  0.51268000  1.0
  C  C42  1  0.56756000  0.39951000  0.50145000  1.0
  C  C43  1  0.41849000  0.41162000  0.48897000  1.0
  N  N44  1  0.66132000  0.47546000  0.54739000  1.0
  N  N45  1  0.35390000  0.50679000  0.48894000  1.0
  N  N46  1  0.24610000  0.90211000  0.57387000  1.0
  N  N47  1  0.36292000  0.41322000  0.74861000  1.0
  N  N48  1  0.45698000  0.44707000  0.24477000  1.0
  Cl  Cl49  1  0.43968000  0.64722000  0.51199000  1.0
  O  O50  1  0.90804000  0.66080000  0.55377000  1.0
  O  O51  1  0.10637000  0.67397000  0.47554000  1.0
  O  O52  1  0.95763000  0.45144000  0.67547000  1.0
  O  O53  1  0.17294000  0.51918000  0.63732000  1.0
  O  O54  1  0.87673000  0.29656000  0.50006000  1.0
  O  O55  1  0.11134000  0.31543000  0.50288000  1.0
  O  O56  1  0.85538000  0.49762000  0.37942000  1.0
  O  O57  1  0.06451000  0.45601000  0.33393000  1.0
  O  O58  1  0.34531000  0.94545000  0.53056000  1.0
  O  O59  1  0.25324000  0.83527000  0.64473000  1.0
  O  O60  1  0.46098000  0.49036000  0.74131000  1.0
  O  O61  1  0.33456000  0.31973000  0.69468000  1.0
  O  O62  1  0.47229000  0.34882000  0.28236000  1.0
  O  O63  1  0.46307000  0.54514000  0.29200000  1.0
