# generated using pymatgen
data_MnH9C7NO7
_symmetry_space_group_name_H-M   'P 1'
_cell_length_a   6.78464000
_cell_length_b   8.50750000
_cell_length_c   16.43990000
_cell_angle_alpha   90.00170000
_cell_angle_beta   89.99870000
_cell_angle_gamma   89.99840000
_symmetry_Int_Tables_number   1
_chemical_formula_structural   MnH9C7NO7
_chemical_formula_sum   'Mn4 H36 C28 N4 O28'
_cell_volume   948.91636665
_cell_formula_units_Z   4
loop_
 _symmetry_equiv_pos_site_id
 _symmetry_equiv_pos_as_xyz
  1  'x, y, z'
loop_
 _atom_site_type_symbol
 _atom_site_label
 _atom_site_symmetry_multiplicity
 _atom_site_fract_x
 _atom_site_fract_y
 _atom_site_fract_z
 _atom_site_occupancy
  Mn  Mn0  1  0.06793000  0.94478000  0.59948000  1.0
  Mn  Mn1  1  0.93204000  0.44481000  0.40052000  1.0
  Mn  Mn2  1  0.93206000  0.94478000  0.09949000  1.0
  Mn  Mn3  1  0.06800000  0.44482000  0.90050000  1.0
  H  H4  1  0.33941000  0.88091000  0.46060000  1.0
  H  H5  1  0.66057000  0.38088000  0.53940000  1.0
  H  H6  1  0.66059000  0.88094000  0.96060000  1.0
  H  H7  1  0.33945000  0.38093000  0.03942000  1.0
  H  H8  1  0.11571000  0.88755000  0.42864000  1.0
  H  H9  1  0.88426000  0.38753000  0.57137000  1.0
  H  H10  1  0.88428000  0.88758000  0.92863000  1.0
  H  H11  1  0.11577000  0.38758000  0.07138000  1.0
  H  H12  1  0.47039000  0.72886000  0.58735000  1.0
  H  H13  1  0.52956000  0.22897000  0.41263000  1.0
  H  H14  1  0.52953000  0.72898000  0.08737000  1.0
  H  H15  1  0.47046000  0.22892000  0.91262000  1.0
  H  H16  1  0.85473000  0.70178000  0.53485000  1.0
  H  H17  1  0.14524000  0.20179000  0.46515000  1.0
  H  H18  1  0.14526000  0.70180000  0.03485000  1.0
  H  H19  1  0.85477000  0.20180000  0.96515000  1.0
  H  H20  1  0.95957000  0.63044000  0.61403000  1.0
  H  H21  1  0.04040000  0.13044000  0.38597000  1.0
  H  H22  1  0.04043000  0.63046000  0.11403000  1.0
  H  H23  1  0.95960000  0.13043000  0.88597000  1.0
  H  H24  1  0.68341000  0.57976000  0.68538000  1.0
  H  H25  1  0.31657000  0.07981000  0.31463000  1.0
  H  H26  1  0.31656000  0.57981000  0.18538000  1.0
  H  H27  1  0.68344000  0.07981000  0.81460000  1.0
  H  H28  1  0.71924000  0.98049000  0.51107000  1.0
  H  H29  1  0.28075000  0.48049000  0.48893000  1.0
  H  H30  1  0.28074000  0.98051000  0.01107000  1.0
  H  H31  1  0.71926000  0.48051000  0.98894000  1.0
  H  H32  1  0.80209000  0.15575000  0.53123000  1.0
  H  H33  1  0.19789000  0.65579000  0.46877000  1.0
  H  H34  1  0.19792000  0.15578000  0.03124000  1.0
  H  H35  1  0.80211000  0.65577000  0.96877000  1.0
  H  H36  1  0.61674000  0.60112000  0.83379000  1.0
  H  H37  1  0.38326000  0.10106000  0.16621000  1.0
  H  H38  1  0.38328000  0.60105000  0.33379000  1.0
  H  H39  1  0.61673000  0.10107000  0.66620000  1.0
  C  C40  1  0.44240000  0.73298000  0.65261000  1.0
  C  C41  1  0.55753000  0.23305000  0.34740000  1.0
  C  C42  1  0.55753000  0.73305000  0.15263000  1.0
  C  C43  1  0.44246000  0.23301000  0.84738000  1.0
  C  C44  1  0.56128000  0.65073000  0.70710000  1.0
  C  C45  1  0.43869000  0.15074000  0.29293000  1.0
  C  C46  1  0.43870000  0.65073000  0.20710000  1.0
  C  C47  1  0.56132000  0.15074000  0.79290000  1.0
  C  C48  1  0.52384000  0.66275000  0.78991000  1.0
  C  C49  1  0.47615000  0.16272000  0.21012000  1.0
  C  C50  1  0.47615000  0.66271000  0.28990000  1.0
  C  C51  1  0.52387000  0.16273000  0.71010000  1.0
  C  C52  1  0.36560000  0.75537000  0.81633000  1.0
  C  C53  1  0.63442000  0.25535000  0.18367000  1.0
  C  C54  1  0.63442000  0.75533000  0.31634000  1.0
  C  C55  1  0.36557000  0.25534000  0.68367000  1.0
  C  C56  1  0.25134000  0.83300000  0.75788000  1.0
  C  C57  1  0.74868000  0.33302000  0.24212000  1.0
  C  C58  1  0.74867000  0.83300000  0.25790000  1.0
  C  C59  1  0.25133000  0.33301000  0.74210000  1.0
  C  C60  1  0.07900000  0.93699000  0.77988000  1.0
  C  C61  1  0.92100000  0.43699000  0.22011000  1.0
  C  C62  1  0.92096000  0.93697000  0.27990000  1.0
  C  C63  1  0.07905000  0.43695000  0.72011000  1.0
  C  C64  1  0.32533000  0.76719000  0.90598000  1.0
  C  C65  1  0.67471000  0.26717000  0.09399000  1.0
  C  C66  1  0.67468000  0.76713000  0.40601000  1.0
  C  C67  1  0.32528000  0.26714000  0.59399000  1.0
  N  N68  1  0.29081000  0.82187000  0.67750000  1.0
  N  N69  1  0.70916000  0.32192000  0.32250000  1.0
  N  N70  1  0.70914000  0.82191000  0.17753000  1.0
  N  N71  1  0.29086000  0.32188000  0.82248000  1.0
  O  O72  1  0.19980000  0.85851000  0.47603000  1.0
  O  O73  1  0.80020000  0.35847000  0.52397000  1.0
  O  O74  1  0.80019000  0.85854000  0.97602000  1.0
  O  O75  1  0.19984000  0.35854000  0.02398000  1.0
  O  O76  1  0.90507000  0.72916000  0.59014000  1.0
  O  O77  1  0.09493000  0.22917000  0.40987000  1.0
  O  O78  1  0.09489000  0.72919000  0.09013000  1.0
  O  O79  1  0.90510000  0.22917000  0.90986000  1.0
  O  O80  1  0.80178000  0.04396000  0.54913000  1.0
  O  O81  1  0.19818000  0.54398000  0.45087000  1.0
  O  O82  1  0.19821000  0.04398000  0.04914000  1.0
  O  O83  1  0.80179000  0.54398000  0.95086000  1.0
  O  O84  1  0.98814000  0.00490000  0.72229000  1.0
  O  O85  1  0.01192000  0.50487000  0.27770000  1.0
  O  O86  1  0.01186000  0.00488000  0.22232000  1.0
  O  O87  1  0.98814000  0.50488000  0.77768000  1.0
  O  O88  1  0.03937000  0.95299000  0.85512000  1.0
  O  O89  1  0.96060000  0.45299000  0.14486000  1.0
  O  O90  1  0.96059000  0.95300000  0.35513000  1.0
  O  O91  1  0.03939000  0.45295000  0.64487000  1.0
  O  O92  1  0.21296000  0.66358000  0.93780000  1.0
  O  O93  1  0.78709000  0.16358000  0.06217000  1.0
  O  O94  1  0.78707000  0.66353000  0.43782000  1.0
  O  O95  1  0.21290000  0.16351000  0.56218000  1.0
  O  O96  1  0.41450000  0.87240000  0.94646000  1.0
  O  O97  1  0.58552000  0.37241000  0.05355000  1.0
  O  O98  1  0.58548000  0.87234000  0.44647000  1.0
  O  O99  1  0.41451000  0.37233000  0.55353000  1.0
