# generated using pymatgen
data_ZnH13C20N4ClO3
_symmetry_space_group_name_H-M   'P 1'
_cell_length_a   6.85790000
_cell_length_b   9.27185000
_cell_length_c   13.21610000
_cell_angle_alpha   90.94610000
_cell_angle_beta   90.00000000
_cell_angle_gamma   89.99970000
_symmetry_Int_Tables_number   1
_chemical_formula_structural   ZnH13C20N4ClO3
_chemical_formula_sum   'Zn2 H26 C40 N8 Cl2 O6'
_cell_volume   840.23670634
_cell_formula_units_Z   2
loop_
 _symmetry_equiv_pos_site_id
 _symmetry_equiv_pos_as_xyz
  1  'x, y, z'
loop_
 _atom_site_type_symbol
 _atom_site_label
 _atom_site_symmetry_multiplicity
 _atom_site_fract_x
 _atom_site_fract_y
 _atom_site_fract_z
 _atom_site_occupancy
  Zn  Zn0  1  0.61116000  0.50396000  0.20655000  1.0
  Zn  Zn1  1  0.11116000  0.49604000  0.79345000  1.0
  H  H2  1  0.08789000  0.67646000  0.26322000  1.0
  H  H3  1  0.58790000  0.32354000  0.73678000  1.0
  H  H4  1  0.14253000  0.82040000  0.87323000  1.0
  H  H5  1  0.64252000  0.17960000  0.12677000  1.0
  H  H6  1  0.21478000  0.05996000  0.79467000  1.0
  H  H7  1  0.71478000  0.94004000  0.20533000  1.0
  H  H8  1  0.23134000  0.07312000  0.60498000  1.0
  H  H9  1  0.73134000  0.92688000  0.39501000  1.0
  H  H10  1  0.09599000  0.43257000  0.34040000  1.0
  H  H11  1  0.59599000  0.56743000  0.65960000  1.0
  H  H12  1  0.08472000  0.21013000  0.44776000  1.0
  H  H13  1  0.58472000  0.78987000  0.55224000  1.0
  H  H14  1  0.05366000  0.24246000  0.63649000  1.0
  H  H15  1  0.55366000  0.75754000  0.36351000  1.0
  H  H16  1  0.08985000  0.15859000  0.28432000  1.0
  H  H17  1  0.58985000  0.84141000  0.71568000  1.0
  H  H18  1  0.13611000  0.30442000  0.13047000  1.0
  H  H19  1  0.63611000  0.69558000  0.86953000  1.0
  H  H20  1  0.28024000  0.18998000  0.97545000  1.0
  H  H21  1  0.78024000  0.81002000  0.02456000  1.0
  H  H22  1  0.36373000  0.92805000  0.97584000  1.0
  H  H23  1  0.86374000  0.07195000  0.02416000  1.0
  H  H24  1  0.60217000  0.39447000  0.02190000  1.0
  H  H25  1  0.10217000  0.60554000  0.97811000  1.0
  H  H26  1  0.43223000  0.51399000  0.04271000  1.0
  H  H27  1  0.93223000  0.48601000  0.95729000  1.0
  C  C28  1  0.14852000  0.83178000  0.79140000  1.0
  C  C29  1  0.64851000  0.16822000  0.20860000  1.0
  C  C30  1  0.18853000  0.96515000  0.74693000  1.0
  C  C31  1  0.68852000  0.03485000  0.25307000  1.0
  C  C32  1  0.19410000  0.97338000  0.64256000  1.0
  C  C33  1  0.69410000  0.02661000  0.35744000  1.0
  C  C34  1  0.15415000  0.84978000  0.58282000  1.0
  C  C35  1  0.65414000  0.15022000  0.41718000  1.0
  C  C36  1  0.15066000  0.84450000  0.47444000  1.0
  C  C37  1  0.65065000  0.15549000  0.52555000  1.0
  C  C38  1  0.11636000  0.71326000  0.42249000  1.0
  C  C39  1  0.61635000  0.28674000  0.57751000  1.0
  C  C40  1  0.09637000  0.57795000  0.47101000  1.0
  C  C41  1  0.59637000  0.42205000  0.52899000  1.0
  C  C42  1  0.09174000  0.44070000  0.42289000  1.0
  C  C43  1  0.59174000  0.55930000  0.57711000  1.0
  C  C44  1  0.08251000  0.31840000  0.48143000  1.0
  C  C45  1  0.58251000  0.68160000  0.51857000  1.0
  C  C46  1  0.07151000  0.33423000  0.58706000  1.0
  C  C47  1  0.57151000  0.66577000  0.41294000  1.0
  C  C48  1  0.12019000  0.71867000  0.63405000  1.0
  C  C49  1  0.62018000  0.28133000  0.36595000  1.0
  C  C50  1  0.09580000  0.58338000  0.57867000  1.0
  C  C51  1  0.59580000  0.41662000  0.42133000  1.0
  C  C52  1  0.17386000  0.88895000  0.31481000  1.0
  C  C53  1  0.67386000  0.11105000  0.68519000  1.0
  C  C54  1  0.20353000  0.96271000  0.21886000  1.0
  C  C55  1  0.70353000  0.03729000  0.78114000  1.0
  C  C56  1  0.15203000  0.10956000  0.21625000  1.0
  C  C57  1  0.65203000  0.89045000  0.78375000  1.0
  C  C58  1  0.17766000  0.19105000  0.12990000  1.0
  C  C59  1  0.67766000  0.80895000  0.87010000  1.0
  C  C60  1  0.25498000  0.12603000  0.04274000  1.0
  C  C61  1  0.75498000  0.87397000  0.95726000  1.0
  C  C62  1  0.30147000  0.97986000  0.04287000  1.0
  C  C63  1  0.80147000  0.02014000  0.95713000  1.0
  C  C64  1  0.27905000  0.89630000  0.12969000  1.0
  C  C65  1  0.77905000  0.10370000  0.87031000  1.0
  C  C66  1  0.35626000  0.74391000  0.12097000  1.0
  C  C67  1  0.85626000  0.25609000  0.87903000  1.0
  N  N68  1  0.11856000  0.71234000  0.73635000  1.0
  N  N69  1  0.61856000  0.28766000  0.26365000  1.0
  N  N70  1  0.07976000  0.46242000  0.63392000  1.0
  N  N71  1  0.57976000  0.53758000  0.36608000  1.0
  N  N72  1  0.18577000  0.95257000  0.40684000  1.0
  N  N73  1  0.68577000  0.04743000  0.59316000  1.0
  N  N74  1  0.13000000  0.74520000  0.32200000  1.0
  N  N75  1  0.62999000  0.25481000  0.67800000  1.0
  Cl  Cl76  1  0.93320000  0.54063000  0.17017000  1.0
  Cl  Cl77  1  0.43320000  0.45936000  0.82983000  1.0
  O  O78  1  0.46847000  0.70150000  0.19203000  1.0
  O  O79  1  0.96847000  0.29850000  0.80797000  1.0
  O  O80  1  0.31424000  0.67133000  0.04179000  1.0
  O  O81  1  0.81425000  0.32867000  0.95821000  1.0
  O  O82  1  0.50270000  0.42859000  0.07114000  1.0
  O  O83  1  0.00269000  0.57141000  0.92886000  1.0
