# generated using pymatgen
data_La2CuH28C32S4N2O19
_symmetry_space_group_name_H-M   'P 1'
_cell_length_a   13.10740000
_cell_length_b   16.74250000
_cell_length_c   21.39120000
_cell_angle_alpha   89.99990000
_cell_angle_beta   95.76090000
_cell_angle_gamma   90.00000000
_symmetry_Int_Tables_number   1
_chemical_formula_structural   La2CuH28C32S4N2O19
_chemical_formula_sum   'La8 Cu4 H112 C128 S16 N8 O76'
_cell_volume   4670.60372083
_cell_formula_units_Z   4
loop_
 _symmetry_equiv_pos_site_id
 _symmetry_equiv_pos_as_xyz
  1  'x, y, z'
loop_
 _atom_site_type_symbol
 _atom_site_label
 _atom_site_symmetry_multiplicity
 _atom_site_fract_x
 _atom_site_fract_y
 _atom_site_fract_z
 _atom_site_occupancy
  La  La0  1  0.13591000  0.25706000  0.81369000  1.0
  La  La1  1  0.36409000  0.75706000  0.68631000  1.0
  La  La2  1  0.86408000  0.74294000  0.18631000  1.0
  La  La3  1  0.63592000  0.24294000  0.31369000  1.0
  La  La4  1  0.34270000  0.25604000  0.19357000  1.0
  La  La5  1  0.15730000  0.75604000  0.30643000  1.0
  La  La6  1  0.65730000  0.74396000  0.80643000  1.0
  La  La7  1  0.84270000  0.24396000  0.69357000  1.0
  Cu  Cu8  1  0.74738000  0.73877000  0.00302000  1.0
  Cu  Cu9  1  0.75262000  0.23877000  0.49698000  1.0
  Cu  Cu10  1  0.25262000  0.26123000  0.99698000  1.0
  Cu  Cu11  1  0.24738000  0.76123000  0.50302000  1.0
  H  H12  1  0.48932000  0.91776000  0.03094000  1.0
  H  H13  1  0.01068000  0.41776000  0.46907000  1.0
  H  H14  1  0.51068000  0.08224000  0.96907000  1.0
  H  H15  1  0.98932000  0.58224000  0.53094000  1.0
  H  H16  1  0.41596000  0.04318000  0.09014000  1.0
  H  H17  1  0.08405000  0.54318000  0.40986000  1.0
  H  H18  1  0.58405000  0.95681000  0.90986000  1.0
  H  H19  1  0.91595000  0.45682000  0.59014000  1.0
  H  H20  1  0.98815000  0.54778000  0.96074000  1.0
  H  H21  1  0.51185000  0.04778000  0.53926000  1.0
  H  H22  1  0.01186000  0.45222000  0.03926000  1.0
  H  H23  1  0.48815000  0.95222000  0.46074000  1.0
  H  H24  1  0.03281000  0.41028000  0.90720000  1.0
  H  H25  1  0.46718000  0.91028000  0.59281000  1.0
  H  H26  1  0.96719000  0.58972000  0.09280000  1.0
  H  H27  1  0.53281000  0.08973000  0.40720000  1.0
  H  H28  1  0.50924000  0.55352000  0.03662000  1.0
  H  H29  1  0.99076000  0.05353000  0.46339000  1.0
  H  H30  1  0.49076000  0.44647000  0.96338000  1.0
  H  H31  1  0.00924000  0.94647000  0.53662000  1.0
  H  H32  1  0.45124000  0.41512000  0.08438000  1.0
  H  H33  1  0.04876000  0.91512000  0.41563000  1.0
  H  H34  1  0.54876000  0.58488000  0.91563000  1.0
  H  H35  1  0.95124000  0.08488000  0.58437000  1.0
  H  H36  1  0.01888000  0.91673000  0.96543000  1.0
  H  H37  1  0.48112000  0.41673000  0.53457000  1.0
  H  H38  1  0.98112000  0.08327000  0.03457000  1.0
  H  H39  1  0.51888000  0.58326000  0.46543000  1.0
  H  H40  1  0.08151000  0.04027000  0.89985000  1.0
  H  H41  1  0.41849000  0.54027000  0.60015000  1.0
  H  H42  1  0.91849000  0.95973000  0.10015000  1.0
  H  H43  1  0.58151000  0.45973000  0.39986000  1.0
  H  H44  1  0.40285000  0.36151000  0.67935000  1.0
  H  H45  1  0.09715000  0.86151000  0.82065000  1.0
  H  H46  1  0.59715000  0.63849000  0.32065000  1.0
  H  H47  1  0.90285000  0.13849000  0.17935000  1.0
  H  H48  1  0.33060000  0.42505000  0.72427000  1.0
  H  H49  1  0.16940000  0.92505000  0.77573000  1.0
  H  H50  1  0.66940000  0.57495000  0.27573000  1.0
  H  H51  1  0.83060000  0.07495000  0.22427000  1.0
  H  H52  1  0.27460000  0.33502000  0.69379000  1.0
  H  H53  1  0.22540000  0.83502000  0.80621000  1.0
  H  H54  1  0.72540000  0.66499000  0.30621000  1.0
  H  H55  1  0.77460000  0.16499000  0.19379000  1.0
  H  H56  1  0.47226000  0.23394000  0.86184000  1.0
  H  H57  1  0.02773000  0.73394000  0.63816000  1.0
  H  H58  1  0.52773000  0.76606000  0.13816000  1.0
  H  H59  1  0.97227000  0.26605000  0.36184000  1.0
  H  H60  1  0.50910000  0.32574000  0.89905000  1.0
  H  H61  1  0.99090000  0.82574000  0.60095000  1.0
  H  H62  1  0.49090000  0.67426000  0.10094000  1.0
  H  H63  1  0.00910000  0.17426000  0.39905000  1.0
  H  H64  1  0.59791000  0.27421000  0.85509000  1.0
  H  H65  1  0.90209000  0.77421000  0.64491000  1.0
  H  H66  1  0.40209000  0.72579000  0.14491000  1.0
  H  H67  1  0.09791000  0.22579000  0.35509000  1.0
  H  H68  1  0.51625000  0.41770000  0.73472000  1.0
  H  H69  1  0.98375000  0.91770000  0.76528000  1.0
  H  H70  1  0.48375000  0.58230000  0.26528000  1.0
  H  H71  1  0.01625000  0.08230000  0.23472000  1.0
  H  H72  1  0.62294000  0.36991000  0.77752000  1.0
  H  H73  1  0.87706000  0.86991000  0.72248000  1.0
  H  H74  1  0.37706000  0.63009000  0.22248000  1.0
  H  H75  1  0.12294000  0.13008000  0.27752000  1.0
  H  H76  1  0.54950000  0.44266000  0.81480000  1.0
  H  H77  1  0.95050000  0.94266000  0.68520000  1.0
  H  H78  1  0.45050000  0.55734000  0.18520000  1.0
  H  H79  1  0.04950000  0.05734000  0.31480000  1.0
  H  H80  1  0.03678000  0.37649000  0.30182000  1.0
  H  H81  1  0.46322000  0.87649000  0.19819000  1.0
  H  H82  1  0.96322000  0.62351000  0.69818000  1.0
  H  H83  1  0.53678000  0.12351000  0.80181000  1.0
  H  H84  1  0.10155000  0.44578000  0.25715000  1.0
  H  H85  1  0.39846000  0.94578000  0.24285000  1.0
  H  H86  1  0.89845000  0.55422000  0.74285000  1.0
  H  H87  1  0.60155000  0.05422000  0.75715000  1.0
  H  H88  1  0.17301000  0.36943000  0.29883000  1.0
  H  H89  1  0.32699000  0.86944000  0.20117000  1.0
  H  H90  1  0.82699000  0.63057000  0.70117000  1.0
  H  H91  1  0.67301000  0.13057000  0.79883000  1.0
  H  H92  1  0.02985000  0.21903000  0.13497000  1.0
  H  H93  1  0.47015000  0.71903000  0.36502000  1.0
  H  H94  1  0.97015000  0.78097000  0.86502000  1.0
  H  H95  1  0.52985000  0.28097000  0.63497000  1.0
  H  H96  1  0.01591000  0.30195000  0.08298000  1.0
  H  H97  1  0.48408000  0.80195000  0.41702000  1.0
  H  H98  1  0.98408000  0.69805000  0.91701000  1.0
  H  H99  1  0.51591000  0.19805000  0.58298000  1.0
  H  H100  1  0.90516000  0.26050000  0.11367000  1.0
  H  H101  1  0.59484000  0.76050000  0.38633000  1.0
  H  H102  1  0.09484000  0.73950000  0.88633000  1.0
  H  H103  1  0.40516000  0.23950000  0.61367000  1.0
  H  H104  1  0.93304000  0.42553000  0.22197000  1.0
  H  H105  1  0.56696000  0.92553000  0.27803000  1.0
  H  H106  1  0.06696000  0.57447000  0.77803000  1.0
  H  H107  1  0.43304000  0.07447000  0.72197000  1.0
  H  H108  1  0.84477000  0.34941000  0.19445000  1.0
  H  H109  1  0.65523000  0.84941000  0.30555000  1.0
  H  H110  1  0.15523000  0.65059000  0.80555000  1.0
  H  H111  1  0.34477000  0.15059000  0.69445000  1.0
  H  H112  1  0.89797000  0.41528000  0.14025000  1.0
  H  H113  1  0.60203000  0.91528000  0.35975000  1.0
  H  H114  1  0.10203000  0.58472000  0.85975000  1.0
  H  H115  1  0.39797000  0.08472000  0.64025000  1.0
  H  H116  1  0.97196000  0.22605000  0.90375000  1.0
  H  H117  1  0.52804000  0.72605000  0.59625000  1.0
  H  H118  1  0.02804000  0.77395000  0.09625000  1.0
  H  H119  1  0.47196000  0.27395000  0.40375000  1.0
  H  H120  1  0.06632000  0.20234000  0.95271000  1.0
  H  H121  1  0.43369000  0.70234000  0.54729000  1.0
  H  H122  1  0.93368000  0.79766000  0.04729000  1.0
  H  H123  1  0.56631000  0.29766000  0.45271000  1.0
  C  C124  1  0.62182000  0.92204000  0.10058000  1.0
  C  C125  1  0.87819000  0.42204000  0.39942000  1.0
  C  C126  1  0.37818000  0.07796000  0.89942000  1.0
  C  C127  1  0.12182000  0.57796000  0.60058000  1.0
  C  C128  1  0.52708000  0.94701000  0.07243000  1.0
  C  C129  1  0.97292000  0.44701000  0.42757000  1.0
  C  C130  1  0.47292000  0.05300000  0.92757000  1.0
  C  C131  1  0.02708000  0.55299000  0.57243000  1.0
  C  C132  1  0.48846000  0.01298000  0.10345000  1.0
  C  C133  1  0.01154000  0.51298000  0.39655000  1.0
  C  C134  1  0.51154000  0.98702000  0.89656000  1.0
  C  C135  1  0.98846000  0.48702000  0.60345000  1.0
  C  C136  1  0.55454000  0.03806000  0.15454000  1.0
  C  C137  1  0.94546000  0.53806000  0.34546000  1.0
  C  C138  1  0.44547000  0.96194000  0.84547000  1.0
  C  C139  1  0.05453000  0.46194000  0.65454000  1.0
  C  C140  1  0.68624000  0.85603000  0.08147000  1.0
  C  C141  1  0.81376000  0.35603000  0.41853000  1.0
  C  C142  1  0.31376000  0.14397000  0.91853000  1.0
  C  C143  1  0.18624000  0.64397000  0.58147000  1.0
  C  C144  1  0.53618000  0.10619000  0.19643000  1.0
  C  C145  1  0.96382000  0.60619000  0.30357000  1.0
  C  C146  1  0.46383000  0.89381000  0.80357000  1.0
  C  C147  1  0.03618000  0.39381000  0.69643000  1.0
  C  C148  1  0.84284000  0.54638000  0.90211000  1.0
  C  C149  1  0.65716000  0.04638000  0.59789000  1.0
  C  C150  1  0.15716000  0.45362000  0.09789000  1.0
  C  C151  1  0.34284000  0.95362000  0.40211000  1.0
  C  C152  1  0.93846000  0.51671000  0.92486000  1.0
  C  C153  1  0.56153000  0.01671000  0.57514000  1.0
  C  C154  1  0.06154000  0.48329000  0.07514000  1.0
  C  C155  1  0.43846000  0.98329000  0.42486000  1.0
  C  C156  1  0.96210000  0.44395000  0.89621000  1.0
  C  C157  1  0.53790000  0.94395000  0.60379000  1.0
  C  C158  1  0.03790000  0.55605000  0.10378000  1.0
  C  C159  1  0.46210000  0.05605000  0.39622000  1.0
  C  C160  1  0.88321000  0.41915000  0.85220000  1.0
  C  C161  1  0.61678000  0.91915000  0.64780000  1.0
  C  C162  1  0.11678000  0.58085000  0.14780000  1.0
  C  C163  1  0.38321000  0.08085000  0.35220000  1.0
  C  C164  1  0.79114000  0.61963000  0.92102000  1.0
  C  C165  1  0.70886000  0.11963000  0.57898000  1.0
  C  C166  1  0.20886000  0.38037000  0.07897000  1.0
  C  C167  1  0.29114000  0.88037000  0.42102000  1.0
  C  C168  1  0.87444000  0.34751000  0.81198000  1.0
  C  C169  1  0.62556000  0.84751000  0.68802000  1.0
  C  C170  1  0.12556000  0.65249000  0.18802000  1.0
  C  C171  1  0.37444000  0.15249000  0.31198000  1.0
  C  C172  1  0.64789000  0.54558000  0.10089000  1.0
  C  C173  1  0.85211000  0.04558000  0.39911000  1.0
  C  C174  1  0.35211000  0.45442000  0.89911000  1.0
  C  C175  1  0.14789000  0.95442000  0.60089000  1.0
  C  C176  1  0.55296000  0.51982000  0.07359000  1.0
  C  C177  1  0.94704000  0.01982000  0.42641000  1.0
  C  C178  1  0.44704000  0.48018000  0.92641000  1.0
  C  C179  1  0.05296000  0.98018000  0.57359000  1.0
  C  C180  1  0.52252000  0.44670000  0.09854000  1.0
  C  C181  1  0.97748000  0.94670000  0.40146000  1.0
  C  C182  1  0.47748000  0.55330000  0.90146000  1.0
  C  C183  1  0.02253000  0.05330000  0.59854000  1.0
  C  C184  1  0.59535000  0.41736000  0.14447000  1.0
  C  C185  1  0.90465000  0.91736000  0.35554000  1.0
  C  C186  1  0.40464000  0.58264000  0.85553000  1.0
  C  C187  1  0.09535000  0.08264000  0.64447000  1.0
  C  C188  1  0.70502000  0.61691000  0.08377000  1.0
  C  C189  1  0.79498000  0.11691000  0.41623000  1.0
  C  C190  1  0.29498000  0.38309000  0.91623000  1.0
  C  C191  1  0.20502000  0.88309000  0.58377000  1.0
  C  C192  1  0.59132000  0.34194000  0.18001000  1.0
  C  C193  1  0.90868000  0.84194000  0.31999000  1.0
  C  C194  1  0.40867000  0.65806000  0.81999000  1.0
  C  C195  1  0.09132000  0.15806000  0.68001000  1.0
  C  C196  1  0.87460000  0.92219000  0.90537000  1.0
  C  C197  1  0.62540000  0.42219000  0.59463000  1.0
  C  C198  1  0.12540000  0.07781000  0.09463000  1.0
  C  C199  1  0.37460000  0.57780000  0.40537000  1.0
  C  C200  1  0.97338000  0.94634000  0.92684000  1.0
  C  C201  1  0.52662000  0.44634000  0.57316000  1.0
  C  C202  1  0.02662000  0.05366000  0.07316000  1.0
  C  C203  1  0.47338000  0.55365000  0.42684000  1.0
  C  C204  1  0.00660000  0.01165000  0.89256000  1.0
  C  C205  1  0.49340000  0.51165000  0.60744000  1.0
  C  C206  1  0.99340000  0.98835000  0.10744000  1.0
  C  C207  1  0.50660000  0.48835000  0.39256000  1.0
  C  C208  1  0.93163000  0.03739000  0.84638000  1.0
  C  C209  1  0.56837000  0.53738000  0.65362000  1.0
  C  C210  1  0.06837000  0.96262000  0.15362000  1.0
  C  C211  1  0.43163000  0.46262000  0.34638000  1.0
  C  C212  1  0.81522000  0.85457000  0.92685000  1.0
  C  C213  1  0.68478000  0.35457000  0.57315000  1.0
  C  C214  1  0.18478000  0.14543000  0.07315000  1.0
  C  C215  1  0.31522000  0.64543000  0.42685000  1.0
  C  C216  1  0.94052000  0.10538000  0.80283000  1.0
  C  C217  1  0.55948000  0.60538000  0.69717000  1.0
  C  C218  1  0.05948000  0.89462000  0.19717000  1.0
  C  C219  1  0.44052000  0.39462000  0.30283000  1.0
  C  C220  1  0.38255000  0.31847000  0.77340000  1.0
  C  C221  1  0.11745000  0.81847000  0.72660000  1.0
  C  C222  1  0.61745000  0.68153000  0.22659000  1.0
  C  C223  1  0.88255000  0.18153000  0.27340000  1.0
  C  C224  1  0.34639000  0.36225000  0.71380000  1.0
  C  C225  1  0.15361000  0.86225000  0.78620000  1.0
  C  C226  1  0.65361000  0.63775000  0.28620000  1.0
  C  C227  1  0.84639000  0.13775000  0.21380000  1.0
  C  C228  1  0.51664000  0.28853000  0.85742000  1.0
  C  C229  1  0.98336000  0.78853000  0.64258000  1.0
  C  C230  1  0.48336000  0.71147000  0.14258000  1.0
  C  C231  1  0.01664000  0.21147000  0.35742000  1.0
  C  C232  1  0.54546000  0.39353000  0.78040000  1.0
  C  C233  1  0.95454000  0.89353000  0.71960000  1.0
  C  C234  1  0.45454000  0.60647000  0.21960000  1.0
  C  C235  1  0.04546000  0.10647000  0.28040000  1.0
  C  C236  1  0.08736000  0.32812000  0.21586000  1.0
  C  C237  1  0.41264000  0.82812000  0.28414000  1.0
  C  C238  1  0.91264000  0.67188000  0.78414000  1.0
  C  C239  1  0.58736000  0.17188000  0.71586000  1.0
  C  C240  1  0.09961000  0.38296000  0.27193000  1.0
  C  C241  1  0.40039000  0.88296000  0.22807000  1.0
  C  C242  1  0.90039000  0.61704000  0.72807000  1.0
  C  C243  1  0.59961000  0.11704000  0.77193000  1.0
  C  C244  1  0.98683000  0.27416000  0.12429000  1.0
  C  C245  1  0.51317000  0.77416000  0.37571000  1.0
  C  C246  1  0.01317000  0.72584000  0.87571000  1.0
  C  C247  1  0.48683000  0.22584000  0.62429000  1.0
  C  C248  1  0.91406000  0.38216000  0.18449000  1.0
  C  C249  1  0.58595000  0.88216000  0.31551000  1.0
  C  C250  1  0.08594000  0.61784000  0.81551000  1.0
  C  C251  1  0.41406000  0.11784000  0.68449000  1.0
  S  S252  1  0.66317000  0.98001000  0.16467000  1.0
  S  S253  1  0.83683000  0.48001000  0.33533000  1.0
  S  S254  1  0.33684000  0.01999000  0.83533000  1.0
  S  S255  1  0.16317000  0.51999000  0.66467000  1.0
  S  S256  1  0.78208000  0.48536000  0.84562000  1.0
  S  S257  1  0.71791000  0.98536000  0.65438000  1.0
  S  S258  1  0.21792000  0.51464000  0.15438000  1.0
  S  S259  1  0.28208000  0.01464000  0.34562000  1.0
  S  S260  1  0.69873000  0.48061000  0.15784000  1.0
  S  S261  1  0.80127000  0.98061000  0.34216000  1.0
  S  S262  1  0.30127000  0.51939000  0.84216000  1.0
  S  S263  1  0.19873000  0.01939000  0.65784000  1.0
  S  S264  1  0.82209000  0.98066000  0.84416000  1.0
  S  S265  1  0.67791000  0.48066000  0.65585000  1.0
  S  S266  1  0.17791000  0.01934000  0.15584000  1.0
  S  S267  1  0.32209000  0.51934000  0.34416000  1.0
  N  N268  1  0.47882000  0.33062000  0.80003000  1.0
  N  N269  1  0.02118000  0.83062000  0.69997000  1.0
  N  N270  1  0.52118000  0.66938000  0.19997000  1.0
  N  N271  1  0.97882000  0.16938000  0.30003000  1.0
  N  N272  1  0.99864000  0.32734000  0.17857000  1.0
  N  N273  1  0.50137000  0.82734000  0.32143000  1.0
  N  N274  1  0.00137000  0.67266000  0.82143000  1.0
  N  N275  1  0.49863000  0.17266000  0.67857000  1.0
  O  O276  1  0.65493000  0.82067000  0.02996000  1.0
  O  O277  1  0.84507000  0.32067000  0.47004000  1.0
  O  O278  1  0.34507000  0.17933000  0.97003000  1.0
  O  O279  1  0.15493000  0.67933000  0.52996000  1.0
  O  O280  1  0.04197000  0.23990000  0.91908000  1.0
  O  O281  1  0.45803000  0.73990000  0.58092000  1.0
  O  O282  1  0.95803000  0.76010000  0.08092000  1.0
  O  O283  1  0.54197000  0.26010000  0.41908000  1.0
  O  O284  1  0.76798000  0.83876000  0.11580000  1.0
  O  O285  1  0.73202000  0.33876000  0.38420000  1.0
  O  O286  1  0.23202000  0.16124000  0.88420000  1.0
  O  O287  1  0.26798000  0.66124000  0.61580000  1.0
  O  O288  1  0.44727000  0.13668000  0.18735000  1.0
  O  O289  1  0.05273000  0.63668000  0.31265000  1.0
  O  O290  1  0.55273000  0.86333000  0.81265000  1.0
  O  O291  1  0.94727000  0.36332000  0.68735000  1.0
  O  O292  1  0.60803000  0.12858000  0.23735000  1.0
  O  O293  1  0.89197000  0.62858000  0.26265000  1.0
  O  O294  1  0.39197000  0.87142000  0.76265000  1.0
  O  O295  1  0.10803000  0.37142000  0.73735000  1.0
  O  O296  1  0.83346000  0.65577000  0.96968000  1.0
  O  O297  1  0.66654000  0.15577000  0.53031000  1.0
  O  O298  1  0.16654000  0.34423000  0.03031000  1.0
  O  O299  1  0.33346000  0.84423000  0.46968000  1.0
  O  O300  1  0.70890000  0.64201000  0.88915000  1.0
  O  O301  1  0.79110000  0.14201000  0.61085000  1.0
  O  O302  1  0.29110000  0.35799000  0.11085000  1.0
  O  O303  1  0.20890000  0.85799000  0.38915000  1.0
  O  O304  1  0.79017000  0.33659000  0.77777000  1.0
  O  O305  1  0.70983000  0.83659000  0.72223000  1.0
  O  O306  1  0.20983000  0.66341000  0.22223000  1.0
  O  O307  1  0.29017000  0.16341000  0.27777000  1.0
  O  O308  1  0.94978000  0.29886000  0.81142000  1.0
  O  O309  1  0.55022000  0.79886000  0.68858000  1.0
  O  O310  1  0.05022000  0.70114000  0.18858000  1.0
  O  O311  1  0.44978000  0.20114000  0.31142000  1.0
  O  O312  1  0.78906000  0.63549000  0.11538000  1.0
  O  O313  1  0.71094000  0.13549000  0.38462000  1.0
  O  O314  1  0.21094000  0.36451000  0.88462000  1.0
  O  O315  1  0.28907000  0.86451000  0.61538000  1.0
  O  O316  1  0.66363000  0.65522000  0.03588000  1.0
  O  O317  1  0.83638000  0.15522000  0.46412000  1.0
  O  O318  1  0.33637000  0.34478000  0.96411000  1.0
  O  O319  1  0.16362000  0.84478000  0.53589000  1.0
  O  O320  1  0.66949000  0.32106000  0.21647000  1.0
  O  O321  1  0.83052000  0.82106000  0.28353000  1.0
  O  O322  1  0.33051000  0.67894000  0.78353000  1.0
  O  O323  1  0.16949000  0.17894000  0.71647000  1.0
  O  O324  1  0.50828000  0.30179000  0.17209000  1.0
  O  O325  1  0.99172000  0.80179000  0.32790000  1.0
  O  O326  1  0.49172000  0.69821000  0.82791000  1.0
  O  O327  1  0.00828000  0.19821000  0.67210000  1.0
  O  O328  1  0.84452000  0.82405000  0.98080000  1.0
  O  O329  1  0.65548000  0.32406000  0.51921000  1.0
  O  O330  1  0.15549000  0.17595000  0.01920000  1.0
  O  O331  1  0.34452000  0.67594000  0.48080000  1.0
  O  O332  1  0.73810000  0.82972000  0.89199000  1.0
  O  O333  1  0.76190000  0.32972000  0.60801000  1.0
  O  O334  1  0.26190000  0.17028000  0.10801000  1.0
  O  O335  1  0.23810000  0.67027000  0.39199000  1.0
  O  O336  1  0.86072000  0.12745000  0.76803000  1.0
  O  O337  1  0.63927000  0.62745000  0.73197000  1.0
  O  O338  1  0.13928000  0.87255000  0.23197000  1.0
  O  O339  1  0.36073000  0.37255000  0.26803000  1.0
  O  O340  1  0.02865000  0.13699000  0.80419000  1.0
  O  O341  1  0.47134000  0.63699000  0.69581000  1.0
  O  O342  1  0.97135000  0.86300000  0.19581000  1.0
  O  O343  1  0.52865000  0.36301000  0.30419000  1.0
  O  O344  1  0.32318000  0.27095000  0.79797000  1.0
  O  O345  1  0.17682000  0.77095000  0.70203000  1.0
  O  O346  1  0.67682000  0.72905000  0.20203000  1.0
  O  O347  1  0.82318000  0.22905000  0.29797000  1.0
  O  O348  1  0.15980000  0.28244000  0.20395000  1.0
  O  O349  1  0.34020000  0.78244000  0.29605000  1.0
  O  O350  1  0.84020000  0.71756000  0.79605000  1.0
  O  O351  1  0.65980000  0.21756000  0.70395000  1.0
