# generated using pymatgen
data_RbH7(C2O5)2
_symmetry_space_group_name_H-M   'P 1'
_cell_length_a   6.31980000
_cell_length_b   7.17288000
_cell_length_c   10.61690000
_cell_angle_alpha   94.02520000
_cell_angle_beta   100.60800000
_cell_angle_gamma   97.81490000
_symmetry_Int_Tables_number   1
_chemical_formula_structural   RbH7(C2O5)2
_chemical_formula_sum   'Rb2 H14 C8 O20'
_cell_volume   466.41157136
_cell_formula_units_Z   2
loop_
 _symmetry_equiv_pos_site_id
 _symmetry_equiv_pos_as_xyz
  1  'x, y, z'
loop_
 _atom_site_type_symbol
 _atom_site_label
 _atom_site_symmetry_multiplicity
 _atom_site_fract_x
 _atom_site_fract_y
 _atom_site_fract_z
 _atom_site_occupancy
  Rb  Rb0  1  0.65835000  0.64758000  0.27151000  1.0
  Rb  Rb1  1  0.34165000  0.35242000  0.72849000  1.0
  H  H2  1  0.13336000  0.43345000  0.24698000  1.0
  H  H3  1  0.86664000  0.56655000  0.75302000  1.0
  H  H4  1  0.14706000  0.93537000  0.24356000  1.0
  H  H5  1  0.85294000  0.06463000  0.75644000  1.0
  H  H6  1  0.63981000  0.15100000  0.23195000  1.0
  H  H7  1  0.36019000  0.84900000  0.76805000  1.0
  H  H8  1  0.26256000  0.30462000  0.39010000  1.0
  H  H9  1  0.73744000  0.69537000  0.60990000  1.0
  H  H10  1  0.23660000  0.52182000  0.42575000  1.0
  H  H11  1  0.76341000  0.47818000  0.57425000  1.0
  H  H12  1  0.41198000  0.19678000  0.07504000  1.0
  H  H13  1  0.58802000  0.80322000  0.92496000  1.0
  H  H14  1  0.64920000  0.29115000  0.06280000  1.0
  H  H15  1  0.35080000  0.70885000  0.93720000  1.0
  C  C16  1  0.08419000  0.51357000  0.06395000  1.0
  C  C17  1  0.91581000  0.48643000  0.93605000  1.0
  C  C18  1  0.98775000  0.95335000  0.06225000  1.0
  C  C19  1  0.01226000  0.04665000  0.93775000  1.0
  C  C20  1  0.22486000  0.94058000  0.45790000  1.0
  C  C21  1  0.77514000  0.05942000  0.54210000  1.0
  C  C22  1  0.74290000  0.17519000  0.42300000  1.0
  C  C23  1  0.25710000  0.82481000  0.57699000  1.0
  O  O24  1  0.26830000  0.43239000  0.35716000  1.0
  O  O25  1  0.73170000  0.56761000  0.64284000  1.0
  O  O26  1  0.55873000  0.24791000  0.12550000  1.0
  O  O27  1  0.44127000  0.75209000  0.87450000  1.0
  O  O28  1  0.01172000  0.42730000  0.15458000  1.0
  O  O29  1  0.98828000  0.57270000  0.84542000  1.0
  O  O30  1  0.26553000  0.61020000  0.07274000  1.0
  O  O31  1  0.73447000  0.38980000  0.92726000  1.0
  O  O32  1  0.15319000  0.00842000  0.15584000  1.0
  O  O33  1  0.84681000  0.99158000  0.84416000  1.0
  O  O34  1  0.82373000  0.83835000  0.06529000  1.0
  O  O35  1  0.17627000  0.16165000  0.93471000  1.0
  O  O36  1  0.15724000  0.83983000  0.35049000  1.0
  O  O37  1  0.84275000  0.16017000  0.64951000  1.0
  O  O38  1  0.73222000  0.88237000  0.52289000  1.0
  O  O39  1  0.26778000  0.11763000  0.47711000  1.0
  O  O40  1  0.68315000  0.07122000  0.31260000  1.0
  O  O41  1  0.31685000  0.92878000  0.68740000  1.0
  O  O42  1  0.77254000  0.35031000  0.43631000  1.0
  O  O43  1  0.22746000  0.64969000  0.56369000  1.0
