# generated using pymatgen
data_ZnH22C14N2O5
_symmetry_space_group_name_H-M   'P 1'
_cell_length_a   6.08465000
_cell_length_b   15.45390000
_cell_length_c   17.78870000
_cell_angle_alpha   90.00000000
_cell_angle_beta   89.99980000
_cell_angle_gamma   89.99990000
_symmetry_Int_Tables_number   1
_chemical_formula_structural   ZnH22C14N2O5
_chemical_formula_sum   'Zn4 H88 C56 N8 O20'
_cell_volume   1672.69943612
_cell_formula_units_Z   4
loop_
 _symmetry_equiv_pos_site_id
 _symmetry_equiv_pos_as_xyz
  1  'x, y, z'
loop_
 _atom_site_type_symbol
 _atom_site_label
 _atom_site_symmetry_multiplicity
 _atom_site_fract_x
 _atom_site_fract_y
 _atom_site_fract_z
 _atom_site_occupancy
  Zn  Zn0  1  0.73969000  0.05219000  0.80833000  1.0
  Zn  Zn1  1  0.76031000  0.94781000  0.30833000  1.0
  Zn  Zn2  1  0.23969000  0.44781000  0.19167000  1.0
  Zn  Zn3  1  0.26031000  0.55219000  0.69167000  1.0
  H  H4  1  0.87171000  0.90610000  0.98226000  1.0
  H  H5  1  0.62828000  0.09390000  0.48226000  1.0
  H  H6  1  0.37171000  0.59390000  0.01775000  1.0
  H  H7  1  0.12829000  0.40610000  0.51774000  1.0
  H  H8  1  0.71821000  0.85995000  0.82533000  1.0
  H  H9  1  0.78178000  0.14004000  0.32533000  1.0
  H  H10  1  0.21821000  0.64005000  0.17468000  1.0
  H  H11  1  0.28180000  0.35995000  0.67467000  1.0
  H  H12  1  0.12649000  0.82772000  0.82679000  1.0
  H  H13  1  0.37350000  0.17228000  0.32680000  1.0
  H  H14  1  0.62649000  0.67228000  0.17321000  1.0
  H  H15  1  0.87351000  0.32772000  0.67321000  1.0
  H  H16  1  0.96176000  0.73445000  0.81804000  1.0
  H  H17  1  0.53823000  0.26555000  0.31804000  1.0
  H  H18  1  0.46176000  0.76555000  0.18196000  1.0
  H  H19  1  0.03824000  0.23445000  0.68196000  1.0
  H  H20  1  0.08509000  0.76039000  0.90604000  1.0
  H  H21  1  0.41491000  0.23961000  0.40604000  1.0
  H  H22  1  0.58509000  0.73961000  0.09396000  1.0
  H  H23  1  0.91491000  0.26040000  0.59397000  1.0
  H  H24  1  0.49792000  0.82351000  0.94134000  1.0
  H  H25  1  0.00207000  0.17649000  0.44134000  1.0
  H  H26  1  0.99792000  0.67649000  0.05866000  1.0
  H  H27  1  0.50207000  0.32351000  0.55866000  1.0
  H  H28  1  0.72294000  0.76243000  0.97507000  1.0
  H  H29  1  0.77706000  0.23758000  0.47507000  1.0
  H  H30  1  0.22294000  0.73757000  0.02493000  1.0
  H  H31  1  0.27705000  0.26242000  0.52493000  1.0
  H  H32  1  0.42339000  0.67170000  0.91300000  1.0
  H  H33  1  0.07660000  0.32830000  0.41300000  1.0
  H  H34  1  0.92339000  0.82830000  0.08700000  1.0
  H  H35  1  0.57661000  0.17170000  0.58700000  1.0
  H  H36  1  0.68270000  0.65683000  0.87053000  1.0
  H  H37  1  0.81730000  0.34317000  0.37052000  1.0
  H  H38  1  0.18270000  0.84317000  0.12948000  1.0
  H  H39  1  0.31730000  0.15683000  0.62947000  1.0
  H  H40  1  0.48397000  0.72255000  0.82604000  1.0
  H  H41  1  0.01602000  0.27745000  0.32604000  1.0
  H  H42  1  0.98397000  0.77745000  0.17396000  1.0
  H  H43  1  0.51602000  0.22255000  0.67395000  1.0
  H  H44  1  0.54424000  0.09986000  0.95781000  1.0
  H  H45  1  0.95576000  0.90014000  0.45781000  1.0
  H  H46  1  0.04425000  0.40014000  0.04219000  1.0
  H  H47  1  0.45577000  0.59986000  0.54219000  1.0
  H  H48  1  0.83447000  0.10160000  0.95470000  1.0
  H  H49  1  0.66553000  0.89840000  0.45471000  1.0
  H  H50  1  0.33448000  0.39840000  0.04529000  1.0
  H  H51  1  0.16554000  0.60160000  0.54529000  1.0
  H  H52  1  0.99676000  0.10729000  0.07156000  1.0
  H  H53  1  0.50324000  0.89271000  0.57156000  1.0
  H  H54  1  0.49676000  0.39271000  0.92844000  1.0
  H  H55  1  0.00324000  0.60728000  0.42844000  1.0
  H  H56  1  0.01209000  0.06260000  0.20566000  1.0
  H  H57  1  0.48792000  0.93741000  0.70566000  1.0
  H  H58  1  0.51208000  0.43740000  0.79434000  1.0
  H  H59  1  0.98791000  0.56259000  0.29434000  1.0
  H  H60  1  0.43983000  0.91902000  0.18589000  1.0
  H  H61  1  0.06017000  0.08098000  0.68590000  1.0
  H  H62  1  0.93982000  0.58098000  0.81411000  1.0
  H  H63  1  0.56018000  0.41902000  0.31410000  1.0
  H  H64  1  0.40873000  0.95255000  0.04804000  1.0
  H  H65  1  0.09127000  0.04745000  0.54805000  1.0
  H  H66  1  0.90873000  0.54745000  0.95196000  1.0
  H  H67  1  0.59128000  0.45255000  0.45195000  1.0
  H  H68  1  0.07216000  0.30523000  0.84020000  1.0
  H  H69  1  0.42785000  0.69477000  0.34020000  1.0
  H  H70  1  0.57215000  0.19477000  0.15980000  1.0
  H  H71  1  0.92785000  0.80523000  0.65980000  1.0
  H  H72  1  0.85535000  0.35317000  0.89423000  1.0
  H  H73  1  0.64466000  0.64682000  0.39423000  1.0
  H  H74  1  0.35535000  0.14682000  0.10577000  1.0
  H  H75  1  0.14465000  0.85317000  0.60577000  1.0
  H  H76  1  0.86140000  0.36718000  0.79574000  1.0
  H  H77  1  0.63861000  0.63282000  0.29573000  1.0
  H  H78  1  0.36139000  0.13282000  0.20426000  1.0
  H  H79  1  0.13861000  0.86718000  0.70427000  1.0
  H  H80  1  0.52661000  0.96272000  0.91300000  1.0
  H  H81  1  0.97339000  0.03728000  0.41300000  1.0
  H  H82  1  0.02661000  0.53728000  0.08700000  1.0
  H  H83  1  0.47339000  0.46272000  0.58700000  1.0
  H  H84  1  0.28759000  0.06446000  0.81282000  1.0
  H  H85  1  0.21240000  0.93554000  0.31282000  1.0
  H  H86  1  0.78759000  0.43554000  0.18718000  1.0
  H  H87  1  0.71240000  0.56446000  0.68718000  1.0
  H  H88  1  0.43010000  0.15570000  0.80906000  1.0
  H  H89  1  0.06990000  0.84430000  0.30906000  1.0
  H  H90  1  0.93010000  0.34430000  0.19094000  1.0
  H  H91  1  0.56989000  0.65570000  0.69094000  1.0
  C  C92  1  0.07843000  0.96042000  0.89767000  1.0
  C  C93  1  0.42156000  0.03958000  0.39767000  1.0
  C  C94  1  0.57842000  0.53958000  0.10233000  1.0
  C  C95  1  0.92157000  0.46042000  0.60233000  1.0
  C  C96  1  0.85674000  0.92268000  0.92226000  1.0
  C  C97  1  0.64326000  0.07732000  0.42226000  1.0
  C  C98  1  0.35674000  0.57732000  0.07774000  1.0
  C  C99  1  0.14327000  0.42268000  0.57774000  1.0
  C  C100  1  0.80018000  0.83932000  0.87785000  1.0
  C  C101  1  0.69982000  0.16068000  0.37786000  1.0
  C  C102  1  0.30018000  0.66068000  0.12215000  1.0
  C  C103  1  0.19982000  0.33932000  0.62214000  1.0
  C  C104  1  0.00484000  0.78760000  0.85604000  1.0
  C  C105  1  0.49516000  0.21240000  0.35605000  1.0
  C  C106  1  0.50484000  0.71240000  0.14395000  1.0
  C  C107  1  0.99516000  0.28760000  0.64396000  1.0
  C  C108  1  0.63814000  0.78354000  0.92340000  1.0
  C  C109  1  0.86185000  0.21646000  0.42339000  1.0
  C  C110  1  0.13814000  0.71646000  0.07661000  1.0
  C  C111  1  0.36186000  0.28354000  0.57660000  1.0
  C  C112  1  0.55299000  0.70457000  0.88093000  1.0
  C  C113  1  0.94701000  0.29543000  0.38092000  1.0
  C  C114  1  0.05298000  0.79543000  0.11907000  1.0
  C  C115  1  0.44701000  0.20457000  0.61907000  1.0
  C  C116  1  0.69214000  0.06015000  0.96703000  1.0
  C  C117  1  0.80787000  0.93985000  0.46703000  1.0
  C  C118  1  0.19214000  0.43985000  0.03297000  1.0
  C  C119  1  0.30787000  0.56015000  0.53297000  1.0
  C  C120  1  0.70338000  0.03223000  0.04826000  1.0
  C  C121  1  0.79663000  0.96777000  0.54826000  1.0
  C  C122  1  0.20338000  0.46778000  0.95174000  1.0
  C  C123  1  0.29664000  0.53222000  0.45174000  1.0
  C  C124  1  0.87304000  0.06326000  0.09375000  1.0
  C  C125  1  0.62696000  0.93674000  0.59375000  1.0
  C  C126  1  0.37304000  0.43674000  0.90625000  1.0
  C  C127  1  0.12695000  0.56326000  0.40625000  1.0
  C  C128  1  0.88087000  0.03987000  0.16901000  1.0
  C  C129  1  0.61913000  0.96013000  0.66901000  1.0
  C  C130  1  0.38087000  0.46013000  0.83099000  1.0
  C  C131  1  0.11913000  0.53987000  0.33099000  1.0
  C  C132  1  0.56181000  0.95885000  0.15724000  1.0
  C  C133  1  0.93819000  0.04115000  0.65724000  1.0
  C  C134  1  0.06181000  0.54115000  0.84276000  1.0
  C  C135  1  0.43819000  0.45885000  0.34276000  1.0
  C  C136  1  0.54486000  0.97824000  0.08122000  1.0
  C  C137  1  0.95514000  0.02175000  0.58123000  1.0
  C  C138  1  0.04486000  0.52176000  0.91878000  1.0
  C  C139  1  0.45514000  0.47825000  0.41877000  1.0
  C  C140  1  0.75668000  0.24093000  0.83139000  1.0
  C  C141  1  0.74332000  0.75907000  0.33139000  1.0
  C  C142  1  0.25668000  0.25907000  0.16861000  1.0
  C  C143  1  0.24332000  0.74093000  0.66861000  1.0
  C  C144  1  0.89692000  0.32106000  0.84111000  1.0
  C  C145  1  0.60309000  0.67894000  0.34111000  1.0
  C  C146  1  0.39691000  0.17894000  0.15889000  1.0
  C  C147  1  0.10309000  0.82106000  0.65889000  1.0
  N  N148  1  0.68435000  0.98903000  0.91095000  1.0
  N  N149  1  0.81565000  0.01097000  0.41095000  1.0
  N  N150  1  0.18435000  0.51097000  0.08905000  1.0
  N  N151  1  0.31565000  0.48903000  0.58905000  1.0
  N  N152  1  0.72774000  0.98870000  0.20035000  1.0
  N  N153  1  0.77227000  0.01130000  0.70036000  1.0
  N  N154  1  0.22774000  0.51130000  0.79964000  1.0
  N  N155  1  0.27226000  0.48870000  0.29965000  1.0
  O  O156  1  0.24583000  0.94246000  0.93584000  1.0
  O  O157  1  0.25416000  0.05754000  0.43584000  1.0
  O  O158  1  0.74582000  0.55754000  0.06417000  1.0
  O  O159  1  0.75417000  0.44246000  0.56416000  1.0
  O  O160  1  0.07531000  0.00658000  0.83758000  1.0
  O  O161  1  0.42468000  0.99342000  0.33758000  1.0
  O  O162  1  0.57530000  0.49343000  0.16242000  1.0
  O  O163  1  0.92469000  0.50658000  0.66241000  1.0
  O  O164  1  0.41633000  0.09482000  0.78924000  1.0
  O  O165  1  0.08367000  0.90518000  0.28924000  1.0
  O  O166  1  0.91633000  0.40518000  0.21076000  1.0
  O  O167  1  0.58367000  0.59482000  0.71076000  1.0
  O  O168  1  0.86433000  0.17048000  0.81866000  1.0
  O  O169  1  0.63567000  0.82952000  0.31866000  1.0
  O  O170  1  0.36433000  0.32952000  0.18134000  1.0
  O  O171  1  0.13567000  0.67048000  0.68134000  1.0
  O  O172  1  0.55026000  0.24753000  0.83624000  1.0
  O  O173  1  0.94974000  0.75247000  0.33624000  1.0
  O  O174  1  0.05026000  0.25247000  0.16376000  1.0
  O  O175  1  0.44974000  0.74753000  0.66377000  1.0
