# generated using pymatgen
data_AlH24C33N7O6
_symmetry_space_group_name_H-M   'P 1'
_cell_length_a   3.92965000
_cell_length_b   17.37906584
_cell_length_c   17.77296112
_cell_angle_alpha   117.90707923
_cell_angle_beta   92.19276210
_cell_angle_gamma   91.55231887
_symmetry_Int_Tables_number   1
_chemical_formula_structural   AlH24C33N7O6
_chemical_formula_sum   'Al1 H24 C33 N7 O6'
_cell_volume   1070.44926261
_cell_formula_units_Z   1
loop_
 _symmetry_equiv_pos_site_id
 _symmetry_equiv_pos_as_xyz
  1  'x, y, z'
loop_
 _atom_site_type_symbol
 _atom_site_label
 _atom_site_symmetry_multiplicity
 _atom_site_fract_x
 _atom_site_fract_y
 _atom_site_fract_z
 _atom_site_occupancy
  Al  Al0  1  0.48237000  0.99871000  0.49882000  1.0
  H  H1  1  0.02931000  0.69080000  0.10132000  1.0
  H  H2  1  0.25675000  0.91336000  0.81593000  1.0
  H  H3  1  0.77802000  0.40066000  0.57737000  1.0
  H  H4  1  0.18137000  0.67262000  0.58272000  1.0
  H  H5  1  0.07145000  0.40297000  0.81293000  1.0
  H  H6  1  0.63895000  0.91935000  0.10227000  1.0
  H  H7  1  0.93495000  0.07076000  0.29802000  1.0
  H  H8  1  0.54942000  0.04009000  0.32773000  1.0
  H  H9  1  0.55881000  0.04613000  0.23056000  1.0
  H  H10  1  0.91911000  0.73707000  0.30273000  1.0
  H  H11  1  0.32131000  0.79399000  0.32432000  1.0
  H  H12  1  0.24346000  0.69329000  0.22924000  1.0
  H  H13  1  0.21000000  0.28076000  0.82113000  1.0
  H  H14  1  0.43756000  0.20476000  0.73461000  1.0
  H  H15  1  0.00978000  0.17993000  0.74411000  1.0
  H  H16  1  0.58679000  0.20212000  0.45032000  1.0
  H  H17  1  0.01968000  0.17849000  0.43884000  1.0
  H  H18  1  0.88479000  0.27917000  0.44701000  1.0
  H  H19  1  0.22222000  0.73474000  0.44041000  1.0
  H  H20  1  0.79515000  0.76461000  0.45189000  1.0
  H  H21  1  0.91179000  0.66837000  0.45639000  1.0
  H  H22  1  0.81740000  0.04128000  0.75305000  1.0
  H  H23  1  0.22706000  0.05461000  0.72229000  1.0
  H  H24  1  0.18363000  0.04712000  0.81809000  1.0
  C  C25  1  0.94876000  0.93570000  0.36566000  1.0
  C  C26  1  0.99377000  0.92713000  0.56489000  1.0
  C  C27  1  0.00812000  0.13410000  0.56558000  1.0
  C  C28  1  0.96140000  0.75844000  0.13730000  1.0
  C  C29  1  0.82957000  0.80055000  0.09269000  1.0
  C  C30  1  0.19943000  0.87901000  0.74722000  1.0
  C  C31  1  0.23522000  0.78876000  0.70362000  1.0
  C  C32  1  0.91028000  0.41051000  0.69992000  1.0
  C  C33  1  0.85888000  0.36503000  0.61108000  1.0
  C  C34  1  0.15980000  0.74308000  0.61537000  1.0
  C  C35  1  0.06587000  0.78673000  0.56966000  1.0
  C  C36  1  0.04444000  0.87820000  0.61435000  1.0
  C  C37  1  0.10315000  0.92486000  0.70383000  1.0
  C  C38  1  0.90363000  0.27580000  0.56612000  1.0
  C  C39  1  0.00384000  0.23113000  0.61205000  1.0
  C  C40  1  0.07677000  0.27720000  0.70144000  1.0
  C  C41  1  0.02664000  0.36645000  0.74392000  1.0
  C  C42  1  0.74458000  0.88779000  0.13777000  1.0
  C  C43  1  0.79016000  0.93362000  0.22636000  1.0
  C  C44  1  0.91670000  0.88937000  0.27002000  1.0
  C  C45  1  0.00227000  0.80142000  0.22609000  1.0
  C  C46  1  0.82646000  0.62695000  0.87514000  1.0
  C  C47  1  0.55742000  0.75271000  0.87769000  1.0
  C  C48  1  0.77474000  0.75321000  0.99933000  1.0
  C  C49  1  0.83193000  0.50313000  0.74668000  1.0
  C  C50  1  0.58930000  0.61970000  0.74298000  1.0
  C  C51  1  0.36779000  0.74337000  0.74990000  1.0
  C  C52  1  0.70300000  0.02770000  0.27325000  1.0
  C  C53  1  0.12938000  0.75398000  0.27316000  1.0
  C  C54  1  0.18967000  0.23338000  0.75312000  1.0
  C  C55  1  0.84712000  0.23144000  0.47046000  1.0
  C  C56  1  0.99358000  0.73597000  0.47461000  1.0
  C  C57  1  0.08204000  0.02223000  0.75205000  1.0
  N  N58  1  0.65776000  0.66639000  0.83185000  1.0
  N  N59  1  0.61296000  0.79496000  0.96202000  1.0
  N  N60  1  0.88909000  0.67195000  0.95920000  1.0
  N  N61  1  0.92116000  0.54511000  0.83077000  1.0
  N  N62  1  0.67224000  0.53681000  0.70122000  1.0
  N  N63  1  0.40787000  0.79025000  0.83542000  1.0
  N  N64  1  0.44388000  0.65949000  0.70249000  1.0
  O  O65  1  0.24568000  0.09477000  0.58234000  1.0
  O  O66  1  0.19888000  0.99052000  0.40334000  1.0
  O  O67  1  0.20548000  0.91297000  0.50736000  1.0
  O  O68  1  0.76254000  0.09395000  0.51009000  1.0
  O  O69  1  0.75640000  0.98031000  0.58178000  1.0
  O  O70  1  0.71923000  0.91695000  0.40416000  1.0
