# generated using pymatgen
data_Zn4H29C37S3N7O22
_symmetry_space_group_name_H-M   'P 1'
_cell_length_a   13.08400000
_cell_length_b   19.13940000
_cell_length_c   19.25960000
_cell_angle_alpha   84.87970000
_cell_angle_beta   84.81770000
_cell_angle_gamma   83.78720000
_symmetry_Int_Tables_number   1
_chemical_formula_structural   Zn4H29C37S3N7O22
_chemical_formula_sum   'Zn4 H29 C37 S3 N7 O22'
_cell_volume   4759.65381368
_cell_formula_units_Z   1
loop_
 _symmetry_equiv_pos_site_id
 _symmetry_equiv_pos_as_xyz
  1  'x, y, z'
loop_
 _atom_site_type_symbol
 _atom_site_label
 _atom_site_symmetry_multiplicity
 _atom_site_fract_x
 _atom_site_fract_y
 _atom_site_fract_z
 _atom_site_occupancy
  Zn  Zn0  1  0.57588000  0.55391000  0.42911000  1.0
  Zn  Zn1  1  0.56224000  0.43740000  0.56187000  1.0
  Zn  Zn2  1  0.38678000  0.45907000  0.45544000  1.0
  Zn  Zn3  1  0.41373000  0.57736000  0.56268000  1.0
  H  H4  1  0.07449000  0.47900000  0.48000000  1.0
  H  H5  1  0.37149000  0.42733000  0.10856000  1.0
  H  H6  1  0.52559000  0.77609000  0.57549000  1.0
  H  H7  1  0.37188000  0.55842000  0.79075000  1.0
  H  H8  1  0.07446000  0.60863000  0.56223000  1.0
  H  H9  1  0.58789000  0.22615000  0.58768000  1.0
  H  H10  1  0.60282000  0.56263000  0.22131000  1.0
  H  H11  1  0.49237000  0.91466000  0.34688000  1.0
  H  H12  1  0.70779000  0.46442000  0.88060000  1.0
  H  H13  1  0.39640000  0.24035000  0.41636000  1.0
  H  H14  1  0.35405000  0.43150000  0.23949000  1.0
  H  H15  1  0.92151000  0.65404000  0.61284000  1.0
  H  H16  1  0.52869000  0.90727000  0.56671000  1.0
  H  H17  1  0.99656000  0.40128000  0.48846000  1.0
  H  H18  1  0.93124000  0.31406000  0.43584000  1.0
  H  H19  1  0.81514000  0.36870000  0.42183000  1.0
  H  H20  1  0.83265000  0.32429000  0.50609000  1.0
  H  H21  1  0.65702000  0.12351000  0.63004000  1.0
  H  H22  1  0.39253000  0.54994000  0.91988000  1.0
  H  H23  1  0.69010000  0.98984000  0.56821000  1.0
  H  H24  1  0.58783000  0.99028000  0.63501000  1.0
  H  H25  1  0.71223000  0.01001000  0.65442000  1.0
  H  H26  1  0.66638000  0.60060000  0.11552000  1.0
  H  H27  1  0.78577000  0.49357000  0.10185000  1.0
  H  H28  1  0.79284000  0.55929000  0.02971000  1.0
  H  H29  1  0.72406000  0.48496000  0.02388000  1.0
  H  H30  1  0.49304000  0.84216000  0.23697000  1.0
  H  H31  1  0.84677000  0.51554000  0.75480000  1.0
  H  H32  1  0.42671000  0.10851000  0.41229000  1.0
  C  C33  1  0.47813000  0.31805000  0.50733000  1.0
  C  C34  1  0.45552000  0.53175000  0.88279000  1.0
  C  C35  1  0.52317000  0.87939000  0.52059000  1.0
  C  C36  1  0.51388000  0.91842000  0.45564000  1.0
  C  C37  1  0.55023000  0.50392000  0.90783000  1.0
  C  C38  1  0.50360000  0.88328000  0.39605000  1.0
  C  C39  1  0.63355000  0.48295000  0.86067000  1.0
  C  C40  1  0.47262000  0.50236000  0.31471000  1.0
  C  C41  1  0.50475000  0.81010000  0.40094000  1.0
  C  C42  1  0.62025000  0.48496000  0.78964000  1.0
  C  C43  1  0.56997000  0.12522000  0.54935000  1.0
  C  C44  1  0.57004000  0.52670000  0.12343000  1.0
  C  C45  1  0.55286000  0.19949000  0.54945000  1.0
  C  C46  1  0.55288000  0.53256000  0.19575000  1.0
  C  C47  1  0.52290000  0.09293000  0.49774000  1.0
  C  C48  1  0.50069000  0.48812000  0.09192000  1.0
  C  C49  1  0.49181000  0.23999000  0.50282000  1.0
  C  C50  1  0.47769000  0.49835000  0.23736000  1.0
  C  C51  1  0.44479000  0.20777000  0.45230000  1.0
  C  C52  1  0.41238000  0.45837000  0.20666000  1.0
  C  C53  1  0.51141000  0.69267000  0.47709000  1.0
  C  C54  1  0.50288000  0.50911000  0.68915000  1.0
  C  C55  1  0.46154000  0.13567000  0.45011000  1.0
  C  C56  1  0.52141000  0.80696000  0.52528000  1.0
  C  C57  1  0.42319000  0.45523000  0.13492000  1.0
  C  C58  1  0.21135000  0.54344000  0.52649000  1.0
  C  C59  1  0.75675000  0.47889000  0.48793000  1.0
  C  C60  1  0.87256000  0.47443000  0.49239000  1.0
  C  C61  1  0.92411000  0.52960000  0.50986000  1.0
  C  C62  1  0.44434000  0.53618000  0.81143000  1.0
  C  C63  1  0.09958000  0.56243000  0.53384000  1.0
  C  C64  1  0.03447000  0.52284000  0.50782000  1.0
  C  C65  1  0.51309000  0.77089000  0.46602000  1.0
  C  C66  1  0.52467000  0.51094000  0.76394000  1.0
  C  C67  1  0.87189000  0.35125000  0.45999000  1.0
  C  C68  1  0.65652000  0.01637000  0.61447000  1.0
  C  C69  1  0.74327000  0.52233000  0.05926000  1.0
  S  S70  1  0.85443000  0.60895000  0.53368000  1.0
  S  S71  1  0.48821000  0.76652000  0.32447000  1.0
  S  S72  1  0.72855000  0.45570000  0.73184000  1.0
  N  N73  1  0.50828000  0.99258000  0.44663000  1.0
  N  N74  1  0.92125000  0.41081000  0.47878000  1.0
  N  N75  1  0.63196000  0.09124000  0.59772000  1.0
  N  N76  1  0.64830000  0.56237000  0.08642000  1.0
  N  N77  1  0.56983000  0.49825000  0.97898000  1.0
  N  N78  1  0.53635000  0.01993000  0.49910000  1.0
  N  N79  1  0.49161000  0.48606000  0.02069000  1.0
  O  O80  1  0.48490000  0.50724000  0.50143000  1.0
  O  O81  1  0.53568000  0.45212000  0.66130000  1.0
  O  O82  1  0.40137000  0.47280000  0.35228000  1.0
  O  O83  1  0.41289000  0.35454000  0.46999000  1.0
  O  O84  1  0.45040000  0.56241000  0.66122000  1.0
  O  O85  1  0.45737000  0.67099000  0.53142000  1.0
  O  O86  1  0.24677000  0.49097000  0.49108000  1.0
  O  O87  1  0.71072000  0.44260000  0.53675000  1.0
  O  O88  1  0.72126000  0.51249000  0.43426000  1.0
  O  O89  1  0.26511000  0.58115000  0.55803000  1.0
  O  O90  1  0.89765000  0.66828000  0.49476000  1.0
  O  O91  1  0.74561000  0.60281000  0.53794000  1.0
  O  O92  1  0.88442000  0.61210000  0.61424000  1.0
  O  O93  1  0.53453000  0.34179000  0.54885000  1.0
  O  O94  1  0.58675000  0.74288000  0.29004000  1.0
  O  O95  1  0.40819000  0.72078000  0.34141000  1.0
  O  O96  1  0.43912000  0.83211000  0.27401000  1.0
  O  O97  1  0.73496000  0.38057000  0.73061000  1.0
  O  O98  1  0.73188000  0.50291000  0.66946000  1.0
  O  O99  1  0.82474000  0.47015000  0.77483000  1.0
  O  O100  1  0.54234000  0.53435000  0.33673000  1.0
  O  O101  1  0.56532000  0.65581000  0.43281000  1.0
