# generated using pymatgen
data_CuH8C9SINO6
_symmetry_space_group_name_H-M   'P 1'
_cell_length_a   7.08107000
_cell_length_b   9.44509000
_cell_length_c   18.76020000
_cell_angle_alpha   89.99880000
_cell_angle_beta   80.95430000
_cell_angle_gamma   89.99860000
_symmetry_Int_Tables_number   1
_chemical_formula_structural   CuH8C9SINO6
_chemical_formula_sum   'Cu4 H32 C36 S4 I4 N4 O24'
_cell_volume   1239.10289913
_cell_formula_units_Z   4
loop_
 _symmetry_equiv_pos_site_id
 _symmetry_equiv_pos_as_xyz
  1  'x, y, z'
loop_
 _atom_site_type_symbol
 _atom_site_label
 _atom_site_symmetry_multiplicity
 _atom_site_fract_x
 _atom_site_fract_y
 _atom_site_fract_z
 _atom_site_occupancy
  Cu  Cu0  1  0.07238000  0.91207000  0.16611000  1.0
  Cu  Cu1  1  0.07233000  0.58793000  0.66609000  1.0
  Cu  Cu2  1  0.92766000  0.08792000  0.83390000  1.0
  Cu  Cu3  1  0.92763000  0.41208000  0.33389000  1.0
  H  H4  1  0.06049000  0.90732000  0.30062000  1.0
  H  H5  1  0.06046000  0.59268000  0.80061000  1.0
  H  H6  1  0.93952000  0.09270000  0.69939000  1.0
  H  H7  1  0.93951000  0.40733000  0.19938000  1.0
  H  H8  1  0.92512000  0.34279000  0.94178000  1.0
  H  H9  1  0.92504000  0.15719000  0.44176000  1.0
  H  H10  1  0.07495000  0.65718000  0.05824000  1.0
  H  H11  1  0.07490000  0.84282000  0.55822000  1.0
  H  H12  1  0.24040000  0.99293000  0.25783000  1.0
  H  H13  1  0.24039000  0.50708000  0.75782000  1.0
  H  H14  1  0.75960000  0.00709000  0.74218000  1.0
  H  H15  1  0.75960000  0.49295000  0.24217000  1.0
  H  H16  1  0.80089000  0.36464000  0.07374000  1.0
  H  H17  1  0.80080000  0.13533000  0.57373000  1.0
  H  H18  1  0.19919000  0.63533000  0.92628000  1.0
  H  H19  1  0.19913000  0.86468000  0.42625000  1.0
  H  H20  1  0.04114000  0.64056000  0.21512000  1.0
  H  H21  1  0.04111000  0.85945000  0.71511000  1.0
  H  H22  1  0.95888000  0.35945000  0.78489000  1.0
  H  H23  1  0.95887000  0.14056000  0.28489000  1.0
  H  H24  1  0.66368000  0.15239000  0.14299000  1.0
  H  H25  1  0.66360000  0.34759000  0.64298000  1.0
  H  H26  1  0.33639000  0.84759000  0.85703000  1.0
  H  H27  1  0.33634000  0.65241000  0.35700000  1.0
  H  H28  1  0.26365000  0.70304000  0.20291000  1.0
  H  H29  1  0.26361000  0.79695000  0.70289000  1.0
  H  H30  1  0.73636000  0.29696000  0.79711000  1.0
  H  H31  1  0.73636000  0.20305000  0.29709000  1.0
  H  H32  1  0.58014000  0.66489000  0.06349000  1.0
  H  H33  1  0.58009000  0.83509000  0.56347000  1.0
  H  H34  1  0.41992000  0.33509000  0.93653000  1.0
  H  H35  1  0.41986000  0.16491000  0.43651000  1.0
  C  C36  1  0.86631000  0.25154000  0.97321000  1.0
  C  C37  1  0.86626000  0.24843000  0.47320000  1.0
  C  C38  1  0.13374000  0.74843000  0.02681000  1.0
  C  C39  1  0.13369000  0.75158000  0.52679000  1.0
  C  C40  1  0.79639000  0.26219000  0.04743000  1.0
  C  C41  1  0.79632000  0.23780000  0.54742000  1.0
  C  C42  1  0.20367000  0.73780000  0.95258000  1.0
  C  C43  1  0.20362000  0.76221000  0.45256000  1.0
  C  C44  1  0.72161000  0.14458000  0.08578000  1.0
  C  C45  1  0.72154000  0.35541000  0.58577000  1.0
  C  C46  1  0.27845000  0.85540000  0.91424000  1.0
  C  C47  1  0.27841000  0.64460000  0.41422000  1.0
  C  C48  1  0.64579000  0.88174000  0.08130000  1.0
  C  C49  1  0.64575000  0.61825000  0.58128000  1.0
  C  C50  1  0.35426000  0.11824000  0.91872000  1.0
  C  C51  1  0.35421000  0.38177000  0.41870000  1.0
  C  C52  1  0.63952000  0.76265000  0.03840000  1.0
  C  C53  1  0.63947000  0.73735000  0.53838000  1.0
  C  C54  1  0.36053000  0.23734000  0.96162000  1.0
  C  C55  1  0.36048000  0.26266000  0.46160000  1.0
  C  C56  1  0.71024000  0.76492000  0.96420000  1.0
  C  C57  1  0.71019000  0.73507000  0.46419000  1.0
  C  C58  1  0.28980000  0.23506000  0.03582000  1.0
  C  C59  1  0.28976000  0.26494000  0.53580000  1.0
  C  C60  1  0.79684000  0.88638000  0.93076000  1.0
  C  C61  1  0.79681000  0.61362000  0.43075000  1.0
  C  C62  1  0.20319000  0.11361000  0.06926000  1.0
  C  C63  1  0.20315000  0.38639000  0.56924000  1.0
  C  C64  1  0.71653000  0.01289000  0.04972000  1.0
  C  C65  1  0.71648000  0.48710000  0.54971000  1.0
  C  C66  1  0.28351000  0.98709000  0.95030000  1.0
  C  C67  1  0.28347000  0.51291000  0.45028000  1.0
  C  C68  1  0.78957000  0.01157000  0.97460000  1.0
  C  C69  1  0.78953000  0.48842000  0.47459000  1.0
  C  C70  1  0.21046000  0.98841000  0.02542000  1.0
  C  C71  1  0.21043000  0.51160000  0.52540000  1.0
  S  S72  1  0.58319000  0.86219000  0.17640000  1.0
  S  S73  1  0.58315000  0.63781000  0.67638000  1.0
  S  S74  1  0.41683000  0.13780000  0.82362000  1.0
  S  S75  1  0.41681000  0.36221000  0.32360000  1.0
  I  I76  1  0.69115000  0.58773000  0.89866000  1.0
  I  I77  1  0.69109000  0.91226000  0.39863000  1.0
  I  I78  1  0.30892000  0.41224000  0.10137000  1.0
  I  I79  1  0.30885000  0.08775000  0.60134000  1.0
  N  N80  1  0.86064000  0.13007000  0.93794000  1.0
  N  N81  1  0.86061000  0.36992000  0.43793000  1.0
  N  N82  1  0.13939000  0.86992000  0.06208000  1.0
  N  N83  1  0.13935000  0.63009000  0.56205000  1.0
  O  O84  1  0.44440000  0.97506000  0.20066000  1.0
  O  O85  1  0.44435000  0.52493000  0.70065000  1.0
  O  O86  1  0.55563000  0.02493000  0.79935000  1.0
  O  O87  1  0.55562000  0.47508000  0.29933000  1.0
  O  O88  1  0.09688000  0.99028000  0.27024000  1.0
  O  O89  1  0.09685000  0.50973000  0.77023000  1.0
  O  O90  1  0.90314000  0.00974000  0.72977000  1.0
  O  O91  1  0.90313000  0.49028000  0.22976000  1.0
  O  O92  1  0.50329000  0.71847000  0.18838000  1.0
  O  O93  1  0.50323000  0.78153000  0.68836000  1.0
  O  O94  1  0.49675000  0.28153000  0.81164000  1.0
  O  O95  1  0.49673000  0.21848000  0.31162000  1.0
  O  O96  1  0.12408000  0.72580000  0.20934000  1.0
  O  O97  1  0.12404000  0.77421000  0.70931000  1.0
  O  O98  1  0.87595000  0.27420000  0.79069000  1.0
  O  O99  1  0.87594000  0.22581000  0.29067000  1.0
  O  O100  1  0.76230000  0.88116000  0.20586000  1.0
  O  O101  1  0.76226000  0.61884000  0.70585000  1.0
  O  O102  1  0.23772000  0.11884000  0.79416000  1.0
  O  O103  1  0.23771000  0.38119000  0.29413000  1.0
  O  O104  1  0.88236000  0.89239000  0.86394000  1.0
  O  O105  1  0.88235000  0.60760000  0.36392000  1.0
  O  O106  1  0.11767000  0.10760000  0.13608000  1.0
  O  O107  1  0.11761000  0.39241000  0.63606000  1.0
