# generated using pymatgen
data_Zn4H10C22Cl2O21
_symmetry_space_group_name_H-M   'P 1'
_cell_length_a   15.94560000
_cell_length_b   15.94480000
_cell_length_c   17.02501508
_cell_angle_alpha   117.43039971
_cell_angle_beta   117.86880364
_cell_angle_gamma   90.50850000
_symmetry_Int_Tables_number   1
_chemical_formula_structural   Zn4H10C22Cl2O21
_chemical_formula_sum   'Zn8 H20 C44 Cl4 O42'
_cell_volume   3254.73093509
_cell_formula_units_Z   2
loop_
 _symmetry_equiv_pos_site_id
 _symmetry_equiv_pos_as_xyz
  1  'x, y, z'
loop_
 _atom_site_type_symbol
 _atom_site_label
 _atom_site_symmetry_multiplicity
 _atom_site_fract_x
 _atom_site_fract_y
 _atom_site_fract_z
 _atom_site_occupancy
  Zn  Zn0  1  0.94550000  0.04362000  0.59115000  1.0
  Zn  Zn1  1  0.54746000  0.64561000  0.59114000  1.0
  Zn  Zn2  1  0.95505000  0.05853000  0.41581000  1.0
  Zn  Zn3  1  0.35727000  0.46072000  0.41580000  1.0
  Zn  Zn4  1  0.95979000  0.85633000  0.41091000  1.0
  Zn  Zn5  1  0.55449000  0.45100000  0.41079000  1.0
  Zn  Zn6  1  0.14716000  0.04556000  0.59241000  1.0
  Zn  Zn7  1  0.54686000  0.44527000  0.59245000  1.0
  H  H8  1  0.12397000  0.10552000  0.90507000  1.0
  H  H9  1  0.79968000  0.78098000  0.90515000  1.0
  H  H10  1  0.84532000  0.90049000  0.07704000  1.0
  H  H11  1  0.17644000  0.23173000  0.07703000  1.0
  H  H12  1  0.33162000  0.17476000  0.91075000  1.0
  H  H13  1  0.73603000  0.57906000  0.91081000  1.0
  H  H14  1  0.84378000  0.68154000  0.08131000  1.0
  H  H15  1  0.39965000  0.23750000  0.08127000  1.0
  H  H16  1  0.24571000  0.10395000  0.93563000  1.0
  H  H17  1  0.83176000  0.68981000  0.93575000  1.0
  H  H18  1  0.91982000  0.82544000  0.10818000  1.0
  H  H19  1  0.28260000  0.18831000  0.10807000  1.0
  H  H20  1  0.95839000  0.18872000  0.89371000  1.0
  H  H21  1  0.70509000  0.93525000  0.89375000  1.0
  H  H22  1  0.73367000  0.06060000  0.14347000  1.0
  H  H23  1  0.08290000  0.40970000  0.14352000  1.0
  H  H24  1  0.11756000  0.46691000  0.86543000  1.0
  H  H25  1  0.39866000  0.74789000  0.86557000  1.0
  H  H26  1  0.63400000  0.78865000  0.21062000  1.0
  H  H27  1  0.42177000  0.57664000  0.21049000  1.0
  C  C28  1  0.85337000  0.86700000  0.22553000  1.0
  C  C29  1  0.35841000  0.37212000  0.22545000  1.0
  C  C30  1  0.23628000  0.38163000  0.06260000  1.0
  C  C31  1  0.16153000  0.30724000  0.93830000  1.0
  C  C32  1  0.63116000  0.77674000  0.93841000  1.0
  C  C33  1  0.68106000  0.82630000  0.06271000  1.0
  C  C34  1  0.14095000  0.14689000  0.78201000  1.0
  C  C35  1  0.19882000  0.15262000  0.94731000  1.0
  C  C36  1  0.79478000  0.74840000  0.94739000  1.0
  C  C37  1  0.84332000  0.82635000  0.06377000  1.0
  C  C38  1  0.23728000  0.22043000  0.06369000  1.0
  C  C39  1  0.63520000  0.64107000  0.78207000  1.0
  C  C40  1  0.31512000  0.24502000  0.94282000  1.0
  C  C41  1  0.69785000  0.62764000  0.94287000  1.0
  C  C42  1  0.77051000  0.69082000  0.06471000  1.0
  C  C43  1  0.37375000  0.29415000  0.06464000  1.0
  C  C44  1  0.05119000  0.27467000  0.90775000  1.0
  C  C45  1  0.63317000  0.85651000  0.90780000  1.0
  C  C46  1  0.68205000  0.93644000  0.11369000  1.0
  C  C47  1  0.17714000  0.43157000  0.11360000  1.0
  C  C48  1  0.14636000  0.35644000  0.87338000  1.0
  C  C49  1  0.51706000  0.72702000  0.87350000  1.0
  C  C50  1  0.62132000  0.78100000  0.09192000  1.0
  C  C51  1  0.31076000  0.47059000  0.09180000  1.0
  C  C52  1  0.20276000  0.21646000  0.90101000  1.0
  C  C53  1  0.68462000  0.69821000  0.90108000  1.0
  C  C54  1  0.78424000  0.80366000  0.10644000  1.0
  C  C55  1  0.30265000  0.32218000  0.10636000  1.0
  C  C56  1  0.22209000  0.22152000  0.49766000  1.0
  C  C57  1  0.27615000  0.27556000  0.49772000  1.0
  C  C58  1  0.77200000  0.77060000  0.48857000  1.0
  C  C59  1  0.71791000  0.71644000  0.48847000  1.0
  C  C60  1  0.83839000  0.83691000  0.49227000  1.0
  C  C61  1  0.65528000  0.65368000  0.49210000  1.0
  C  C62  1  0.15848000  0.15695000  0.49823000  1.0
  C  C63  1  0.34129000  0.33977000  0.49830000  1.0
  C  C64  1  0.16168000  0.84162000  0.50313000  1.0
  C  C65  1  0.66165000  0.34157000  0.50329000  1.0
  C  C66  1  0.84343000  0.16100000  0.50653000  1.0
  C  C67  1  0.34547000  0.66305000  0.50639000  1.0
  C  C68  1  0.77955000  0.22478000  0.50674000  1.0
  C  C69  1  0.28192000  0.72716000  0.50658000  1.0
  C  C70  1  0.72592000  0.27823000  0.50494000  1.0
  C  C71  1  0.22667000  0.77900000  0.50475000  1.0
  Cl  Cl72  1  0.35332000  0.30706000  0.89596000  1.0
  Cl  Cl73  1  0.58894000  0.54257000  0.89599000  1.0
  Cl  Cl74  1  0.74535000  0.64337000  0.13055000  1.0
  Cl  Cl75  1  0.48703000  0.38518000  0.13048000  1.0
  O  O76  1  0.00171000  0.00061000  0.50309000  1.0
  O  O77  1  0.31414000  0.41725000  0.27065000  1.0
  O  O78  1  0.63382000  0.55117000  0.73811000  1.0
  O  O79  1  0.91208000  0.82735000  0.26905000  1.0
  O  O80  1  0.44156000  0.35693000  0.26896000  1.0
  O  O81  1  0.18692000  0.10431000  0.73808000  1.0
  O  O82  1  0.98952000  0.31505000  0.87860000  1.0
  O  O83  1  0.02851000  0.19844000  0.91640000  1.0
  O  O84  1  0.56359000  0.88892000  0.87852000  1.0
  O  O85  1  0.71807000  0.88788000  0.91653000  1.0
  O  O86  1  0.62681000  0.96609000  0.14409000  1.0
  O  O87  1  0.04732000  0.12961000  0.73897000  1.0
  O  O88  1  0.74380000  0.99527000  0.11342000  1.0
  O  O89  1  0.17786000  0.51720000  0.14403000  1.0
  O  O90  1  0.11811000  0.36952000  0.11336000  1.0
  O  O91  1  0.60948000  0.69169000  0.73904000  1.0
  O  O92  1  0.85341000  0.95645000  0.27069000  1.0
  O  O93  1  0.14245000  0.31478000  0.79065000  1.0
  O  O94  1  0.12766000  0.44355000  0.91238000  1.0
  O  O95  1  0.47599000  0.64825000  0.79075000  1.0
  O  O96  1  0.46897000  0.78470000  0.91257000  1.0
  O  O97  1  0.54649000  0.71290000  0.03273000  1.0
  O  O98  1  0.66963000  0.82580000  0.19746000  1.0
  O  O99  1  0.31965000  0.48627000  0.03259000  1.0
  O  O100  1  0.37149000  0.52782000  0.19733000  1.0
  O  O101  1  0.50244000  0.50133000  0.50304000  1.0
  O  O102  1  0.85635000  0.79906000  0.41956000  1.0
  O  O103  1  0.62050000  0.56302000  0.41939000  1.0
  O  O104  1  0.20092000  0.13743000  0.56964000  1.0
  O  O105  1  0.43222000  0.36874000  0.56969000  1.0
  O  O106  1  0.06913000  0.79755000  0.44658000  1.0
  O  O107  1  0.64904000  0.37747000  0.44662000  1.0
  O  O108  1  0.20376000  0.93395000  0.55831000  1.0
  O  O109  1  0.62458000  0.35473000  0.55855000  1.0
  O  O110  1  0.88651000  0.15609000  0.45825000  1.0
  O  O111  1  0.30211000  0.57170000  0.45811000  1.0
  O  O112  1  0.84977000  0.11653000  0.55409000  1.0
  O  O113  1  0.43750000  0.70426000  0.55395000  1.0
  O  O114  1  0.87169000  0.92587000  0.56828000  1.0
  O  O115  1  0.64227000  0.69635000  0.56806000  1.0
  O  O116  1  0.06694000  0.12630000  0.42671000  1.0
  O  O117  1  0.30038000  0.35983000  0.42680000  1.0
