# generated using pymatgen
data_CuP2H27C35BrN
_symmetry_space_group_name_H-M   'P 1'
_cell_length_a   18.49430000
_cell_length_b   18.50280000
_cell_length_c   21.15500000
_cell_angle_alpha   89.98960000
_cell_angle_beta   90.00010000
_cell_angle_gamma   119.98500000
_symmetry_Int_Tables_number   1
_chemical_formula_structural   CuP2H27C35BrN
_chemical_formula_sum   'Cu6 P12 H162 C210 Br6 N6'
_cell_volume   6270.24669997
_cell_formula_units_Z   6
loop_
 _symmetry_equiv_pos_site_id
 _symmetry_equiv_pos_as_xyz
  1  'x, y, z'
loop_
 _atom_site_type_symbol
 _atom_site_label
 _atom_site_symmetry_multiplicity
 _atom_site_fract_x
 _atom_site_fract_y
 _atom_site_fract_z
 _atom_site_occupancy
  Cu  Cu0  1  0.84235000  0.50860000  0.98944000  1.0
  Cu  Cu1  1  0.66630000  0.15785000  0.32296000  1.0
  Cu  Cu2  1  0.49144000  0.33367000  0.65632000  1.0
  Cu  Cu3  1  0.33374000  0.49140000  0.01056000  1.0
  Cu  Cu4  1  0.50844000  0.84215000  0.67705000  1.0
  Cu  Cu5  1  0.15777000  0.66633000  0.34368000  1.0
  P  P6  1  0.73605000  0.38787000  0.02616000  1.0
  P  P7  1  0.66902000  0.14459000  0.21754000  1.0
  P  P8  1  0.65187000  0.26413000  0.35966000  1.0
  P  P9  1  0.47547000  0.33106000  0.55095000  1.0
  P  P10  1  0.61228000  0.34825000  0.69293000  1.0
  P  P11  1  0.85580000  0.52463000  0.88406000  1.0
  P  P12  1  0.34818000  0.61213000  0.97384000  1.0
  P  P13  1  0.52443000  0.85541000  0.78246000  1.0
  P  P14  1  0.38775000  0.73587000  0.64034000  1.0
  P  P15  1  0.14441000  0.66894000  0.44905000  1.0
  P  P16  1  0.26403000  0.65175000  0.30707000  1.0
  P  P17  1  0.33116000  0.47536000  0.11594000  1.0
  H  H18  1  0.65480000  0.22597000  0.09766000  1.0
  H  H19  1  0.81134000  0.28864000  0.26242000  1.0
  H  H20  1  0.85502000  0.47794000  0.12387000  1.0
  H  H21  1  0.95256000  0.36878000  0.27081000  1.0
  H  H22  1  0.07290000  0.48018000  0.33001000  1.0
  H  H23  1  0.01900000  0.66127000  0.27144000  1.0
  H  H24  1  0.89349000  0.55695000  0.21112000  1.0
  H  H25  1  0.62988000  0.31236000  0.91402000  1.0
  H  H26  1  0.61592000  0.20311000  0.83971000  1.0
  H  H27  1  0.69413000  0.12798000  0.85783000  1.0
  H  H28  1  0.78625000  0.16217000  0.95226000  1.0
  H  H29  1  0.80027000  0.27119000  0.02727000  1.0
  H  H30  1  0.69781000  0.51187000  0.06312000  1.0
  H  H31  1  0.56728000  0.51021000  0.09402000  1.0
  H  H32  1  0.43056000  0.37913000  0.08512000  1.0
  H  H33  1  0.42464000  0.24831000  0.04903000  1.0
  H  H34  1  0.55480000  0.24822000  0.02118000  1.0
  H  H35  1  0.75181000  0.14852000  0.09493000  1.0
  H  H36  1  0.81490000  0.06615000  0.05573000  1.0
  H  H37  1  0.82056000  0.96039000  0.12539000  1.0
  H  H38  1  0.76624000  0.94059000  0.23565000  1.0
  H  H39  1  0.70702000  0.02641000  0.27581000  1.0
  H  H40  1  0.52742000  0.16919000  0.22230000  1.0
  H  H41  1  0.39374000  0.10934000  0.16462000  1.0
  H  H42  1  0.35901000  0.99990000  0.08219000  1.0
  H  H43  1  0.46096000  0.95270000  0.05794000  1.0
  H  H44  1  0.59578000  0.01464000  0.11407000  1.0
  H  H45  1  0.57114000  0.34529000  0.43114000  1.0
  H  H46  1  0.47725000  0.18876000  0.59590000  1.0
  H  H47  1  0.62305000  0.14514000  0.45740000  1.0
  H  H48  1  0.41614000  0.04757000  0.60412000  1.0
  H  H49  1  0.40710000  0.92712000  0.66326000  1.0
  H  H50  1  0.64225000  0.98100000  0.60494000  1.0
  H  H51  1  0.66356000  0.10664000  0.54475000  1.0
  H  H52  1  0.68234000  0.37005000  0.24740000  1.0
  H  H53  1  0.58695000  0.38394000  0.17310000  1.0
  H  H54  1  0.43365000  0.30589000  0.19130000  1.0
  H  H55  1  0.37583000  0.21408000  0.28589000  1.0
  H  H56  1  0.47094000  0.20012000  0.36091000  1.0
  H  H57  1  0.81433000  0.30242000  0.39645000  1.0
  H  H58  1  0.94317000  0.43303000  0.42721000  1.0
  H  H59  1  0.94856000  0.56960000  0.41812000  1.0
  H  H60  1  0.82351000  0.57538000  0.38213000  1.0
  H  H61  1  0.69323000  0.44518000  0.35462000  1.0
  H  H62  1  0.39673000  0.24845000  0.42833000  1.0
  H  H63  1  0.25120000  0.18529000  0.38914000  1.0
  H  H64  1  0.13973000  0.17944000  0.45885000  1.0
  H  H65  1  0.17412000  0.23354000  0.56914000  1.0
  H  H66  1  0.31920000  0.29282000  0.60928000  1.0
  H  H67  1  0.64156000  0.47274000  0.55581000  1.0
  H  H68  1  0.71538000  0.60622000  0.49790000  1.0
  H  H69  1  0.64063000  0.64072000  0.41526000  1.0
  H  H70  1  0.49152000  0.53881000  0.39107000  1.0
  H  H71  1  0.41874000  0.40414000  0.44732000  1.0
  H  H72  1  0.77428000  0.42902000  0.76423000  1.0
  H  H73  1  0.71172000  0.52297000  0.92901000  1.0
  H  H74  1  0.52215000  0.37701000  0.79073000  1.0
  H  H75  1  0.63134000  0.58393000  0.93735000  1.0
  H  H76  1  0.51988000  0.59275000  0.99667000  1.0
  H  H77  1  0.33883000  0.35772000  0.93828000  1.0
  H  H78  1  0.44323000  0.33664000  0.87795000  1.0
  H  H79  1  0.68787000  0.31774000  0.58076000  1.0
  H  H80  1  0.79701000  0.41306000  0.50638000  1.0
  H  H81  1  0.87208000  0.56630000  0.52444000  1.0
  H  H82  1  0.83793000  0.62416000  0.61893000  1.0
  H  H83  1  0.72893000  0.52916000  0.69399000  1.0
  H  H84  1  0.48822000  0.18615000  0.72999000  1.0
  H  H85  1  0.48981000  0.05727000  0.76080000  1.0
  H  H86  1  0.62086000  0.05150000  0.75168000  1.0
  H  H87  1  0.75177000  0.17632000  0.71553000  1.0
  H  H88  1  0.75195000  0.30661000  0.68785000  1.0
  H  H89  1  0.85198000  0.60328000  0.76139000  1.0
  H  H90  1  0.93397000  0.74874000  0.72221000  1.0
  H  H91  1  0.03937000  0.86030000  0.79191000  1.0
  H  H92  1  0.05924000  0.82594000  0.90221000  1.0
  H  H93  1  0.97381000  0.68087000  0.94234000  1.0
  H  H94  1  0.83124000  0.35858000  0.88903000  1.0
  H  H95  1  0.89073000  0.28451000  0.83120000  1.0
  H  H96  1  0.99994000  0.35896000  0.74850000  1.0
  H  H97  1  0.04733000  0.50806000  0.72419000  1.0
  H  H98  1  0.98565000  0.58112000  0.78041000  1.0
  H  H99  1  0.42884000  0.77403000  0.90235000  1.0
  H  H100  1  0.52270000  0.71136000  0.73758000  1.0
  H  H101  1  0.37708000  0.52206000  0.87613000  1.0
  H  H102  1  0.58378000  0.63123000  0.72919000  1.0
  H  H103  1  0.59274000  0.51984000  0.66998000  1.0
  H  H104  1  0.35774000  0.33874000  0.72856000  1.0
  H  H105  1  0.33655000  0.44305000  0.78887000  1.0
  H  H106  1  0.31752000  0.68764000  0.08598000  1.0
  H  H107  1  0.41281000  0.79689000  0.16029000  1.0
  H  H108  1  0.56615000  0.87202000  0.14217000  1.0
  H  H109  1  0.62408000  0.83783000  0.04774000  1.0
  H  H110  1  0.52908000  0.72881000  0.97273000  1.0
  H  H111  1  0.18594000  0.48813000  0.93688000  1.0
  H  H112  1  0.05707000  0.48979000  0.90598000  1.0
  H  H113  1  0.05143000  0.62087000  0.91488000  1.0
  H  H114  1  0.17634000  0.75170000  0.95097000  1.0
  H  H115  1  0.30659000  0.75179000  0.97882000  1.0
  H  H116  1  0.60329000  0.85148000  0.90507000  1.0
  H  H117  1  0.74876000  0.93386000  0.94427000  1.0
  H  H118  1  0.86017000  0.03962000  0.87461000  1.0
  H  H119  1  0.82566000  0.05942000  0.76435000  1.0
  H  H120  1  0.68062000  0.97359000  0.72419000  1.0
  H  H121  1  0.35823000  0.83081000  0.77770000  1.0
  H  H122  1  0.28440000  0.89066000  0.83538000  1.0
  H  H123  1  0.35911000  0.00010000  0.91781000  1.0
  H  H124  1  0.50826000  0.04729000  0.94206000  1.0
  H  H125  1  0.58114000  0.98536000  0.88593000  1.0
  H  H126  1  0.22585000  0.65471000  0.56885000  1.0
  H  H127  1  0.28849000  0.81124000  0.40409000  1.0
  H  H128  1  0.47791000  0.85485000  0.54260000  1.0
  H  H129  1  0.36857000  0.95242000  0.39588000  1.0
  H  H130  1  0.47998000  0.07287000  0.33674000  1.0
  H  H131  1  0.66125000  0.01900000  0.39506000  1.0
  H  H132  1  0.55693000  0.89336000  0.45525000  1.0
  H  H133  1  0.31231000  0.62995000  0.75259000  1.0
  H  H134  1  0.20303000  0.61606000  0.82690000  1.0
  H  H135  1  0.12777000  0.69410000  0.80870000  1.0
  H  H136  1  0.16176000  0.78591000  0.71411000  1.0
  H  H137  1  0.27082000  0.79988000  0.63909000  1.0
  H  H138  1  0.51190000  0.69757000  0.60355000  1.0
  H  H139  1  0.51013000  0.56696000  0.57279000  1.0
  H  H140  1  0.37896000  0.43040000  0.58188000  1.0
  H  H141  1  0.24813000  0.42462000  0.61787000  1.0
  H  H142  1  0.24805000  0.55482000  0.64538000  1.0
  H  H143  1  0.14828000  0.75155000  0.57167000  1.0
  H  H144  1  0.06591000  0.81471000  0.61086000  1.0
  H  H145  1  0.96029000  0.82056000  0.54115000  1.0
  H  H146  1  0.94059000  0.76647000  0.43086000  1.0
  H  H147  1  0.02639000  0.70719000  0.39072000  1.0
  H  H148  1  0.16882000  0.52726000  0.44419000  1.0
  H  H149  1  0.10916000  0.39378000  0.50210000  1.0
  H  H150  1  0.99991000  0.35928000  0.58474000  1.0
  H  H151  1  0.95271000  0.46119000  0.60893000  1.0
  H  H152  1  0.01460000  0.59586000  0.55268000  1.0
  H  H153  1  0.34525000  0.57098000  0.23578000  1.0
  H  H154  1  0.18875000  0.47703000  0.07099000  1.0
  H  H155  1  0.14515000  0.62300000  0.20927000  1.0
  H  H156  1  0.04742000  0.41607000  0.06265000  1.0
  H  H157  1  0.92713000  0.40725000  0.00334000  1.0
  H  H158  1  0.98110000  0.64228000  0.06172000  1.0
  H  H159  1  0.10660000  0.66337000  0.12205000  1.0
  H  H160  1  0.37013000  0.68226000  0.41924000  1.0
  H  H161  1  0.38396000  0.58694000  0.49362000  1.0
  H  H162  1  0.30578000  0.43370000  0.47556000  1.0
  H  H163  1  0.21377000  0.37584000  0.38107000  1.0
  H  H164  1  0.19976000  0.47084000  0.30601000  1.0
  H  H165  1  0.30207000  0.81385000  0.27001000  1.0
  H  H166  1  0.43253000  0.94273000  0.23920000  1.0
  H  H167  1  0.56935000  0.94849000  0.24832000  1.0
  H  H168  1  0.57545000  0.82368000  0.28448000  1.0
  H  H169  1  0.44533000  0.69339000  0.31215000  1.0
  H  H170  1  0.24871000  0.39672000  0.23862000  1.0
  H  H171  1  0.18523000  0.25126000  0.27779000  1.0
  H  H172  1  0.17907000  0.13970000  0.20809000  1.0
  H  H173  1  0.23330000  0.17406000  0.09779000  1.0
  H  H174  1  0.29294000  0.31913000  0.05766000  1.0
  H  H175  1  0.47266000  0.64142000  0.11097000  1.0
  H  H176  1  0.60622000  0.71549000  0.16880000  1.0
  H  H177  1  0.64098000  0.64103000  0.25150000  1.0
  H  H178  1  0.53927000  0.49194000  0.27581000  1.0
  H  H179  1  0.40454000  0.41888000  0.21959000  1.0
  C  C180  1  0.75470000  0.35468000  0.10354000  1.0
  C  C181  1  0.70745000  0.27208000  0.12535000  1.0
  C  C182  1  0.72803000  0.24869000  0.18244000  1.0
  C  C183  1  0.79624000  0.30784000  0.21776000  1.0
  C  C184  1  0.84187000  0.39084000  0.19765000  1.0
  C  C185  1  0.81967000  0.41379000  0.14065000  1.0
  C  C186  1  0.91281000  0.45354000  0.23480000  1.0
  C  C187  1  0.96441000  0.43272000  0.26964000  1.0
  C  C188  1  0.03177000  0.49461000  0.30259000  1.0
  C  C189  1  0.00069000  0.59522000  0.27024000  1.0
  C  C190  1  0.93211000  0.53711000  0.23621000  1.0
  C  C191  1  0.71499000  0.29869000  0.97668000  1.0
  C  C192  1  0.66359000  0.27906000  0.92313000  1.0
  C  C193  1  0.65602000  0.21773000  0.88097000  1.0
  C  C194  1  0.69985000  0.17538000  0.89124000  1.0
  C  C195  1  0.75156000  0.19475000  0.94406000  1.0
  C  C196  1  0.75931000  0.25611000  0.98636000  1.0
  C  C197  1  0.63777000  0.45386000  0.06065000  1.0
  C  C198  1  0.56438000  0.45307000  0.07728000  1.0
  C  C199  1  0.48777000  0.37940000  0.07256000  1.0
  C  C200  1  0.48459000  0.30603000  0.05217000  1.0
  C  C201  1  0.55783000  0.30600000  0.03634000  1.0
  C  C202  1  0.63491000  0.38037000  0.04009000  1.0
  C  C203  1  0.72246000  0.09070000  0.18744000  1.0
  C  C204  1  0.75474000  0.10285000  0.12584000  1.0
  C  C205  1  0.78984000  0.05616000  0.10365000  1.0
  C  C206  1  0.79303000  0.99682000  0.14272000  1.0
  C  C207  1  0.76228000  0.98540000  0.20441000  1.0
  C  C208  1  0.72784000  0.03261000  0.22687000  1.0
  C  C209  1  0.57154000  0.09664000  0.17205000  1.0
  C  C210  1  0.51327000  0.12211000  0.18602000  1.0
  C  C211  1  0.43775000  0.08820000  0.15342000  1.0
  C  C212  1  0.41856000  0.02721000  0.10713000  1.0
  C  C213  1  0.47558000  0.00081000  0.09346000  1.0
  C  C214  1  0.55177000  0.03555000  0.12551000  1.0
  C  C215  1  0.60012000  0.24549000  0.43706000  1.0
  C  C216  1  0.56471000  0.29269000  0.45886000  1.0
  C  C217  1  0.52068000  0.27209000  0.51590000  1.0
  C  C218  1  0.51163000  0.20391000  0.55127000  1.0
  C  C219  1  0.54905000  0.15831000  0.53116000  1.0
  C  C220  1  0.59426000  0.18052000  0.47418000  1.0
  C  C221  1  0.54076000  0.08734000  0.56829000  1.0
  C  C222  1  0.46824000  0.03569000  0.60300000  1.0
  C  C223  1  0.46273000  0.96828000  0.63592000  1.0
  C  C224  1  0.59450000  0.99933000  0.60373000  1.0
  C  C225  1  0.60504000  0.06800000  0.56977000  1.0
  C  C226  1  0.58364000  0.28517000  0.31021000  1.0
  C  C227  1  0.61534000  0.33645000  0.25660000  1.0
  C  C228  1  0.56152000  0.34395000  0.21442000  1.0
  C  C229  1  0.47536000  0.30023000  0.22474000  1.0
  C  C230  1  0.44308000  0.24869000  0.27764000  1.0
  C  C231  1  0.49675000  0.24101000  0.31997000  1.0
  C  C232  1  0.81627000  0.36242000  0.39395000  1.0
  C  C233  1  0.88883000  0.43582000  0.41048000  1.0
  C  C234  1  0.89165000  0.51236000  0.40566000  1.0
  C  C235  1  0.82138000  0.51548000  0.38530000  1.0
  C  C236  1  0.74810000  0.44223000  0.36967000  1.0
  C  C237  1  0.74553000  0.36522000  0.37346000  1.0
  C  C238  1  0.36815000  0.27762000  0.52087000  1.0
  C  C239  1  0.34808000  0.24542000  0.45925000  1.0
  C  C240  1  0.26627000  0.21029000  0.43707000  1.0
  C  C241  1  0.20367000  0.20694000  0.47620000  1.0
  C  C242  1  0.22297000  0.23762000  0.53790000  1.0
  C  C243  1  0.30464000  0.27210000  0.56034000  1.0
  C  C244  1  0.52497000  0.42848000  0.50539000  1.0
  C  C245  1  0.60866000  0.48678000  0.51940000  1.0
  C  C246  1  0.65025000  0.56218000  0.48667000  1.0
  C  C247  1  0.60844000  0.58126000  0.44030000  1.0
  C  C248  1  0.52503000  0.52426000  0.42665000  1.0
  C  C249  1  0.48365000  0.44815000  0.45877000  1.0
  C  C250  1  0.64547000  0.40006000  0.77029000  1.0
  C  C251  1  0.72815000  0.43552000  0.79197000  1.0
  C  C252  1  0.75161000  0.47957000  0.84898000  1.0
  C  C253  1  0.69246000  0.48861000  0.88439000  1.0
  C  C254  1  0.60938000  0.45114000  0.86439000  1.0
  C  C255  1  0.58636000  0.40587000  0.80746000  1.0
  C  C256  1  0.54665000  0.45937000  0.90154000  1.0
  C  C257  1  0.56742000  0.53181000  0.93626000  1.0
  C  C258  1  0.50549000  0.53720000  0.96928000  1.0
  C  C259  1  0.40488000  0.40548000  0.93703000  1.0
  C  C260  1  0.46306000  0.39508000  0.90300000  1.0
  C  C261  1  0.70147000  0.41644000  0.64343000  1.0
  C  C262  1  0.72114000  0.38472000  0.58989000  1.0
  C  C263  1  0.78242000  0.43851000  0.54768000  1.0
  C  C264  1  0.82475000  0.52464000  0.55790000  1.0
  C  C265  1  0.80538000  0.55693000  0.61075000  1.0
  C  C266  1  0.74404000  0.50331000  0.65309000  1.0
  C  C267  1  0.54623000  0.18406000  0.72743000  1.0
  C  C268  1  0.54697000  0.11146000  0.74401000  1.0
  C  C269  1  0.62062000  0.10845000  0.73917000  1.0
  C  C270  1  0.69404000  0.17858000  0.71872000  1.0
  C  C271  1  0.69412000  0.25186000  0.70298000  1.0
  C  C272  1  0.61975000  0.25462000  0.70682000  1.0
  C  C273  1  0.90970000  0.63192000  0.85394000  1.0
  C  C274  1  0.89750000  0.65194000  0.79232000  1.0
  C  C275  1  0.94396000  0.73374000  0.77015000  1.0
  C  C276  1  0.00310000  0.79636000  0.80926000  1.0
  C  C277  1  0.01455000  0.77710000  0.87096000  1.0
  C  C278  1  0.96759000  0.69543000  0.89340000  1.0
  C  C279  1  0.90373000  0.47507000  0.83859000  1.0
  C  C280  1  0.87822000  0.39137000  0.85263000  1.0
  C  C281  1  0.91194000  0.34964000  0.81996000  1.0
  C  C282  1  0.97280000  0.39128000  0.77352000  1.0
  C  C283  1  0.99932000  0.47469000  0.75983000  1.0
  C  C284  1  0.96471000  0.51623000  0.79190000  1.0
  C  C285  1  0.40002000  0.64532000  0.89646000  1.0
  C  C286  1  0.43538000  0.72792000  0.87465000  1.0
  C  C287  1  0.47934000  0.75131000  0.81756000  1.0
  C  C288  1  0.48840000  0.69216000  0.78224000  1.0
  C  C289  1  0.45103000  0.60916000  0.80235000  1.0
  C  C290  1  0.40588000  0.58621000  0.85935000  1.0
  C  C291  1  0.45928000  0.54647000  0.76519000  1.0
  C  C292  1  0.53171000  0.56729000  0.73036000  1.0
  C  C293  1  0.53717000  0.50541000  0.69740000  1.0
  C  C294  1  0.40548000  0.40478000  0.72975000  1.0
  C  C295  1  0.39501000  0.46290000  0.76379000  1.0
  C  C296  1  0.41631000  0.70131000  0.02332000  1.0
  C  C297  1  0.38454000  0.72095000  0.07687000  1.0
  C  C298  1  0.43830000  0.78227000  0.11902000  1.0
  C  C299  1  0.52447000  0.82463000  0.10876000  1.0
  C  C300  1  0.55681000  0.80525000  0.05594000  1.0
  C  C301  1  0.50321000  0.74389000  0.01364000  1.0
  C  C302  1  0.18391000  0.54614000  0.93935000  1.0
  C  C303  1  0.11131000  0.54693000  0.92272000  1.0
  C  C304  1  0.10837000  0.62060000  0.92744000  1.0
  C  C305  1  0.17856000  0.69397000  0.94783000  1.0
  C  C306  1  0.25184000  0.69401000  0.96366000  1.0
  C  C307  1  0.25454000  0.61963000  0.95991000  1.0
  C  C308  1  0.63176000  0.90930000  0.81256000  1.0
  C  C309  1  0.65189000  0.89715000  0.87416000  1.0
  C  C310  1  0.73368000  0.94384000  0.89635000  1.0
  C  C311  1  0.79622000  0.00319000  0.85728000  1.0
  C  C312  1  0.77688000  0.01460000  0.79559000  1.0
  C  C313  1  0.69522000  0.96739000  0.77313000  1.0
  C  C314  1  0.47490000  0.90336000  0.82795000  1.0
  C  C315  1  0.39116000  0.87789000  0.81398000  1.0
  C  C316  1  0.34955000  0.91180000  0.84658000  1.0
  C  C317  1  0.39135000  0.97279000  0.89287000  1.0
  C  C318  1  0.47477000  0.99919000  0.90654000  1.0
  C  C319  1  0.51622000  0.96445000  0.87449000  1.0
  C  C320  1  0.35463000  0.75451000  0.56294000  1.0
  C  C321  1  0.27202000  0.70731000  0.54114000  1.0
  C  C322  1  0.24859000  0.72791000  0.48410000  1.0
  C  C323  1  0.30772000  0.79608000  0.44873000  1.0
  C  C324  1  0.39074000  0.84169000  0.46884000  1.0
  C  C325  1  0.41374000  0.81947000  0.52582000  1.0
  C  C326  1  0.45342000  0.91265000  0.43171000  1.0
  C  C327  1  0.43255000  0.96430000  0.39700000  1.0
  C  C328  1  0.49444000  0.03171000  0.36408000  1.0
  C  C329  1  0.59517000  0.00066000  0.39627000  1.0
  C  C330  1  0.53705000  0.93199000  0.43023000  1.0
  C  C331  1  0.29848000  0.71483000  0.68979000  1.0
  C  C332  1  0.27891000  0.66355000  0.74340000  1.0
  C  C333  1  0.21758000  0.65605000  0.78558000  1.0
  C  C334  1  0.17514000  0.69977000  0.77527000  1.0
  C  C335  1  0.19439000  0.75130000  0.72236000  1.0
  C  C336  1  0.25575000  0.75899000  0.68003000  1.0
  C  C337  1  0.45384000  0.63757000  0.60605000  1.0
  C  C338  1  0.45301000  0.56417000  0.58952000  1.0
  C  C339  1  0.37929000  0.48763000  0.59434000  1.0
  C  C340  1  0.30590000  0.48451000  0.61470000  1.0
  C  C341  1  0.30587000  0.55777000  0.63033000  1.0
  C  C342  1  0.38031000  0.63477000  0.62653000  1.0
  C  C343  1  0.09053000  0.72239000  0.47913000  1.0
  C  C344  1  0.10266000  0.75458000  0.54075000  1.0
  C  C345  1  0.05598000  0.78971000  0.56293000  1.0
  C  C346  1  0.99674000  0.79307000  0.52380000  1.0
  C  C347  1  0.98535000  0.76239000  0.46210000  1.0
  C  C348  1  0.03255000  0.72790000  0.43966000  1.0
  C  C349  1  0.09649000  0.57152000  0.49461000  1.0
  C  C350  1  0.12188000  0.51322000  0.48060000  1.0
  C  C351  1  0.08807000  0.43782000  0.51333000  1.0
  C  C352  1  0.02718000  0.41874000  0.55970000  1.0
  C  C353  1  0.00077000  0.47574000  0.57335000  1.0
  C  C354  1  0.03549000  0.55185000  0.54124000  1.0
  C  C355  1  0.24541000  0.59994000  0.22971000  1.0
  C  C356  1  0.29262000  0.56448000  0.20803000  1.0
  C  C357  1  0.27204000  0.52043000  0.15102000  1.0
  C  C358  1  0.20385000  0.51139000  0.11561000  1.0
  C  C359  1  0.15824000  0.54886000  0.13561000  1.0
  C  C360  1  0.18049000  0.59413000  0.19254000  1.0
  C  C361  1  0.08728000  0.54064000  0.09846000  1.0
  C  C362  1  0.03561000  0.46819000  0.06374000  1.0
  C  C363  1  0.96829000  0.46280000  0.03072000  1.0
  C  C364  1  0.99940000  0.59452000  0.06297000  1.0
  C  C365  1  0.06799000  0.60492000  0.09700000  1.0
  C  C366  1  0.28502000  0.58356000  0.35657000  1.0
  C  C367  1  0.33642000  0.61528000  0.41012000  1.0
  C  C368  1  0.34391000  0.56148000  0.45233000  1.0
  C  C369  1  0.30011000  0.47536000  0.44209000  1.0
  C  C370  1  0.24844000  0.44307000  0.38925000  1.0
  C  C371  1  0.24072000  0.49669000  0.34691000  1.0
  C  C372  1  0.36216000  0.81593000  0.27257000  1.0
  C  C373  1  0.43551000  0.88854000  0.25599000  1.0
  C  C374  1  0.51217000  0.89155000  0.26083000  1.0
  C  C375  1  0.51546000  0.82142000  0.28128000  1.0
  C  C376  1  0.44225000  0.74814000  0.29702000  1.0
  C  C377  1  0.36513000  0.74538000  0.29318000  1.0
  C  C378  1  0.27779000  0.36808000  0.14606000  1.0
  C  C379  1  0.24557000  0.34806000  0.20768000  1.0
  C  C380  1  0.21022000  0.26626000  0.22985000  1.0
  C  C381  1  0.20673000  0.20364000  0.19074000  1.0
  C  C382  1  0.23745000  0.22290000  0.12904000  1.0
  C  C383  1  0.27216000  0.30457000  0.10660000  1.0
  C  C384  1  0.42867000  0.52493000  0.16141000  1.0
  C  C385  1  0.48685000  0.60863000  0.14737000  1.0
  C  C386  1  0.56229000  0.65036000  0.18004000  1.0
  C  C387  1  0.58151000  0.60871000  0.22648000  1.0
  C  C388  1  0.52463000  0.52531000  0.24017000  1.0
  C  C389  1  0.44849000  0.48377000  0.20810000  1.0
  Br  Br390  1  0.83643000  0.63145000  0.02847000  1.0
  Br  Br391  1  0.79512000  0.16368000  0.36199000  1.0
  Br  Br392  1  0.36856000  0.20505000  0.69561000  1.0
  Br  Br393  1  0.20498000  0.36854000  0.97152000  1.0
  Br  Br394  1  0.63143000  0.83630000  0.63802000  1.0
  Br  Br395  1  0.16352000  0.79496000  0.30439000  1.0
  N  N396  1  0.05083000  0.57507000  0.30279000  1.0
  N  N397  1  0.52414000  0.94917000  0.63617000  1.0
  N  N398  1  0.42501000  0.47574000  0.96956000  1.0
  N  N399  1  0.47577000  0.42494000  0.69721000  1.0
  N  N400  1  0.57498000  0.05083000  0.36383000  1.0
  N  N401  1  0.94927000  0.52426000  0.03044000  1.0
