# generated using pymatgen
data_AgH6C12N3O5
_symmetry_space_group_name_H-M   'P 1'
_cell_length_a   9.43433000
_cell_length_b   10.44960000
_cell_length_c   12.16150000
_cell_angle_alpha   90.00000000
_cell_angle_beta   99.84070000
_cell_angle_gamma   90.00000000
_symmetry_Int_Tables_number   1
_chemical_formula_structural   AgH6C12N3O5
_chemical_formula_sum   'Ag4 H24 C48 N12 O20'
_cell_volume   1181.30083955
_cell_formula_units_Z   4
loop_
 _symmetry_equiv_pos_site_id
 _symmetry_equiv_pos_as_xyz
  1  'x, y, z'
loop_
 _atom_site_type_symbol
 _atom_site_label
 _atom_site_symmetry_multiplicity
 _atom_site_fract_x
 _atom_site_fract_y
 _atom_site_fract_z
 _atom_site_occupancy
  Ag  Ag0  1  0.22909000  0.15020000  0.49542000  1.0
  Ag  Ag1  1  0.27091000  0.65020000  0.00458000  1.0
  Ag  Ag2  1  0.77091000  0.84980000  0.50458000  1.0
  Ag  Ag3  1  0.72909000  0.34980000  0.99542000  1.0
  H  H4  1  0.32986000  0.88848000  0.41224000  1.0
  H  H5  1  0.17014000  0.38849000  0.08777000  1.0
  H  H6  1  0.67014000  0.11151000  0.58777000  1.0
  H  H7  1  0.82986000  0.61151000  0.91224000  1.0
  H  H8  1  0.49548000  0.80049000  0.28913000  1.0
  H  H9  1  0.00452000  0.30049000  0.21086000  1.0
  H  H10  1  0.50452000  0.19951000  0.71086000  1.0
  H  H11  1  0.99548000  0.69951000  0.78914000  1.0
  H  H12  1  0.62786000  0.95500000  0.18555000  1.0
  H  H13  1  0.87213000  0.45500000  0.31445000  1.0
  H  H14  1  0.37214000  0.04500000  0.81445000  1.0
  H  H15  1  0.12787000  0.54500000  0.68555000  1.0
  H  H16  1  0.51004000  0.59285000  0.24944000  1.0
  H  H17  1  0.98996000  0.09284000  0.25057000  1.0
  H  H18  1  0.48996000  0.40716000  0.75057000  1.0
  H  H19  1  0.01005000  0.90715000  0.74943000  1.0
  H  H20  1  0.34703000  0.65566000  0.38974000  1.0
  H  H21  1  0.15296000  0.15566000  0.11026000  1.0
  H  H22  1  0.65296000  0.34434000  0.61026000  1.0
  H  H23  1  0.84704000  0.84434000  0.88974000  1.0
  H  H24  1  0.24221000  0.48164000  0.48928000  1.0
  H  H25  1  0.25779000  0.98164000  0.01072000  1.0
  H  H26  1  0.75779000  0.51836000  0.51072000  1.0
  H  H27  1  0.74221000  0.01836000  0.98928000  1.0
  C  C28  1  0.39112000  0.95178000  0.36653000  1.0
  C  C29  1  0.10887000  0.45179000  0.13347000  1.0
  C  C30  1  0.60887000  0.04822000  0.63346000  1.0
  C  C31  1  0.89113000  0.54822000  0.86653000  1.0
  C  C32  1  0.48250000  0.90306000  0.29809000  1.0
  C  C33  1  0.01749000  0.40306000  0.20191000  1.0
  C  C34  1  0.51750000  0.09694000  0.70191000  1.0
  C  C35  1  0.98250000  0.59694000  0.79809000  1.0
  C  C36  1  0.55530000  0.98837000  0.24012000  1.0
  C  C37  1  0.94469000  0.48837000  0.25988000  1.0
  C  C38  1  0.44470000  0.01163000  0.75988000  1.0
  C  C39  1  0.05531000  0.51163000  0.74012000  1.0
  C  C40  1  0.53524000  0.11959000  0.25319000  1.0
  C  C41  1  0.96476000  0.61959000  0.24682000  1.0
  C  C42  1  0.46476000  0.88041000  0.74682000  1.0
  C  C43  1  0.03525000  0.38041000  0.75318000  1.0
  C  C44  1  0.61231000  0.21116000  0.19280000  1.0
  C  C45  1  0.88769000  0.71116000  0.30720000  1.0
  C  C46  1  0.38769000  0.78884000  0.80720000  1.0
  C  C47  1  0.11231000  0.28884000  0.69280000  1.0
  C  C48  1  0.57856000  0.35378000  0.20081000  1.0
  C  C49  1  0.92143000  0.85378000  0.29919000  1.0
  C  C50  1  0.42143000  0.64622000  0.79919000  1.0
  C  C51  1  0.07857000  0.14622000  0.70081000  1.0
  C  C52  1  0.48350000  0.39249000  0.27872000  1.0
  C  C53  1  0.01650000  0.89249000  0.22128000  1.0
  C  C54  1  0.51650000  0.60751000  0.72128000  1.0
  C  C55  1  0.98351000  0.10751000  0.77872000  1.0
  C  C56  1  0.45856000  0.52248000  0.29593000  1.0
  C  C57  1  0.04144000  0.02248000  0.20407000  1.0
  C  C58  1  0.54144000  0.47752000  0.70407000  1.0
  C  C59  1  0.95857000  0.97751000  0.79593000  1.0
  C  C60  1  0.37059000  0.55664000  0.37188000  1.0
  C  C61  1  0.12941000  0.05664000  0.12813000  1.0
  C  C62  1  0.62941000  0.44336000  0.62813000  1.0
  C  C63  1  0.87059000  0.94336000  0.87187000  1.0
  C  C64  1  0.31005000  0.45933000  0.42774000  1.0
  C  C65  1  0.18995000  0.95933000  0.07226000  1.0
  C  C66  1  0.68995000  0.54067000  0.57226000  1.0
  C  C67  1  0.81005000  0.04067000  0.92773000  1.0
  C  C68  1  0.41779000  0.30052000  0.33861000  1.0
  C  C69  1  0.08221000  0.80052000  0.16139000  1.0
  C  C70  1  0.58221000  0.69948000  0.66139000  1.0
  C  C71  1  0.91779000  0.19948000  0.83861000  1.0
  C  C72  1  0.44114000  0.16204000  0.32378000  1.0
  C  C73  1  0.05886000  0.66204000  0.17623000  1.0
  C  C74  1  0.55886000  0.83796000  0.67622000  1.0
  C  C75  1  0.94114000  0.33796000  0.82378000  1.0
  N  N76  1  0.33255000  0.33483000  0.41127000  1.0
  N  N77  1  0.16745000  0.83483000  0.08873000  1.0
  N  N78  1  0.66745000  0.66517000  0.58873000  1.0
  N  N79  1  0.83255000  0.16517000  0.91127000  1.0
  N  N80  1  0.37085000  0.07795000  0.37925000  1.0
  N  N81  1  0.12914000  0.57795000  0.12075000  1.0
  N  N82  1  0.62914000  0.92205000  0.62075000  1.0
  N  N83  1  0.87086000  0.42205000  0.87925000  1.0
  N  N84  1  0.86557000  0.25060000  0.46127000  1.0
  N  N85  1  0.63443000  0.75060000  0.03873000  1.0
  N  N86  1  0.13443000  0.74940000  0.53873000  1.0
  N  N87  1  0.36557000  0.24940000  0.96127000  1.0
  O  O88  1  0.63621000  0.43262000  0.14638000  1.0
  O  O89  1  0.86379000  0.93263000  0.35362000  1.0
  O  O90  1  0.36379000  0.56738000  0.85362000  1.0
  O  O91  1  0.13622000  0.06738000  0.64638000  1.0
  O  O92  1  0.70292000  0.17622000  0.13709000  1.0
  O  O93  1  0.79706000  0.67622000  0.36290000  1.0
  O  O94  1  0.29706000  0.82378000  0.86290000  1.0
  O  O95  1  0.20294000  0.32378000  0.63710000  1.0
  O  O96  1  0.97502000  0.23086000  0.41679000  1.0
  O  O97  1  0.52498000  0.73086000  0.08321000  1.0
  O  O98  1  0.02498000  0.76914000  0.58321000  1.0
  O  O99  1  0.47502000  0.26914000  0.91679000  1.0
  O  O100  1  0.86783000  0.22878000  0.56501000  1.0
  O  O101  1  0.63217000  0.72878000  0.93499000  1.0
  O  O102  1  0.13217000  0.77122000  0.43499000  1.0
  O  O103  1  0.36783000  0.27123000  0.06501000  1.0
  O  O104  1  0.75082000  0.29406000  0.40475000  1.0
  O  O105  1  0.74918000  0.79406000  0.09525000  1.0
  O  O106  1  0.24918000  0.70594000  0.59525000  1.0
  O  O107  1  0.25082000  0.20594000  0.90475000  1.0
