# generated using pymatgen
data_NaH5C6O
_symmetry_space_group_name_H-M   'P 1'
_cell_length_a   5.74552000
_cell_length_b   10.27070000
_cell_length_c   10.99618343
_cell_angle_alpha   62.18105289
_cell_angle_beta   74.86001980
_cell_angle_gamma   89.98510000
_symmetry_Int_Tables_number   1
_chemical_formula_structural   NaH5C6O
_chemical_formula_sum   'Na4 H20 C24 O4'
_cell_volume   548.32579857
_cell_formula_units_Z   4
loop_
 _symmetry_equiv_pos_site_id
 _symmetry_equiv_pos_as_xyz
  1  'x, y, z'
loop_
 _atom_site_type_symbol
 _atom_site_label
 _atom_site_symmetry_multiplicity
 _atom_site_fract_x
 _atom_site_fract_y
 _atom_site_fract_z
 _atom_site_occupancy
  Na  Na0  1  0.06461000  0.17262000  0.87891000  1.0
  Na  Na1  1  0.94318000  0.82728000  0.12107000  1.0
  Na  Na2  1  0.56437000  0.94854000  0.87877000  1.0
  Na  Na3  1  0.44313000  0.05127000  0.12137000  1.0
  H  H4  1  0.57357000  0.22700000  0.63718000  1.0
  H  H5  1  0.20992000  0.77300000  0.36281000  1.0
  H  H6  1  0.07301000  0.13610000  0.63696000  1.0
  H  H7  1  0.70988000  0.86403000  0.36288000  1.0
  H  H8  1  0.35298000  0.43261000  0.51034000  1.0
  H  H9  1  0.86290000  0.56741000  0.48962000  1.0
  H  H10  1  0.85231000  0.05751000  0.51007000  1.0
  H  H11  1  0.36255000  0.94294000  0.48964000  1.0
  H  H12  1  0.21679000  0.60753000  0.60489000  1.0
  H  H13  1  0.82166000  0.39221000  0.39526000  1.0
  H  H14  1  0.71623000  0.78825000  0.60426000  1.0
  H  H15  1  0.32141000  0.21244000  0.39536000  1.0
  H  H16  1  0.31774000  0.58003000  0.82162000  1.0
  H  H17  1  0.13969000  0.41957000  0.17873000  1.0
  H  H18  1  0.81761000  0.59888000  0.82079000  1.0
  H  H19  1  0.63962000  0.40138000  0.17910000  1.0
  H  H20  1  0.53804000  0.37448000  0.94956000  1.0
  H  H21  1  0.48755000  0.62512000  0.05083000  1.0
  H  H22  1  0.03810000  0.67633000  0.94876000  1.0
  H  H23  1  0.98768000  0.32366000  0.05123000  1.0
  C  C24  1  0.56914000  0.28235000  0.80552000  1.0
  C  C25  1  0.37420000  0.71752000  0.19461000  1.0
  C  C26  1  0.06887000  0.91244000  0.80506000  1.0
  C  C27  1  0.87430000  0.08755000  0.19484000  1.0
  C  C28  1  0.51621000  0.30395000  0.67826000  1.0
  C  C29  1  0.19388000  0.69599000  0.32174000  1.0
  C  C30  1  0.01571000  0.01811000  0.67795000  1.0
  C  C31  1  0.69383000  0.98206000  0.32189000  1.0
  C  C32  1  0.39214000  0.41954000  0.60711000  1.0
  C  C33  1  0.99874000  0.58043000  0.39286000  1.0
  C  C34  1  0.89149000  0.97380000  0.60678000  1.0
  C  C35  1  0.49853000  0.02655000  0.39296000  1.0
  C  C36  1  0.31697000  0.51893000  0.65879000  1.0
  C  C37  1  0.97548000  0.48090000  0.34131000  1.0
  C  C38  1  0.81641000  0.82283000  0.65824000  1.0
  C  C39  1  0.47532000  0.17758000  0.34150000  1.0
  C  C40  1  0.37244000  0.50202000  0.78164000  1.0
  C  C41  1  0.15401000  0.49770000  0.21861000  1.0
  C  C42  1  0.87217000  0.71682000  0.78092000  1.0
  C  C43  1  0.65407000  0.28340000  0.21897000  1.0
  C  C44  1  0.49635000  0.38722000  0.85339000  1.0
  C  C45  1  0.34951000  0.61253000  0.14685000  1.0
  C  C46  1  0.99623000  0.75979000  0.85269000  1.0
  C  C47  1  0.84968000  0.24026000  0.14726000  1.0
  O  O48  1  0.67234000  0.16764000  0.87872000  1.0
  O  O49  1  0.55060000  0.83215000  0.12145000  1.0
  O  O50  1  0.17219000  0.95375000  0.87836000  1.0
  O  O51  1  0.05070000  0.04600000  0.12166000  1.0
