# generated using pymatgen
data_BaH14(C2O3)4
_symmetry_space_group_name_H-M   'P 1'
_cell_length_a   6.44080000
_cell_length_b   11.50380000
_cell_length_c   18.95850000
_cell_angle_alpha   90.00010000
_cell_angle_beta   90.00020000
_cell_angle_gamma   86.86780000
_symmetry_Int_Tables_number   1
_chemical_formula_structural   BaH14(C2O3)4
_chemical_formula_sum   'Ba4 H56 C32 O48'
_cell_volume   1402.60647841
_cell_formula_units_Z   4
loop_
 _symmetry_equiv_pos_site_id
 _symmetry_equiv_pos_as_xyz
  1  'x, y, z'
loop_
 _atom_site_type_symbol
 _atom_site_label
 _atom_site_symmetry_multiplicity
 _atom_site_fract_x
 _atom_site_fract_y
 _atom_site_fract_z
 _atom_site_occupancy
  Ba  Ba0  1  0.48830000  0.29943000  0.51145000  1.0
  Ba  Ba1  1  0.51170000  0.20057000  0.01145000  1.0
  Ba  Ba2  1  0.51170000  0.70057000  0.48855000  1.0
  Ba  Ba3  1  0.48830000  0.79943000  0.98855000  1.0
  H  H4  1  0.28627000  0.37273000  0.71867000  1.0
  H  H5  1  0.71373000  0.12727000  0.21867000  1.0
  H  H6  1  0.71373000  0.62727000  0.28133000  1.0
  H  H7  1  0.28627000  0.87274000  0.78133000  1.0
  H  H8  1  0.96565000  0.18829000  0.48215000  1.0
  H  H9  1  0.03435000  0.31171000  0.98215000  1.0
  H  H10  1  0.03435000  0.81171000  0.51785000  1.0
  H  H11  1  0.96565000  0.68829000  0.01785000  1.0
  H  H12  1  0.85465000  0.15070000  0.41217000  1.0
  H  H13  1  0.14535000  0.34930000  0.91217000  1.0
  H  H14  1  0.14535000  0.84930000  0.58783000  1.0
  H  H15  1  0.85465000  0.65070000  0.08783000  1.0
  H  H16  1  0.75047000  0.46558000  0.75589000  1.0
  H  H17  1  0.24953000  0.03442000  0.25589000  1.0
  H  H18  1  0.24953000  0.53442000  0.24411000  1.0
  H  H19  1  0.75047000  0.96558000  0.74411000  1.0
  H  H20  1  0.02125000  0.35265000  0.43755000  1.0
  H  H21  1  0.97875000  0.14735000  0.93755000  1.0
  H  H22  1  0.97875000  0.64735000  0.56245000  1.0
  H  H23  1  0.02125000  0.85265000  0.06245000  1.0
  H  H24  1  0.10601000  0.48055000  0.43482000  1.0
  H  H25  1  0.89399000  0.01945000  0.93482000  1.0
  H  H26  1  0.89399000  0.51945000  0.56518000  1.0
  H  H27  1  0.10601000  0.98055000  0.06518000  1.0
  H  H28  1  0.62871000  0.03386000  0.60108000  1.0
  H  H29  1  0.37130000  0.46614000  0.10108000  1.0
  H  H30  1  0.37130000  0.96614000  0.39892000  1.0
  H  H31  1  0.62871000  0.53386000  0.89892000  1.0
  H  H32  1  0.65102000  0.01981000  0.51981000  1.0
  H  H33  1  0.34895000  0.48019000  0.01981000  1.0
  H  H34  1  0.34895000  0.98019000  0.48019000  1.0
  H  H35  1  0.65102000  0.51981000  0.98019000  1.0
  H  H36  1  0.02768000  0.23987000  0.58067000  1.0
  H  H37  1  0.97232000  0.26013000  0.08067000  1.0
  H  H38  1  0.97232000  0.76013000  0.41933000  1.0
  H  H39  1  0.02768000  0.73987000  0.91933000  1.0
  H  H40  1  0.14000000  0.11290000  0.58634000  1.0
  H  H41  1  0.86000000  0.38710000  0.08634000  1.0
  H  H42  1  0.86000000  0.88710000  0.41366000  1.0
  H  H43  1  0.14000000  0.61290000  0.91366000  1.0
  H  H44  1  0.30297000  0.67413000  0.67010000  1.0
  H  H45  1  0.69703000  0.82587000  0.17010000  1.0
  H  H46  1  0.69702000  0.32587000  0.32990000  1.0
  H  H47  1  0.30297000  0.17413000  0.82990000  1.0
  H  H48  1  0.21891000  0.65733000  0.78917000  1.0
  H  H49  1  0.78109000  0.84266000  0.28917000  1.0
  H  H50  1  0.78108000  0.34267000  0.21083000  1.0
  H  H51  1  0.21891000  0.15734000  0.71083000  1.0
  H  H52  1  0.73376000  0.16738000  0.80940000  1.0
  H  H53  1  0.26624000  0.33262000  0.30940000  1.0
  H  H54  1  0.26624000  0.83262000  0.19060000  1.0
  H  H55  1  0.73376000  0.66738000  0.69060000  1.0
  H  H56  1  0.81744000  0.17838000  0.68880000  1.0
  H  H57  1  0.18256000  0.32162000  0.18880000  1.0
  H  H58  1  0.18256000  0.82161000  0.31120000  1.0
  H  H59  1  0.81744000  0.67838000  0.81120000  1.0
  C  C60  1  0.34573000  0.49385000  0.63771000  1.0
  C  C61  1  0.65427000  0.00615000  0.13770000  1.0
  C  C62  1  0.65427000  0.50615000  0.36229000  1.0
  C  C63  1  0.34573000  0.99385000  0.86229000  1.0
  C  C64  1  0.29464000  0.58613000  0.69100000  1.0
  C  C65  1  0.70536000  0.91387000  0.19100000  1.0
  C  C66  1  0.70536000  0.41386000  0.30900000  1.0
  C  C67  1  0.29464000  0.08613000  0.80900000  1.0
  C  C68  1  0.24473000  0.57643000  0.75970000  1.0
  C  C69  1  0.75527000  0.92357000  0.25969000  1.0
  C  C70  1  0.75528000  0.42357000  0.24031000  1.0
  C  C71  1  0.24472000  0.07643000  0.74031000  1.0
  C  C72  1  0.21566000  0.47133000  0.80331000  1.0
  C  C73  1  0.78433000  0.02867000  0.30331000  1.0
  C  C74  1  0.78434000  0.52867000  0.19669000  1.0
  C  C75  1  0.21566000  0.97133000  0.69669000  1.0
  C  C76  1  0.67571000  0.34800000  0.83736000  1.0
  C  C77  1  0.32429000  0.15201000  0.33736000  1.0
  C  C78  1  0.32429000  0.65201000  0.16264000  1.0
  C  C79  1  0.67571000  0.84799000  0.66264000  1.0
  C  C80  1  0.73663000  0.25386000  0.78589000  1.0
  C  C81  1  0.26337000  0.24614000  0.28588000  1.0
  C  C82  1  0.26337000  0.74614000  0.21412000  1.0
  C  C83  1  0.73663000  0.75386000  0.71412000  1.0
  C  C84  1  0.80672000  0.36412000  0.67142000  1.0
  C  C85  1  0.19328000  0.13588000  0.17142000  1.0
  C  C86  1  0.19328000  0.63588000  0.32857000  1.0
  C  C87  1  0.80672000  0.86412000  0.82857000  1.0
  C  C88  1  0.78712000  0.26032000  0.71704000  1.0
  C  C89  1  0.21288000  0.23968000  0.21703000  1.0
  C  C90  1  0.21288000  0.73968000  0.28297000  1.0
  C  C91  1  0.78712000  0.76031000  0.78297000  1.0
  O  O92  1  0.34019000  0.38446000  0.65382000  1.0
  O  O93  1  0.65982000  0.11554000  0.15382000  1.0
  O  O94  1  0.65981000  0.61554000  0.34618000  1.0
  O  O95  1  0.34019000  0.88446000  0.84618000  1.0
  O  O96  1  0.79376000  0.46820000  0.69827000  1.0
  O  O97  1  0.20624000  0.03180000  0.19827000  1.0
  O  O98  1  0.20623000  0.53180000  0.30173000  1.0
  O  O99  1  0.79376000  0.96820000  0.80173000  1.0
  O  O100  1  0.23877000  0.36760000  0.77577000  1.0
  O  O101  1  0.76123000  0.13240000  0.27577000  1.0
  O  O102  1  0.76123000  0.63240000  0.22423000  1.0
  O  O103  1  0.23877000  0.86760000  0.72423000  1.0
  O  O104  1  0.86809000  0.21762000  0.44471000  1.0
  O  O105  1  0.13191000  0.28238000  0.94471000  1.0
  O  O106  1  0.13191000  0.78238000  0.55529000  1.0
  O  O107  1  0.86809000  0.71762000  0.05529000  1.0
  O  O108  1  0.69150000  0.45676000  0.82047000  1.0
  O  O109  1  0.30849000  0.04325000  0.32047000  1.0
  O  O110  1  0.30849000  0.54325000  0.17953000  1.0
  O  O111  1  0.69151000  0.95675000  0.67953000  1.0
  O  O112  1  0.39710000  0.52513000  0.57679000  1.0
  O  O113  1  0.60290000  0.97487000  0.07679000  1.0
  O  O114  1  0.60289000  0.47486000  0.42320000  1.0
  O  O115  1  0.39710000  0.02514000  0.92321000  1.0
  O  O116  1  0.13022000  0.40246000  0.45464000  1.0
  O  O117  1  0.86978000  0.09754000  0.95464000  1.0
  O  O118  1  0.86978000  0.59754000  0.54536000  1.0
  O  O119  1  0.13022000  0.90246000  0.04536000  1.0
  O  O120  1  0.83884000  0.34961000  0.60630000  1.0
  O  O121  1  0.16117000  0.15039000  0.10630000  1.0
  O  O122  1  0.16116000  0.65039000  0.39370000  1.0
  O  O123  1  0.83884000  0.84961000  0.89370000  1.0
  O  O124  1  0.16580000  0.48423000  0.86698000  1.0
  O  O125  1  0.83420000  0.01577000  0.36697000  1.0
  O  O126  1  0.83420000  0.51577000  0.13302000  1.0
  O  O127  1  0.16580000  0.98423000  0.63303000  1.0
  O  O128  1  0.60862000  0.31821000  0.89610000  1.0
  O  O129  1  0.39140000  0.18179000  0.39610000  1.0
  O  O130  1  0.39140000  0.68179000  0.10390000  1.0
  O  O131  1  0.60860000  0.81821000  0.60390000  1.0
  O  O132  1  0.60805000  0.07646000  0.55582000  1.0
  O  O133  1  0.39196000  0.42354000  0.05582000  1.0
  O  O134  1  0.39196000  0.92354000  0.44418000  1.0
  O  O135  1  0.60805000  0.57646000  0.94418000  1.0
  O  O136  1  0.12962000  0.18499000  0.55710000  1.0
  O  O137  1  0.87038000  0.31501000  0.05710000  1.0
  O  O138  1  0.87038000  0.81501000  0.44290000  1.0
  O  O139  1  0.12962000  0.68499000  0.94290000  1.0
