# generated using pymatgen
data_TbCoH16C16(N5O3)2
_symmetry_space_group_name_H-M   'P 1'
_cell_length_a   10.09630000
_cell_length_b   10.58760000
_cell_length_c   12.40050000
_cell_angle_alpha   73.69640000
_cell_angle_beta   75.55620000
_cell_angle_gamma   70.98550000
_symmetry_Int_Tables_number   1
_chemical_formula_structural   TbCoH16C16(N5O3)2
_chemical_formula_sum   'Tb2 Co2 H32 C32 N20 O12'
_cell_volume   1184.46935119
_cell_formula_units_Z   2
loop_
 _symmetry_equiv_pos_site_id
 _symmetry_equiv_pos_as_xyz
  1  'x, y, z'
loop_
 _atom_site_type_symbol
 _atom_site_label
 _atom_site_symmetry_multiplicity
 _atom_site_fract_x
 _atom_site_fract_y
 _atom_site_fract_z
 _atom_site_occupancy
  Tb  Tb0  1  0.40693000  0.31100000  0.28813000  1.0
  Tb  Tb1  1  0.59307000  0.68899000  0.71188000  1.0
  Co  Co2  1  0.33603000  0.29647000  0.73908000  1.0
  Co  Co3  1  0.66397000  0.70353000  0.26092000  1.0
  H  H4  1  0.28845000  0.75664000  0.54073000  1.0
  H  H5  1  0.71154000  0.24337000  0.45927000  1.0
  H  H6  1  0.32724000  0.90412000  0.03085000  1.0
  H  H7  1  0.67276000  0.09587000  0.96917000  1.0
  H  H8  1  0.13313000  0.51560000  0.08368000  1.0
  H  H9  1  0.86687000  0.48439000  0.91632000  1.0
  H  H10  1  0.47501000  0.65609000  0.07177000  1.0
  H  H11  1  0.52499000  0.34389000  0.92823000  1.0
  H  H12  1  0.01669000  0.68169000  0.29625000  1.0
  H  H13  1  0.98332000  0.31831000  0.70375000  1.0
  H  H14  1  0.36697000  0.54658000  0.45660000  1.0
  H  H15  1  0.63303000  0.45343000  0.54341000  1.0
  H  H16  1  0.97219000  0.75779000  0.03694000  1.0
  H  H17  1  0.02781000  0.24221000  0.96306000  1.0
  H  H18  1  0.92244000  0.89741000  0.37234000  1.0
  H  H19  1  0.07756000  0.10260000  0.62766000  1.0
  H  H20  1  0.41825000  0.08463000  0.18048000  1.0
  H  H21  1  0.58175000  0.91537000  0.81951000  1.0
  H  H22  1  0.36164000  0.22593000  0.09739000  1.0
  H  H23  1  0.63835000  0.77407000  0.90261000  1.0
  H  H24  1  0.72187000  0.25730000  0.24327000  1.0
  H  H25  1  0.27813000  0.74271000  0.75672000  1.0
  H  H26  1  0.70737000  0.10734000  0.24979000  1.0
  H  H27  1  0.29264000  0.89266000  0.75021000  1.0
  H  H28  1  0.40443000  0.00614000  0.36467000  1.0
  H  H29  1  0.59555000  0.99387000  0.63532000  1.0
  H  H30  1  0.38918000  0.05649000  0.47712000  1.0
  H  H31  1  0.61094000  0.94346000  0.52288000  1.0
  H  H32  1  0.16827000  0.20567000  0.28789000  1.0
  H  H33  1  0.83172000  0.79433000  0.71212000  1.0
  H  H34  1  0.08590000  0.35464000  0.31178000  1.0
  H  H35  1  0.91409000  0.64537000  0.68821000  1.0
  C  C36  1  0.37937000  0.29834000  0.58428000  1.0
  C  C37  1  0.62064000  0.70166000  0.41572000  1.0
  C  C38  1  0.58610000  0.56206000  0.27515000  1.0
  C  C39  1  0.41390000  0.43794000  0.72485000  1.0
  C  C40  1  0.28990000  0.28591000  0.89609000  1.0
  C  C41  1  0.71009000  0.71410000  0.10391000  1.0
  C  C42  1  0.36342000  0.68703000  0.06471000  1.0
  C  C43  1  0.63658000  0.31296000  0.93529000  1.0
  C  C44  1  0.51037000  0.16552000  0.75085000  1.0
  C  C45  1  0.48962000  0.83448000  0.24915000  1.0
  C  C46  1  0.27087000  0.62812000  0.44244000  1.0
  C  C47  1  0.72912000  0.37190000  0.55756000  1.0
  C  C48  1  0.26167000  0.15007000  0.75705000  1.0
  C  C49  1  0.73834000  0.84993000  0.24295000  1.0
  C  C50  1  0.16489000  0.43197000  0.72024000  1.0
  C  C51  1  0.83510000  0.56804000  0.27975000  1.0
  C  C52  1  0.22501000  0.74345000  0.48748000  1.0
  C  C53  1  0.77498000  0.25657000  0.51252000  1.0
  C  C54  1  0.13823000  0.84965000  0.03195000  1.0
  C  C55  1  0.86177000  0.15033000  0.96806000  1.0
  C  C56  1  0.09861000  0.84280000  0.46380000  1.0
  C  C57  1  0.90138000  0.15722000  0.53621000  1.0
  C  C58  1  0.16737000  0.60710000  0.06959000  1.0
  C  C59  1  0.83263000  0.39288000  0.93042000  1.0
  C  C60  1  0.28091000  0.82098000  0.04171000  1.0
  C  C61  1  0.71908000  0.17901000  0.95830000  1.0
  C  C62  1  0.08249000  0.73940000  0.04438000  1.0
  C  C63  1  0.91751000  0.26058000  0.95563000  1.0
  C  C64  1  0.06964000  0.70714000  0.35014000  1.0
  C  C65  1  0.93037000  0.29287000  0.64987000  1.0
  C  C66  1  0.02060000  0.82251000  0.39367000  1.0
  C  C67  1  0.97940000  0.17749000  0.60633000  1.0
  N  N68  1  0.30551000  0.58221000  0.08101000  1.0
  N  N69  1  0.69449000  0.41778000  0.91899000  1.0
  N  N70  1  0.19364000  0.61120000  0.37440000  1.0
  N  N71  1  0.80637000  0.38881000  0.62560000  1.0
  N  N72  1  0.40712000  0.29133000  0.48818000  1.0
  N  N73  1  0.59290000  0.70867000  0.51182000  1.0
  N  N74  1  0.53984000  0.47201000  0.28016000  1.0
  N  N75  1  0.46016000  0.52800000  0.71983000  1.0
  N  N76  1  0.05865000  0.95742000  0.51157000  1.0
  N  N77  1  0.94134000  0.04259000  0.48844000  1.0
  N  N78  1  0.06200000  0.52237000  0.70703000  1.0
  N  N79  1  0.93800000  0.47764000  0.29297000  1.0
  N  N80  1  0.61754000  0.07718000  0.75035000  1.0
  N  N81  1  0.38245000  0.92282000  0.24965000  1.0
  N  N82  1  0.22701000  0.05232000  0.76371000  1.0
  N  N83  1  0.77299000  0.94768000  0.23629000  1.0
  N  N84  1  0.26134000  0.28148000  0.99451000  1.0
  N  N85  1  0.73865000  0.71853000  0.00549000  1.0
  N  N86  1  0.05958000  0.98834000  0.01437000  1.0
  N  N87  1  0.94042000  0.01165000  0.98565000  1.0
  O  O88  1  0.42631000  0.17975000  0.15562000  1.0
  O  O89  1  0.57369000  0.82025000  0.84437000  1.0
  O  O90  1  0.38244000  0.45452000  0.10869000  1.0
  O  O91  1  0.61755000  0.54547000  0.89131000  1.0
  O  O92  1  0.23345000  0.50368000  0.32998000  1.0
  O  O93  1  0.76655000  0.49633000  0.67003000  1.0
  O  O94  1  0.65488000  0.20282000  0.26314000  1.0
  O  O95  1  0.34512000  0.79718000  0.73686000  1.0
  O  O96  1  0.17615000  0.27650000  0.31971000  1.0
  O  O97  1  0.82385000  0.72351000  0.68028000  1.0
  O  O98  1  0.42896000  0.07007000  0.39595000  1.0
  O  O99  1  0.57103000  0.92994000  0.60403000  1.0
