# generated using pymatgen
data_KH24AuC14S2(NO3)2
_symmetry_space_group_name_H-M   'P 1'
_cell_length_a   7.20750000
_cell_length_b   8.01703000
_cell_length_c   10.26570000
_cell_angle_alpha   75.11530000
_cell_angle_beta   70.44200000
_cell_angle_gamma   72.37500000
_symmetry_Int_Tables_number   1
_chemical_formula_structural   KH24AuC14S2(NO3)2
_chemical_formula_sum   'K1 H24 Au1 C14 S2 N2 O6'
_cell_volume   524.66969918
_cell_formula_units_Z   1
loop_
 _symmetry_equiv_pos_site_id
 _symmetry_equiv_pos_as_xyz
  1  'x, y, z'
loop_
 _atom_site_type_symbol
 _atom_site_label
 _atom_site_symmetry_multiplicity
 _atom_site_fract_x
 _atom_site_fract_y
 _atom_site_fract_z
 _atom_site_occupancy
  K  K0  1  0.00002000  0.99999000  0.00000000  1.0
  H  H1  1  0.80354000  0.22697000  0.58718000  1.0
  H  H2  1  0.19647000  0.77302000  0.41282000  1.0
  H  H3  1  0.04351000  0.09732000  0.61342000  1.0
  H  H4  1  0.95650000  0.90267000  0.38658000  1.0
  H  H5  1  0.96937000  0.43335000  0.60354000  1.0
  H  H6  1  0.03064000  0.56665000  0.39646000  1.0
  H  H7  1  0.78144000  0.40664000  0.76766000  1.0
  H  H8  1  0.21856000  0.59336000  0.23234000  1.0
  H  H9  1  0.97531000  0.49442000  0.87753000  1.0
  H  H10  1  0.02469000  0.50557000  0.12247000  1.0
  H  H11  1  0.16812000  0.51905000  0.71533000  1.0
  H  H12  1  0.83188000  0.48094000  0.28467000  1.0
  H  H13  1  0.41684000  0.27318000  0.82268000  1.0
  H  H14  1  0.58316000  0.72681000  0.17733000  1.0
  H  H15  1  0.31428000  0.46542000  0.90590000  1.0
  H  H16  1  0.68573000  0.53458000  0.09410000  1.0
  H  H17  1  0.35470000  0.30394000  0.12974000  1.0
  H  H18  1  0.64530000  0.69606000  0.87026000  1.0
  H  H19  1  0.47833000  0.10899000  0.05419000  1.0
  H  H20  1  0.52167000  0.89101000  0.94580000  1.0
  H  H21  1  0.67898000  0.95394000  0.68505000  1.0
  H  H22  1  0.32103000  0.04606000  0.31495000  1.0
  H  H23  1  0.92344000  0.83985000  0.71051000  1.0
  H  H24  1  0.07657000  0.16014000  0.28949000  1.0
  Au  Au25  1  0.49999000  0.50001000  0.50000000  1.0
  C  C26  1  0.60039000  0.21671000  0.32004000  1.0
  C  C27  1  0.39958000  0.78331000  0.67997000  1.0
  C  C28  1  0.89502000  0.17975000  0.66302000  1.0
  C  C29  1  0.10498000  0.82025000  0.33698000  1.0
  C  C30  1  0.92515000  0.33777000  0.70046000  1.0
  C  C31  1  0.07486000  0.66223000  0.29954000  1.0
  C  C32  1  0.11576000  0.42283000  0.81014000  1.0
  C  C33  1  0.88425000  0.57716000  0.18986000  1.0
  C  C34  1  0.27721000  0.35142000  0.88645000  1.0
  C  C35  1  0.72279000  0.64858000  0.11355000  1.0
  C  C36  1  0.32866000  0.18743000  0.10579000  1.0
  C  C37  1  0.67134000  0.81257000  0.89421000  1.0
  C  C38  1  0.77195000  0.91933000  0.75889000  1.0
  C  C39  1  0.22805000  0.08067000  0.24111000  1.0
  S  S40  1  0.44110000  0.24172000  0.47824000  1.0
  S  S41  1  0.55888000  0.75831000  0.52175000  1.0
  N  N42  1  0.70840000  0.19178000  0.20821000  1.0
  N  N43  1  0.29160000  0.80821000  0.79178000  1.0
  O  O44  1  0.79279000  0.07738000  0.78747000  1.0
  O  O45  1  0.20722000  0.92261000  0.21252000  1.0
  O  O46  1  0.07973000  0.27920000  0.77110000  1.0
  O  O47  1  0.92027000  0.72080000  0.22890000  1.0
  O  O48  1  0.19872000  0.24300000  0.01608000  1.0
  O  O49  1  0.80128000  0.75700000  0.98393000  1.0
