# generated using pymatgen
data_AgH9C8N5ClO3
_symmetry_space_group_name_H-M   'P 1'
_cell_length_a   7.66866000
_cell_length_b   13.09740000
_cell_length_c   13.35070000
_cell_angle_alpha   85.27880000
_cell_angle_beta   73.67110000
_cell_angle_gamma   72.97710000
_symmetry_Int_Tables_number   1
_chemical_formula_structural   AgH9C8N5ClO3
_chemical_formula_sum   'Ag4 H36 C32 N20 Cl4 O12'
_cell_volume   1230.46947360
_cell_formula_units_Z   4
loop_
 _symmetry_equiv_pos_site_id
 _symmetry_equiv_pos_as_xyz
  1  'x, y, z'
loop_
 _atom_site_type_symbol
 _atom_site_label
 _atom_site_symmetry_multiplicity
 _atom_site_fract_x
 _atom_site_fract_y
 _atom_site_fract_z
 _atom_site_occupancy
  Ag  Ag0  1  0.91370000  0.59595000  0.83275000  1.0
  Ag  Ag1  1  0.34213000  0.40454000  0.16685000  1.0
  Ag  Ag2  1  0.25973000  0.90408000  0.33275000  1.0
  Ag  Ag3  1  0.49708000  0.09547000  0.66676000  1.0
  H  H4  1  0.10346000  0.51633000  0.01968000  1.0
  H  H5  1  0.63982000  0.48328000  0.98009000  1.0
  H  H6  1  0.36991000  0.98364000  0.51952000  1.0
  H  H7  1  0.87339000  0.01671000  0.48006000  1.0
  H  H8  1  0.76110000  0.08655000  0.83490000  1.0
  H  H9  1  0.68227000  0.91402000  0.16527000  1.0
  H  H10  1  0.59714000  0.41368000  0.33507000  1.0
  H  H11  1  0.34653000  0.58588000  0.66510000  1.0
  H  H12  1  0.60348000  0.24651000  0.08550000  1.0
  H  H13  1  0.93259000  0.75370000  0.91509000  1.0
  H  H14  1  0.59982000  0.25361000  0.58556000  1.0
  H  H15  1  0.43649000  0.74628000  0.41493000  1.0
  H  H16  1  0.73178000  0.11733000  0.03644000  1.0
  H  H17  1  0.88363000  0.88283000  0.96432000  1.0
  H  H18  1  0.59901000  0.38278000  0.53647000  1.0
  H  H19  1  0.51665000  0.61712000  0.46411000  1.0
  H  H20  1  0.84135000  0.32152000  0.94974000  1.0
  H  H21  1  0.11288000  0.67837000  0.05060000  1.0
  H  H22  1  0.91257000  0.17850000  0.44972000  1.0
  H  H23  1  0.54137000  0.82151000  0.55054000  1.0
  H  H24  1  0.97205000  0.19022000  0.90740000  1.0
  H  H25  1  0.07083000  0.80959000  0.09322000  1.0
  H  H26  1  0.91201000  0.30977000  0.40729000  1.0
  H  H27  1  0.63042000  0.69029000  0.59314000  1.0
  H  H28  1  0.01305000  0.14239000  0.08895000  1.0
  H  H29  1  0.24177000  0.85773000  0.91166000  1.0
  H  H30  1  0.90533000  0.35771000  0.58879000  1.0
  H  H31  1  0.84992000  0.64220000  0.41167000  1.0
  H  H32  1  0.10819000  0.24948000  0.03516000  1.0
  H  H33  1  0.39115000  0.75059000  0.96546000  1.0
  H  H34  1  0.10754000  0.25059000  0.53504000  1.0
  H  H35  1  0.89188000  0.74936000  0.46561000  1.0
  H  H36  1  0.88794000  0.27490000  0.13112000  1.0
  H  H37  1  0.29035000  0.72527000  0.86939000  1.0
  H  H38  1  0.91271000  0.22523000  0.63102000  1.0
  H  H39  1  0.76607000  0.77467000  0.36941000  1.0
  C  C40  1  0.19156000  0.45049000  0.96684000  1.0
  C  C41  1  0.60951000  0.54932000  0.03282000  1.0
  C  C42  1  0.39211000  0.04952000  0.46673000  1.0
  C  C43  1  0.90912000  0.95066000  0.53278000  1.0
  C  C44  1  0.43433000  0.30104000  0.93166000  1.0
  C  C45  1  0.66738000  0.69891000  0.06836000  1.0
  C  C46  1  0.48521000  0.19905000  0.43168000  1.0
  C  C47  1  0.11655000  0.80105000  0.56830000  1.0
  C  C48  1  0.39226000  0.28401000  0.83857000  1.0
  C  C49  1  0.51599000  0.71612000  0.16093000  1.0
  C  C50  1  0.42623000  0.21609000  0.33856000  1.0
  C  C51  1  0.98238000  0.78384000  0.66088000  1.0
  C  C52  1  0.24330000  0.36225000  0.81340000  1.0
  C  C53  1  0.42043000  0.63797000  0.18563000  1.0
  C  C54  1  0.35560000  0.13782000  0.31332000  1.0
  C  C55  1  0.80863000  0.86197000  0.68557000  1.0
  C  C56  1  0.63697000  0.15649000  0.85087000  1.0
  C  C57  1  0.64445000  0.84385000  0.14922000  1.0
  C  C58  1  0.54305000  0.34371000  0.35100000  1.0
  C  C59  1  0.23853000  0.65605000  0.64906000  1.0
  C  C60  1  0.69833000  0.20217000  0.01496000  1.0
  C  C61  1  0.91400000  0.79796000  0.98571000  1.0
  C  C62  1  0.65029000  0.29793000  0.51501000  1.0
  C  C63  1  0.46214000  0.70198000  0.48553000  1.0
  C  C64  1  0.87806000  0.23818000  0.97603000  1.0
  C  C65  1  0.09183000  0.76180000  0.02451000  1.0
  C  C66  1  0.86601000  0.26186000  0.47596000  1.0
  C  C67  1  0.60378000  0.73809000  0.52441000  1.0
  C  C68  1  0.97696000  0.22569000  0.06249000  1.0
  C  C69  1  0.26295000  0.77442000  0.93805000  1.0
  C  C70  1  0.95253000  0.27440000  0.56237000  1.0
  C  C71  1  0.78768000  0.72549000  0.43809000  1.0
  N  N72  1  0.14457000  0.44453000  0.87803000  1.0
  N  N73  1  0.46844000  0.55546000  0.12114000  1.0
  N  N74  1  0.33923000  0.05549000  0.37790000  1.0
  N  N75  1  0.77417000  0.94450000  0.62109000  1.0
  N  N76  1  0.33481000  0.38215000  0.99778000  1.0
  N  N77  1  0.71477000  0.61769000  0.00222000  1.0
  N  N78  1  0.46687000  0.11789000  0.49774000  1.0
  N  N79  1  0.08272000  0.88228000  0.50218000  1.0
  N  N80  1  0.64975000  0.49095000  0.75268000  1.0
  N  N81  1  0.89401000  0.50843000  0.24741000  1.0
  N  N82  1  0.89062000  0.00896000  0.25270000  1.0
  N  N83  1  0.15271000  0.99151000  0.74730000  1.0
  N  N84  1  0.52043000  0.19248000  0.79038000  1.0
  N  N85  1  0.50423000  0.80786000  0.20919000  1.0
  N  N86  1  0.46268000  0.30767000  0.29045000  1.0
  N  N87  1  0.06236000  0.69206000  0.70909000  1.0
  N  N88  1  0.59012000  0.21849000  0.93752000  1.0
  N  N89  1  0.74595000  0.78159000  0.06288000  1.0
  N  N90  1  0.55824000  0.28167000  0.43763000  1.0
  N  N91  1  0.27775000  0.71833000  0.56274000  1.0
  Cl  Cl92  1  0.18238000  0.35765000  0.70065000  1.0
  Cl  Cl93  1  0.24237000  0.64310000  0.29754000  1.0
  Cl  Cl94  1  0.28998000  0.14250000  0.20061000  1.0
  Cl  Cl95  1  0.63565000  0.85684000  0.79745000  1.0
  O  O96  1  0.55052000  0.46980000  0.70001000  1.0
  O  O97  1  0.72204000  0.52923000  0.30005000  1.0
  O  O98  1  0.77037000  0.03012000  0.19995000  1.0
  O  O99  1  0.00153000  0.97077000  0.80002000  1.0
  O  O100  1  0.69210000  0.57957000  0.73754000  1.0
  O  O101  1  0.01057000  0.41989000  0.26230000  1.0
  O  O102  1  0.02141000  0.92028000  0.23773000  1.0
  O  O103  1  0.18090000  0.08001000  0.76216000  1.0
  O  O104  1  0.70708000  0.42510000  0.81907000  1.0
  O  O105  1  0.95020000  0.57460000  0.18128000  1.0
  O  O106  1  0.88214000  0.07488000  0.31902000  1.0
  O  O107  1  0.27487000  0.92534000  0.68110000  1.0
