# generated using pymatgen
data_CuH4C4(BrN)2
_symmetry_space_group_name_H-M   'P 1'
_cell_length_a   6.89611000
_cell_length_b   7.62972000
_cell_length_c   7.87613905
_cell_angle_alpha   114.46411396
_cell_angle_beta   111.09413128
_cell_angle_gamma   99.22130000
_symmetry_Int_Tables_number   1
_chemical_formula_structural   CuH4C4(BrN)2
_chemical_formula_sum   'Cu2 H8 C8 Br4 N4'
_cell_volume   327.75455351
_cell_formula_units_Z   2
loop_
 _symmetry_equiv_pos_site_id
 _symmetry_equiv_pos_as_xyz
  1  'x, y, z'
loop_
 _atom_site_type_symbol
 _atom_site_label
 _atom_site_symmetry_multiplicity
 _atom_site_fract_x
 _atom_site_fract_y
 _atom_site_fract_z
 _atom_site_occupancy
  Cu  Cu0  1  0.50001000  1.00000000  1.00000000  1.0
  Cu  Cu1  1  0.00001000  1.00000000  1.00000000  1.0
  H  H2  1  0.20180000  0.85494000  0.56018000  1.0
  H  H3  1  0.85895000  0.70535000  0.56063000  1.0
  H  H4  1  0.79820000  0.14506000  0.43983000  1.0
  H  H5  1  0.14104000  0.29464000  0.43935000  1.0
  H  H6  1  0.18242000  0.64839000  0.20357000  1.0
  H  H7  1  0.52190000  0.55477000  0.20373000  1.0
  H  H8  1  0.81757000  0.35161000  0.79644000  1.0
  H  H9  1  0.47809000  0.44522000  0.79626000  1.0
  C  C10  1  0.34091000  0.81310000  0.54480000  1.0
  C  C11  1  0.70433000  0.73167000  0.54498000  1.0
  C  C12  1  0.65909000  0.18690000  0.45520000  1.0
  C  C13  1  0.29567000  0.26832000  0.45501000  1.0
  C  C14  1  0.33203000  0.69810000  0.34912000  1.0
  C  C15  1  0.51769000  0.65078000  0.34920000  1.0
  C  C16  1  0.66796000  0.30189000  0.65087000  1.0
  C  C17  1  0.48231000  0.34922000  0.65080000  1.0
  Br  Br18  1  0.19471000  0.67849000  0.84977000  1.0
  Br  Br19  1  0.15461000  0.17141000  0.84954000  1.0
  Br  Br20  1  0.80529000  0.32152000  0.15023000  1.0
  Br  Br21  1  0.84539000  0.82859000  0.15046000  1.0
  N  N22  1  0.52289000  0.88106000  0.72808000  1.0
  N  N23  1  0.70531000  0.84699000  0.72815000  1.0
  N  N24  1  0.47712000  0.11895000  0.27193000  1.0
  N  N25  1  0.29469000  0.15300000  0.27184000  1.0
