# generated using pymatgen
data_GaH8C12I3N2O9
_symmetry_space_group_name_H-M   'P 1'
_cell_length_a   11.07160000
_cell_length_b   12.90530000
_cell_length_c   13.53130000
_cell_angle_alpha   114.86600000
_cell_angle_beta   90.00000000
_cell_angle_gamma   90.00000000
_symmetry_Int_Tables_number   1
_chemical_formula_structural   GaH8C12I3N2O9
_chemical_formula_sum   'Ga4 H32 C48 I12 N8 O36'
_cell_volume   1754.14670043
_cell_formula_units_Z   4
loop_
 _symmetry_equiv_pos_site_id
 _symmetry_equiv_pos_as_xyz
  1  'x, y, z'
loop_
 _atom_site_type_symbol
 _atom_site_label
 _atom_site_symmetry_multiplicity
 _atom_site_fract_x
 _atom_site_fract_y
 _atom_site_fract_z
 _atom_site_occupancy
  Ga  Ga0  1  0.27169000  0.54014000  0.75935000  1.0
  Ga  Ga1  1  0.77169000  0.95986000  0.24065000  1.0
  Ga  Ga2  1  0.72831000  0.45986000  0.24065000  1.0
  Ga  Ga3  1  0.22831000  0.04014000  0.75935000  1.0
  H  H4  1  0.00845000  0.56929000  0.85308000  1.0
  H  H5  1  0.50845000  0.93071000  0.14692000  1.0
  H  H6  1  0.99155000  0.43072000  0.14692000  1.0
  H  H7  1  0.49155000  0.06929000  0.85308000  1.0
  H  H8  1  0.91740000  0.64218000  0.04377000  1.0
  H  H9  1  0.41740000  0.85782000  0.95623000  1.0
  H  H10  1  0.08260000  0.35782000  0.95623000  1.0
  H  H11  1  0.58260000  0.14218000  0.04377000  1.0
  H  H12  1  0.05260000  0.71164000  0.20335000  1.0
  H  H13  1  0.55259000  0.78836000  0.79665000  1.0
  H  H14  1  0.94741000  0.28836000  0.79665000  1.0
  H  H15  1  0.44741000  0.21164000  0.20335000  1.0
  H  H16  1  0.27233000  0.75124000  0.27684000  1.0
  H  H17  1  0.77233000  0.74877000  0.72316000  1.0
  H  H18  1  0.72767000  0.24877000  0.72317000  1.0
  H  H19  1  0.22767000  0.25123000  0.27684000  1.0
  H  H20  1  0.49001000  0.73235000  0.23871000  1.0
  H  H21  1  0.99001000  0.76765000  0.76129000  1.0
  H  H22  1  0.50999000  0.26765000  0.76129000  1.0
  H  H23  1  0.00999000  0.23235000  0.23871000  1.0
  H  H24  1  0.66146000  0.66281000  0.09785000  1.0
  H  H25  1  0.16146000  0.83719000  0.90215000  1.0
  H  H26  1  0.33854000  0.33719000  0.90215000  1.0
  H  H27  1  0.83854000  0.16281000  0.09785000  1.0
  H  H28  1  0.72050000  0.57325000  0.89997000  1.0
  H  H29  1  0.22050000  0.92675000  0.10003000  1.0
  H  H30  1  0.27950000  0.42675000  0.10002000  1.0
  H  H31  1  0.77950000  0.07325000  0.89997000  1.0
  H  H32  1  0.55887000  0.51946000  0.75664000  1.0
  H  H33  1  0.05887000  0.98054000  0.24336000  1.0
  H  H34  1  0.44113000  0.48054000  0.24336000  1.0
  H  H35  1  0.94113000  0.01946000  0.75664000  1.0
  C  C36  1  0.06388000  0.59915000  0.92650000  1.0
  C  C37  1  0.56388000  0.90085000  0.07350000  1.0
  C  C38  1  0.93612000  0.40085000  0.07350000  1.0
  C  C39  1  0.43612000  0.09915000  0.92650000  1.0
  C  C40  1  0.01486000  0.63960000  0.03186000  1.0
  C  C41  1  0.51486000  0.86040000  0.96814000  1.0
  C  C42  1  0.98514000  0.36040000  0.96814000  1.0
  C  C43  1  0.48514000  0.13960000  0.03186000  1.0
  C  C44  1  0.09088000  0.67921000  0.12136000  1.0
  C  C45  1  0.59088000  0.82079000  0.87864000  1.0
  C  C46  1  0.90912000  0.32079000  0.87864000  1.0
  C  C47  1  0.40912000  0.17921000  0.12136000  1.0
  C  C48  1  0.21741000  0.67569000  0.10583000  1.0
  C  C49  1  0.71741000  0.82431000  0.89417000  1.0
  C  C50  1  0.78259000  0.32431000  0.89417000  1.0
  C  C51  1  0.28259000  0.17569000  0.10583000  1.0
  C  C52  1  0.30412000  0.71408000  0.19268000  1.0
  C  C53  1  0.80412000  0.78592000  0.80732000  1.0
  C  C54  1  0.69588000  0.28592000  0.80732000  1.0
  C  C55  1  0.19588000  0.21408000  0.19268000  1.0
  C  C56  1  0.42564000  0.70425000  0.17151000  1.0
  C  C57  1  0.92564000  0.79575000  0.82849000  1.0
  C  C58  1  0.57436000  0.29575000  0.82849000  1.0
  C  C59  1  0.07436000  0.20425000  0.17151000  1.0
  C  C60  1  0.46986000  0.65497000  0.06173000  1.0
  C  C61  1  0.96986000  0.84503000  0.93827000  1.0
  C  C62  1  0.53014000  0.34503000  0.93827000  1.0
  C  C63  1  0.03014000  0.15497000  0.06173000  1.0
  C  C64  1  0.59371000  0.63719000  0.03343000  1.0
  C  C65  1  0.09371000  0.86281000  0.96657000  1.0
  C  C66  1  0.40629000  0.36281000  0.96657000  1.0
  C  C67  1  0.90629000  0.13719000  0.03343000  1.0
  C  C68  1  0.62615000  0.58842000  0.92463000  1.0
  C  C69  1  0.12615000  0.91158000  0.07537000  1.0
  C  C70  1  0.37385000  0.41158000  0.07537000  1.0
  C  C71  1  0.87385000  0.08842000  0.92463000  1.0
  C  C72  1  0.53685000  0.55708000  0.84330000  1.0
  C  C73  1  0.03685000  0.94292000  0.15670000  1.0
  C  C74  1  0.46315000  0.44292000  0.15670000  1.0
  C  C75  1  0.96315000  0.05708000  0.84330000  1.0
  C  C76  1  0.25896000  0.63097000  0.99680000  1.0
  C  C77  1  0.75896000  0.86902000  0.00320000  1.0
  C  C78  1  0.74105000  0.36903000  0.00320000  1.0
  C  C79  1  0.24104000  0.13098000  0.99680000  1.0
  C  C80  1  0.38612000  0.61970000  0.97462000  1.0
  C  C81  1  0.88612000  0.88030000  0.02537000  1.0
  C  C82  1  0.61388000  0.38030000  0.02538000  1.0
  C  C83  1  0.11388000  0.11970000  0.97463000  1.0
  I  I84  1  0.29138000  0.74289000  0.66680000  1.0
  I  I85  1  0.79138000  0.75711000  0.33320000  1.0
  I  I86  1  0.70862000  0.25710000  0.33320000  1.0
  I  I87  1  0.20863000  0.24289000  0.66680000  1.0
  I  I88  1  0.07014000  0.41107000  0.55090000  1.0
  I  I89  1  0.57014000  0.08893000  0.44910000  1.0
  I  I90  1  0.92986000  0.58893000  0.44910000  1.0
  I  I91  1  0.42985000  0.91107000  0.55090000  1.0
  I  I92  1  0.43995000  0.38453000  0.52236000  1.0
  I  I93  1  0.93995000  0.11547000  0.47764000  1.0
  I  I94  1  0.56006000  0.61547000  0.47765000  1.0
  I  I95  1  0.06006000  0.88453000  0.52235000  1.0
  N  N96  1  0.18267000  0.59592000  0.91041000  1.0
  N  N97  1  0.68267000  0.90408000  0.08959000  1.0
  N  N98  1  0.81733000  0.40408000  0.08959000  1.0
  N  N99  1  0.31733000  0.09592000  0.91041000  1.0
  N  N100  1  0.42021000  0.57259000  0.86878000  1.0
  N  N101  1  0.92021000  0.92741000  0.13122000  1.0
  N  N102  1  0.57979000  0.42741000  0.13122000  1.0
  N  N103  1  0.07978000  0.07259000  0.86878000  1.0
  O  O104  1  0.29015000  0.70503000  0.78628000  1.0
  O  O105  1  0.79015000  0.79498000  0.21372000  1.0
  O  O106  1  0.70985000  0.29498000  0.21372000  1.0
  O  O107  1  0.20985000  0.20503000  0.78628000  1.0
  O  O108  1  0.12276000  0.53534000  0.67810000  1.0
  O  O109  1  0.62276000  0.96465000  0.32190000  1.0
  O  O110  1  0.87724000  0.46465000  0.32190000  1.0
  O  O111  1  0.37724000  0.03535000  0.67810000  1.0
  O  O112  1  0.38595000  0.51017000  0.64428000  1.0
  O  O113  1  0.88595000  0.98983000  0.35572000  1.0
  O  O114  1  0.61405000  0.48983000  0.35572000  1.0
  O  O115  1  0.11405000  0.01017000  0.64428000  1.0
  O  O116  1  0.23541000  0.88591000  0.75908000  1.0
  O  O117  1  0.73541000  0.61409000  0.24092000  1.0
  O  O118  1  0.76459000  0.11409000  0.24092000  1.0
  O  O119  1  0.26459000  0.38591000  0.75908000  1.0
  O  O120  1  0.11132000  0.45845000  0.44626000  1.0
  O  O121  1  0.61132000  0.04155000  0.55374000  1.0
  O  O122  1  0.88868000  0.54155000  0.55374000  1.0
  O  O123  1  0.38868000  0.95845000  0.44626000  1.0
  O  O124  1  0.20711000  0.32000000  0.53099000  1.0
  O  O125  1  0.70711000  0.18000000  0.46901000  1.0
  O  O126  1  0.79289000  0.68000000  0.46901000  1.0
  O  O127  1  0.29289000  0.82000000  0.53099000  1.0
  O  O128  1  0.45276000  0.77537000  0.66817000  1.0
  O  O129  1  0.95276000  0.72463000  0.33183000  1.0
  O  O130  1  0.54724000  0.22463000  0.33183000  1.0
  O  O131  1  0.04723000  0.27537000  0.66817000  1.0
  O  O132  1  0.45544000  0.27778000  0.57851000  1.0
  O  O133  1  0.95544000  0.22222000  0.42149000  1.0
  O  O134  1  0.54456000  0.72222000  0.42149000  1.0
  O  O135  1  0.04456000  0.77778000  0.57851000  1.0
  O  O136  1  0.59434000  0.43787000  0.53863000  1.0
  O  O137  1  0.09434000  0.06213000  0.46137000  1.0
  O  O138  1  0.40566000  0.56213000  0.46138000  1.0
  O  O139  1  0.90566000  0.93787000  0.53862000  1.0
