# generated using pymatgen
data_AgH5C7SN2
_symmetry_space_group_name_H-M   'P 1'
_cell_length_a   5.89333000
_cell_length_b   7.24398000
_cell_length_c   9.48629000
_cell_angle_alpha   102.30100000
_cell_angle_beta   106.33700000
_cell_angle_gamma   95.98060000
_symmetry_Int_Tables_number   1
_chemical_formula_structural   AgH5C7SN2
_chemical_formula_sum   'Ag2 H10 C14 S2 N4'
_cell_volume   373.84461740
_cell_formula_units_Z   2
loop_
 _symmetry_equiv_pos_site_id
 _symmetry_equiv_pos_as_xyz
  1  'x, y, z'
loop_
 _atom_site_type_symbol
 _atom_site_label
 _atom_site_symmetry_multiplicity
 _atom_site_fract_x
 _atom_site_fract_y
 _atom_site_fract_z
 _atom_site_occupancy
  Ag  Ag0  1  0.81329000  0.99870000  0.32528000  1.0
  Ag  Ag1  1  0.18663000  0.00134000  0.67465000  1.0
  H  H2  1  0.70385000  0.53529000  0.15167000  1.0
  H  H3  1  0.29620000  0.46465000  0.84835000  1.0
  H  H4  1  0.04128000  0.31790000  0.92147000  1.0
  H  H5  1  0.95883000  0.68206000  0.07851000  1.0
  H  H6  1  0.61591000  0.40528000  0.34383000  1.0
  H  H7  1  0.38406000  0.59471000  0.65621000  1.0
  H  H8  1  0.78082000  0.14385000  0.03003000  1.0
  H  H9  1  0.21915000  0.85616000  0.96993000  1.0
  H  H10  1  0.32877000  0.22912000  0.43678000  1.0
  H  H11  1  0.67117000  0.77090000  0.56326000  1.0
  C  C12  1  0.35599000  0.37810000  0.12308000  1.0
  C  C13  1  0.64402000  0.62191000  0.87692000  1.0
  C  C14  1  0.52478000  0.48252000  0.06950000  1.0
  C  C15  1  0.47524000  0.51754000  0.93054000  1.0
  C  C16  1  0.11486000  0.30221000  0.03626000  1.0
  C  C17  1  0.88516000  0.69780000  0.96374000  1.0
  C  C18  1  0.43179000  0.35035000  0.27026000  1.0
  C  C19  1  0.56822000  0.64965000  0.72973000  1.0
  C  C20  1  0.96704000  0.20421000  0.09685000  1.0
  C  C21  1  0.03296000  0.79575000  0.90313000  1.0
  C  C22  1  0.30386000  0.80226000  0.34443000  1.0
  C  C23  1  0.69614000  0.19775000  0.65557000  1.0
  C  C24  1  0.27170000  0.25180000  0.32304000  1.0
  C  C25  1  0.72830000  0.74821000  0.67697000  1.0
  S  S26  1  0.07743000  0.72491000  0.39638000  1.0
  S  S27  1  0.92254000  0.27511000  0.60363000  1.0
  N  N28  1  0.04214000  0.17763000  0.23831000  1.0
  N  N29  1  0.95787000  0.82232000  0.76168000  1.0
  N  N30  1  0.46641000  0.85710000  0.30514000  1.0
  N  N31  1  0.53356000  0.14290000  0.69486000  1.0
