# generated using pymatgen
data_ZnH19C26(NO2)3
_symmetry_space_group_name_H-M   'P 1'
_cell_length_a   10.22790000
_cell_length_b   10.68899942
_cell_length_c   12.25091593
_cell_angle_alpha   82.62819263
_cell_angle_beta   68.75403391
_cell_angle_gamma   62.53794559
_symmetry_Int_Tables_number   1
_chemical_formula_structural   ZnH19C26(NO2)3
_chemical_formula_sum   'Zn2 H38 C52 N6 O12'
_cell_volume   1106.42882537
_cell_formula_units_Z   2
loop_
 _symmetry_equiv_pos_site_id
 _symmetry_equiv_pos_as_xyz
  1  'x, y, z'
loop_
 _atom_site_type_symbol
 _atom_site_label
 _atom_site_symmetry_multiplicity
 _atom_site_fract_x
 _atom_site_fract_y
 _atom_site_fract_z
 _atom_site_occupancy
  Zn  Zn0  1  0.70010000  0.19514000  0.60989000  1.0
  Zn  Zn1  1  0.29990000  0.80485000  0.39012000  1.0
  H  H2  1  0.35827000  0.34790000  0.46377000  1.0
  H  H3  1  0.64175000  0.65208000  0.53623000  1.0
  H  H4  1  0.69121000  0.39355000  0.77048000  1.0
  H  H5  1  0.30881000  0.60644000  0.22951000  1.0
  H  H6  1  0.87036000  0.48741000  0.78213000  1.0
  H  H7  1  0.12963000  0.51259000  0.21788000  1.0
  H  H8  1  0.13205000  0.41837000  0.62404000  1.0
  H  H9  1  0.86796000  0.58162000  0.37598000  1.0
  H  H10  1  0.00498000  0.18452000  0.45249000  1.0
  H  H11  1  0.99503000  0.81547000  0.54752000  1.0
  H  H12  1  0.39111000  0.12173000  0.07778000  1.0
  H  H13  1  0.60889000  0.87828000  0.92221000  1.0
  H  H14  1  0.60899000  0.17826000  0.95138000  1.0
  H  H15  1  0.39097000  0.82177000  0.04862000  1.0
  H  H16  1  0.71113000  0.29680000  0.03709000  1.0
  H  H17  1  0.28886000  0.70322000  0.96289000  1.0
  H  H18  1  0.60535000  0.35904000  0.24957000  1.0
  H  H19  1  0.39463000  0.64096000  0.75042000  1.0
  H  H20  1  0.58176000  0.97209000  0.39679000  1.0
  H  H21  1  0.41824000  0.02791000  0.60322000  1.0
  H  H22  1  0.60687000  0.84678000  0.22622000  1.0
  H  H23  1  0.39313000  0.15321000  0.77379000  1.0
  H  H24  1  0.03988000  0.86723000  0.02712000  1.0
  H  H25  1  0.96012000  0.13277000  0.97288000  1.0
  H  H26  1  0.01644000  0.99043000  0.19629000  1.0
  H  H27  1  0.98354000  0.00959000  0.80371000  1.0
  H  H28  1  0.07220000  0.58004000  0.07192000  1.0
  H  H29  1  0.92781000  0.41996000  0.92807000  1.0
  H  H30  1  0.31580000  0.41137000  0.92037000  1.0
  H  H31  1  0.68421000  0.58864000  0.07962000  1.0
  H  H32  1  0.13331000  0.63230000  0.64995000  1.0
  H  H33  1  0.86669000  0.36770000  0.35005000  1.0
  H  H34  1  0.89101000  0.80167000  0.80167000  1.0
  H  H35  1  0.10897000  0.19832000  0.19834000  1.0
  H  H36  1  0.91177000  0.98944000  0.66925000  1.0
  H  H37  1  0.08826000  0.01053000  0.33075000  1.0
  H  H38  1  0.77711000  0.94184000  0.69093000  1.0
  H  H39  1  0.22290000  0.05814000  0.30908000  1.0
  C  C40  1  0.80590000  0.36631000  0.70299000  1.0
  C  C41  1  0.19410000  0.63369000  0.29702000  1.0
  C  C42  1  0.90705000  0.41642000  0.70908000  1.0
  C  C43  1  0.09295000  0.58357000  0.29093000  1.0
  C  C44  1  0.05168000  0.38008000  0.61996000  1.0
  C  C45  1  0.94834000  0.61990000  0.38005000  1.0
  C  C46  1  0.09109000  0.29470000  0.52407000  1.0
  C  C47  1  0.90891000  0.70529000  0.47594000  1.0
  C  C48  1  0.98230000  0.24947000  0.52443000  1.0
  C  C49  1  0.01770000  0.75052000  0.47558000  1.0
  C  C50  1  0.23032000  0.26123000  0.41912000  1.0
  C  C51  1  0.76968000  0.73876000  0.58089000  1.0
  C  C52  1  0.37527000  0.21041000  0.23504000  1.0
  C  C53  1  0.62472000  0.78960000  0.76495000  1.0
  C  C54  1  0.43801000  0.17204000  0.11505000  1.0
  C  C55  1  0.56198000  0.82796000  0.88494000  1.0
  C  C56  1  0.55898000  0.20447000  0.04544000  1.0
  C  C57  1  0.44099000  0.79556000  0.95454000  1.0
  C  C58  1  0.61764000  0.27129000  0.09434000  1.0
  C  C59  1  0.38233000  0.72873000  0.90565000  1.0
  C  C60  1  0.55841000  0.30794000  0.21356000  1.0
  C  C61  1  0.44158000  0.69206000  0.78644000  1.0
  C  C62  1  0.43474000  0.27818000  0.28326000  1.0
  C  C63  1  0.56526000  0.72182000  0.71673000  1.0
  C  C64  1  0.78690000  0.06333000  0.40775000  1.0
  C  C65  1  0.21311000  0.93668000  0.59225000  1.0
  C  C66  1  0.79868000  0.98832000  0.30839000  1.0
  C  C67  1  0.20132000  0.01169000  0.69161000  1.0
  C  C68  1  0.68255000  0.94856000  0.31617000  1.0
  C  C69  1  0.31745000  0.05144000  0.68383000  1.0
  C  C70  1  0.69551000  0.87871000  0.22179000  1.0
  C  C71  1  0.30450000  0.12128000  0.77821000  1.0
  C  C72  1  0.82489000  0.84914000  0.11856000  1.0
  C  C73  1  0.17512000  0.15085000  0.88144000  1.0
  C  C74  1  0.94154000  0.88807000  0.10892000  1.0
  C  C75  1  0.05845000  0.11194000  0.89108000  1.0
  C  C76  1  0.92764000  0.95731000  0.20392000  1.0
  C  C77  1  0.07236000  0.04270000  0.79607000  1.0
  C  C78  1  0.96896000  0.69977000  0.94436000  1.0
  C  C79  1  0.03104000  0.30022000  0.05565000  1.0
  C  C80  1  0.08806000  0.59133000  0.97913000  1.0
  C  C81  1  0.91195000  0.40867000  0.02087000  1.0
  C  C82  1  0.22253000  0.49720000  0.89464000  1.0
  C  C83  1  0.77746000  0.50281000  0.10536000  1.0
  C  C84  1  0.23823000  0.50983000  0.77549000  1.0
  C  C85  1  0.76177000  0.49019000  0.22450000  1.0
  C  C86  1  0.11823000  0.62018000  0.74267000  1.0
  C  C87  1  0.88177000  0.37982000  0.25733000  1.0
  C  C88  1  0.98421000  0.71558000  0.82645000  1.0
  C  C89  1  0.01579000  0.28442000  0.17354000  1.0
  C  C90  1  0.38182000  0.40992000  0.68269000  1.0
  C  C91  1  0.61818000  0.59009000  0.31730000  1.0
  N  N92  1  0.84401000  0.28342000  0.61103000  1.0
  N  N93  1  0.15601000  0.71656000  0.38898000  1.0
  N  N94  1  0.25067000  0.19881000  0.32215000  1.0
  N  N95  1  0.74932000  0.80118000  0.67786000  1.0
  N  N96  1  0.34125000  0.30740000  0.40033000  1.0
  N  N97  1  0.65876000  0.69259000  0.59967000  1.0
  O  O98  1  0.79402000  0.02524000  0.70236000  1.0
  O  O99  1  0.20598000  0.97474000  0.29764000  1.0
  O  O100  1  0.65981000  0.10677000  0.49766000  1.0
  O  O101  1  0.34019000  0.89326000  0.50234000  1.0
  O  O102  1  0.90129000  0.08445000  0.40390000  1.0
  O  O103  1  0.09871000  0.91555000  0.59610000  1.0
  O  O104  1  0.82659000  0.78859000  0.02491000  1.0
  O  O105  1  0.17342000  0.21140000  0.97510000  1.0
  O  O106  1  0.38173000  0.40915000  0.58041000  1.0
  O  O107  1  0.61825000  0.59085000  0.41959000  1.0
  O  O108  1  0.49927000  0.33033000  0.71774000  1.0
  O  O109  1  0.50074000  0.66968000  0.28225000  1.0
