# generated using pymatgen
data_CuH16C18Br(NO)2
_symmetry_space_group_name_H-M   'P 1'
_cell_length_a   8.14151000
_cell_length_b   9.44370000
_cell_length_c   10.74750000
_cell_angle_alpha   89.98520000
_cell_angle_beta   87.97830000
_cell_angle_gamma   75.90300000
_symmetry_Int_Tables_number   1
_chemical_formula_structural   CuH16C18Br(NO)2
_chemical_formula_sum   'Cu2 H32 C36 Br2 N4 O4'
_cell_volume   800.91839012
_cell_formula_units_Z   2
loop_
 _symmetry_equiv_pos_site_id
 _symmetry_equiv_pos_as_xyz
  1  'x, y, z'
loop_
 _atom_site_type_symbol
 _atom_site_label
 _atom_site_symmetry_multiplicity
 _atom_site_fract_x
 _atom_site_fract_y
 _atom_site_fract_z
 _atom_site_occupancy
  Cu  Cu0  1  0.50926000  0.57257000  0.35899000  1.0
  Cu  Cu1  1  0.49074000  0.42743000  0.64101000  1.0
  H  H2  1  0.16320000  0.83322000  0.38483000  1.0
  H  H3  1  0.83679000  0.16679000  0.61518000  1.0
  H  H4  1  0.16769000  0.66504000  0.07770000  1.0
  H  H5  1  0.83231000  0.33496000  0.92229000  1.0
  H  H6  1  0.19888000  0.66098000  0.24076000  1.0
  H  H7  1  0.80112000  0.33902000  0.75924000  1.0
  H  H8  1  0.87160000  0.65865000  0.39049000  1.0
  H  H9  1  0.12840000  0.34135000  0.60951000  1.0
  H  H10  1  0.92774000  0.80740000  0.31279000  1.0
  H  H11  1  0.07226000  0.19260000  0.68722000  1.0
  H  H12  1  0.84690000  0.71678000  0.10974000  1.0
  H  H13  1  0.15310000  0.28322000  0.89026000  1.0
  H  H14  1  0.75809000  0.58838000  0.18974000  1.0
  H  H15  1  0.24191000  0.41162000  0.81026000  1.0
  H  H16  1  0.81795000  0.28960000  0.26476000  1.0
  H  H17  1  0.18205000  0.71040000  0.73524000  1.0
  H  H18  1  0.04523000  0.46226000  0.26392000  1.0
  H  H19  1  0.95477000  0.53774000  0.73608000  1.0
  H  H20  1  0.02545000  0.45520000  0.10121000  1.0
  H  H21  1  0.97454000  0.54480000  0.89879000  1.0
  H  H22  1  0.98553000  0.09179000  0.39754000  1.0
  H  H23  1  0.01447000  0.90821000  0.60247000  1.0
  H  H24  1  0.43299000  0.26123000  0.36627000  1.0
  H  H25  1  0.56701000  0.73877000  0.63373000  1.0
  H  H26  1  0.11933000  0.29936000  0.39216000  1.0
  H  H27  1  0.88068000  0.70064000  0.60784000  1.0
  H  H28  1  0.95194000  0.06477000  0.13924000  1.0
  H  H29  1  0.04806000  0.93523000  0.86076000  1.0
  H  H30  1  0.80298000  0.98605000  0.96460000  1.0
  H  H31  1  0.19702000  0.01395000  0.03540000  1.0
  H  H32  1  0.51447000  0.12939000  0.90816000  1.0
  H  H33  1  0.48553000  0.87061000  0.09184000  1.0
  C  C34  1  0.21912000  0.92630000  0.37391000  1.0
  C  C35  1  0.78088000  0.07370000  0.62609000  1.0
  C  C36  1  0.34405000  0.48077000  0.14386000  1.0
  C  C37  1  0.65595000  0.51923000  0.85614000  1.0
  C  C38  1  0.39422000  0.90529000  0.35707000  1.0
  C  C39  1  0.60578000  0.09472000  0.64293000  1.0
  C  C40  1  0.66653000  0.82349000  0.33227000  1.0
  C  C41  1  0.33347000  0.17651000  0.66773000  1.0
  C  C42  1  0.18407000  0.59431000  0.16030000  1.0
  C  C43  1  0.81593000  0.40569000  0.83970000  1.0
  C  C44  1  0.59330000  0.33351000  0.15531000  1.0
  C  C45  1  0.40670000  0.66649000  0.84469000  1.0
  C  C46  1  0.46648000  0.02579000  0.35124000  1.0
  C  C47  1  0.53351000  0.97421000  0.64876000  1.0
  C  C48  1  0.84171000  0.73443000  0.31185000  1.0
  C  C49  1  0.15830000  0.26557000  0.68815000  1.0
  C  C50  1  0.51149000  0.28629000  0.05638000  1.0
  C  C51  1  0.48850000  0.71371000  0.94362000  1.0
  C  C52  1  0.86193000  0.64405000  0.19081000  1.0
  C  C53  1  0.13807000  0.35595000  0.80920000  1.0
  C  C54  1  0.75519000  0.25570000  0.18617000  1.0
  C  C55  1  0.24480000  0.74430000  0.81383000  1.0
  C  C56  1  0.02958000  0.52907000  0.17944000  1.0
  C  C57  1  0.97042000  0.47093000  0.82056000  1.0
  C  C58  1  0.12268000  0.07030000  0.38309000  1.0
  C  C59  1  0.87732000  0.92970000  0.61691000  1.0
  C  C60  1  0.37402000  0.16953000  0.36373000  1.0
  C  C61  1  0.62599000  0.83047000  0.63627000  1.0
  C  C62  1  0.19855000  0.18905000  0.37874000  1.0
  C  C63  1  0.80145000  0.81095000  0.62126000  1.0
  C  C64  1  0.82755000  0.13047000  0.11539000  1.0
  C  C65  1  0.17245000  0.86953000  0.88461000  1.0
  C  C66  1  0.74263000  0.08498000  0.01695000  1.0
  C  C67  1  0.25737000  0.91502000  0.98305000  1.0
  C  C68  1  0.58103000  0.16326000  0.98440000  1.0
  C  C69  1  0.41896000  0.83674000  0.01560000  1.0
  Br  Br70  1  0.25556000  0.56322000  0.50587000  1.0
  Br  Br71  1  0.74444000  0.43678000  0.49413000  1.0
  N  N72  1  0.52621000  0.77822000  0.34544000  1.0
  N  N73  1  0.47380000  0.22178000  0.65456000  1.0
  N  N74  1  0.48152000  0.45766000  0.20927000  1.0
  N  N75  1  0.51848000  0.54233000  0.79073000  1.0
  O  O76  1  0.64008000  0.97297000  0.33498000  1.0
  O  O77  1  0.35993000  0.02704000  0.66502000  1.0
  O  O78  1  0.35354000  0.38089000  0.04880000  1.0
  O  O79  1  0.64646000  0.61911000  0.95120000  1.0
