# generated using pymatgen
data_CuH8C11N5
_symmetry_space_group_name_H-M   'P 1'
_cell_length_a   10.86080000
_cell_length_b   18.15970000
_cell_length_c   18.15970000
_cell_angle_alpha   80.68020000
_cell_angle_beta   86.58170000
_cell_angle_gamma   86.58140000
_symmetry_Int_Tables_number   1
_chemical_formula_structural   CuH8C11N5
_chemical_formula_sum   'Cu8 H64 C88 N40'
_cell_volume   3523.50763651
_cell_formula_units_Z   8
loop_
 _symmetry_equiv_pos_site_id
 _symmetry_equiv_pos_as_xyz
  1  'x, y, z'
loop_
 _atom_site_type_symbol
 _atom_site_label
 _atom_site_symmetry_multiplicity
 _atom_site_fract_x
 _atom_site_fract_y
 _atom_site_fract_z
 _atom_site_occupancy
  Cu  Cu0  1  0.53189000  0.59387000  0.52158000  1.0
  Cu  Cu1  1  0.96811000  0.47842000  0.40613000  1.0
  Cu  Cu2  1  0.46811000  0.40612000  0.47842000  1.0
  Cu  Cu3  1  0.03189000  0.52158000  0.59388000  1.0
  Cu  Cu4  1  0.25000000  0.53843000  0.46157000  1.0
  Cu  Cu5  1  0.75000000  0.46157000  0.53843000  1.0
  Cu  Cu6  1  0.75000000  0.62106000  0.37893000  1.0
  Cu  Cu7  1  0.25000000  0.37893000  0.62107000  1.0
  H  H8  1  0.09359000  0.54654000  0.76904000  1.0
  H  H9  1  0.40641000  0.23096000  0.45346000  1.0
  H  H10  1  0.90641000  0.45346000  0.23096000  1.0
  H  H11  1  0.59359000  0.76904000  0.54654000  1.0
  H  H12  1  0.53931000  0.61113000  0.70028000  1.0
  H  H13  1  0.96069000  0.29972000  0.38887000  1.0
  H  H14  1  0.46069000  0.38887000  0.29972000  1.0
  H  H15  1  0.03931000  0.70028000  0.61113000  1.0
  H  H16  1  0.05932000  0.55923000  0.98562000  1.0
  H  H17  1  0.44068000  0.01438000  0.44077000  1.0
  H  H18  1  0.94068000  0.44078000  0.01438000  1.0
  H  H19  1  0.55932000  0.98562000  0.55923000  1.0
  H  H20  1  0.08524000  0.56088000  0.08186000  1.0
  H  H21  1  0.41476000  0.91814000  0.43912000  1.0
  H  H22  1  0.91476000  0.43912000  0.91814000  1.0
  H  H23  1  0.58524000  0.08186000  0.56088000  1.0
  H  H24  1  0.16566000  0.49342000  0.03375000  1.0
  H  H25  1  0.33435000  0.96625000  0.50658000  1.0
  H  H26  1  0.83434000  0.50658000  0.96625000  1.0
  H  H27  1  0.66566000  0.03375000  0.49342000  1.0
  H  H28  1  0.23830000  0.72986000  0.97869000  1.0
  H  H29  1  0.26169000  0.02131000  0.27014000  1.0
  H  H30  1  0.76170000  0.27014000  0.02131000  1.0
  H  H31  1  0.73830000  0.97869000  0.72986000  1.0
  H  H32  1  0.12529000  0.69655000  0.04966000  1.0
  H  H33  1  0.37471000  0.95034000  0.30345000  1.0
  H  H34  1  0.87472000  0.30345000  0.95034000  1.0
  H  H35  1  0.62528000  0.04966000  0.69655000  1.0
  H  H36  1  0.10066000  0.69350000  0.95340000  1.0
  H  H37  1  0.39934000  0.04660000  0.30650000  1.0
  H  H38  1  0.89934000  0.30650000  0.04660000  1.0
  H  H39  1  0.60066000  0.95340000  0.69350000  1.0
  H  H40  1  0.69328000  0.61248000  0.99426000  1.0
  H  H41  1  0.80672000  0.00574000  0.38752000  1.0
  H  H42  1  0.30672000  0.38752000  0.00574000  1.0
  H  H43  1  0.19328000  0.99426000  0.61248000  1.0
  H  H44  1  0.66914000  0.60942000  0.89758000  1.0
  H  H45  1  0.83086000  0.10242000  0.39058000  1.0
  H  H46  1  0.33086000  0.39058000  0.10242000  1.0
  H  H47  1  0.16914000  0.89758000  0.60942000  1.0
  H  H48  1  0.62365000  0.53513000  0.96815000  1.0
  H  H49  1  0.87635000  0.03185000  0.46487000  1.0
  H  H50  1  0.37635000  0.46487000  0.03185000  1.0
  H  H51  1  0.12365000  0.96815000  0.53513000  1.0
  H  H52  1  0.58211000  0.73751000  0.98391000  1.0
  H  H53  1  0.91789000  0.01609000  0.26249000  1.0
  H  H54  1  0.41789000  0.26249000  0.01609000  1.0
  H  H55  1  0.08211000  0.98391000  0.73751000  1.0
  H  H56  1  0.42999000  0.75316000  0.95099000  1.0
  H  H57  1  0.07001000  0.04901000  0.24684000  1.0
  H  H58  1  0.57002000  0.24684000  0.04901000  1.0
  H  H59  1  0.92999000  0.95099000  0.75316000  1.0
  H  H60  1  0.55606000  0.73579000  0.88752000  1.0
  H  H61  1  0.94395000  0.11248000  0.26421000  1.0
  H  H62  1  0.44395000  0.26421000  0.11248000  1.0
  H  H63  1  0.05605000  0.88752000  0.73579000  1.0
  H  H64  1  0.22798000  0.56235000  0.27892000  1.0
  H  H65  1  0.27202000  0.72108000  0.43765000  1.0
  H  H66  1  0.77202000  0.43764000  0.72108000  1.0
  H  H67  1  0.72798000  0.27892000  0.56236000  1.0
  H  H68  1  0.67274000  0.62635000  0.20513000  1.0
  H  H69  1  0.82726000  0.79487000  0.37365000  1.0
  H  H70  1  0.32725000  0.37366000  0.79487000  1.0
  H  H71  1  0.17275000  0.20513000  0.62634000  1.0
  C  C72  1  0.36538000  0.58120000  0.66134000  1.0
  C  C73  1  0.13462000  0.33866000  0.41880000  1.0
  C  C74  1  0.63462000  0.41880000  0.33866000  1.0
  C  C75  1  0.86538000  0.66134000  0.58120000  1.0
  C  C76  1  0.24031000  0.56262000  0.68107000  1.0
  C  C77  1  0.25969000  0.31893000  0.43738000  1.0
  C  C78  1  0.75970000  0.43738000  0.31893000  1.0
  C  C79  1  0.74030000  0.68107000  0.56262000  1.0
  C  C80  1  0.18895000  0.56025000  0.75333000  1.0
  C  C81  1  0.31105000  0.24667000  0.43975000  1.0
  C  C82  1  0.81105000  0.43975000  0.24667000  1.0
  C  C83  1  0.68895000  0.75333000  0.56025000  1.0
  C  C84  1  0.26593000  0.57766000  0.80707000  1.0
  C  C85  1  0.23407000  0.19293000  0.42234000  1.0
  C  C86  1  0.73407000  0.42234000  0.19293000  1.0
  C  C87  1  0.76593000  0.80707000  0.57766000  1.0
  C  C88  1  0.39308000  0.59584000  0.78710000  1.0
  C  C89  1  0.10692000  0.21290000  0.40416000  1.0
  C  C90  1  0.60692000  0.40416000  0.21290000  1.0
  C  C91  1  0.89308000  0.78710000  0.59584000  1.0
  C  C92  1  0.44337000  0.59751000  0.71374000  1.0
  C  C93  1  0.05663000  0.28626000  0.40249000  1.0
  C  C94  1  0.55663000  0.40249000  0.28626000  1.0
  C  C95  1  0.94337000  0.71374000  0.59751000  1.0
  C  C96  1  0.29069000  0.59751000  0.92777000  1.0
  C  C97  1  0.20932000  0.07223000  0.40249000  1.0
  C  C98  1  0.70932000  0.40249000  0.07223000  1.0
  C  C99  1  0.79069000  0.92777000  0.59751000  1.0
  C  C100  1  0.23057000  0.60671000  0.00412000  1.0
  C  C101  1  0.26943000  0.99587000  0.39329000  1.0
  C  C102  1  0.76943000  0.39329000  0.99588000  1.0
  C  C103  1  0.73057000  0.00412000  0.60671000  1.0
  C  C104  1  0.32575000  0.60161000  0.06343000  1.0
  C  C105  1  0.17425000  0.93657000  0.39839000  1.0
  C  C106  1  0.67425000  0.39839000  0.93657000  1.0
  C  C107  1  0.82575000  0.06343000  0.60161000  1.0
  C  C108  1  0.45312000  0.61763000  0.04358000  1.0
  C  C109  1  0.04688000  0.95642000  0.38237000  1.0
  C  C110  1  0.54688000  0.38237000  0.95642000  1.0
  C  C111  1  0.95312000  0.04358000  0.61763000  1.0
  C  C112  1  0.50356000  0.63588000  0.96327000  1.0
  C  C113  1  0.99644000  0.03673000  0.36412000  1.0
  C  C114  1  0.49644000  0.36412000  0.03673000  1.0
  C  C115  1  0.00356000  0.96327000  0.63588000  1.0
  C  C116  1  0.41791000  0.61382000  0.90821000  1.0
  C  C117  1  0.08209000  0.09179000  0.38618000  1.0
  C  C118  1  0.58209000  0.38618000  0.09179000  1.0
  C  C119  1  0.91791000  0.90821000  0.61382000  1.0
  C  C120  1  0.12857000  0.55144000  0.02795000  1.0
  C  C121  1  0.37143000  0.97205000  0.44856000  1.0
  C  C122  1  0.87143000  0.44856000  0.97205000  1.0
  C  C123  1  0.62857000  0.02795000  0.55144000  1.0
  C  C124  1  0.17003000  0.68730000  0.99585000  1.0
  C  C125  1  0.32997000  0.00415000  0.31270000  1.0
  C  C126  1  0.82997000  0.31270000  0.00415000  1.0
  C  C127  1  0.67003000  0.99585000  0.68730000  1.0
  C  C128  1  0.63135000  0.59586000  0.95512000  1.0
  C  C129  1  0.86865000  0.04488000  0.40414000  1.0
  C  C130  1  0.36865000  0.40414000  0.04488000  1.0
  C  C131  1  0.13135000  0.95512000  0.59586000  1.0
  C  C132  1  0.51845000  0.72148000  0.94518000  1.0
  C  C133  1  0.98156000  0.05482000  0.27853000  1.0
  C  C134  1  0.48156000  0.27853000  0.05482000  1.0
  C  C135  1  0.01844000  0.94518000  0.72147000  1.0
  C  C136  1  0.36613000  0.58899000  0.18853000  1.0
  C  C137  1  0.13387000  0.81147000  0.41101000  1.0
  C  C138  1  0.63386000  0.41102000  0.81148000  1.0
  C  C139  1  0.86614000  0.18852000  0.58898000  1.0
  C  C140  1  0.32353000  0.57596000  0.26390000  1.0
  C  C141  1  0.17647000  0.73610000  0.42404000  1.0
  C  C142  1  0.67647000  0.42404000  0.73610000  1.0
  C  C143  1  0.82353000  0.26390000  0.57596000  1.0
  C  C144  1  0.40799000  0.58325000  0.31658000  1.0
  C  C145  1  0.09201000  0.68342000  0.41675000  1.0
  C  C146  1  0.59200000  0.41675000  0.68342000  1.0
  C  C147  1  0.90800000  0.31658000  0.58325000  1.0
  C  C148  1  0.53273000  0.60196000  0.29599000  1.0
  C  C149  1  0.96727000  0.70401000  0.39804000  1.0
  C  C150  1  0.46727000  0.39805000  0.70401000  1.0
  C  C151  1  0.03273000  0.29599000  0.60195000  1.0
  C  C152  1  0.57775000  0.61295000  0.22220000  1.0
  C  C153  1  0.92225000  0.77780000  0.38705000  1.0
  C  C154  1  0.42224000  0.38706000  0.77780000  1.0
  C  C155  1  0.07776000  0.22220000  0.61294000  1.0
  C  C156  1  0.49332000  0.60687000  0.16818000  1.0
  C  C157  1  0.00668000  0.83182000  0.39312000  1.0
  C  C158  1  0.50667000  0.39313000  0.83182000  1.0
  C  C159  1  0.99333000  0.16818000  0.60687000  1.0
  N  N160  1  0.38555000  0.57786000  0.58658000  1.0
  N  N161  1  0.11445000  0.41342000  0.42214000  1.0
  N  N162  1  0.61446000  0.42214000  0.41342000  1.0
  N  N163  1  0.88554000  0.58658000  0.57786000  1.0
  N  N164  1  0.27997000  0.55784000  0.56217000  1.0
  N  N165  1  0.22003000  0.43783000  0.44216000  1.0
  N  N166  1  0.72004000  0.44216000  0.43783000  1.0
  N  N167  1  0.77996000  0.56217000  0.55784000  1.0
  N  N168  1  0.19105000  0.54887000  0.61690000  1.0
  N  N169  1  0.30895000  0.38310000  0.45113000  1.0
  N  N170  1  0.80895000  0.45112000  0.38311000  1.0
  N  N171  1  0.69105000  0.61689000  0.54888000  1.0
  N  N172  1  0.21884000  0.57924000  0.87831000  1.0
  N  N173  1  0.28116000  0.12169000  0.42076000  1.0
  N  N174  1  0.78116000  0.42076000  0.12169000  1.0
  N  N175  1  0.71884000  0.87831000  0.57924000  1.0
  N  N176  1  0.46592000  0.61263000  0.84009000  1.0
  N  N177  1  0.03408000  0.15991000  0.38737000  1.0
  N  N178  1  0.53408000  0.38737000  0.15991000  1.0
  N  N179  1  0.96592000  0.84008000  0.61263000  1.0
  N  N180  1  0.28554000  0.58704000  0.13390000  1.0
  N  N181  1  0.21446000  0.86610000  0.41296000  1.0
  N  N182  1  0.71446000  0.41296000  0.86610000  1.0
  N  N183  1  0.78554000  0.13390000  0.58704000  1.0
  N  N184  1  0.53277000  0.61975000  0.09486000  1.0
  N  N185  1  0.96723000  0.90514000  0.38025000  1.0
  N  N186  1  0.46723000  0.38026000  0.90514000  1.0
  N  N187  1  0.03277000  0.09486000  0.61974000  1.0
  N  N188  1  0.39463000  0.57651000  0.39302000  1.0
  N  N189  1  0.10538000  0.60698000  0.42349000  1.0
  N  N190  1  0.60537000  0.42349000  0.60698000  1.0
  N  N191  1  0.89463000  0.39302000  0.57651000  1.0
  N  N192  1  0.50237000  0.59055000  0.41756000  1.0
  N  N193  1  0.99763000  0.58244000  0.40945000  1.0
  N  N194  1  0.49763000  0.40945000  0.58245000  1.0
  N  N195  1  0.00237000  0.41755000  0.59055000  1.0
  N  N196  1  0.58814000  0.60584000  0.36102000  1.0
  N  N197  1  0.91187000  0.63898000  0.39416000  1.0
  N  N198  1  0.41186000  0.39416000  0.63898000  1.0
  N  N199  1  0.08814000  0.36102000  0.60584000  1.0
