# generated using pymatgen
data_KH6C9Br4O3
_symmetry_space_group_name_H-M   'P 1'
_cell_length_a   7.70436000
_cell_length_b   10.50690000
_cell_length_c   16.98630000
_cell_angle_alpha   90.86860000
_cell_angle_beta   91.51850000
_cell_angle_gamma   100.67000000
_symmetry_Int_Tables_number   1
_chemical_formula_structural   KH6C9Br4O3
_chemical_formula_sum   'K4 H24 C36 Br16 O12'
_cell_volume   1350.49231678
_cell_formula_units_Z   4
loop_
 _symmetry_equiv_pos_site_id
 _symmetry_equiv_pos_as_xyz
  1  'x, y, z'
loop_
 _atom_site_type_symbol
 _atom_site_label
 _atom_site_symmetry_multiplicity
 _atom_site_fract_x
 _atom_site_fract_y
 _atom_site_fract_z
 _atom_site_occupancy
  K  K0  1  0.93901000  0.31229000  0.23528000  1.0
  K  K1  1  0.06097000  0.68770000  0.76473000  1.0
  K  K2  1  0.56017000  0.70128000  0.73855000  1.0
  K  K3  1  0.43985000  0.29872000  0.26145000  1.0
  H  H4  1  0.20749000  0.84782000  0.18381000  1.0
  H  H5  1  0.79252000  0.15218000  0.81619000  1.0
  H  H6  1  0.23453000  0.91275000  0.08988000  1.0
  H  H7  1  0.76547000  0.08725000  0.91011000  1.0
  H  H8  1  0.37007000  0.99047000  0.17154000  1.0
  H  H9  1  0.62994000  0.00954000  0.82845000  1.0
  H  H10  1  0.92246000  0.01274000  0.31685000  1.0
  H  H11  1  0.07754000  0.98726000  0.68315000  1.0
  H  H12  1  0.78727000  0.86049000  0.29063000  1.0
  H  H13  1  0.21275000  0.13950000  0.70937000  1.0
  H  H14  1  0.80306000  0.91085000  0.38982000  1.0
  H  H15  1  0.19694000  0.08914000  0.61018000  1.0
  H  H16  1  0.93046000  0.98180000  0.06852000  1.0
  H  H17  1  0.06954000  0.01820000  0.93148000  1.0
  H  H18  1  0.87065000  0.87279000  0.14347000  1.0
  H  H19  1  0.12936000  0.12721000  0.85653000  1.0
  H  H20  1  0.82489000  0.03381000  0.15350000  1.0
  H  H21  1  0.17511000  0.96619000  0.84649000  1.0
  H  H22  1  0.44728000  0.85406000  0.35726000  1.0
  H  H23  1  0.55273000  0.14594000  0.64273000  1.0
  H  H24  1  0.50819000  0.98786000  0.42160000  1.0
  H  H25  1  0.49181000  0.01213000  0.57839000  1.0
  H  H26  1  0.36549000  0.00058000  0.33794000  1.0
  H  H27  1  0.63451000  0.99941000  0.66206000  1.0
  C  C28  1  0.32916000  0.59505000  0.92946000  1.0
  C  C29  1  0.67085000  0.40493000  0.07053000  1.0
  C  C30  1  0.22979000  0.59431000  0.56980000  1.0
  C  C31  1  0.77021000  0.40570000  0.43021000  1.0
  C  C32  1  0.21186000  0.47135000  0.94261000  1.0
  C  C33  1  0.78815000  0.52863000  0.05739000  1.0
  C  C34  1  0.28088000  0.46795000  0.55802000  1.0
  C  C35  1  0.71913000  0.53205000  0.44198000  1.0
  C  C36  1  0.19436000  0.41547000  0.01498000  1.0
  C  C37  1  0.80564000  0.58454000  0.98503000  1.0
  C  C38  1  0.26258000  0.40359000  0.48666000  1.0
  C  C39  1  0.73740000  0.59642000  0.51335000  1.0
  C  C40  1  0.29320000  0.47358000  0.08545000  1.0
  C  C41  1  0.70679000  0.52642000  0.91456000  1.0
  C  C42  1  0.19139000  0.45605000  0.41603000  1.0
  C  C43  1  0.80859000  0.54397000  0.58398000  1.0
  C  C44  1  0.39824000  0.60205000  0.07349000  1.0
  C  C45  1  0.60176000  0.39794000  0.92650000  1.0
  C  C46  1  0.15477000  0.58640000  0.42649000  1.0
  C  C47  1  0.84523000  0.41363000  0.57350000  1.0
  C  C48  1  0.41427000  0.65903000  0.00083000  1.0
  C  C49  1  0.58575000  0.34096000  0.99916000  1.0
  C  C50  1  0.17270000  0.65117000  0.49824000  1.0
  C  C51  1  0.82730000  0.34885000  0.50177000  1.0
  C  C52  1  0.09992000  0.01861000  0.17115000  1.0
  C  C53  1  0.90008000  0.98138000  0.82885000  1.0
  C  C54  1  0.64178000  0.00924000  0.31367000  1.0
  C  C55  1  0.35822000  0.99076000  0.68632000  1.0
  C  C56  1  0.23788000  0.94013000  0.15262000  1.0
  C  C57  1  0.76212000  0.05987000  0.84738000  1.0
  C  C58  1  0.79952000  0.94674000  0.32963000  1.0
  C  C59  1  0.20048000  0.05326000  0.67037000  1.0
  C  C60  1  0.91996000  0.97608000  0.13288000  1.0
  C  C61  1  0.08005000  0.02392000  0.86711000  1.0
  C  C62  1  0.47929000  0.96051000  0.35913000  1.0
  C  C63  1  0.52072000  0.03949000  0.64086000  1.0
  Br  Br64  1  0.07365000  0.40010000  0.85354000  1.0
  Br  Br65  1  0.92635000  0.59989000  0.14647000  1.0
  Br  Br66  1  0.38636000  0.40551000  0.64761000  1.0
  Br  Br67  1  0.61362000  0.59450000  0.35239000  1.0
  Br  Br68  1  0.02986000  0.26180000  0.03162000  1.0
  Br  Br69  1  0.97015000  0.73819000  0.96838000  1.0
  Br  Br70  1  0.33948000  0.24421000  0.47123000  1.0
  Br  Br71  1  0.66051000  0.75580000  0.52878000  1.0
  Br  Br72  1  0.49412000  0.69161000  0.16684000  1.0
  Br  Br73  1  0.50588000  0.30839000  0.83316000  1.0
  Br  Br74  1  0.10192000  0.66789000  0.33263000  1.0
  Br  Br75  1  0.89805000  0.33215000  0.66737000  1.0
  Br  Br76  1  0.52799000  0.83276000  0.98770000  1.0
  Br  Br77  1  0.47201000  0.16724000  0.01230000  1.0
  Br  Br78  1  0.14426000  0.82568000  0.50874000  1.0
  Br  Br79  1  0.85571000  0.17433000  0.49129000  1.0
  O  O80  1  0.34414000  0.64612000  0.86265000  1.0
  O  O81  1  0.65585000  0.35388000  0.13735000  1.0
  O  O82  1  0.24569000  0.65227000  0.63586000  1.0
  O  O83  1  0.75428000  0.34773000  0.36415000  1.0
  O  O84  1  0.27882000  0.42051000  0.15147000  1.0
  O  O85  1  0.72119000  0.57949000  0.84854000  1.0
  O  O86  1  0.17449000  0.39622000  0.35060000  1.0
  O  O87  1  0.82549000  0.60379000  0.64940000  1.0
  O  O88  1  0.13252000  0.11269000  0.21748000  1.0
  O  O89  1  0.86748000  0.88731000  0.78252000  1.0
  O  O90  1  0.64522000  0.09536000  0.26460000  1.0
  O  O91  1  0.35480000  0.90465000  0.73540000  1.0
