# generated using pymatgen
data_GdH15C18(NO2)6
_symmetry_space_group_name_H-M   'P 1'
_cell_length_a   9.88812000
_cell_length_b   10.18240000
_cell_length_c   11.35390000
_cell_angle_alpha   83.04330000
_cell_angle_beta   82.23210000
_cell_angle_gamma   70.26370000
_symmetry_Int_Tables_number   1
_chemical_formula_structural   GdH15C18(NO2)6
_chemical_formula_sum   'Gd2 H30 C36 N12 O24'
_cell_volume   1062.64096133
_cell_formula_units_Z   2
loop_
 _symmetry_equiv_pos_site_id
 _symmetry_equiv_pos_as_xyz
  1  'x, y, z'
loop_
 _atom_site_type_symbol
 _atom_site_label
 _atom_site_symmetry_multiplicity
 _atom_site_fract_x
 _atom_site_fract_y
 _atom_site_fract_z
 _atom_site_occupancy
  Gd  Gd0  1  0.66012000  0.04415000  0.09465000  1.0
  Gd  Gd1  1  0.33988000  0.95585000  0.90535000  1.0
  H  H2  1  0.65026000  0.63272000  0.05243000  1.0
  H  H3  1  0.34974000  0.36727000  0.94757000  1.0
  H  H4  1  0.65668000  0.44599000  0.21917000  1.0
  H  H5  1  0.34332000  0.55401000  0.78083000  1.0
  H  H6  1  0.38079000  0.77318000  0.43889000  1.0
  H  H7  1  0.61921000  0.22682000  0.56111000  1.0
  H  H8  1  0.38789000  0.94445000  0.26134000  1.0
  H  H9  1  0.61211000  0.05555000  0.73866000  1.0
  H  H10  1  0.58439000  0.37904000  0.42043000  1.0
  H  H11  1  0.41561000  0.62095000  0.57957000  1.0
  H  H12  1  0.89860000  0.02347000  0.71258000  1.0
  H  H13  1  0.10140000  0.97653000  0.28742000  1.0
  H  H14  1  0.04102000  0.84481000  0.57090000  1.0
  H  H15  1  0.95898000  0.15519000  0.42910000  1.0
  H  H16  1  0.99485000  0.52623000  0.84762000  1.0
  H  H17  1  0.00515000  0.47377000  0.15238000  1.0
  H  H18  1  0.85365000  0.72106000  0.97754000  1.0
  H  H19  1  0.14635000  0.27894000  0.02246000  1.0
  H  H20  1  0.12193000  0.44898000  0.66492000  1.0
  H  H21  1  0.87807000  0.55102000  0.33508000  1.0
  H  H22  1  0.12576000  0.67333000  0.45628000  1.0
  H  H23  1  0.87425000  0.32668000  0.54372000  1.0
  H  H24  1  0.23750000  0.59673000  0.26926000  1.0
  H  H25  1  0.76250000  0.40328000  0.73074000  1.0
  H  H26  1  0.37083000  0.40667000  0.13687000  1.0
  H  H27  1  0.62917000  0.59333000  0.86313000  1.0
  H  H28  1  0.23917000  0.27500000  0.55737000  1.0
  H  H29  1  0.76083000  0.72501000  0.44263000  1.0
  H  H30  1  0.36343000  0.09972000  0.41267000  1.0
  H  H31  1  0.63657000  0.90028000  0.58733000  1.0
  C  C32  1  0.59337000  0.65520000  0.13984000  1.0
  C  C33  1  0.40663000  0.34480000  0.86016000  1.0
  C  C34  1  0.59545000  0.55482000  0.23321000  1.0
  C  C35  1  0.40455000  0.44518000  0.76679000  1.0
  C  C36  1  0.52160000  0.59266000  0.34529000  1.0
  C  C37  1  0.47840000  0.40734000  0.65471000  1.0
  C  C38  1  0.44251000  0.73513000  0.35591000  1.0
  C  C39  1  0.55749000  0.26487000  0.64409000  1.0
  C  C40  1  0.44204000  0.83227000  0.26043000  1.0
  C  C41  1  0.55796000  0.16773000  0.73957000  1.0
  C  C42  1  0.52853000  0.48659000  0.44335000  1.0
  C  C43  1  0.47147000  0.51341000  0.55665000  1.0
  C  C44  1  0.92159000  0.91180000  0.73404000  1.0
  C  C45  1  0.07841000  0.08820000  0.26596000  1.0
  C  C46  1  0.00040000  0.81027000  0.65884000  1.0
  C  C47  1  0.99960000  0.18973000  0.34116000  1.0
  C  C48  1  0.02858000  0.66689000  0.69539000  1.0
  C  C49  1  0.97142000  0.33311000  0.30461000  1.0
  C  C50  1  0.97618000  0.63492000  0.81324000  1.0
  C  C51  1  0.02382000  0.36508000  0.18676000  1.0
  C  C52  1  0.89703000  0.73911000  0.88629000  1.0
  C  C53  1  0.10297000  0.26089000  0.11371000  1.0
  C  C54  1  0.10455000  0.55374000  0.62004000  1.0
  C  C55  1  0.89545000  0.44627000  0.37996000  1.0
  C  C56  1  0.14853000  0.56857000  0.50221000  1.0
  C  C57  1  0.85147000  0.43143000  0.49779000  1.0
  C  C58  1  0.22388000  0.45566000  0.42663000  1.0
  C  C59  1  0.77612000  0.54435000  0.57337000  1.0
  C  C60  1  0.26482000  0.48832000  0.30591000  1.0
  C  C61  1  0.73518000  0.51168000  0.69409000  1.0
  C  C62  1  0.33724000  0.38537000  0.23013000  1.0
  C  C63  1  0.66276000  0.61464000  0.76987000  1.0
  C  C64  1  0.26342000  0.31196000  0.46547000  1.0
  C  C65  1  0.73658000  0.68805000  0.53453000  1.0
  C  C66  1  0.33415000  0.21134000  0.38699000  1.0
  C  C67  1  0.66584000  0.78866000  0.61301000  1.0
  N  N68  1  0.51923000  0.79162000  0.15519000  1.0
  N  N69  1  0.48077000  0.20838000  0.84481000  1.0
  N  N70  1  0.74311000  0.29521000  0.01493000  1.0
  N  N71  1  0.25689000  0.70478000  0.98507000  1.0
  N  N72  1  0.90517000  0.81142000  0.19098000  1.0
  N  N73  1  0.09483000  0.18858000  0.80902000  1.0
  N  N74  1  0.86777000  0.87640000  0.84614000  1.0
  N  N75  1  0.13222000  0.12360000  0.15386000  1.0
  N  N76  1  0.36857000  0.24793000  0.26974000  1.0
  N  N77  1  0.63143000  0.75207000  0.73026000  1.0
  N  N78  1  0.68860000  0.06844000  0.34877000  1.0
  N  N79  1  0.31140000  0.93156000  0.65123000  1.0
  O  O80  1  0.52477000  0.88902000  0.06566000  1.0
  O  O81  1  0.47523000  0.11098000  0.93434000  1.0
  O  O82  1  0.84025000  0.17905000  0.03569000  1.0
  O  O83  1  0.15976000  0.82095000  0.96431000  1.0
  O  O84  1  0.61143000  0.29271000  0.02629000  1.0
  O  O85  1  0.38857000  0.70728000  0.97371000  1.0
  O  O86  1  0.76992000  0.40605000  0.98594000  1.0
  O  O87  1  0.23008000  0.59395000  0.01407000  1.0
  O  O88  1  0.90417000  0.93744000  0.16970000  1.0
  O  O89  1  0.09583000  0.06256000  0.83030000  1.0
  O  O90  1  0.80324000  0.78238000  0.15195000  1.0
  O  O91  1  0.19676000  0.21762000  0.84805000  1.0
  O  O92  1  0.99724000  0.72175000  0.24826000  1.0
  O  O93  1  0.00276000  0.27825000  0.75174000  1.0
  O  O94  1  0.78816000  0.97655000  0.91261000  1.0
  O  O95  1  0.21184000  0.02345000  0.08739000  1.0
  O  O96  1  0.42436000  0.15064000  0.19349000  1.0
  O  O97  1  0.57564000  0.84936000  0.80651000  1.0
  O  O98  1  0.65492000  0.96685000  0.31914000  1.0
  O  O99  1  0.34508000  0.03315000  0.68086000  1.0
  O  O100  1  0.68576000  0.16949000  0.26943000  1.0
  O  O101  1  0.31424000  0.83051000  0.73057000  1.0
  O  O102  1  0.72366000  0.06745000  0.45041000  1.0
  O  O103  1  0.27634000  0.93255000  0.54958000  1.0
