# generated using pymatgen
data_CdH18C18N4O5
_symmetry_space_group_name_H-M   'P 1'
_cell_length_a   9.64296000
_cell_length_b   9.64296000
_cell_length_c   9.72113000
_cell_angle_alpha   95.07970000
_cell_angle_beta   95.07960000
_cell_angle_gamma   93.76610000
_symmetry_Int_Tables_number   1
_chemical_formula_structural   CdH18C18N4O5
_chemical_formula_sum   'Cd2 H36 C36 N8 O10'
_cell_volume   894.38338428
_cell_formula_units_Z   2
loop_
 _symmetry_equiv_pos_site_id
 _symmetry_equiv_pos_as_xyz
  1  'x, y, z'
loop_
 _atom_site_type_symbol
 _atom_site_label
 _atom_site_symmetry_multiplicity
 _atom_site_fract_x
 _atom_site_fract_y
 _atom_site_fract_z
 _atom_site_occupancy
  Cd  Cd0  1  0.50000000  0.50000000  0.50000000  1.0
  Cd  Cd1  1  0.50000000  0.50000000  0.00000000  1.0
  H  H2  1  0.55008000  0.03606000  0.72924000  1.0
  H  H3  1  0.03606000  0.55008000  0.22924000  1.0
  H  H4  1  0.44992000  0.96393000  0.27076000  1.0
  H  H5  1  0.96394000  0.44992000  0.77076000  1.0
  H  H6  1  0.43829000  0.78059000  0.71729000  1.0
  H  H7  1  0.78059000  0.43829000  0.21729000  1.0
  H  H8  1  0.56171000  0.21941000  0.28271000  1.0
  H  H9  1  0.21941000  0.56171000  0.78271000  1.0
  H  H10  1  0.74074000  0.69297000  0.32970000  1.0
  H  H11  1  0.69297000  0.74074000  0.82970000  1.0
  H  H12  1  0.25926000  0.30703000  0.67030000  1.0
  H  H13  1  0.30703000  0.25926000  0.17030000  1.0
  H  H14  1  0.89756000  0.88934000  0.26589000  1.0
  H  H15  1  0.88933000  0.89756000  0.76589000  1.0
  H  H16  1  0.10244000  0.11066000  0.73411000  1.0
  H  H17  1  0.11066000  0.10244000  0.23411000  1.0
  H  H18  1  0.90874000  0.12352000  0.39412000  1.0
  H  H19  1  0.12352000  0.90874000  0.89412000  1.0
  H  H20  1  0.09126000  0.87648000  0.60588000  1.0
  H  H21  1  0.87648000  0.09126000  0.10588000  1.0
  H  H22  1  0.75987000  0.17220000  0.58898000  1.0
  H  H23  1  0.17220000  0.75987000  0.08898000  1.0
  H  H24  1  0.24013000  0.82780000  0.41102000  1.0
  H  H25  1  0.82780000  0.24013000  0.91102000  1.0
  H  H26  1  0.34654000  0.53916000  0.26517000  1.0
  H  H27  1  0.53917000  0.34654000  0.76516000  1.0
  H  H28  1  0.65346000  0.46083000  0.73483000  1.0
  H  H29  1  0.46084000  0.65346000  0.23483000  1.0
  H  H30  1  0.97963000  0.64266000  0.44411000  1.0
  H  H31  1  0.64265000  0.97963000  0.94412000  1.0
  H  H32  1  0.02037000  0.35735000  0.55588000  1.0
  H  H33  1  0.35734000  0.02037000  0.05589000  1.0
  H  H34  1  0.04765000  0.61827000  0.61521000  1.0
  H  H35  1  0.61827000  0.04765000  0.11521000  1.0
  H  H36  1  0.95235000  0.38173000  0.38478000  1.0
  H  H37  1  0.38173000  0.95235000  0.88479000  1.0
  C  C38  1  0.51515000  0.81710000  0.65093000  1.0
  C  C39  1  0.81710000  0.51515000  0.15093000  1.0
  C  C40  1  0.48485000  0.18290000  0.34907000  1.0
  C  C41  1  0.18290000  0.48485000  0.84907000  1.0
  C  C42  1  0.74632000  0.79606000  0.38601000  1.0
  C  C43  1  0.79606000  0.74632000  0.88601000  1.0
  C  C44  1  0.25368000  0.20394000  0.61399000  1.0
  C  C45  1  0.20394000  0.25368000  0.11399000  1.0
  C  C46  1  0.83250000  0.90674000  0.35113000  1.0
  C  C47  1  0.90674000  0.83250000  0.85113000  1.0
  C  C48  1  0.16750000  0.09326000  0.64887000  1.0
  C  C49  1  0.09326000  0.16750000  0.14887000  1.0
  C  C50  1  0.83831000  0.04063000  0.42381000  1.0
  C  C51  1  0.04063000  0.83831000  0.92381000  1.0
  C  C52  1  0.16169000  0.95937000  0.57619000  1.0
  C  C53  1  0.95936000  0.16169000  0.07619000  1.0
  C  C54  1  0.75685000  0.06897000  0.53291000  1.0
  C  C55  1  0.06897000  0.75685000  0.03290000  1.0
  C  C56  1  0.24315000  0.93103000  0.46709000  1.0
  C  C57  1  0.93103000  0.24315000  0.96709000  1.0
  C  C58  1  0.66923000  0.95813000  0.56618000  1.0
  C  C59  1  0.95813000  0.66923000  0.06618000  1.0
  C  C60  1  0.33077000  0.04187000  0.43382000  1.0
  C  C61  1  0.04187000  0.33077000  0.93382000  1.0
  C  C62  1  0.66424000  0.82245000  0.49569000  1.0
  C  C63  1  0.82245000  0.66425000  0.99569000  1.0
  C  C64  1  0.33575000  0.17755000  0.50431000  1.0
  C  C65  1  0.17755000  0.33576000  0.00431000  1.0
  C  C66  1  0.18226000  0.55919000  0.45781000  1.0
  C  C67  1  0.55919000  0.18226000  0.95782000  1.0
  C  C68  1  0.81774000  0.44081000  0.54218000  1.0
  C  C69  1  0.44081000  0.81774000  0.04218000  1.0
  C  C70  1  0.03869000  0.57311000  0.50694000  1.0
  C  C71  1  0.57310000  0.03869000  0.00694000  1.0
  C  C72  1  0.96131000  0.42690000  0.49306000  1.0
  C  C73  1  0.42689000  0.96131000  0.99306000  1.0
  N  N74  1  0.57327000  0.95022000  0.66332000  1.0
  N  N75  1  0.95023000  0.57327000  0.16332000  1.0
  N  N76  1  0.42673000  0.04977000  0.33668000  1.0
  N  N77  1  0.04978000  0.42673000  0.83668000  1.0
  N  N78  1  0.56721000  0.73632000  0.55256000  1.0
  N  N79  1  0.73632000  0.56721000  0.05256000  1.0
  N  N80  1  0.43279000  0.26368000  0.44744000  1.0
  N  N81  1  0.26368000  0.43279000  0.94744000  1.0
  O  O82  1  0.28329000  0.55772000  0.55073000  1.0
  O  O83  1  0.55772000  0.28329000  0.05073000  1.0
  O  O84  1  0.71671000  0.44228000  0.44927000  1.0
  O  O85  1  0.44229000  0.71671000  0.94927000  1.0
  O  O86  1  0.19042000  0.54395000  0.32698000  1.0
  O  O87  1  0.54395000  0.19042000  0.82698000  1.0
  O  O88  1  0.80958000  0.45605000  0.67301000  1.0
  O  O89  1  0.45605000  0.80958000  0.17302000  1.0
  O  O90  1  0.44857000  0.55143000  0.25000000  1.0
  O  O91  1  0.55143000  0.44857000  0.75000000  1.0
