# generated using pymatgen
data_Al2H11(C11O5)2
_symmetry_space_group_name_H-M   'P 1'
_cell_length_a   6.71292000
_cell_length_b   19.27570000
_cell_length_c   21.54910000
_cell_angle_alpha   86.83540000
_cell_angle_beta   87.78130000
_cell_angle_gamma   87.89480000
_symmetry_Int_Tables_number   1
_chemical_formula_structural   Al2H11(C11O5)2
_chemical_formula_sum   'Al4 H22 C44 O20'
_cell_volume   2780.35999054
_cell_formula_units_Z   2
loop_
 _symmetry_equiv_pos_site_id
 _symmetry_equiv_pos_as_xyz
  1  'x, y, z'
loop_
 _atom_site_type_symbol
 _atom_site_label
 _atom_site_symmetry_multiplicity
 _atom_site_fract_x
 _atom_site_fract_y
 _atom_site_fract_z
 _atom_site_occupancy
  Al  Al0  1  0.77246000  0.26549000  0.25929000  1.0
  Al  Al1  1  0.22788000  0.73632000  0.73907000  1.0
  Al  Al2  1  0.27102000  0.26523000  0.26020000  1.0
  Al  Al3  1  0.72915000  0.73630000  0.73843000  1.0
  H  H4  1  0.18773000  0.10573000  0.94635000  1.0
  H  H5  1  0.81438000  0.91008000  0.04113000  1.0
  H  H6  1  0.80907000  0.06510000  0.90944000  1.0
  H  H7  1  0.19522000  0.94975000  0.07703000  1.0
  H  H8  1  0.67192000  0.96689000  0.83535000  1.0
  H  H9  1  0.50302000  0.90171000  0.82191000  1.0
  H  H10  1  0.50198000  0.98048000  0.77446000  1.0
  H  H11  1  0.21587000  0.98627000  0.84828000  1.0
  H  H12  1  0.38912000  0.04710000  0.86794000  1.0
  H  H13  1  0.50135000  0.97118000  0.95666000  1.0
  H  H14  1  0.36436000  0.90136000  0.93277000  1.0
  H  H15  1  0.33405000  0.17950000  0.04703000  1.0
  H  H16  1  0.51672000  0.19114000  0.10213000  1.0
  H  H17  1  0.50360000  0.24777000  0.03433000  1.0
  H  H18  1  0.78575000  0.16533000  0.01959000  1.0
  H  H19  1  0.60063000  0.14703000  0.96780000  1.0
  H  H20  1  0.50184000  0.04359000  0.03147000  1.0
  H  H21  1  0.64287000  0.06707000  0.09418000  1.0
  H  H22  1  0.52965000  0.17581000  0.27740000  1.0
  H  H23  1  0.47036000  0.82741000  0.72900000  1.0
  H  H24  1  0.01014000  0.35214000  0.27907000  1.0
  H  H25  1  0.99029000  0.64861000  0.72132000  1.0
  C  C26  1  0.52298000  0.34778000  0.17199000  1.0
  C  C27  1  0.47670000  0.65218000  0.82547000  1.0
  C  C28  1  0.50373000  0.34800000  0.34125000  1.0
  C  C29  1  0.49699000  0.65460000  0.65673000  1.0
  C  C30  1  0.01949000  0.17789000  0.34567000  1.0
  C  C31  1  0.98055000  0.82456000  0.65359000  1.0
  C  C32  1  0.04093000  0.18368000  0.17925000  1.0
  C  C33  1  0.95889000  0.81650000  0.82046000  1.0
  C  C34  1  0.89513000  0.04014000  0.94710000  1.0
  C  C35  1  0.10945000  0.97470000  0.03928000  1.0
  C  C36  1  0.10446000  0.06186000  0.96678000  1.0
  C  C37  1  0.89742000  0.95400000  0.02064000  1.0
  C  C38  1  0.05049000  0.13638000  0.13004000  1.0
  C  C39  1  0.94979000  0.86471000  0.86890000  1.0
  C  C40  1  0.82205000  0.03234000  0.01711000  1.0
  C  C41  1  0.18113000  0.98390000  0.96895000  1.0
  C  C42  1  0.03557000  0.05359000  0.03768000  1.0
  C  C43  1  0.96761000  0.96113000  0.94978000  1.0
  C  C44  1  0.05512000  0.09865000  0.08639000  1.0
  C  C45  1  0.94684000  0.91009000  0.90619000  1.0
  C  C46  1  0.98300000  0.87747000  0.60367000  1.0
  C  C47  1  0.01627000  0.12449000  0.39512000  1.0
  C  C48  1  0.98874000  0.92453000  0.56300000  1.0
  C  C49  1  0.01008000  0.07685000  0.43523000  1.0
  C  C50  1  0.99570000  0.97639000  0.51895000  1.0
  C  C51  1  0.00292000  0.02460000  0.47891000  1.0
  C  C52  1  0.52072000  0.39428000  0.11739000  1.0
  C  C53  1  0.47847000  0.60537000  0.87989000  1.0
  C  C54  1  0.51251000  0.43490000  0.07164000  1.0
  C  C55  1  0.48543000  0.56497000  0.92582000  1.0
  C  C56  1  0.50318000  0.47946000  0.02172000  1.0
  C  C57  1  0.49396000  0.52055000  0.97587000  1.0
  C  C58  1  0.49676000  0.39457000  0.39139000  1.0
  C  C59  1  0.50405000  0.60731000  0.60716000  1.0
  C  C60  1  0.49762000  0.43514000  0.43326000  1.0
  C  C61  1  0.50354000  0.56623000  0.56568000  1.0
  C  C62  1  0.49935000  0.47982000  0.47879000  1.0
  C  C63  1  0.50206000  0.52125000  0.52039000  1.0
  C  C64  1  0.36459000  0.95853000  0.93367000  1.0
  C  C65  1  0.36524000  0.99093000  0.86670000  1.0
  C  C66  1  0.51898000  0.95827000  0.82214000  1.0
  C  C67  1  0.63871000  0.06915000  0.04297000  1.0
  C  C68  1  0.63458000  0.14544000  0.01755000  1.0
  C  C69  1  0.48910000  0.19358000  0.05209000  1.0
  O  O70  1  0.33707000  0.32994000  0.32214000  1.0
  O  O71  1  0.66361000  0.67318000  0.67543000  1.0
  O  O72  1  0.69294000  0.32996000  0.19297000  1.0
  O  O73  1  0.30676000  0.67065000  0.80484000  1.0
  O  O74  1  0.86665000  0.20279000  0.19877000  1.0
  O  O75  1  0.13305000  0.79823000  0.80017000  1.0
  O  O76  1  0.67768000  0.33028000  0.32067000  1.0
  O  O77  1  0.32319000  0.67238000  0.67733000  1.0
  O  O78  1  0.85001000  0.19827000  0.32554000  1.0
  O  O79  1  0.15034000  0.80399000  0.67328000  1.0
  O  O80  1  0.35317000  0.32990000  0.19436000  1.0
  O  O81  1  0.64674000  0.66968000  0.80297000  1.0
  O  O82  1  0.52572000  0.22429000  0.26280000  1.0
  O  O83  1  0.47454000  0.77737000  0.73668000  1.0
  O  O84  1  0.19077000  0.19821000  0.32653000  1.0
  O  O85  1  0.80948000  0.80480000  0.67348000  1.0
  O  O86  1  0.20548000  0.20219000  0.19966000  1.0
  O  O87  1  0.79408000  0.79728000  0.80078000  1.0
  O  O88  1  0.01739000  0.30733000  0.26057000  1.0
  O  O89  1  0.98302000  0.69453000  0.73766000  1.0
