# generated using pymatgen
data_CsH10C16SO6F
_symmetry_space_group_name_H-M   'P 1'
_cell_length_a   6.25860000
_cell_length_b   7.84777000
_cell_length_c   16.22520000
_cell_angle_alpha   86.90000000
_cell_angle_beta   89.33230000
_cell_angle_gamma   84.24960000
_symmetry_Int_Tables_number   1
_chemical_formula_structural   CsH10C16SO6F
_chemical_formula_sum   'Cs2 H20 C32 S2 O12 F2'
_cell_volume   791.73167763
_cell_formula_units_Z   2
loop_
 _symmetry_equiv_pos_site_id
 _symmetry_equiv_pos_as_xyz
  1  'x, y, z'
loop_
 _atom_site_type_symbol
 _atom_site_label
 _atom_site_symmetry_multiplicity
 _atom_site_fract_x
 _atom_site_fract_y
 _atom_site_fract_z
 _atom_site_occupancy
  Cs  Cs0  1  0.74877000  0.74657000  0.97862000  1.0
  Cs  Cs1  1  0.25128000  0.25338000  0.02138000  1.0
  H  H2  1  0.81731000  0.07470000  0.09432000  1.0
  H  H3  1  0.18271000  0.92526000  0.90567000  1.0
  H  H4  1  0.89347000  0.98464000  0.19528000  1.0
  H  H5  1  0.10654000  0.01534000  0.80472000  1.0
  H  H6  1  0.69088000  0.16439000  0.18356000  1.0
  H  H7  1  0.30914000  0.83559000  0.81644000  1.0
  H  H8  1  0.65268000  0.01517000  0.30571000  1.0
  H  H9  1  0.34731000  0.98485000  0.69429000  1.0
  H  H10  1  0.42222000  0.94675000  0.42126000  1.0
  H  H11  1  0.57775000  0.05328000  0.57874000  1.0
  H  H12  1  0.05090000  0.66971000  0.26027000  1.0
  H  H13  1  0.94911000  0.33027000  0.73973000  1.0
  H  H14  1  0.13214000  0.82420000  0.67247000  1.0
  H  H15  1  0.86786000  0.17580000  0.32752000  1.0
  H  H16  1  0.54648000  0.59969000  0.73551000  1.0
  H  H17  1  0.45351000  0.40031000  0.26449000  1.0
  H  H18  1  0.48757000  0.55694000  0.58445000  1.0
  H  H19  1  0.51240000  0.44309000  0.41555000  1.0
  H  H20  1  0.83026000  0.66355000  0.34749000  1.0
  H  H21  1  0.16970000  0.33649000  0.65251000  1.0
  C  C22  1  0.76028000  0.04496000  0.15697000  1.0
  C  C23  1  0.23974000  0.95501000  0.84302000  1.0
  C  C24  1  0.48129000  0.88805000  0.21576000  1.0
  C  C25  1  0.51872000  0.11194000  0.78424000  1.0
  C  C26  1  0.51955000  0.94073000  0.29462000  1.0
  C  C27  1  0.48044000  0.05928000  0.70538000  1.0
  C  C28  1  0.38744000  0.90154000  0.36131000  1.0
  C  C29  1  0.61254000  0.09849000  0.63868000  1.0
  C  C30  1  0.21103000  0.80691000  0.35208000  1.0
  C  C31  1  0.78895000  0.19310000  0.64792000  1.0
  C  C32  1  0.17814000  0.74967000  0.27261000  1.0
  C  C33  1  0.82186000  0.25032000  0.72739000  1.0
  C  C34  1  0.30911000  0.78722000  0.20568000  1.0
  C  C35  1  0.69090000  0.21276000  0.79432000  1.0
  C  C36  1  0.06817000  0.76569000  0.42219000  1.0
  C  C37  1  0.93180000  0.23434000  0.57781000  1.0
  C  C38  1  0.11401000  0.80137000  0.50798000  1.0
  C  C39  1  0.88597000  0.19865000  0.49202000  1.0
  C  C40  1  0.95980000  0.74292000  0.56998000  1.0
  C  C41  1  0.04018000  0.25710000  0.43001000  1.0
  C  C42  1  0.99177000  0.76475000  0.65418000  1.0
  C  C43  1  0.00822000  0.23526000  0.34582000  1.0
  C  C44  1  0.84054000  0.71524000  0.71034000  1.0
  C  C45  1  0.15945000  0.28476000  0.28966000  1.0
  C  C46  1  0.65786000  0.63996000  0.68789000  1.0
  C  C47  1  0.34213000  0.36005000  0.31211000  1.0
  C  C48  1  0.62580000  0.61633000  0.60502000  1.0
  C  C49  1  0.37418000  0.38369000  0.39498000  1.0
  C  C50  1  0.77669000  0.66876000  0.54718000  1.0
  C  C51  1  0.22328000  0.33127000  0.45281000  1.0
  C  C52  1  0.88365000  0.69165000  0.40834000  1.0
  C  C53  1  0.11632000  0.30839000  0.59166000  1.0
  S  S54  1  0.26533000  0.69423000  0.10956000  1.0
  S  S55  1  0.73471000  0.30573000  0.89044000  1.0
  O  O56  1  0.06452000  0.61295000  0.11966000  1.0
  O  O57  1  0.93553000  0.38700000  0.88035000  1.0
  O  O58  1  0.25008000  0.83568000  0.04537000  1.0
  O  O59  1  0.74997000  0.16426000  0.95463000  1.0
  O  O60  1  0.45454000  0.56951000  0.09908000  1.0
  O  O61  1  0.54551000  0.43045000  0.90094000  1.0
  O  O62  1  0.59837000  0.92999000  0.14762000  1.0
  O  O63  1  0.40165000  0.06999000  0.85238000  1.0
  O  O64  1  0.26905000  0.87551000  0.53032000  1.0
  O  O65  1  0.73093000  0.12451000  0.46968000  1.0
  O  O66  1  0.74055000  0.64371000  0.46571000  1.0
  O  O67  1  0.25942000  0.35633000  0.53429000  1.0
  F  F68  1  0.86680000  0.74459000  0.79176000  1.0
  F  F69  1  0.13320000  0.25539000  0.20824000  1.0
