# generated using pymatgen
data_ZnH17C23INO6
_symmetry_space_group_name_H-M   'P 1'
_cell_length_a   10.84930000
_cell_length_b   18.21530000
_cell_length_c   19.63360000
_cell_angle_alpha   89.90890000
_cell_angle_beta   90.08030000
_cell_angle_gamma   89.80300000
_symmetry_Int_Tables_number   1
_chemical_formula_structural   ZnH17C23INO6
_chemical_formula_sum   'Zn2 H34 C46 I2 N2 O12'
_cell_volume   3880.02424570
_cell_formula_units_Z   2
loop_
 _symmetry_equiv_pos_site_id
 _symmetry_equiv_pos_as_xyz
  1  'x, y, z'
loop_
 _atom_site_type_symbol
 _atom_site_label
 _atom_site_symmetry_multiplicity
 _atom_site_fract_x
 _atom_site_fract_y
 _atom_site_fract_z
 _atom_site_occupancy
  Zn  Zn0  1  0.50002000  0.42397000  0.50022000  1.0
  Zn  Zn1  1  0.50069000  0.57441000  0.49847000  1.0
  H  H2  1  0.11767000  0.38114000  0.52708000  1.0
  H  H3  1  0.08930000  0.60401000  0.45892000  1.0
  H  H4  1  0.51754000  0.61558000  0.15513000  1.0
  H  H5  1  0.46433000  0.38125000  0.15514000  1.0
  H  H6  1  0.51817000  0.61455000  0.28263000  1.0
  H  H7  1  0.46574000  0.38160000  0.28268000  1.0
  H  H8  1  0.64684000  0.31032000  0.56551000  1.0
  H  H9  1  0.64866000  0.68780000  0.56542000  1.0
  H  H10  1  0.34086000  0.16767000  0.43789000  1.0
  H  H11  1  0.35127000  0.83286000  0.43215000  1.0
  H  H12  1  0.33901000  0.30583000  0.44049000  1.0
  H  H13  1  0.35147000  0.69467000  0.43338000  1.0
  H  H14  1  0.31015000  0.06666000  0.53073000  1.0
  H  H15  1  0.31274000  0.93045000  0.52978000  1.0
  H  H16  1  0.69384000  0.93298000  0.46843000  1.0
  H  H17  1  0.69097000  0.06866000  0.46890000  1.0
  H  H18  1  0.88845000  0.38469000  0.45888000  1.0
  H  H19  1  0.91120000  0.50250000  0.39126000  1.0
  H  H20  1  0.90755000  0.38918000  0.54813000  1.0
  H  H21  1  0.88137000  0.58859000  0.43021000  1.0
  H  H22  1  0.09664000  0.48386000  0.60829000  1.0
  H  H23  1  0.11771000  0.57554000  0.58161000  1.0
  H  H24  1  0.88507000  0.51224000  0.61017000  1.0
  H  H25  1  0.90529000  0.59311000  0.56192000  1.0
  H  H26  1  0.43904000  0.61249000  0.71483000  1.0
  H  H27  1  0.56802000  0.38993000  0.71587000  1.0
  H  H28  1  0.43453000  0.61265000  0.84184000  1.0
  H  H29  1  0.56251000  0.38848000  0.84277000  1.0
  H  H30  1  0.66142000  0.43322000  0.93723000  1.0
  H  H31  1  0.32956000  0.56654000  0.93503000  1.0
  H  H32  1  0.66539000  0.42886000  0.11618000  1.0
  H  H33  1  0.31613000  0.56769000  0.11388000  1.0
  H  H34  1  0.11358000  0.42832000  0.39204000  1.0
  H  H35  1  0.21217000  0.54531000  0.38421000  1.0
  C  C36  1  0.49323000  0.49840000  0.36640000  1.0
  C  C37  1  0.92994000  0.53464000  0.56449000  1.0
  C  C38  1  0.46579000  0.56378000  0.74361000  1.0
  C  C39  1  0.53958000  0.43847000  0.74422000  1.0
  C  C40  1  0.46273000  0.56333000  0.81445000  1.0
  C  C41  1  0.53700000  0.43818000  0.81500000  1.0
  C  C42  1  0.49843000  0.50056000  0.85149000  1.0
  C  C43  1  0.50407000  0.50129000  0.70773000  1.0
  C  C44  1  0.58618000  0.46112000  0.96327000  1.0
  C  C45  1  0.40336000  0.53809000  0.96204000  1.0
  C  C46  1  0.58372000  0.46045000  0.03428000  1.0
  C  C47  1  0.40197000  0.53747000  0.03307000  1.0
  C  C48  1  0.49181000  0.49863000  0.07076000  1.0
  C  C49  1  0.49583000  0.49996000  0.92673000  1.0
  C  C50  1  0.50455000  0.56429000  0.18299000  1.0
  C  C51  1  0.47730000  0.43243000  0.18303000  1.0
  C  C52  1  0.26133000  0.49816000  0.50054000  1.0
  C  C53  1  0.50541000  0.56400000  0.25391000  1.0
  C  C54  1  0.47741000  0.43235000  0.25401000  1.0
  C  C55  1  0.49181000  0.49810000  0.28998000  1.0
  C  C56  1  0.49079000  0.49843000  0.14621000  1.0
  C  C57  1  0.58122000  0.27621000  0.53797000  1.0
  C  C58  1  0.58465000  0.72243000  0.53686000  1.0
  C  C59  1  0.58638000  0.19975000  0.54069000  1.0
  C  C60  1  0.58966000  0.79894000  0.53979000  1.0
  C  C61  1  0.50035000  0.15805000  0.50351000  1.0
  C  C62  1  0.50551000  0.84132000  0.50151000  1.0
  C  C63  1  0.40969000  0.19744000  0.46735000  1.0
  C  C64  1  0.41814000  0.80257000  0.46285000  1.0
  C  C65  1  0.40866000  0.27367000  0.46765000  1.0
  C  C66  1  0.41803000  0.72641000  0.46264000  1.0
  C  C67  1  0.39413000  0.03733000  0.51668000  1.0
  C  C68  1  0.39562000  0.96083000  0.51620000  1.0
  C  C69  1  0.50416000  0.92243000  0.50057000  1.0
  C  C70  1  0.50115000  0.07697000  0.50138000  1.0
  C  C71  1  0.50599000  0.50088000  0.63163000  1.0
  C  C72  1  0.61009000  0.96215000  0.48292000  1.0
  C  C73  1  0.60849000  0.03843000  0.48324000  1.0
  C  C74  1  0.73948000  0.49775000  0.49863000  1.0
  C  C75  1  0.07271000  0.41667000  0.48909000  1.0
  C  C76  1  0.06888000  0.54708000  0.44374000  1.0
  C  C77  1  0.93124000  0.41656000  0.49986000  1.0
  C  C78  1  0.92936000  0.53587000  0.43683000  1.0
  C  C79  1  0.07127000  0.52383000  0.56861000  1.0
  C  C80  1  0.12083000  0.49550000  0.49948000  1.0
  C  C81  1  0.88013000  0.49532000  0.50050000  1.0
  I  I82  1  0.71960000  0.15362000  0.60623000  1.0
  I  I83  1  0.71970000  0.84473000  0.60691000  1.0
  N  N84  1  0.49477000  0.31184000  0.50181000  1.0
  N  N85  1  0.50068000  0.68736000  0.49883000  1.0
  O  O86  1  0.46516000  0.43893000  0.39674000  1.0
  O  O87  1  0.52192000  0.55878000  0.39505000  1.0
  O  O88  1  0.31842000  0.44205000  0.52219000  1.0
  O  O89  1  0.31228000  0.55752000  0.47992000  1.0
  O  O90  1  0.53841000  0.44141000  0.60243000  1.0
  O  O91  1  0.47451000  0.56006000  0.60098000  1.0
  O  O92  1  0.68331000  0.43912000  0.48231000  1.0
  O  O93  1  0.68801000  0.55898000  0.51237000  1.0
  O  O94  1  0.67625000  0.42303000  0.06704000  1.0
  O  O95  1  0.30801000  0.57459000  0.06468000  1.0
  O  O96  1  0.10755000  0.38695000  0.42401000  1.0
  O  O97  1  0.12490000  0.53342000  0.37809000  1.0
