# generated using pymatgen
data_CaH17C15N3O11
_symmetry_space_group_name_H-M   'P 1'
_cell_length_a   8.60300000
_cell_length_b   8.79397000
_cell_length_c   13.12050000
_cell_angle_alpha   108.46100000
_cell_angle_beta   95.29040000
_cell_angle_gamma   100.53800000
_symmetry_Int_Tables_number   1
_chemical_formula_structural   CaH17C15N3O11
_chemical_formula_sum   'Ca2 H34 C30 N6 O22'
_cell_volume   913.59165219
_cell_formula_units_Z   2
loop_
 _symmetry_equiv_pos_site_id
 _symmetry_equiv_pos_as_xyz
  1  'x, y, z'
loop_
 _atom_site_type_symbol
 _atom_site_label
 _atom_site_symmetry_multiplicity
 _atom_site_fract_x
 _atom_site_fract_y
 _atom_site_fract_z
 _atom_site_occupancy
  Ca  Ca0  1  0.49839000  0.85413000  0.34472000  1.0
  Ca  Ca1  1  0.50161000  0.14587000  0.65528000  1.0
  H  H2  1  0.19272000  0.86637000  0.12482000  1.0
  H  H3  1  0.80729000  0.13363000  0.87518000  1.0
  H  H4  1  0.81521000  0.61057000  0.85359000  1.0
  H  H5  1  0.18479000  0.38943000  0.14641000  1.0
  H  H6  1  0.20110000  0.98923000  0.83542000  1.0
  H  H7  1  0.79890000  0.01076000  0.16458000  1.0
  H  H8  1  0.46965000  0.37577000  0.22645000  1.0
  H  H9  1  0.53035000  0.62423000  0.77355000  1.0
  H  H10  1  0.61024000  0.28540000  0.15303000  1.0
  H  H11  1  0.38976000  0.71460000  0.84697000  1.0
  H  H12  1  0.97959000  0.61448000  0.30608000  1.0
  H  H13  1  0.02041000  0.38552000  0.69392000  1.0
  H  H14  1  0.82954000  0.48513000  0.19451000  1.0
  H  H15  1  0.17046000  0.51487000  0.80549000  1.0
  H  H16  1  0.81044000  0.73867000  0.52214000  1.0
  H  H17  1  0.18956000  0.26133000  0.47786000  1.0
  H  H18  1  0.95205000  0.91053000  0.51985000  1.0
  H  H19  1  0.04795000  0.08947000  0.48015000  1.0
  H  H20  1  0.34657000  0.05307000  0.18779000  1.0
  H  H21  1  0.65343000  0.94693000  0.81221000  1.0
  H  H22  1  0.06856000  0.77802000  0.20329000  1.0
  H  H23  1  0.93145000  0.22198000  0.79671000  1.0
  H  H24  1  0.07202000  0.95851000  0.69935000  1.0
  H  H25  1  0.92798000  0.04149000  0.30065000  1.0
  H  H26  1  0.68035000  0.49405000  0.35737000  1.0
  H  H27  1  0.31965000  0.50595000  0.64263000  1.0
  H  H28  1  0.31437000  0.68551000  0.47572000  1.0
  H  H29  1  0.68563000  0.31449000  0.52428000  1.0
  H  H30  1  0.27963000  0.54280000  0.36400000  1.0
  H  H31  1  0.72037000  0.45720000  0.63600000  1.0
  H  H32  1  0.34837000  0.61355000  0.09966000  1.0
  H  H33  1  0.65163000  0.38645000  0.90034000  1.0
  H  H34  1  0.49814000  0.74802000  0.10644000  1.0
  H  H35  1  0.50186000  0.25197000  0.89356000  1.0
  C  C36  1  0.21003000  0.94025000  0.98458000  1.0
  C  C37  1  0.78997000  0.05975000  0.01542000  1.0
  C  C38  1  0.13784000  0.84617000  0.04243000  1.0
  C  C39  1  0.86216000  0.15383000  0.95756000  1.0
  C  C40  1  0.99542000  0.72778000  0.99647000  1.0
  C  C41  1  0.00458000  0.27221000  0.00353000  1.0
  C  C42  1  0.92800000  0.69989000  0.88964000  1.0
  C  C43  1  0.07200000  0.30011000  0.11036000  1.0
  C  C44  1  0.00141000  0.79029000  0.82939000  1.0
  C  C45  1  0.99859000  0.20971000  0.17061000  1.0
  C  C46  1  0.14249000  0.91121000  0.87726000  1.0
  C  C47  1  0.85751000  0.08879000  0.12273000  1.0
  C  C48  1  0.34959000  0.08275000  0.03696000  1.0
  C  C49  1  0.65041000  0.91725000  0.96304000  1.0
  C  C50  1  0.52019000  0.26546000  0.20474000  1.0
  C  C51  1  0.47981000  0.73454000  0.79526000  1.0
  C  C52  1  0.60139000  0.25084000  0.30767000  1.0
  C  C53  1  0.39861000  0.74916000  0.69233000  1.0
  C  C54  1  0.90869000  0.63724000  0.06105000  1.0
  C  C55  1  0.09131000  0.36276000  0.93895000  1.0
  C  C56  1  0.89132000  0.61336000  0.23929000  1.0
  C  C57  1  0.10868000  0.38665000  0.76071000  1.0
  C  C58  1  0.76810000  0.70799000  0.28830000  1.0
  C  C59  1  0.23190000  0.29202000  0.71170000  1.0
  C  C60  1  0.91365000  0.76485000  0.71983000  1.0
  C  C61  1  0.08635000  0.23515000  0.28017000  1.0
  C  C62  1  0.87628000  0.86374000  0.57099000  1.0
  C  C63  1  0.12372000  0.13626000  0.42901000  1.0
  C  C64  1  0.75197000  0.96842000  0.60027000  1.0
  C  C65  1  0.24803000  0.03158000  0.39973000  1.0
  N  N66  1  0.39940000  0.11995000  0.14441000  1.0
  N  N67  1  0.60060000  0.88005000  0.85559000  1.0
  N  N68  1  0.97345000  0.68011000  0.16712000  1.0
  N  N69  1  0.02655000  0.31990000  0.83289000  1.0
  N  N70  1  0.97487000  0.86179000  0.66508000  1.0
  N  N71  1  0.02513000  0.13821000  0.33491000  1.0
  O  O72  1  0.41225000  0.16727000  0.98484000  1.0
  O  O73  1  0.58775000  0.83273000  0.01516000  1.0
  O  O74  1  0.68884000  0.38835000  0.37985000  1.0
  O  O75  1  0.31116000  0.61165000  0.62016000  1.0
  O  O76  1  0.58853000  0.11893000  0.32457000  1.0
  O  O77  1  0.41147000  0.88107000  0.67543000  1.0
  O  O78  1  0.78357000  0.52810000  0.01987000  1.0
  O  O79  1  0.21643000  0.47190000  0.98013000  1.0
  O  O80  1  0.66523000  0.63838000  0.33441000  1.0
  O  O81  1  0.33477000  0.36162000  0.66559000  1.0
  O  O82  1  0.76782000  0.84896000  0.28395000  1.0
  O  O83  1  0.23218000  0.15104000  0.71606000  1.0
  O  O84  1  0.78259000  0.66158000  0.68177000  1.0
  O  O85  1  0.21742000  0.33842000  0.31823000  1.0
  O  O86  1  0.75508000  0.05532000  0.69895000  1.0
  O  O87  1  0.24492000  0.94468000  0.30105000  1.0
  O  O88  1  0.64779000  0.96345000  0.52367000  1.0
  O  O89  1  0.35221000  0.03655000  0.47634000  1.0
  O  O90  1  0.31268000  0.66466000  0.39782000  1.0
  O  O91  1  0.68732000  0.33534000  0.60218000  1.0
  O  O92  1  0.43079000  0.70487000  0.15254000  1.0
  O  O93  1  0.56921000  0.29513000  0.84746000  1.0
