# generated using pymatgen
data_Zn4H8C24S4O15
_symmetry_space_group_name_H-M   'P 1'
_cell_length_a   19.65160000
_cell_length_b   19.69090000
_cell_length_c   33.32900000
_cell_angle_alpha   79.20890000
_cell_angle_beta   79.32390000
_cell_angle_gamma   64.03920000
_symmetry_Int_Tables_number   1
_chemical_formula_structural   Zn4H8C24S4O15
_chemical_formula_sum   'Zn16 H32 C96 S16 O60'
_cell_volume   11312.30866519
_cell_formula_units_Z   4
loop_
 _symmetry_equiv_pos_site_id
 _symmetry_equiv_pos_as_xyz
  1  'x, y, z'
loop_
 _atom_site_type_symbol
 _atom_site_label
 _atom_site_symmetry_multiplicity
 _atom_site_fract_x
 _atom_site_fract_y
 _atom_site_fract_z
 _atom_site_occupancy
  Zn  Zn0  1  0.05683000  0.40055000  0.47862000  1.0
  Zn  Zn1  1  0.98394000  0.48348000  0.56017000  1.0
  Zn  Zn2  1  0.05855000  0.56206000  0.48292000  1.0
  Zn  Zn3  1  0.90017000  0.55451000  0.47921000  1.0
  Zn  Zn4  1  0.69479000  0.34968000  0.27102000  1.0
  Zn  Zn5  1  0.68960000  0.19008000  0.26688000  1.0
  Zn  Zn6  1  0.76897000  0.26530000  0.18960000  1.0
  Zn  Zn7  1  0.84824000  0.19506000  0.27233000  1.0
  Zn  Zn8  1  0.26641000  0.76688000  0.68976000  1.0
  Zn  Zn9  1  0.34876000  0.69549000  0.77158000  1.0
  Zn  Zn10  1  0.19314000  0.84839000  0.77216000  1.0
  Zn  Zn11  1  0.19133000  0.68778000  0.76700000  1.0
  Zn  Zn12  1  0.56043000  0.06012000  0.98328000  1.0
  Zn  Zn13  1  0.40120000  0.05508000  0.97818000  1.0
  Zn  Zn14  1  0.55511000  0.90136000  0.97827000  1.0
  Zn  Zn15  1  0.48351000  0.98307000  0.06034000  1.0
  H  H16  1  0.79653000  0.50195000  0.39924000  1.0
  H  H17  1  0.95369000  0.24819000  0.35091000  1.0
  H  H18  1  0.74781000  0.45431000  0.35099000  1.0
  H  H19  1  0.00239000  0.29593000  0.39911000  1.0
  H  H20  1  0.15259000  0.65266000  0.54921000  1.0
  H  H21  1  0.09771000  0.59763000  0.70067000  1.0
  H  H22  1  0.20087000  0.70081000  0.59751000  1.0
  H  H23  1  0.04947000  0.54952000  0.65231000  1.0
  H  H24  1  0.46238000  0.24070000  0.34126000  1.0
  H  H25  1  0.47991000  0.70236000  0.60124000  1.0
  H  H26  1  0.20217000  0.98011000  0.60154000  1.0
  H  H27  1  0.94870000  0.96952000  0.34821000  1.0
  H  H28  1  0.70068000  0.20065000  0.09766000  1.0
  H  H29  1  0.54929000  0.04934000  0.15249000  1.0
  H  H30  1  0.65247000  0.15257000  0.04935000  1.0
  H  H31  1  0.59749000  0.09749000  0.20076000  1.0
  H  H32  1  0.54799000  0.76940000  0.14862000  1.0
  H  H33  1  0.16217000  0.14153000  0.04069000  1.0
  H  H34  1  0.24752000  0.95422000  0.85085000  1.0
  H  H35  1  0.50204000  0.79612000  0.89911000  1.0
  H  H36  1  0.29600000  0.00215000  0.89908000  1.0
  H  H37  1  0.45350000  0.74830000  0.85086000  1.0
  H  H38  1  0.30093000  0.28054000  0.90180000  1.0
  H  H39  1  0.78768000  0.00936000  0.90875000  1.0
  H  H40  1  0.32586000  0.54275000  0.39819000  1.0
  H  H41  1  0.75649000  0.53967000  0.68445000  1.0
  H  H42  1  0.03987000  0.25646000  0.68422000  1.0
  H  H43  1  0.74284000  0.81580000  0.38807000  1.0
  H  H44  1  0.71052000  0.49333000  0.06555000  1.0
  H  H45  1  0.14839000  0.07577000  0.22073000  1.0
  H  H46  1  0.50714000  0.43400000  0.86205000  1.0
  H  H47  1  0.92418000  0.70711000  0.85178000  1.0
  C  C48  1  0.06125000  0.31653000  0.56223000  1.0
  C  C49  1  0.06933000  0.57003000  0.56933000  1.0
  C  C50  1  0.18396000  0.44081000  0.43876000  1.0
  C  C51  1  0.93609000  0.68422000  0.43873000  1.0
  C  C52  1  0.93097000  0.43009000  0.43091000  1.0
  C  C53  1  0.81659000  0.56064000  0.56251000  1.0
  C  C54  1  0.56588000  0.31114000  0.31126000  1.0
  C  C55  1  0.68094000  0.18011000  0.18071000  1.0
  C  C56  1  0.68964000  0.43291000  0.18751000  1.0
  C  C57  1  0.93559000  0.18715000  0.18969000  1.0
  C  C58  1  0.81893000  0.31991000  0.31959000  1.0
  C  C59  1  0.81126000  0.06596000  0.31154000  1.0
  C  C60  1  0.43370000  0.68936000  0.68831000  1.0
  C  C61  1  0.31897000  0.81999000  0.81931000  1.0
  C  C62  1  0.18881000  0.93378000  0.68860000  1.0
  C  C63  1  0.06583000  0.80919000  0.81140000  1.0
  C  C64  1  0.18108000  0.68025000  0.68048000  1.0
  C  C65  1  0.31396000  0.56554000  0.81145000  1.0
  C  C66  1  0.43822000  0.18392000  0.93863000  1.0
  C  C67  1  0.43056000  0.93049000  0.93053000  1.0
  C  C68  1  0.68405000  0.93904000  0.93865000  1.0
  C  C69  1  0.56129000  0.81604000  0.06159000  1.0
  C  C70  1  0.56956000  0.06946000  0.06945000  1.0
  C  C71  1  0.31584000  0.06150000  0.06114000  1.0
  C  C72  1  0.90225000  0.40167000  0.40195000  1.0
  C  C73  1  0.84795000  0.34853000  0.34817000  1.0
  C  C74  1  0.83045000  0.44652000  0.38843000  1.0
  C  C75  1  0.91980000  0.30369000  0.36165000  1.0
  C  C76  1  0.80347000  0.42013000  0.36169000  1.0
  C  C77  1  0.94678000  0.33013000  0.38836000  1.0
  C  C78  1  0.09831000  0.59848000  0.59807000  1.0
  C  C79  1  0.15209000  0.65187000  0.65182000  1.0
  C  C80  1  0.14097000  0.64105000  0.58242000  1.0
  C  C81  1  0.10940000  0.60930000  0.66747000  1.0
  C  C82  1  0.16770000  0.66764000  0.60916000  1.0
  C  C83  1  0.08267000  0.58271000  0.64073000  1.0
  C  C84  1  0.30446000  0.45610000  0.40103000  1.0
  C  C85  1  0.44572000  0.29747000  0.34906000  1.0
  C  C86  1  0.25845000  0.41666000  0.41395000  1.0
  C  C87  1  0.49117000  0.33668000  0.33631000  1.0
  C  C88  1  0.37772000  0.34068000  0.37263000  1.0
  C  C89  1  0.37269000  0.41233000  0.37737000  1.0
  C  C90  1  0.72663000  0.57544000  0.63037000  1.0
  C  C91  1  0.52450000  0.67343000  0.62140000  1.0
  C  C92  1  0.74258000  0.58515000  0.58763000  1.0
  C  C93  1  0.50875000  0.66383000  0.66373000  1.0
  C  C94  1  0.60373000  0.64131000  0.60913000  1.0
  C  C95  1  0.64693000  0.60774000  0.64254000  1.0
  C  C96  1  0.07554000  0.22652000  0.63019000  1.0
  C  C97  1  0.17332000  0.02464000  0.62161000  1.0
  C  C98  1  0.08533000  0.24249000  0.58742000  1.0
  C  C99  1  0.16367000  0.00886000  0.66396000  1.0
  C  C100  1  0.14132000  0.10376000  0.60920000  1.0
  C  C101  1  0.10775000  0.14693000  0.64251000  1.0
  C  C102  1  0.84189000  0.80062000  0.39715000  1.0
  C  C103  1  0.90410000  0.94937000  0.35263000  1.0
  C  C104  1  0.91082000  0.75837000  0.41368000  1.0
  C  C105  1  0.83569000  0.99110000  0.33633000  1.0
  C  C106  1  0.90666000  0.87995000  0.37476000  1.0
  C  C107  1  0.83980000  0.87021000  0.37488000  1.0
  C  C108  1  0.65186000  0.15173000  0.15195000  1.0
  C  C109  1  0.59812000  0.09821000  0.09816000  1.0
  C  C110  1  0.66747000  0.16749000  0.10929000  1.0
  C  C111  1  0.58244000  0.08254000  0.14083000  1.0
  C  C112  1  0.64075000  0.14088000  0.08254000  1.0
  C  C113  1  0.60914000  0.10918000  0.16756000  1.0
  C  C114  1  0.67470000  0.52317000  0.11960000  1.0
  C  C115  1  0.57684000  0.72496000  0.12850000  1.0
  C  C116  1  0.66501000  0.50697000  0.16235000  1.0
  C  C117  1  0.58646000  0.74095000  0.08616000  1.0
  C  C118  1  0.60885000  0.64579000  0.14079000  1.0
  C  C119  1  0.64240000  0.60282000  0.10739000  1.0
  C  C120  1  0.08237000  0.12336000  0.17862000  1.0
  C  C121  1  0.17010000  0.12483000  0.07306000  1.0
  C  C122  1  0.01027000  0.16237000  0.16523000  1.0
  C  C123  1  0.24148000  0.08609000  0.08640000  1.0
  C  C124  1  0.11202000  0.13853000  0.10652000  1.0
  C  C125  1  0.14049000  0.10982000  0.14484000  1.0
  C  C126  1  0.34782000  0.84863000  0.84805000  1.0
  C  C127  1  0.40181000  0.90194000  0.90182000  1.0
  C  C128  1  0.30317000  0.92018000  0.86158000  1.0
  C  C129  1  0.44644000  0.83029000  0.88834000  1.0
  C  C130  1  0.33001000  0.94671000  0.88830000  1.0
  C  C131  1  0.41959000  0.80382000  0.86159000  1.0
  C  C132  1  0.40814000  0.44903000  0.85290000  1.0
  C  C133  1  0.34562000  0.30054000  0.89743000  1.0
  C  C134  1  0.33921000  0.49130000  0.83636000  1.0
  C  C135  1  0.41397000  0.25869000  0.91376000  1.0
  C  C136  1  0.34325000  0.36984000  0.87523000  1.0
  C  C137  1  0.41019000  0.37944000  0.87514000  1.0
  C  C138  1  0.94534000  0.79390000  0.84900000  1.0
  C  C139  1  0.80421000  0.95261000  0.90094000  1.0
  C  C140  1  0.99129000  0.83339000  0.83608000  1.0
  C  C141  1  0.75875000  0.91345000  0.91371000  1.0
  C  C142  1  0.87214000  0.90935000  0.87737000  1.0
  C  C143  1  0.87712000  0.83769000  0.87266000  1.0
  S  S144  1  0.29882000  0.32678000  0.39719000  1.0
  S  S145  1  0.45161000  0.42648000  0.35284000  1.0
  S  S146  1  0.66064000  0.63335000  0.56273000  1.0
  S  S147  1  0.59006000  0.61562000  0.68905000  1.0
  S  S148  1  0.13347000  0.16061000  0.56272000  1.0
  S  S149  1  0.11550000  0.09010000  0.68910000  1.0
  S  S150  1  0.97230000  0.80373000  0.40194000  1.0
  S  S151  1  0.77384000  0.94640000  0.34776000  1.0
  S  S152  1  0.61675000  0.58872000  0.18719000  1.0
  S  S153  1  0.63458000  0.65987000  0.06088000  1.0
  S  S154  1  0.01395000  0.18223000  0.11178000  1.0
  S  S155  1  0.23867000  0.06592000  0.13971000  1.0
  S  S156  1  0.27766000  0.44606000  0.84806000  1.0
  S  S157  1  0.47602000  0.30318000  0.90231000  1.0
  S  S158  1  0.95101000  0.92326000  0.85281000  1.0
  S  S159  1  0.79821000  0.82361000  0.89722000  1.0
  O  O160  1  0.00025000  0.49973000  0.49982000  1.0
  O  O161  1  0.07796000  0.31523000  0.52316000  1.0
  O  O162  1  0.03147000  0.53123000  0.58576000  1.0
  O  O163  1  0.15534000  0.50696000  0.45027000  1.0
  O  O164  1  0.02615000  0.37531000  0.58114000  1.0
  O  O165  1  0.15433000  0.39242000  0.44661000  1.0
  O  O166  1  0.08472000  0.58696000  0.53090000  1.0
  O  O167  1  0.00294000  0.65836000  0.44995000  1.0
  O  O168  1  0.88684000  0.49526000  0.44230000  1.0
  O  O169  1  0.89025000  0.65216000  0.44720000  1.0
  O  O170  1  0.99692000  0.38686000  0.44182000  1.0
  O  O171  1  0.87569000  0.52589000  0.58135000  1.0
  O  O172  1  0.81486000  0.57670000  0.52343000  1.0
  O  O173  1  0.74975000  0.25021000  0.25001000  1.0
  O  O174  1  0.59684000  0.35816000  0.30297000  1.0
  O  O175  1  0.66402000  0.16432000  0.21914000  1.0
  O  O176  1  0.72553000  0.37390000  0.16881000  1.0
  O  O177  1  0.59283000  0.24470000  0.30011000  1.0
  O  O178  1  0.67255000  0.43454000  0.22655000  1.0
  O  O179  1  0.72018000  0.21760000  0.16447000  1.0
  O  O180  1  0.87788000  0.22234000  0.16927000  1.0
  O  O181  1  0.86211000  0.25387000  0.30895000  1.0
  O  O182  1  0.93411000  0.17186000  0.22868000  1.0
  O  O183  1  0.75345000  0.36355000  0.30810000  1.0
  O  O184  1  0.74466000  0.09336000  0.30001000  1.0
  O  O185  1  0.85832000  0.09660000  0.30381000  1.0
  O  O186  1  0.24973000  0.75028000  0.75004000  1.0
  O  O187  1  0.37554000  0.72484000  0.66867000  1.0
  O  O188  1  0.36298000  0.75468000  0.80806000  1.0
  O  O189  1  0.17230000  0.93367000  0.72762000  1.0
  O  O190  1  0.43401000  0.67344000  0.72734000  1.0
  O  O191  1  0.22456000  0.87593000  0.66890000  1.0
  O  O192  1  0.25296000  0.86309000  0.80845000  1.0
  O  O193  1  0.09535000  0.85772000  0.80367000  1.0
  O  O194  1  0.16573000  0.66332000  0.71895000  1.0
  O  O195  1  0.09479000  0.74303000  0.79988000  1.0
  O  O196  1  0.21903000  0.71920000  0.66416000  1.0
  O  O197  1  0.35987000  0.59758000  0.80318000  1.0
  O  O198  1  0.24715000  0.59170000  0.80016000  1.0
  O  O199  1  0.50004000  0.99995000  0.00000000  1.0
  O  O200  1  0.50502000  0.15626000  0.94989000  1.0
  O  O201  1  0.38710000  0.99613000  0.94163000  1.0
  O  O202  1  0.65323000  0.89187000  0.94687000  1.0
  O  O203  1  0.39086000  0.15356000  0.94670000  1.0
  O  O204  1  0.65686000  0.00547000  0.94979000  1.0
  O  O205  1  0.49633000  0.88698000  0.94169000  1.0
  O  O206  1  0.57766000  0.81607000  0.02256000  1.0
  O  O207  1  0.53119000  0.03093000  0.08567000  1.0
  O  O208  1  0.52564000  0.87400000  0.08121000  1.0
  O  O209  1  0.58580000  0.08567000  0.03098000  1.0
  O  O210  1  0.31535000  0.07812000  0.02224000  1.0
  O  O211  1  0.37436000  0.02553000  0.08070000  1.0
  O  O212  1  0.28527000  0.52689000  0.41035000  1.0
  O  O213  1  0.78112000  0.53964000  0.65626000  1.0
  O  O214  1  0.03979000  0.28094000  0.65597000  1.0
  O  O215  1  0.78518000  0.77707000  0.40214000  1.0
  O  O216  1  0.71045000  0.46883000  0.09379000  1.0
  O  O217  1  0.09383000  0.10182000  0.21879000  1.0
  O  O218  1  0.46484000  0.47263000  0.84791000  1.0
  O  O219  1  0.96473000  0.72306000  0.83972000  1.0
