# generated using pymatgen
data_CdH9C7N7O
_symmetry_space_group_name_H-M   'P 1'
_cell_length_a   3.70583000
_cell_length_b   16.59880000
_cell_length_c   16.62800000
_cell_angle_alpha   89.99980000
_cell_angle_beta   90.00020000
_cell_angle_gamma   89.99990000
_symmetry_Int_Tables_number   1
_chemical_formula_structural   CdH9C7N7O
_chemical_formula_sum   'Cd4 H36 C28 N28 O4'
_cell_volume   1022.82703992
_cell_formula_units_Z   4
loop_
 _symmetry_equiv_pos_site_id
 _symmetry_equiv_pos_as_xyz
  1  'x, y, z'
loop_
 _atom_site_type_symbol
 _atom_site_label
 _atom_site_symmetry_multiplicity
 _atom_site_fract_x
 _atom_site_fract_y
 _atom_site_fract_z
 _atom_site_occupancy
  Cd  Cd0  1  0.48354000  0.94252000  0.08017000  1.0
  Cd  Cd1  1  0.98354000  0.05748000  0.91983000  1.0
  Cd  Cd2  1  0.48354000  0.44252000  0.41983000  1.0
  Cd  Cd3  1  0.98355000  0.55748000  0.58017000  1.0
  H  H4  1  0.88160000  0.04004000  0.43713000  1.0
  H  H5  1  0.38160000  0.95996000  0.56287000  1.0
  H  H6  1  0.88160000  0.54004000  0.06287000  1.0
  H  H7  1  0.38160000  0.45996000  0.93713000  1.0
  H  H8  1  0.97327000  0.89512000  0.48020000  1.0
  H  H9  1  0.47326000  0.10488000  0.51980000  1.0
  H  H10  1  0.97325000  0.39512000  0.01980000  1.0
  H  H11  1  0.47325000  0.60488000  0.98020000  1.0
  H  H12  1  0.76016000  0.78589000  0.38872000  1.0
  H  H13  1  0.26016000  0.21411000  0.61127000  1.0
  H  H14  1  0.76013000  0.28589000  0.11127000  1.0
  H  H15  1  0.26014000  0.71411000  0.88873000  1.0
  H  H16  1  0.58176000  0.80480000  0.18733000  1.0
  H  H17  1  0.08176000  0.19520000  0.81267000  1.0
  H  H18  1  0.58174000  0.30480000  0.31267000  1.0
  H  H19  1  0.08175000  0.69520000  0.68733000  1.0
  H  H20  1  0.14444000  0.81525000  0.22685000  1.0
  H  H21  1  0.64444000  0.18475000  0.77315000  1.0
  H  H22  1  0.14443000  0.31525000  0.27315000  1.0
  H  H23  1  0.64444000  0.68475000  0.72685000  1.0
  H  H24  1  0.44945000  0.74471000  0.27140000  1.0
  H  H25  1  0.94945000  0.25529000  0.72860000  1.0
  H  H26  1  0.44943000  0.24471000  0.22860000  1.0
  H  H27  1  0.94945000  0.75529000  0.77140000  1.0
  H  H28  1  0.24942000  0.10000000  0.29195000  1.0
  H  H29  1  0.74942000  0.90000000  0.70805000  1.0
  H  H30  1  0.24942000  0.60000000  0.20805000  1.0
  H  H31  1  0.74942000  0.40000000  0.79195000  1.0
  H  H32  1  0.66487000  0.10307000  0.24161000  1.0
  H  H33  1  0.16487000  0.89693000  0.75838000  1.0
  H  H34  1  0.66487000  0.60307000  0.25839000  1.0
  H  H35  1  0.16489000  0.39693000  0.74161000  1.0
  H  H36  1  0.64100000  0.13469000  0.34447000  1.0
  H  H37  1  0.14100000  0.86531000  0.65553000  1.0
  H  H38  1  0.64101000  0.63469000  0.15553000  1.0
  H  H39  1  0.14101000  0.36531000  0.84447000  1.0
  C  C40  1  0.61802000  0.00807000  0.32798000  1.0
  C  C41  1  0.11802000  0.99193000  0.67202000  1.0
  C  C42  1  0.61802000  0.50807000  0.17202000  1.0
  C  C43  1  0.11802000  0.49193000  0.82798000  1.0
  C  C44  1  0.79001000  0.98982000  0.40019000  1.0
  C  C45  1  0.29000000  0.01018000  0.59981000  1.0
  C  C46  1  0.79000000  0.48982000  0.09981000  1.0
  C  C47  1  0.29001000  0.51018000  0.90019000  1.0
  C  C48  1  0.84208000  0.91022000  0.42365000  1.0
  C  C49  1  0.34208000  0.08978000  0.57635000  1.0
  C  C50  1  0.84207000  0.41022000  0.07635000  1.0
  C  C51  1  0.34207000  0.58978000  0.92365000  1.0
  C  C52  1  0.72279000  0.84898000  0.37313000  1.0
  C  C53  1  0.22278000  0.15102000  0.62687000  1.0
  C  C54  1  0.72277000  0.34898000  0.12687000  1.0
  C  C55  1  0.22277000  0.65102000  0.87313000  1.0
  C  C56  1  0.55705000  0.86667000  0.30031000  1.0
  C  C57  1  0.05705000  0.13333000  0.69969000  1.0
  C  C58  1  0.55703000  0.36667000  0.19969000  1.0
  C  C59  1  0.05704000  0.63333000  0.80031000  1.0
  C  C60  1  0.42578000  0.80411000  0.24359000  1.0
  C  C61  1  0.92578000  0.19589000  0.75641000  1.0
  C  C62  1  0.42576000  0.30411000  0.25641000  1.0
  C  C63  1  0.92578000  0.69589000  0.74359000  1.0
  C  C64  1  0.54022000  0.09119000  0.30037000  1.0
  C  C65  1  0.04022000  0.90881000  0.69964000  1.0
  C  C66  1  0.54022000  0.59119000  0.19964000  1.0
  C  C67  1  0.04023000  0.40881000  0.80036000  1.0
  N  N68  1  0.97622000  0.85712000  0.06255000  1.0
  N  N69  1  0.47622000  0.14288000  0.93745000  1.0
  N  N70  1  0.97622000  0.35712000  0.43746000  1.0
  N  N71  1  0.47623000  0.64288000  0.56255000  1.0
  N  N72  1  0.97252000  0.78409000  0.06064000  1.0
  N  N73  1  0.47252000  0.21591000  0.93936000  1.0
  N  N74  1  0.97252000  0.28409000  0.43936000  1.0
  N  N75  1  0.47252000  0.71591000  0.56064000  1.0
  N  N76  1  0.96995000  0.71403000  0.05918000  1.0
  N  N77  1  0.46996000  0.28597000  0.94082000  1.0
  N  N78  1  0.96996000  0.21403000  0.44082000  1.0
  N  N79  1  0.46996000  0.78597000  0.55918000  1.0
  N  N80  1  0.48026000  0.96388000  0.93372000  1.0
  N  N81  1  0.98026000  0.03612000  0.06628000  1.0
  N  N82  1  0.48026000  0.46388000  0.56628000  1.0
  N  N83  1  0.98026000  0.53612000  0.43372000  1.0
  N  N84  1  0.50885000  0.90022000  0.89796000  1.0
  N  N85  1  0.00885000  0.09978000  0.10204000  1.0
  N  N86  1  0.50885000  0.40022000  0.60204000  1.0
  N  N87  1  0.00885000  0.59978000  0.39796000  1.0
  N  N88  1  0.53919000  0.83926000  0.86471000  1.0
  N  N89  1  0.03919000  0.16074000  0.13528000  1.0
  N  N90  1  0.53919000  0.33926000  0.63529000  1.0
  N  N91  1  0.03920000  0.66074000  0.36471000  1.0
  N  N92  1  0.50766000  0.94593000  0.27934000  1.0
  N  N93  1  0.00766000  0.05407000  0.72066000  1.0
  N  N94  1  0.50766000  0.44593000  0.22066000  1.0
  N  N95  1  0.00766000  0.55407000  0.77934000  1.0
  O  O96  1  0.33157000  0.96408000  0.21221000  1.0
  O  O97  1  0.83157000  0.03592000  0.78778000  1.0
  O  O98  1  0.33156000  0.46408000  0.28778000  1.0
  O  O99  1  0.83157000  0.53592000  0.71222000  1.0
