# generated using pymatgen
data_Zn4H39C39N9O16
_symmetry_space_group_name_H-M   'P 1'
_cell_length_a   18.55110000
_cell_length_b   19.18040000
_cell_length_c   19.94470000
_cell_angle_alpha   62.79360000
_cell_angle_beta   64.66820000
_cell_angle_gamma   61.29970000
_symmetry_Int_Tables_number   1
_chemical_formula_structural   Zn4H39C39N9O16
_chemical_formula_sum   'Zn8 H78 C78 N18 O32'
_cell_volume   5335.11593319
_cell_formula_units_Z   2
loop_
 _symmetry_equiv_pos_site_id
 _symmetry_equiv_pos_as_xyz
  1  'x, y, z'
loop_
 _atom_site_type_symbol
 _atom_site_label
 _atom_site_symmetry_multiplicity
 _atom_site_fract_x
 _atom_site_fract_y
 _atom_site_fract_z
 _atom_site_occupancy
  Zn  Zn0  1  0.08837000  0.90289000  0.00391000  1.0
  Zn  Zn1  1  0.12229000  0.06104000  0.85576000  1.0
  Zn  Zn2  1  0.06613000  0.06753000  0.03001000  1.0
  Zn  Zn3  1  0.93289000  0.07322000  0.96707000  1.0
  Zn  Zn4  1  0.50971000  0.63693000  0.41730000  1.0
  Zn  Zn5  1  0.54261000  0.49693000  0.58263000  1.0
  Zn  Zn6  1  0.67095000  0.47066000  0.41890000  1.0
  Zn  Zn7  1  0.48465000  0.46335000  0.47294000  1.0
  H  H8  1  0.31374000  0.76372000  0.84971000  1.0
  H  H9  1  0.33980000  0.85220000  0.77421000  1.0
  H  H10  1  0.18790000  0.88117000  0.75213000  1.0
  H  H11  1  0.23162000  0.76962000  0.78285000  1.0
  H  H12  1  0.40094000  0.87840000  0.53877000  1.0
  H  H13  1  0.24050000  0.10481000  0.39051000  1.0
  H  H14  1  0.10454000  0.22780000  0.40572000  1.0
  H  H15  1  0.09967000  0.18038000  0.63187000  1.0
  H  H16  1  0.22930000  0.05312000  0.62876000  1.0
  H  H17  1  0.43746000  0.77101000  0.62159000  1.0
  H  H18  1  0.39288000  0.70668000  0.71102000  1.0
  H  H19  1  0.32001000  0.78340000  0.57002000  1.0
  H  H20  1  0.30695000  0.69653000  0.65501000  1.0
  H  H21  1  0.14528000  0.78775000  0.23528000  1.0
  H  H22  1  0.13076000  0.88292000  0.24397000  1.0
  H  H23  1  0.28357000  0.86410000  0.13206000  1.0
  H  H24  1  0.29410000  0.75671000  0.17893000  1.0
  H  H25  1  0.29129000  0.87953000  0.34192000  1.0
  H  H26  1  0.38750000  0.09449000  0.18897000  1.0
  H  H27  1  0.39872000  0.19271000  0.05086000  1.0
  H  H28  1  0.23304000  0.12658000  0.02326000  1.0
  H  H29  1  0.21859000  0.02544000  0.15528000  1.0
  H  H30  1  0.28228000  0.77065000  0.37193000  1.0
  H  H31  1  0.19768000  0.77054000  0.35323000  1.0
  H  H32  1  0.34669000  0.66356000  0.27329000  1.0
  H  H33  1  0.27387000  0.63121000  0.36186000  1.0
  H  H34  1  0.88213000  0.80975000  0.05107000  1.0
  H  H35  1  0.79568000  0.90577000  0.06099000  1.0
  H  H36  1  0.84865000  0.86886000  0.18364000  1.0
  H  H37  1  0.89044000  0.76437000  0.18189000  1.0
  H  H38  1  0.59091000  0.85874000  0.26178000  1.0
  H  H39  1  0.47072000  0.08548000  0.33883000  1.0
  H  H40  1  0.50939000  0.20429000  0.31772000  1.0
  H  H41  1  0.71033000  0.15715000  0.12518000  1.0
  H  H42  1  0.68265000  0.03750000  0.13876000  1.0
  H  H43  1  0.67040000  0.76878000  0.21663000  1.0
  H  H44  1  0.78005000  0.71667000  0.17987000  1.0
  H  H45  1  0.71475000  0.72785000  0.34472000  1.0
  H  H46  1  0.80542000  0.64942000  0.30725000  1.0
  H  H47  1  0.37755000  0.35802000  0.76850000  1.0
  H  H48  1  0.43646000  0.27719000  0.72675000  1.0
  H  H49  1  0.29627000  0.38510000  0.65493000  1.0
  H  H50  1  0.25205000  0.37036000  0.75691000  1.0
  H  H51  1  0.31851000  0.12530000  0.71597000  1.0
  H  H52  1  0.30669000  0.17012000  0.47902000  1.0
  H  H53  1  0.31917000  0.27626000  0.34653000  1.0
  H  H54  1  0.43312000  0.37826000  0.39910000  1.0
  H  H55  1  0.41992000  0.28098000  0.53493000  1.0
  H  H56  1  0.33240000  0.13150000  0.80526000  1.0
  H  H57  1  0.35640000  0.19667000  0.82579000  1.0
  H  H58  1  0.17958000  0.27970000  0.84076000  1.0
  H  H59  1  0.22920000  0.21731000  0.91723000  1.0
  H  H60  1  0.84762000  0.30090000  0.56917000  1.0
  H  H61  1  0.76509000  0.26048000  0.62346000  1.0
  H  H62  1  0.72134000  0.36680000  0.70461000  1.0
  H  H63  1  0.83355000  0.33821000  0.67338000  1.0
  H  H64  1  0.78928000  0.12292000  0.88307000  1.0
  H  H65  1  0.56307000  0.21457000  0.07240000  1.0
  H  H66  1  0.41930000  0.32809000  0.08278000  1.0
  H  H67  1  0.43124000  0.37868000  0.85386000  1.0
  H  H68  1  0.57661000  0.27186000  0.83215000  1.0
  H  H69  1  0.84567000  0.10192000  0.78158000  1.0
  H  H70  1  0.85575000  0.15782000  0.68153000  1.0
  H  H71  1  0.95845000  0.21084000  0.68211000  1.0
  H  H72  1  0.99509000  0.10504000  0.69328000  1.0
  H  H73  1  0.61826000  0.29364000  0.33047000  1.0
  H  H74  1  0.71159000  0.25375000  0.36033000  1.0
  H  H75  1  0.74408000  0.38591000  0.23789000  1.0
  H  H76  1  0.68059000  0.37146000  0.20204000  1.0
  H  H77  1  0.94122000  0.15535000  0.18612000  1.0
  H  H78  1  0.15405000  0.20949000  0.17162000  1.0
  H  H79  1  0.17779000  0.30562000  0.20604000  1.0
  H  H80  1  0.93909000  0.35233000  0.36332000  1.0
  H  H81  1  0.90299000  0.26332000  0.33196000  1.0
  H  H82  1  0.82805000  0.15072000  0.20826000  1.0
  H  H83  1  0.72349000  0.22142000  0.20493000  1.0
  H  H84  1  0.84891000  0.29316000  0.07249000  1.0
  H  H85  1  0.76395000  0.27678000  0.07003000  1.0
  C  C86  1  0.22229000  0.88425000  0.85865000  1.0
  C  C87  1  0.28828000  0.82697000  0.81077000  1.0
  C  C88  1  0.24724000  0.82673000  0.75690000  1.0
  C  C89  1  0.30548000  0.83367000  0.67579000  1.0
  C  C90  1  0.32920000  0.99998000  0.49650000  1.0
  C  C91  1  0.24462000  0.06846000  0.50918000  1.0
  C  C92  1  0.20942000  0.11924000  0.44538000  1.0
  C  C93  1  0.13380000  0.18758000  0.45423000  1.0
  C  C94  1  0.13029000  0.16113000  0.57954000  1.0
  C  C95  1  0.20345000  0.08951000  0.57832000  1.0
  C  C96  1  0.37834000  0.75731000  0.65745000  1.0
  C  C97  1  0.35213000  0.72880000  0.61291000  1.0
  C  C98  1  0.42602000  0.66984000  0.56981000  1.0
  C  C99  1  0.13232000  0.89547000  0.13279000  1.0
  C  C100  1  0.16329000  0.84352000  0.20585000  1.0
  C  C101  1  0.26154000  0.81888000  0.18678000  1.0
  C  C102  1  0.28111000  0.82325000  0.25053000  1.0
  C  C103  1  0.29527000  0.99411000  0.26613000  1.0
  C  C104  1  0.30402000  0.05006000  0.18272000  1.0
  C  C105  1  0.35345000  0.09991000  0.15276000  1.0
  C  C106  1  0.35918000  0.15447000  0.07600000  1.0
  C  C107  1  0.26883000  0.11748000  0.05991000  1.0
  C  C108  1  0.26042000  0.05967000  0.13484000  1.0
  C  C109  1  0.26643000  0.76028000  0.33093000  1.0
  C  C110  1  0.31593000  0.66764000  0.33308000  1.0
  C  C111  1  0.38702000  0.62286000  0.37301000  1.0
  C  C112  1  0.91719000  0.90765000  0.03864000  1.0
  C  C113  1  0.85638000  0.86102000  0.07491000  1.0
  C  C114  1  0.84196000  0.82673000  0.16536000  1.0
  C  C115  1  0.75303000  0.82527000  0.20577000  1.0
  C  C116  1  0.55036000  0.98010000  0.25555000  1.0
  C  C117  1  0.57552000  0.04989000  0.24211000  1.0
  C  C118  1  0.52509000  0.09934000  0.29162000  1.0
  C  C119  1  0.54683000  0.16532000  0.27953000  1.0
  C  C120  1  0.65826000  0.13930000  0.17329000  1.0
  C  C121  1  0.64329000  0.07109000  0.18096000  1.0
  C  C122  1  0.73421000  0.75010000  0.22231000  1.0
  C  C123  1  0.73936000  0.69020000  0.30619000  1.0
  C  C124  1  0.68444000  0.63750000  0.34063000  1.0
  C  C125  1  0.43459000  0.39522000  0.64571000  1.0
  C  C126  1  0.38872000  0.34133000  0.71823000  1.0
  C  C127  1  0.30674000  0.34391000  0.71272000  1.0
  C  C128  1  0.31152000  0.25862000  0.72424000  1.0
  C  C129  1  0.35013000  0.15216000  0.59805000  1.0
  C  C130  1  0.36039000  0.21751000  0.51910000  1.0
  C  C131  1  0.33353000  0.21645000  0.46387000  1.0
  C  C132  1  0.34132000  0.27564000  0.38961000  1.0
  C  C133  1  0.40377000  0.33221000  0.41890000  1.0
  C  C134  1  0.39712000  0.27690000  0.49539000  1.0
  C  C135  1  0.31048000  0.19585000  0.80519000  1.0
  C  C136  1  0.22275000  0.21641000  0.86557000  1.0
  C  C137  1  0.17545000  0.15816000  0.89227000  1.0
  C  C138  1  0.72162000  0.38705000  0.56460000  1.0
  C  C139  1  0.78360000  0.31327000  0.60984000  1.0
  C  C140  1  0.78098000  0.31868000  0.68541000  1.0
  C  C141  1  0.78722000  0.23728000  0.75178000  1.0
  C  C142  1  0.66726000  0.16486000  0.94741000  1.0
  C  C143  1  0.58249000  0.23487000  0.95081000  1.0
  C  C144  1  0.53631000  0.25093000  0.02226000  1.0
  C  C145  1  0.45586000  0.31375000  0.02789000  1.0
  C  C146  1  0.46249000  0.34188000  0.90134000  1.0
  C  C147  1  0.54417000  0.28172000  0.88890000  1.0
  C  C148  1  0.85744000  0.15834000  0.73582000  1.0
  C  C149  1  0.94763000  0.15211000  0.72266000  1.0
  C  C150  1  0.97251000  0.12762000  0.79562000  1.0
  C  C151  1  0.63168000  0.37269000  0.37014000  1.0
  C  C152  1  0.66900000  0.31037000  0.32667000  1.0
  C  C153  1  0.72171000  0.34037000  0.24168000  1.0
  C  C154  1  0.79854000  0.26943000  0.21768000  1.0
  C  C155  1  0.01540000  0.17208000  0.22418000  1.0
  C  C156  1  0.02590000  0.22954000  0.24814000  1.0
  C  C157  1  0.10444000  0.24133000  0.21350000  1.0
  C  C158  1  0.11747000  0.29454000  0.23331000  1.0
  C  C159  1  0.98523000  0.32072000  0.31995000  1.0
  C  C160  1  0.96500000  0.27014000  0.30315000  1.0
  C  C161  1  0.79017000  0.21732000  0.18536000  1.0
  C  C162  1  0.81873000  0.24673000  0.09416000  1.0
  C  C163  1  0.88458000  0.17693000  0.06026000  1.0
  N  N164  1  0.28778000  0.90783000  0.62536000  1.0
  N  N165  1  0.34152000  0.92163000  0.55263000  1.0
  N  N166  1  0.09408000  0.20943000  0.51984000  1.0
  N  N167  1  0.29659000  0.88975000  0.23110000  1.0
  N  N168  1  0.29996000  0.91335000  0.28358000  1.0
  N  N169  1  0.31782000  0.16412000  0.02919000  1.0
  N  N170  1  0.69724000  0.89290000  0.22196000  1.0
  N  N171  1  0.61351000  0.90316000  0.25146000  1.0
  N  N172  1  0.61253000  0.18567000  0.22171000  1.0
  N  N173  1  0.31989000  0.24725000  0.66191000  1.0
  N  N174  1  0.32908000  0.17174000  0.66421000  1.0
  N  N175  1  0.37587000  0.33329000  0.36632000  1.0
  N  N176  1  0.72819000  0.24221000  0.81639000  1.0
  N  N177  1  0.73188000  0.17104000  0.87943000  1.0
  N  N178  1  0.41840000  0.35912000  0.96891000  1.0
  N  N179  1  0.86800000  0.25787000  0.22836000  1.0
  N  N180  1  0.93914000  0.19211000  0.21213000  1.0
  N  N181  1  0.05940000  0.33421000  0.28563000  1.0
  O  O182  1  0.05388000  0.02609000  0.96325000  1.0
  O  O183  1  0.20614000  0.96273000  0.82283000  1.0
  O  O184  1  0.18673000  0.85009000  0.92925000  1.0
  O  O185  1  0.38736000  0.01049000  0.43660000  1.0
  O  O186  1  0.47074000  0.60081000  0.61017000  1.0
  O  O187  1  0.43689000  0.69501000  0.49616000  1.0
  O  O188  1  0.12491000  0.97251000  0.10633000  1.0
  O  O189  1  0.11723000  0.85878000  0.10336000  1.0
  O  O190  1  0.28421000  0.01696000  0.31940000  1.0
  O  O191  1  0.39807000  0.54658000  0.41517000  1.0
  O  O192  1  0.43036000  0.66504000  0.36042000  1.0
  O  O193  1  0.88273000  0.98611000  0.02928000  1.0
  O  O194  1  0.99702000  0.86536000  0.02366000  1.0
  O  O195  1  0.47543000  0.98810000  0.27180000  1.0
  O  O196  1  0.72152000  0.55840000  0.35768000  1.0
  O  O197  1  0.60419000  0.67809000  0.35019000  1.0
  O  O198  1  0.42561000  0.41032000  0.57992000  1.0
  O  O199  1  0.48065000  0.41899000  0.65718000  1.0
  O  O200  1  0.35822000  0.08114000  0.60587000  1.0
  O  O201  1  0.12788000  0.14636000  0.96220000  1.0
  O  O202  1  0.18544000  0.12697000  0.84293000  1.0
  O  O203  1  0.65751000  0.43736000  0.59931000  1.0
  O  O204  1  0.73779000  0.38957000  0.49476000  1.0
  O  O205  1  0.68023000  0.10059000  0.00431000  1.0
  O  O206  1  0.04590000  0.12601000  0.78531000  1.0
  O  O207  1  0.91929000  0.10883000  0.86172000  1.0
  O  O208  1  0.67773000  0.41281000  0.35606000  1.0
  O  O209  1  0.55853000  0.37829000  0.41919000  1.0
  O  O210  1  0.07525000  0.10827000  0.21149000  1.0
  O  O211  1  0.86878000  0.16750000  0.00932000  1.0
  O  O212  1  0.95200000  0.13317000  0.08464000  1.0
  O  O213  1  0.55099000  0.51703000  0.47435000  1.0
