# generated using pymatgen
data_CuSiH12C24N4(Cl2F3)2
_symmetry_space_group_name_H-M   'P 1'
_cell_length_a   7.98157000
_cell_length_b   13.75400000
_cell_length_c   13.75440000
_cell_angle_alpha   90.02410000
_cell_angle_beta   90.33990000
_cell_angle_gamma   89.65920000
_symmetry_Int_Tables_number   1
_chemical_formula_structural   CuSiH12C24N4(Cl2F3)2
_chemical_formula_sum   'Cu1 Si1 H12 C24 N4 Cl4 F6'
_cell_volume   1509.88419824
_cell_formula_units_Z   1
loop_
 _symmetry_equiv_pos_site_id
 _symmetry_equiv_pos_as_xyz
  1  'x, y, z'
loop_
 _atom_site_type_symbol
 _atom_site_label
 _atom_site_symmetry_multiplicity
 _atom_site_fract_x
 _atom_site_fract_y
 _atom_site_fract_z
 _atom_site_occupancy
  Cu  Cu0  1  0.49999000  0.49999000  0.50000000  1.0
  Si  Si1  1  0.99999000  0.50000000  0.50000000  1.0
  H  H2  1  0.75908000  0.65612000  0.49998000  1.0
  H  H3  1  0.76699000  0.83672000  0.49997000  1.0
  H  H4  1  0.23597000  0.65631000  0.50008000  1.0
  H  H5  1  0.76400000  0.34367000  0.49994000  1.0
  H  H6  1  0.24090000  0.34386000  0.49995000  1.0
  H  H7  1  0.23297000  0.16325000  0.49998000  1.0
  H  H8  1  0.75907000  0.50003000  0.34386000  1.0
  H  H9  1  0.76700000  0.50003000  0.16326000  1.0
  H  H10  1  0.23597000  0.49993000  0.34367000  1.0
  H  H11  1  0.76400000  0.50009000  0.65631000  1.0
  H  H12  1  0.24090000  0.49988000  0.65613000  1.0
  H  H13  1  0.23298000  0.49991000  0.83673000  1.0
  C  C14  1  0.64376000  0.69871000  0.50004000  1.0
  C  C15  1  0.64713000  0.79938000  0.49999000  1.0
  C  C16  1  0.49649000  0.85324000  0.49999000  1.0
  C  C17  1  0.34590000  0.79960000  0.50000000  1.0
  C  C18  1  0.35131000  0.69829000  0.50004000  1.0
  C  C19  1  0.49772000  0.95570000  0.49998000  1.0
  C  C20  1  0.50227000  0.04427000  0.50000000  1.0
  C  C21  1  0.50349000  0.14674000  0.49998000  1.0
  C  C22  1  0.65408000  0.20038000  0.50000000  1.0
  C  C23  1  0.64866000  0.30170000  0.49996000  1.0
  C  C24  1  0.35621000  0.30127000  0.49991000  1.0
  C  C25  1  0.35285000  0.20059000  0.49996000  1.0
  C  C26  1  0.64375000  0.49997000  0.30127000  1.0
  C  C27  1  0.64712000  0.50001000  0.20061000  1.0
  C  C28  1  0.49649000  0.50000000  0.14675000  1.0
  C  C29  1  0.34589000  0.50000000  0.20039000  1.0
  C  C30  1  0.35131000  0.49997000  0.30170000  1.0
  C  C31  1  0.49772000  0.49999000  0.04428000  1.0
  C  C32  1  0.50226000  0.49997000  0.95571000  1.0
  C  C33  1  0.50348000  0.49998000  0.85324000  1.0
  C  C34  1  0.65408000  0.50000000  0.79960000  1.0
  C  C35  1  0.64867000  0.50004000  0.69829000  1.0
  C  C36  1  0.35623000  0.49998000  0.69871000  1.0
  C  C37  1  0.35285000  0.49994000  0.79938000  1.0
  N  N38  1  0.49788000  0.64936000  0.50004000  1.0
  N  N39  1  0.50209000  0.35062000  0.49993000  1.0
  N  N40  1  0.49787000  0.49997000  0.35062000  1.0
  N  N41  1  0.50210000  0.50001000  0.64937000  1.0
  Cl  Cl42  1  0.15498000  0.85790000  0.50004000  1.0
  Cl  Cl43  1  0.84500000  0.14208000  0.49999000  1.0
  Cl  Cl44  1  0.15497000  0.49995000  0.14208000  1.0
  Cl  Cl45  1  0.84500000  0.50007000  0.85791000  1.0
  F  F46  1  0.78246000  0.50024000  0.49973000  1.0
  F  F47  1  0.21751000  0.49974000  0.50025000  1.0
  F  F48  1  0.99997000  0.58786000  0.58786000  1.0
  F  F49  1  0.99999000  0.41213000  0.41213000  1.0
  F  F50  1  0.99948000  0.58783000  0.41217000  1.0
  F  F51  1  0.00051000  0.41216000  0.58783000  1.0
