# generated using pymatgen
data_BaH8C6Cl6O7
_symmetry_space_group_name_H-M   'P 1'
_cell_length_a   8.70748000
_cell_length_b   10.80950000
_cell_length_c   12.12380000
_cell_angle_alpha   100.08700000
_cell_angle_beta   98.77580000
_cell_angle_gamma   105.75300000
_symmetry_Int_Tables_number   1
_chemical_formula_structural   BaH8C6Cl6O7
_chemical_formula_sum   'Ba2 H16 C12 Cl12 O14'
_cell_volume   1056.90943600
_cell_formula_units_Z   2
loop_
 _symmetry_equiv_pos_site_id
 _symmetry_equiv_pos_as_xyz
  1  'x, y, z'
loop_
 _atom_site_type_symbol
 _atom_site_label
 _atom_site_symmetry_multiplicity
 _atom_site_fract_x
 _atom_site_fract_y
 _atom_site_fract_z
 _atom_site_occupancy
  Ba  Ba0  1  0.27874000  0.60478000  0.00650000  1.0
  Ba  Ba1  1  0.72125000  0.39522000  0.99350000  1.0
  H  H2  1  0.48312000  0.03532000  0.16089000  1.0
  H  H3  1  0.51689000  0.96467000  0.83912000  1.0
  H  H4  1  0.27280000  0.95173000  0.09373000  1.0
  H  H5  1  0.72721000  0.04826000  0.90626000  1.0
  H  H6  1  0.61722000  0.82470000  0.95515000  1.0
  H  H7  1  0.38280000  0.17529000  0.04485000  1.0
  H  H8  1  0.68698000  0.95863000  0.07939000  1.0
  H  H9  1  0.31303000  0.04137000  0.92061000  1.0
  H  H10  1  0.52254000  0.60112000  0.81104000  1.0
  H  H11  1  0.47746000  0.39888000  0.18895000  1.0
  H  H12  1  0.34653000  0.55716000  0.73618000  1.0
  H  H13  1  0.65347000  0.44285000  0.26382000  1.0
  H  H14  1  0.05342000  0.71443000  0.17318000  1.0
  H  H15  1  0.94658000  0.28557000  0.82681000  1.0
  H  H16  1  0.22252000  0.79088000  0.25539000  1.0
  H  H17  1  0.77748000  0.20912000  0.74460000  1.0
  C  C18  1  0.26791000  0.31986000  0.83769000  1.0
  C  C19  1  0.73208000  0.68014000  0.16231000  1.0
  C  C20  1  0.24610000  0.22609000  0.71677000  1.0
  C  C21  1  0.75391000  0.77391000  0.28323000  1.0
  C  C22  1  0.14630000  0.38993000  0.15285000  1.0
  C  C23  1  0.85371000  0.61007000  0.84715000  1.0
  C  C24  1  0.08800000  0.27025000  0.21035000  1.0
  C  C25  1  0.91201000  0.72975000  0.78964000  1.0
  C  C26  1  0.39602000  0.98827000  0.07806000  1.0
  C  C27  1  0.60399000  0.01173000  0.92194000  1.0
  C  C28  1  0.59556000  0.91435000  0.99831000  1.0
  C  C29  1  0.40446000  0.08565000  0.00170000  1.0
  Cl  Cl30  1  0.07654000  0.08281000  0.69749000  1.0
  Cl  Cl31  1  0.92347000  0.91718000  0.30253000  1.0
  Cl  Cl32  1  0.42199000  0.17702000  0.70170000  1.0
  Cl  Cl33  1  0.57802000  0.82298000  0.29832000  1.0
  Cl  Cl34  1  0.20819000  0.31534000  0.60938000  1.0
  Cl  Cl35  1  0.79181000  0.68464000  0.39063000  1.0
  Cl  Cl36  1  0.23915000  0.26759000  0.32430000  1.0
  Cl  Cl37  1  0.76085000  0.73243000  0.67571000  1.0
  Cl  Cl38  1  0.90560000  0.26996000  0.25931000  1.0
  Cl  Cl39  1  0.09438000  0.73004000  0.74068000  1.0
  Cl  Cl40  1  0.04682000  0.12609000  0.09764000  1.0
  Cl  Cl41  1  0.95318000  0.87392000  0.90237000  1.0
  O  O42  1  0.43541000  0.87446000  0.02385000  1.0
  O  O43  1  0.56461000  0.12555000  0.97616000  1.0
  O  O44  1  0.14634000  0.35847000  0.85168000  1.0
  O  O45  1  0.85366000  0.64152000  0.14833000  1.0
  O  O46  1  0.40165000  0.35158000  0.90675000  1.0
  O  O47  1  0.59835000  0.64843000  0.09326000  1.0
  O  O48  1  0.29769000  0.44088000  0.16398000  1.0
  O  O49  1  0.70228000  0.55911000  0.83601000  1.0
  O  O50  1  0.03515000  0.42104000  0.09590000  1.0
  O  O51  1  0.96482000  0.57896000  0.90409000  1.0
  O  O52  1  0.41414000  0.61577000  0.80768000  1.0
  O  O53  1  0.58586000  0.38423000  0.19231000  1.0
  O  O54  1  0.17289000  0.74909000  0.17555000  1.0
  O  O55  1  0.82710000  0.25091000  0.82444000  1.0
