# generated using pymatgen
data_KNaH10C4O9
_symmetry_space_group_name_H-M   'P 1'
_cell_length_a   9.20834000
_cell_length_b   9.45442000
_cell_length_c   11.83820000
_cell_angle_alpha   90.00010000
_cell_angle_beta   90.00000000
_cell_angle_gamma   111.23000000
_symmetry_Int_Tables_number   1
_chemical_formula_structural   KNaH10C4O9
_chemical_formula_sum   'K4 Na4 H40 C16 O36'
_cell_volume   960.68367870
_cell_formula_units_Z   4
loop_
 _symmetry_equiv_pos_site_id
 _symmetry_equiv_pos_as_xyz
  1  'x, y, z'
loop_
 _atom_site_type_symbol
 _atom_site_label
 _atom_site_symmetry_multiplicity
 _atom_site_fract_x
 _atom_site_fract_y
 _atom_site_fract_z
 _atom_site_occupancy
  K  K0  1  0.67033000  0.88790000  0.82301000  1.0
  K  K1  1  0.82968000  0.61209000  0.32300000  1.0
  K  K2  1  0.32967000  0.11210000  0.17699000  1.0
  K  K3  1  0.17032000  0.38791000  0.67700000  1.0
  Na  Na4  1  0.02454000  0.19295000  0.98530000  1.0
  Na  Na5  1  0.47546000  0.30704000  0.48529000  1.0
  Na  Na6  1  0.97546000  0.80705000  0.01470000  1.0
  Na  Na7  1  0.52454000  0.69296000  0.51471000  1.0
  H  H8  1  0.67087000  0.64000000  0.05598000  1.0
  H  H9  1  0.82913000  0.86000000  0.55598000  1.0
  H  H10  1  0.32913000  0.36000000  0.94402000  1.0
  H  H11  1  0.17087000  0.14000000  0.44402000  1.0
  H  H12  1  0.96133000  0.04033000  0.65051000  1.0
  H  H13  1  0.53867000  0.45967000  0.15051000  1.0
  H  H14  1  0.03867000  0.95967000  0.34949000  1.0
  H  H15  1  0.46133000  0.54033000  0.84949000  1.0
  H  H16  1  0.43409000  0.91338000  0.62877000  1.0
  H  H17  1  0.06591000  0.58662000  0.12877000  1.0
  H  H18  1  0.56591000  0.08662000  0.37123000  1.0
  H  H19  1  0.93409000  0.41338000  0.87123000  1.0
  H  H20  1  0.62429000  0.75438000  0.20150000  1.0
  H  H21  1  0.87570000  0.74562000  0.70150000  1.0
  H  H22  1  0.37570000  0.24562000  0.79850000  1.0
  H  H23  1  0.12430000  0.25438000  0.29850000  1.0
  H  H24  1  0.86252000  0.10449000  0.57084000  1.0
  H  H25  1  0.63748000  0.39551000  0.07084000  1.0
  H  H26  1  0.13748000  0.89551000  0.42916000  1.0
  H  H27  1  0.36252000  0.60449000  0.92916000  1.0
  H  H28  1  0.70290000  0.12733000  0.02499000  1.0
  H  H29  1  0.79710000  0.37267000  0.52498000  1.0
  H  H30  1  0.29710000  0.87267000  0.97501000  1.0
  H  H31  1  0.20290000  0.62733000  0.47502000  1.0
  H  H32  1  0.31966000  0.75553000  0.66937000  1.0
  H  H33  1  0.18034000  0.74447000  0.16937000  1.0
  H  H34  1  0.68034000  0.24447000  0.33063000  1.0
  H  H35  1  0.81966000  0.25553000  0.83063000  1.0
  H  H36  1  0.67364000  0.03570000  0.19396000  1.0
  H  H37  1  0.82635000  0.46429000  0.69396000  1.0
  H  H38  1  0.32636000  0.96430000  0.80604000  1.0
  H  H39  1  0.17365000  0.53571000  0.30604000  1.0
  H  H40  1  0.17784000  0.41240000  0.14417000  1.0
  H  H41  1  0.32216000  0.08760000  0.64416000  1.0
  H  H42  1  0.82216000  0.58760000  0.85583000  1.0
  H  H43  1  0.67784000  0.91240000  0.35584000  1.0
  H  H44  1  0.00179000  0.36295000  0.18210000  1.0
  H  H45  1  0.49821000  0.13705000  0.68210000  1.0
  H  H46  1  0.99821000  0.63705000  0.81790000  1.0
  H  H47  1  0.50179000  0.86295000  0.31790000  1.0
  C  C48  1  0.88260000  0.98625000  0.19669000  1.0
  C  C49  1  0.61740000  0.51375000  0.69669000  1.0
  C  C50  1  0.11740000  0.01374000  0.80331000  1.0
  C  C51  1  0.38260000  0.48625000  0.30331000  1.0
  C  C52  1  0.73328000  0.98246000  0.13687000  1.0
  C  C53  1  0.76672000  0.51754000  0.63687000  1.0
  C  C54  1  0.26672000  0.01754000  0.86313000  1.0
  C  C55  1  0.23328000  0.48246000  0.36313000  1.0
  C  C56  1  0.46259000  0.80490000  0.09677000  1.0
  C  C57  1  0.03741000  0.69510000  0.59677000  1.0
  C  C58  1  0.53742000  0.19510000  0.90323000  1.0
  C  C59  1  0.96259000  0.30490000  0.40323000  1.0
  C  C60  1  0.62896000  0.81327000  0.12056000  1.0
  C  C61  1  0.87104000  0.68673000  0.62056000  1.0
  C  C62  1  0.37104000  0.18673000  0.87944000  1.0
  C  C63  1  0.12896000  0.31327000  0.37944000  1.0
  O  O64  1  0.41066000  0.78221000  0.99595000  1.0
  O  O65  1  0.08934000  0.71779000  0.49594000  1.0
  O  O66  1  0.58934000  0.21779000  0.00406000  1.0
  O  O67  1  0.91066000  0.28221000  0.50406000  1.0
  O  O68  1  0.07142000  0.39836000  0.11563000  1.0
  O  O69  1  0.42858000  0.10164000  0.61563000  1.0
  O  O70  1  0.92858000  0.60164000  0.88437000  1.0
  O  O71  1  0.57142000  0.89836000  0.38437000  1.0
  O  O72  1  0.76527000  0.05899000  0.03182000  1.0
  O  O73  1  0.73473000  0.44101000  0.53182000  1.0
  O  O74  1  0.23473000  0.94101000  0.96818000  1.0
  O  O75  1  0.26527000  0.55899000  0.46818000  1.0
  O  O76  1  0.01057000  0.03329000  0.14455000  1.0
  O  O77  1  0.48942000  0.46671000  0.64455000  1.0
  O  O78  1  0.98943000  0.96671000  0.85545000  1.0
  O  O79  1  0.51058000  0.53329000  0.35545000  1.0
  O  O80  1  0.43239000  0.81427000  0.65818000  1.0
  O  O81  1  0.06761000  0.68573000  0.15818000  1.0
  O  O82  1  0.56761000  0.18573000  0.34182000  1.0
  O  O83  1  0.93239000  0.31427000  0.84182000  1.0
  O  O84  1  0.38965000  0.83009000  0.18132000  1.0
  O  O85  1  0.11035000  0.66990000  0.68132000  1.0
  O  O86  1  0.61035000  0.16990000  0.81868000  1.0
  O  O87  1  0.88965000  0.33010000  0.31868000  1.0
  O  O88  1  0.86298000  0.93410000  0.29794000  1.0
  O  O89  1  0.63701000  0.56590000  0.79793000  1.0
  O  O90  1  0.13702000  0.06590000  0.70206000  1.0
  O  O91  1  0.36299000  0.43410000  0.20207000  1.0
  O  O92  1  0.85362000  0.01590000  0.61865000  1.0
  O  O93  1  0.64638000  0.48410000  0.11865000  1.0
  O  O94  1  0.14638000  0.98410000  0.38135000  1.0
  O  O95  1  0.35362000  0.51590000  0.88135000  1.0
  O  O96  1  0.69633000  0.75085000  0.03539000  1.0
  O  O97  1  0.80367000  0.74915000  0.53539000  1.0
  O  O98  1  0.30367000  0.24915000  0.96461000  1.0
  O  O99  1  0.19633000  0.25085000  0.46461000  1.0
