# generated using pymatgen
data_CdH10C16S(NO2)2
_symmetry_space_group_name_H-M   'P 1'
_cell_length_a   11.72350000
_cell_length_b   15.81040000
_cell_length_c   19.39250000
_cell_angle_alpha   90.05820000
_cell_angle_beta   90.00000000
_cell_angle_gamma   89.99990000
_symmetry_Int_Tables_number   1
_chemical_formula_structural   CdH10C16S(NO2)2
_chemical_formula_sum   'Cd8 H80 C128 S8 N16 O32'
_cell_volume   3594.46054977
_cell_formula_units_Z   8
loop_
 _symmetry_equiv_pos_site_id
 _symmetry_equiv_pos_as_xyz
  1  'x, y, z'
loop_
 _atom_site_type_symbol
 _atom_site_label
 _atom_site_symmetry_multiplicity
 _atom_site_fract_x
 _atom_site_fract_y
 _atom_site_fract_z
 _atom_site_occupancy
  Cd  Cd0  1  0.65668000  0.64706000  0.94032000  1.0
  Cd  Cd1  1  0.65669000  0.85294000  0.05968000  1.0
  Cd  Cd2  1  0.34331000  0.35293000  0.05968000  1.0
  Cd  Cd3  1  0.34332000  0.14706000  0.94032000  1.0
  Cd  Cd4  1  0.67423000  0.14301000  0.55830000  1.0
  Cd  Cd5  1  0.67423000  0.35699000  0.44170000  1.0
  Cd  Cd6  1  0.32577000  0.85699000  0.44170000  1.0
  Cd  Cd7  1  0.32577000  0.64301000  0.55830000  1.0
  H  H8  1  0.65877000  0.26938000  0.71832000  1.0
  H  H9  1  0.65877000  0.23062000  0.28168000  1.0
  H  H10  1  0.34123000  0.73062000  0.28168000  1.0
  H  H11  1  0.34123000  0.76938000  0.71832000  1.0
  H  H12  1  0.65142000  0.35862000  0.83627000  1.0
  H  H13  1  0.65142000  0.14138000  0.16373000  1.0
  H  H14  1  0.34858000  0.64138000  0.16373000  1.0
  H  H15  1  0.34858000  0.85862000  0.83627000  1.0
  H  H16  1  0.63813000  0.85885000  0.66679000  1.0
  H  H17  1  0.63813000  0.64115000  0.33321000  1.0
  H  H18  1  0.36187000  0.14115000  0.33321000  1.0
  H  H19  1  0.36187000  0.35885000  0.66679000  1.0
  H  H20  1  0.63812000  0.77128000  0.78521000  1.0
  H  H21  1  0.63812000  0.72872000  0.21480000  1.0
  H  H22  1  0.36188000  0.22872000  0.21480000  1.0
  H  H23  1  0.36188000  0.27128000  0.78520000  1.0
  H  H24  1  0.47317000  0.22335000  0.65066000  1.0
  H  H25  1  0.47318000  0.27665000  0.34934000  1.0
  H  H26  1  0.52683000  0.77665000  0.34934000  1.0
  H  H27  1  0.52683000  0.72335000  0.65066000  1.0
  H  H28  1  0.26156000  0.22775000  0.65693000  1.0
  H  H29  1  0.26157000  0.27225000  0.34307000  1.0
  H  H30  1  0.73844000  0.77225000  0.34307000  1.0
  H  H31  1  0.73844000  0.72775000  0.65693000  1.0
  H  H32  1  0.25801000  0.07987000  0.46787000  1.0
  H  H33  1  0.25801000  0.42013000  0.53213000  1.0
  H  H34  1  0.74199000  0.92013000  0.53213000  1.0
  H  H35  1  0.74199000  0.57988000  0.46787000  1.0
  H  H36  1  0.46552000  0.08353000  0.46962000  1.0
  H  H37  1  0.46552000  0.41647000  0.53039000  1.0
  H  H38  1  0.53448000  0.91647000  0.53038000  1.0
  H  H39  1  0.53448000  0.58353000  0.46961000  1.0
  H  H40  1  0.87786000  0.17873000  0.66520000  1.0
  H  H41  1  0.87786000  0.32128000  0.33480000  1.0
  H  H42  1  0.12214000  0.82128000  0.33479000  1.0
  H  H43  1  0.12214000  0.67873000  0.66520000  1.0
  H  H44  1  0.09078000  0.18059000  0.67184000  1.0
  H  H45  1  0.09078000  0.31942000  0.32816000  1.0
  H  H46  1  0.90922000  0.81942000  0.32816000  1.0
  H  H47  1  0.90922000  0.68059000  0.67184000  1.0
  H  H48  1  0.09503000  0.12760000  0.45277000  1.0
  H  H49  1  0.09503000  0.37240000  0.54723000  1.0
  H  H50  1  0.90497000  0.87240000  0.54723000  1.0
  H  H51  1  0.90497000  0.62759000  0.45277000  1.0
  H  H52  1  0.88340000  0.12475000  0.45664000  1.0
  H  H53  1  0.88340000  0.37525000  0.54336000  1.0
  H  H54  1  0.11661000  0.87525000  0.54336000  1.0
  H  H55  1  0.11660000  0.62474000  0.45664000  1.0
  H  H56  1  0.44581000  0.58584000  0.03037000  1.0
  H  H57  1  0.44582000  0.91415000  0.96962000  1.0
  H  H58  1  0.55418000  0.41415000  0.96962000  1.0
  H  H59  1  0.55418000  0.08585000  0.03038000  1.0
  H  H60  1  0.23888000  0.59189000  0.03531000  1.0
  H  H61  1  0.23888000  0.90811000  0.96469000  1.0
  H  H62  1  0.76112000  0.40811000  0.96469000  1.0
  H  H63  1  0.76112000  0.09189000  0.03531000  1.0
  H  H64  1  0.24604000  0.72841000  0.84086000  1.0
  H  H65  1  0.24605000  0.77159000  0.15914000  1.0
  H  H66  1  0.75396000  0.27159000  0.15914000  1.0
  H  H67  1  0.75395000  0.22841000  0.84086000  1.0
  H  H68  1  0.45746000  0.72110000  0.84720000  1.0
  H  H69  1  0.45746000  0.77890000  0.15280000  1.0
  H  H70  1  0.54254000  0.27890000  0.15280000  1.0
  H  H71  1  0.54254000  0.22110000  0.84720000  1.0
  H  H72  1  0.86216000  0.56728000  0.00755000  1.0
  H  H73  1  0.86216000  0.93272000  0.99246000  1.0
  H  H74  1  0.13784000  0.43272000  0.99245000  1.0
  H  H75  1  0.13784000  0.06728000  0.00755000  1.0
  H  H76  1  0.07483000  0.55952000  0.00850000  1.0
  H  H77  1  0.07483000  0.94048000  0.99151000  1.0
  H  H78  1  0.92517000  0.44048000  0.99150000  1.0
  H  H79  1  0.92517000  0.05952000  0.00850000  1.0
  H  H80  1  0.07621000  0.77264000  0.86897000  1.0
  H  H81  1  0.07622000  0.72736000  0.13103000  1.0
  H  H82  1  0.92378000  0.22736000  0.13103000  1.0
  H  H83  1  0.92378000  0.27264000  0.86897000  1.0
  H  H84  1  0.86388000  0.76837000  0.87193000  1.0
  H  H85  1  0.86389000  0.73163000  0.12808000  1.0
  H  H86  1  0.13611000  0.23163000  0.12807000  1.0
  H  H87  1  0.13611000  0.26837000  0.87193000  1.0
  C  C88  1  0.66780000  0.39060000  0.66529000  1.0
  C  C89  1  0.66779000  0.10940000  0.33471000  1.0
  C  C90  1  0.33220000  0.60940000  0.33471000  1.0
  C  C91  1  0.33220000  0.89060000  0.66529000  1.0
  C  C92  1  0.66112000  0.33820000  0.72259000  1.0
  C  C93  1  0.66111000  0.16180000  0.27741000  1.0
  C  C94  1  0.33888000  0.66180000  0.27741000  1.0
  C  C95  1  0.33889000  0.83820000  0.72259000  1.0
  C  C96  1  0.65788000  0.38490000  0.78463000  1.0
  C  C97  1  0.65788000  0.11510000  0.21536000  1.0
  C  C98  1  0.34212000  0.61510000  0.21536000  1.0
  C  C99  1  0.34212000  0.88490000  0.78463000  1.0
  C  C100  1  0.66216000  0.47167000  0.77406000  1.0
  C  C101  1  0.66216000  0.02834000  0.22594000  1.0
  C  C102  1  0.33784000  0.52834000  0.22594000  1.0
  C  C103  1  0.33784000  0.97166000  0.77406000  1.0
  C  C104  1  0.67342000  0.36728000  0.59171000  1.0
  C  C105  1  0.67342000  0.13272000  0.40829000  1.0
  C  C106  1  0.32658000  0.63272000  0.40829000  1.0
  C  C107  1  0.32658000  0.86728000  0.59171000  1.0
  C  C108  1  0.66280000  0.53832000  0.82787000  1.0
  C  C109  1  0.66280000  0.96168000  0.17213000  1.0
  C  C110  1  0.33720000  0.46168000  0.17213000  1.0
  C  C111  1  0.33720000  0.03832000  0.82787000  1.0
  C  C112  1  0.66113000  0.97189000  0.72799000  1.0
  C  C113  1  0.66113000  0.52811000  0.27201000  1.0
  C  C114  1  0.33887000  0.02812000  0.27202000  1.0
  C  C115  1  0.33887000  0.47189000  0.72799000  1.0
  C  C116  1  0.64775000  0.88548000  0.71818000  1.0
  C  C117  1  0.64775000  0.61452000  0.28182000  1.0
  C  C118  1  0.35225000  0.11452000  0.28183000  1.0
  C  C119  1  0.35226000  0.38548000  0.71818000  1.0
  C  C120  1  0.64678000  0.83976000  0.78062000  1.0
  C  C121  1  0.64678000  0.66024000  0.21938000  1.0
  C  C122  1  0.35322000  0.16024000  0.21938000  1.0
  C  C123  1  0.35322000  0.33976000  0.78062000  1.0
  C  C124  1  0.65914000  0.89258000  0.83745000  1.0
  C  C125  1  0.65914000  0.60742000  0.16255000  1.0
  C  C126  1  0.34086000  0.10742000  0.16255000  1.0
  C  C127  1  0.34086000  0.39259000  0.83745000  1.0
  C  C128  1  0.66851000  0.03749000  0.67362000  1.0
  C  C129  1  0.66851000  0.46251000  0.32638000  1.0
  C  C130  1  0.33149000  0.96252000  0.32638000  1.0
  C  C131  1  0.33150000  0.53749000  0.67362000  1.0
  C  C132  1  0.66003000  0.87046000  0.91120000  1.0
  C  C133  1  0.66004000  0.62954000  0.08880000  1.0
  C  C134  1  0.33996000  0.12954000  0.08880000  1.0
  C  C135  1  0.33996000  0.37046000  0.91120000  1.0
  C  C136  1  0.42098000  0.19379000  0.61083000  1.0
  C  C137  1  0.42098000  0.30621000  0.38917000  1.0
  C  C138  1  0.57903000  0.80621000  0.38917000  1.0
  C  C139  1  0.57902000  0.69379000  0.61083000  1.0
  C  C140  1  0.30260000  0.19567000  0.61386000  1.0
  C  C141  1  0.30260000  0.30434000  0.38614000  1.0
  C  C142  1  0.69740000  0.80434000  0.38614000  1.0
  C  C143  1  0.69740000  0.69567000  0.61386000  1.0
  C  C144  1  0.23878000  0.15585000  0.56182000  1.0
  C  C145  1  0.23878000  0.34415000  0.43818000  1.0
  C  C146  1  0.76123000  0.84415000  0.43818000  1.0
  C  C147  1  0.76122000  0.65585000  0.56182000  1.0
  C  C148  1  0.29919000  0.11528000  0.50903000  1.0
  C  C149  1  0.29919000  0.38472000  0.49097000  1.0
  C  C150  1  0.70081000  0.88472000  0.49097000  1.0
  C  C151  1  0.70081000  0.61528000  0.50903000  1.0
  C  C152  1  0.41754000  0.11621000  0.50974000  1.0
  C  C153  1  0.41754000  0.38380000  0.49026000  1.0
  C  C154  1  0.58246000  0.88380000  0.49026000  1.0
  C  C155  1  0.58246000  0.61621000  0.50974000  1.0
  C  C156  1  0.93035000  0.16831000  0.61947000  1.0
  C  C157  1  0.93035000  0.33169000  0.38053000  1.0
  C  C158  1  0.06965000  0.83169000  0.38053000  1.0
  C  C159  1  0.06965000  0.66831000  0.61947000  1.0
  C  C160  1  0.04897000  0.16960000  0.62244000  1.0
  C  C161  1  0.04897000  0.33040000  0.37756000  1.0
  C  C162  1  0.95103000  0.83040000  0.37756000  1.0
  C  C163  1  0.95103000  0.66960000  0.62244000  1.0
  C  C164  1  0.11281000  0.15486000  0.56229000  1.0
  C  C165  1  0.11281000  0.34514000  0.43771000  1.0
  C  C166  1  0.88719000  0.84514000  0.43771000  1.0
  C  C167  1  0.88719000  0.65486000  0.56229000  1.0
  C  C168  1  0.05137000  0.13867000  0.50150000  1.0
  C  C169  1  0.05137000  0.36133000  0.49850000  1.0
  C  C170  1  0.94863000  0.86132000  0.49850000  1.0
  C  C171  1  0.94863000  0.63867000  0.50150000  1.0
  C  C172  1  0.93307000  0.13786000  0.50293000  1.0
  C  C173  1  0.93307000  0.36214000  0.49707000  1.0
  C  C174  1  0.06694000  0.86213000  0.49707000  1.0
  C  C175  1  0.06693000  0.63786000  0.50293000  1.0
  C  C176  1  0.39918000  0.61907000  0.99004000  1.0
  C  C177  1  0.39918000  0.88092000  0.00996000  1.0
  C  C178  1  0.60082000  0.38092000  0.00996000  1.0
  C  C179  1  0.60082000  0.11907000  0.99004000  1.0
  C  C180  1  0.28084000  0.62229000  0.99184000  1.0
  C  C181  1  0.28085000  0.87771000  0.00816000  1.0
  C  C182  1  0.71916000  0.37771000  0.00816000  1.0
  C  C183  1  0.71916000  0.12229000  0.99184000  1.0
  C  C184  1  0.22147000  0.66254000  0.93845000  1.0
  C  C185  1  0.22147000  0.83746000  0.06155000  1.0
  C  C186  1  0.77853000  0.33746000  0.06155000  1.0
  C  C187  1  0.77853000  0.16254000  0.93845000  1.0
  C  C188  1  0.28633000  0.69864000  0.88520000  1.0
  C  C189  1  0.28634000  0.80136000  0.11480000  1.0
  C  C190  1  0.71366000  0.30136000  0.11480000  1.0
  C  C191  1  0.71366000  0.19864000  0.88520000  1.0
  C  C192  1  0.40454000  0.69391000  0.88773000  1.0
  C  C193  1  0.40454000  0.80609000  0.11227000  1.0
  C  C194  1  0.59546000  0.30609000  0.11227000  1.0
  C  C195  1  0.59546000  0.19391000  0.88773000  1.0
  C  C196  1  0.91411000  0.61010000  0.97654000  1.0
  C  C197  1  0.91411000  0.88990000  0.02347000  1.0
  C  C198  1  0.08589000  0.38990000  0.02346000  1.0
  C  C199  1  0.08589000  0.11010000  0.97654000  1.0
  C  C200  1  0.03229000  0.60692000  0.97711000  1.0
  C  C201  1  0.03229000  0.89308000  0.02289000  1.0
  C  C202  1  0.96771000  0.39308000  0.02289000  1.0
  C  C203  1  0.96771000  0.10692000  0.97711000  1.0
  C  C204  1  0.09550000  0.66480000  0.93781000  1.0
  C  C205  1  0.09551000  0.83520000  0.06219000  1.0
  C  C206  1  0.90449000  0.33520000  0.06219000  1.0
  C  C207  1  0.90450000  0.16480000  0.93781000  1.0
  C  C208  1  0.03319000  0.72416000  0.89927000  1.0
  C  C209  1  0.03320000  0.77584000  0.10073000  1.0
  C  C210  1  0.96681000  0.27584000  0.10073000  1.0
  C  C211  1  0.96681000  0.22416000  0.89927000  1.0
  C  C212  1  0.91443000  0.72277000  0.90109000  1.0
  C  C213  1  0.91444000  0.77723000  0.09892000  1.0
  C  C214  1  0.08556000  0.27723000  0.09892000  1.0
  C  C215  1  0.08556000  0.22277000  0.90109000  1.0
  S  S216  1  0.66868000  0.49591000  0.68795000  1.0
  S  S217  1  0.66867000  0.00409000  0.31205000  1.0
  S  S218  1  0.33132000  0.50409000  0.31205000  1.0
  S  S219  1  0.33133000  0.99591000  0.68795000  1.0
  S  S220  1  0.67141000  0.99710000  0.81378000  1.0
  S  S221  1  0.67141000  0.50289000  0.18622000  1.0
  S  S222  1  0.32859000  0.00290000  0.18622000  1.0
  S  S223  1  0.32860000  0.49711000  0.81378000  1.0
  N  N224  1  0.47772000  0.15507000  0.55944000  1.0
  N  N225  1  0.47772000  0.34493000  0.44057000  1.0
  N  N226  1  0.52228000  0.84494000  0.44056000  1.0
  N  N227  1  0.52228000  0.65507000  0.55944000  1.0
  N  N228  1  0.87302000  0.15274000  0.56073000  1.0
  N  N229  1  0.87302000  0.34726000  0.43927000  1.0
  N  N230  1  0.12699000  0.84726000  0.43927000  1.0
  N  N231  1  0.12698000  0.65274000  0.56073000  1.0
  N  N232  1  0.46017000  0.65484000  0.93931000  1.0
  N  N233  1  0.46018000  0.84516000  0.06069000  1.0
  N  N234  1  0.53983000  0.34516000  0.06069000  1.0
  N  N235  1  0.53983000  0.15484000  0.93931000  1.0
  N  N236  1  0.85547000  0.66677000  0.93903000  1.0
  N  N237  1  0.85547000  0.83322000  0.06098000  1.0
  N  N238  1  0.14453000  0.33322000  0.06097000  1.0
  N  N239  1  0.14453000  0.16678000  0.93903000  1.0
  O  O240  1  0.67981000  0.42764000  0.54790000  1.0
  O  O241  1  0.67980000  0.07236000  0.45210000  1.0
  O  O242  1  0.32020000  0.57236000  0.45210000  1.0
  O  O243  1  0.32020000  0.92764000  0.54790000  1.0
  O  O244  1  0.67210000  0.28982000  0.57413000  1.0
  O  O245  1  0.67211000  0.21018000  0.42587000  1.0
  O  O246  1  0.32790000  0.71018000  0.42587000  1.0
  O  O247  1  0.32789000  0.78982000  0.57413000  1.0
  O  O248  1  0.65866000  0.61594000  0.81078000  1.0
  O  O249  1  0.65866000  0.88406000  0.18922000  1.0
  O  O250  1  0.34134000  0.38406000  0.18922000  1.0
  O  O251  1  0.34135000  0.11594000  0.81078000  1.0
  O  O252  1  0.66825000  0.51258000  0.89052000  1.0
  O  O253  1  0.66825000  0.98742000  0.10948000  1.0
  O  O254  1  0.33175000  0.48742000  0.10948000  1.0
  O  O255  1  0.33175000  0.01258000  0.89051000  1.0
  O  O256  1  0.66587000  0.01061000  0.61127000  1.0
  O  O257  1  0.66587000  0.48939000  0.38873000  1.0
  O  O258  1  0.33413000  0.98939000  0.38873000  1.0
  O  O259  1  0.33413000  0.51061000  0.61127000  1.0
  O  O260  1  0.67793000  0.11509000  0.69011000  1.0
  O  O261  1  0.67793000  0.38491000  0.30989000  1.0
  O  O262  1  0.32207000  0.88491000  0.30989000  1.0
  O  O263  1  0.32208000  0.61509000  0.69011000  1.0
  O  O264  1  0.64280000  0.79411000  0.92945000  1.0
  O  O265  1  0.64280000  0.70589000  0.07055000  1.0
  O  O266  1  0.35720000  0.20589000  0.07055000  1.0
  O  O267  1  0.35720000  0.29411000  0.92945000  1.0
  O  O268  1  0.67643000  0.92986000  0.95487000  1.0
  O  O269  1  0.67642000  0.57014000  0.04513000  1.0
  O  O270  1  0.32357000  0.07014000  0.04513000  1.0
  O  O271  1  0.32357000  0.42986000  0.95487000  1.0
