# generated using pymatgen
data_Zn4H11C26S4ClO13
_symmetry_space_group_name_H-M   'P 1'
_cell_length_a   19.66470000
_cell_length_b   19.67830000
_cell_length_c   33.40080000
_cell_angle_alpha   79.10690000
_cell_angle_beta   79.14510000
_cell_angle_gamma   63.89590000
_symmetry_Int_Tables_number   1
_chemical_formula_structural   Zn4H11C26S4ClO13
_chemical_formula_sum   'Zn16 H44 C104 S16 Cl4 O52'
_cell_volume   11316.14434235
_cell_formula_units_Z   4
loop_
 _symmetry_equiv_pos_site_id
 _symmetry_equiv_pos_as_xyz
  1  'x, y, z'
loop_
 _atom_site_type_symbol
 _atom_site_label
 _atom_site_symmetry_multiplicity
 _atom_site_fract_x
 _atom_site_fract_y
 _atom_site_fract_z
 _atom_site_occupancy
  Zn  Zn0  1  0.60094000  0.94406000  0.52233000  1.0
  Zn  Zn1  1  0.51636000  0.01522000  0.43987000  1.0
  Zn  Zn2  1  0.43997000  0.94117000  0.51796000  1.0
  Zn  Zn3  1  0.44469000  0.09854000  0.52036000  1.0
  Zn  Zn4  1  0.65013000  0.30630000  0.72830000  1.0
  Zn  Zn5  1  0.81083000  0.31109000  0.73355000  1.0
  Zn  Zn6  1  0.73321000  0.23141000  0.80914000  1.0
  Zn  Zn7  1  0.80520000  0.15221000  0.72770000  1.0
  Zn  Zn8  1  0.23326000  0.73287000  0.31056000  1.0
  Zn  Zn9  1  0.30382000  0.65107000  0.22816000  1.0
  Zn  Zn10  1  0.15154000  0.80721000  0.22894000  1.0
  Zn  Zn11  1  0.31146000  0.80910000  0.23327000  1.0
  Zn  Zn12  1  0.93964000  0.43983000  0.01683000  1.0
  Zn  Zn13  1  0.94466000  0.59886000  0.02162000  1.0
  Zn  Zn14  1  0.09901000  0.44460000  0.02169000  1.0
  Zn  Zn15  1  0.01673000  0.51687000  0.93963000  1.0
  H  H16  1  0.75167000  0.04512000  0.64835000  1.0
  H  H17  1  0.54648000  0.25269000  0.64990000  1.0
  H  H18  1  0.70031000  0.00055000  0.60031000  1.0
  H  H19  1  0.40341000  0.90320000  0.30007000  1.0
  H  H20  1  0.29881000  0.79873000  0.40185000  1.0
  H  H21  1  0.44971000  0.94964000  0.34972000  1.0
  H  H22  1  0.76086000  0.53628000  0.65922000  1.0
  H  H23  1  0.29729000  0.52106000  0.39863000  1.0
  H  H24  1  0.02141000  0.79694000  0.39875000  1.0
  H  H25  1  0.02932000  0.05078000  0.65208000  1.0
  H  H26  1  0.94995000  0.44992000  0.84671000  1.0
  H  H27  1  0.84799000  0.34826000  0.95124000  1.0
  H  H28  1  0.90032000  0.40022000  0.80040000  1.0
  H  H29  1  0.22835000  0.45300000  0.85151000  1.0
  H  H30  1  0.85856000  0.83717000  0.95989000  1.0
  H  H31  1  0.20510000  0.49830000  0.10170000  1.0
  H  H32  1  0.99725000  0.70321000  0.10028000  1.0
  H  H33  1  0.24969000  0.54957000  0.14972000  1.0
  H  H34  1  0.72073000  0.69933000  0.09777000  1.0
  H  H35  1  0.98926000  0.21369000  0.09079000  1.0
  H  H36  1  0.42444000  0.76863000  0.60088000  1.0
  H  H37  1  0.44898000  0.66931000  0.60303000  1.0
  H  H38  1  0.46417000  0.72400000  0.55595000  1.0
  H  H39  1  0.52312000  0.17880000  0.34645000  1.0
  H  H40  1  0.46334000  0.24277000  0.30897000  1.0
  H  H41  1  0.43585000  0.17608000  0.34404000  1.0
  H  H42  1  0.67633000  0.93565000  0.34393000  1.0
  H  H43  1  0.74293000  0.96345000  0.30902000  1.0
  H  H44  1  0.67877000  0.02291000  0.34651000  1.0
  H  H45  1  0.27814000  0.20182000  0.61015000  1.0
  H  H46  1  0.18015000  0.26804000  0.61375000  1.0
  H  H47  1  0.23327000  0.24152000  0.56526000  1.0
  H  H48  1  0.57124000  0.22707000  0.90338000  1.0
  H  H49  1  0.50728000  0.28678000  0.94080000  1.0
  H  H50  1  0.57405000  0.31419000  0.90582000  1.0
  H  H51  1  0.85183000  0.92771000  0.76013000  1.0
  H  H52  1  0.93049000  0.84206000  0.77594000  1.0
  H  H53  1  0.93904000  0.93048000  0.76263000  1.0
  H  H54  1  0.51696000  0.50847000  0.18479000  1.0
  H  H55  1  0.56984000  0.48209000  0.13623000  1.0
  H  H56  1  0.47188000  0.54841000  0.13995000  1.0
  H  H57  1  0.28585000  0.02643000  0.19400000  1.0
  H  H58  1  0.30158000  0.08064000  0.14681000  1.0
  H  H59  1  0.32573000  0.98133000  0.14922000  1.0
  C  C60  1  0.68440000  0.93851000  0.43845000  1.0
  C  C61  1  0.43105000  0.93149000  0.43044000  1.0
  C  C62  1  0.56166000  0.81578000  0.56168000  1.0
  C  C63  1  0.31558000  0.06160000  0.56145000  1.0
  C  C64  1  0.56992000  0.06850000  0.56923000  1.0
  C  C65  1  0.43813000  0.18407000  0.43827000  1.0
  C  C66  1  0.68890000  0.43455000  0.68859000  1.0
  C  C67  1  0.81962000  0.31937000  0.81877000  1.0
  C  C68  1  0.56540000  0.31120000  0.81129000  1.0
  C  C69  1  0.81119000  0.06540000  0.81117000  1.0
  C  C70  1  0.68093000  0.18016000  0.68071000  1.0
  C  C71  1  0.93448000  0.18795000  0.68853000  1.0
  C  C72  1  0.31117000  0.56586000  0.31182000  1.0
  C  C73  1  0.18163000  0.67997000  0.18090000  1.0
  C  C74  1  0.06615000  0.81130000  0.31201000  1.0
  C  C75  1  0.18879000  0.93467000  0.18875000  1.0
  C  C76  1  0.31958000  0.81949000  0.31931000  1.0
  C  C77  1  0.43434000  0.68855000  0.18858000  1.0
  C  C78  1  0.81567000  0.56203000  0.06141000  1.0
  C  C79  1  0.06977000  0.56896000  0.06935000  1.0
  C  C80  1  0.06087000  0.31582000  0.06143000  1.0
  C  C81  1  0.18404000  0.43876000  0.93831000  1.0
  C  C82  1  0.93065000  0.43091000  0.93044000  1.0
  C  C83  1  0.93817000  0.68463000  0.93878000  1.0
  C  C84  1  0.59514000  0.10049000  0.59802000  1.0
  C  C85  1  0.65194000  0.15172000  0.65207000  1.0
  C  C86  1  0.55161000  0.17243000  0.61237000  1.0
  C  C87  1  0.69580000  0.08028000  0.63816000  1.0
  C  C88  1  0.58030000  0.19721000  0.63910000  1.0
  C  C89  1  0.66725000  0.05576000  0.61159000  1.0
  C  C90  1  0.40086000  0.90086000  0.40345000  1.0
  C  C91  1  0.34813000  0.84818000  0.34807000  1.0
  C  C92  1  0.35779000  0.85759000  0.41804000  1.0
  C  C93  1  0.39086000  0.89083000  0.33308000  1.0
  C  C94  1  0.33196000  0.83189000  0.39034000  1.0
  C  C95  1  0.41642000  0.91640000  0.36063000  1.0
  C  C96  1  0.54470000  0.69635000  0.59867000  1.0
  C  C97  1  0.70402000  0.55377000  0.65111000  1.0
  C  C98  1  0.58562000  0.74098000  0.58627000  1.0
  C  C99  1  0.66372000  0.50925000  0.66356000  1.0
  C  C100  1  0.66132000  0.62202000  0.62745000  1.0
  C  C101  1  0.58906000  0.62834000  0.62226000  1.0
  C  C102  1  0.42468000  0.27282000  0.37027000  1.0
  C  C103  1  0.32637000  0.47597000  0.37888000  1.0
  C  C104  1  0.41410000  0.25822000  0.41298000  1.0
  C  C105  1  0.33652000  0.49081000  0.33650000  1.0
  C  C106  1  0.35822000  0.39681000  0.39155000  1.0
  C  C107  1  0.39225000  0.35257000  0.35854000  1.0
  C  C108  1  0.77300000  0.92453000  0.37036000  1.0
  C  C109  1  0.97627000  0.82597000  0.37899000  1.0
  C  C110  1  0.75851000  0.91408000  0.41309000  1.0
  C  C111  1  0.99107000  0.83621000  0.33662000  1.0
  C  C112  1  0.89710000  0.85787000  0.39164000  1.0
  C  C113  1  0.85280000  0.89193000  0.35860000  1.0
  C  C114  1  0.20017000  0.15664000  0.60256000  1.0
  C  C115  1  0.05022000  0.09480000  0.64747000  1.0
  C  C116  1  0.24121000  0.08728000  0.58646000  1.0
  C  C117  1  0.00924000  0.16350000  0.66355000  1.0
  C  C118  1  0.11989000  0.09155000  0.62524000  1.0
  C  C119  1  0.13078000  0.15802000  0.62472000  1.0
  C  C120  1  0.84644000  0.34658000  0.84918000  1.0
  C  C121  1  0.90188000  0.40202000  0.90187000  1.0
  C  C122  1  0.83176000  0.33212000  0.89234000  1.0
  C  C123  1  0.91689000  0.41694000  0.85919000  1.0
  C  C124  1  0.85952000  0.35977000  0.91810000  1.0
  C  C125  1  0.88933000  0.38937000  0.83364000  1.0
  C  C126  1  0.47711000  0.32553000  0.87949000  1.0
  C  C127  1  0.27365000  0.42395000  0.87118000  1.0
  C  C128  1  0.49138000  0.33602000  0.83673000  1.0
  C  C129  1  0.25904000  0.41367000  0.91358000  1.0
  C  C130  1  0.35280000  0.39216000  0.85840000  1.0
  C  C131  1  0.39732000  0.35810000  0.89134000  1.0
  C  C132  1  0.87590000  0.91904000  0.82158000  1.0
  C  C133  1  0.87485000  0.83021000  0.92745000  1.0
  C  C134  1  0.83668000  0.99041000  0.83563000  1.0
  C  C135  1  0.91353000  0.75924000  0.91363000  1.0
  C  C136  1  0.86080000  0.88886000  0.89423000  1.0
  C  C137  1  0.88917000  0.86152000  0.85558000  1.0
  C  C138  1  0.14960000  0.65464000  0.15215000  1.0
  C  C139  1  0.09827000  0.59782000  0.09807000  1.0
  C  C140  1  0.07753000  0.69806000  0.13783000  1.0
  C  C141  1  0.16983000  0.55404000  0.11196000  1.0
  C  C142  1  0.05276000  0.66935000  0.11110000  1.0
  C  C143  1  0.19436000  0.58262000  0.13853000  1.0
  C  C144  1  0.54994000  0.59343000  0.14748000  1.0
  C  C145  1  0.69987000  0.65528000  0.10245000  1.0
  C  C146  1  0.50888000  0.66275000  0.16362000  1.0
  C  C147  1  0.74085000  0.58658000  0.08636000  1.0
  C  C148  1  0.63026000  0.65847000  0.12475000  1.0
  C  C149  1  0.61935000  0.59200000  0.12530000  1.0
  C  C150  1  0.20564000  0.05390000  0.15122000  1.0
  C  C151  1  0.04612000  0.19629000  0.09885000  1.0
  C  C152  1  0.16488000  0.00916000  0.16377000  1.0
  C  C153  1  0.08626000  0.24099000  0.08637000  1.0
  C  C154  1  0.08897000  0.12803000  0.12248000  1.0
  C  C155  1  0.16122000  0.12184000  0.12762000  1.0
  C  C156  1  0.46644000  0.71528000  0.58922000  1.0
  C  C157  1  0.46376000  0.21478000  0.34070000  1.0
  C  C158  1  0.71492000  0.96366000  0.34072000  1.0
  C  C159  1  0.22390000  0.22059000  0.59778000  1.0
  C  C160  1  0.53526000  0.28639000  0.90908000  1.0
  C  C161  1  0.90080000  0.90363000  0.77778000  1.0
  C  C162  1  0.52620000  0.52949000  0.15226000  1.0
  C  C163  1  0.28388000  0.03488000  0.16071000  1.0
  S  S164  1  0.67557000  0.70071000  0.60296000  1.0
  S  S165  1  0.57411000  0.54977000  0.64669000  1.0
  S  S166  1  0.36599000  0.33980000  0.43793000  1.0
  S  S167  1  0.38465000  0.40910000  0.31187000  1.0
  S  S168  1  0.84018000  0.86579000  0.43803000  1.0
  S  S169  1  0.90931000  0.88441000  0.31194000  1.0
  S  S170  1  0.19609000  0.02578000  0.59817000  1.0
  S  S171  1  0.05478000  0.22435000  0.65179000  1.0
  S  S172  1  0.40951000  0.38440000  0.81194000  1.0
  S  S173  1  0.34103000  0.36552000  0.93808000  1.0
  S  S174  1  0.81688000  0.98696000  0.88892000  1.0
  S  S175  1  0.93312000  0.76326000  0.86045000  1.0
  S  S176  1  0.55412000  0.72417000  0.15190000  1.0
  S  S177  1  0.69532000  0.52568000  0.09819000  1.0
  S  S178  1  0.07492000  0.04924000  0.14705000  1.0
  S  S179  1  0.17594000  0.20055000  0.10315000  1.0
  Cl  Cl180  1  0.46212000  0.23530000  0.59915000  1.0
  Cl  Cl181  1  0.33326000  0.83262000  0.46936000  1.0
  Cl  Cl182  1  0.78025000  0.28093000  0.91712000  1.0
  Cl  Cl183  1  0.01476000  0.78740000  0.15104000  1.0
  O  O184  1  0.50226000  0.99898000  0.49998000  1.0
  O  O185  1  0.68543000  0.92210000  0.47740000  1.0
  O  O186  1  0.46899000  0.96971000  0.41230000  1.0
  O  O187  1  0.49510000  0.84445000  0.55016000  1.0
  O  O188  1  0.62522000  0.97404000  0.41949000  1.0
  O  O189  1  0.60933000  0.84610000  0.55391000  1.0
  O  O190  1  0.41689000  0.91753000  0.46899000  1.0
  O  O191  1  0.34272000  0.99444000  0.55068000  1.0
  O  O192  1  0.50488000  0.10917000  0.55710000  1.0
  O  O193  1  0.34719000  0.10797000  0.55237000  1.0
  O  O194  1  0.61613000  0.00253000  0.55913000  1.0
  O  O195  1  0.47406000  0.12471000  0.41960000  1.0
  O  O196  1  0.42076000  0.18525000  0.47720000  1.0
  O  O197  1  0.75006000  0.25100000  0.74906000  1.0
  O  O198  1  0.64170000  0.40374000  0.69649000  1.0
  O  O199  1  0.83792000  0.33725000  0.78072000  1.0
  O  O200  1  0.62472000  0.27494000  0.83004000  1.0
  O  O201  1  0.75522000  0.40726000  0.70015000  1.0
  O  O202  1  0.56435000  0.32787000  0.77230000  1.0
  O  O203  1  0.78102000  0.28080000  0.83289000  1.0
  O  O204  1  0.77497000  0.12336000  0.83113000  1.0
  O  O205  1  0.74670000  0.13601000  0.69163000  1.0
  O  O206  1  0.82698000  0.06701000  0.77215000  1.0
  O  O207  1  0.63762000  0.24587000  0.69172000  1.0
  O  O208  1  0.90697000  0.25427000  0.70017000  1.0
  O  O209  1  0.90383000  0.14075000  0.69641000  1.0
  O  O210  1  0.25066000  0.74948000  0.25040000  1.0
  O  O211  1  0.27571000  0.62398000  0.33143000  1.0
  O  O212  1  0.24790000  0.63384000  0.19085000  1.0
  O  O213  1  0.06623000  0.82786000  0.27304000  1.0
  O  O214  1  0.32698000  0.56600000  0.27282000  1.0
  O  O215  1  0.12442000  0.77557000  0.33157000  1.0
  O  O216  1  0.14114000  0.74476000  0.19322000  1.0
  O  O217  1  0.14081000  0.90466000  0.19668000  1.0
  O  O218  1  0.33590000  0.83612000  0.28100000  1.0
  O  O219  1  0.25512000  0.90584000  0.20057000  1.0
  O  O220  1  0.28145000  0.78088000  0.33560000  1.0
  O  O221  1  0.40205000  0.64275000  0.19702000  1.0
  O  O222  1  0.40789000  0.75527000  0.19985000  1.0
  O  O223  1  0.00003000  0.50006000  0.99993000  1.0
  O  O224  1  0.84305000  0.49559000  0.04986000  1.0
  O  O225  1  0.00405000  0.61257000  0.05825000  1.0
  O  O226  1  0.10787000  0.34685000  0.05348000  1.0
  O  O227  1  0.84658000  0.60894000  0.05349000  1.0
  O  O228  1  0.99446000  0.34315000  0.04997000  1.0
  O  O229  1  0.11363000  0.50324000  0.05843000  1.0
  O  O230  1  0.18409000  0.42284000  0.97732000  1.0
  O  O231  1  0.96895000  0.46928000  0.91394000  1.0
  O  O232  1  0.12567000  0.47409000  0.91880000  1.0
  O  O233  1  0.91440000  0.41474000  0.96882000  1.0
  O  O234  1  0.92219000  0.68476000  0.97767000  1.0
  O  O235  1  0.97348000  0.62613000  0.91929000  1.0
