# generated using pymatgen
data_Al2H25C35NO10
_symmetry_space_group_name_H-M   'P 1'
_cell_length_a   6.69508000
_cell_length_b   23.60350000
_cell_length_c   25.98420000
_cell_angle_alpha   101.80500000
_cell_angle_beta   89.99970000
_cell_angle_gamma   89.99990000
_symmetry_Int_Tables_number   1
_chemical_formula_structural   Al2H25C35NO10
_chemical_formula_sum   'Al4 H50 C70 N2 O20'
_cell_volume   4019.36520146
_cell_formula_units_Z   2
loop_
 _symmetry_equiv_pos_site_id
 _symmetry_equiv_pos_as_xyz
  1  'x, y, z'
loop_
 _atom_site_type_symbol
 _atom_site_label
 _atom_site_symmetry_multiplicity
 _atom_site_fract_x
 _atom_site_fract_y
 _atom_site_fract_z
 _atom_site_occupancy
  Al  Al0  1  0.10707000  0.50049000  0.49962000  1.0
  Al  Al1  1  0.60707000  0.49951000  0.50038000  1.0
  Al  Al2  1  0.70343000  0.99942000  0.00030000  1.0
  Al  Al3  1  0.20343000  0.00058000  0.99970000  1.0
  H  H4  1  0.62488000  0.10273000  0.89660000  1.0
  H  H5  1  0.12488000  0.89727000  0.10340000  1.0
  H  H6  1  0.60746000  0.16834000  0.83287000  1.0
  H  H7  1  0.10746000  0.83165000  0.16713000  1.0
  H  H8  1  0.25056000  0.17045000  0.82588000  1.0
  H  H9  1  0.75056000  0.82955000  0.17412000  1.0
  H  H10  1  0.26475000  0.10616000  0.89089000  1.0
  H  H11  1  0.76474000  0.89384000  0.10911000  1.0
  H  H12  1  0.18055000  0.26223000  0.81509000  1.0
  H  H13  1  0.68056000  0.73778000  0.18491000  1.0
  H  H14  1  0.15936000  0.32658000  0.75194000  1.0
  H  H15  1  0.65937000  0.67343000  0.24806000  1.0
  H  H16  1  0.62918000  0.23734000  0.68466000  1.0
  H  H17  1  0.12917000  0.76266000  0.31534000  1.0
  H  H18  1  0.65064000  0.17296000  0.74775000  1.0
  H  H19  1  0.15062000  0.82704000  0.25225000  1.0
  H  H20  1  0.55925000  0.32907000  0.67357000  1.0
  H  H21  1  0.05926000  0.67093000  0.32643000  1.0
  H  H22  1  0.54587000  0.39336000  0.60854000  1.0
  H  H23  1  0.04587000  0.60663000  0.39146000  1.0
  H  H24  1  0.18578000  0.39677000  0.60322000  1.0
  H  H25  1  0.68578000  0.60323000  0.39679000  1.0
  H  H26  1  0.20236000  0.33119000  0.66699000  1.0
  H  H27  1  0.70236000  0.66881000  0.33301000  1.0
  H  H28  1  0.81072000  0.22572000  0.33552000  1.0
  H  H29  1  0.31063000  0.77428000  0.66449000  1.0
  H  H30  1  0.86300000  0.15058000  0.26314000  1.0
  H  H31  1  0.36290000  0.84942000  0.73686000  1.0
  H  H32  1  0.22352000  0.24158000  0.20432000  1.0
  H  H33  1  0.72355000  0.75844000  0.79566000  1.0
  H  H34  1  0.15911000  0.25892000  0.31923000  1.0
  H  H35  1  0.65905000  0.74110000  0.68076000  1.0
  H  H36  1  0.19887000  0.31202000  0.28116000  1.0
  H  H37  1  0.69890000  0.68800000  0.71882000  1.0
  H  H38  1  0.68670000  0.24861000  0.17502000  1.0
  H  H39  1  0.18677000  0.75137000  0.82499000  1.0
  H  H40  1  0.92628000  0.27397000  0.16283000  1.0
  H  H41  1  0.42638000  0.72603000  0.83717000  1.0
  H  H42  1  0.65513000  0.32549000  0.24764000  1.0
  H  H43  1  0.15520000  0.67449000  0.75237000  1.0
  H  H44  1  0.64928000  0.17254000  0.23339000  1.0
  H  H45  1  0.14923000  0.82745000  0.76662000  1.0
  H  H46  1  0.60486000  0.25062000  0.30406000  1.0
  H  H47  1  0.10482000  0.74937000  0.69595000  1.0
  H  H48  1  0.89814000  0.34934000  0.23643000  1.0
  H  H49  1  0.39825000  0.65066000  0.76357000  1.0
  H  H50  1  0.35529000  0.42427000  0.48140000  1.0
  H  H51  1  0.85529000  0.57573000  0.51860000  1.0
  H  H52  1  0.45569000  0.07553000  0.01922000  1.0
  H  H53  1  0.95569000  0.92447000  0.98079000  1.0
  C  C54  1  0.45289000  0.92321000  0.92221000  1.0
  C  C55  1  0.95289000  0.07679000  0.07779000  1.0
  C  C56  1  0.35706000  0.57665000  0.57786000  1.0
  C  C57  1  0.85705000  0.42336000  0.42213000  1.0
  C  C58  1  0.35878000  0.56310000  0.43722000  1.0
  C  C59  1  0.85877000  0.43690000  0.56279000  1.0
  C  C60  1  0.76062000  0.11804000  0.88076000  1.0
  C  C61  1  0.26062000  0.88196000  0.11924000  1.0
  C  C62  1  0.75219000  0.15421000  0.84485000  1.0
  C  C63  1  0.25219000  0.84579000  0.15515000  1.0
  C  C64  1  0.92781000  0.17419000  0.82464000  1.0
  C  C65  1  0.42780000  0.82581000  0.17536000  1.0
  C  C66  1  0.11265000  0.15647000  0.84188000  1.0
  C  C67  1  0.61265000  0.84353000  0.15812000  1.0
  C  C68  1  0.12173000  0.12028000  0.87789000  1.0
  C  C69  1  0.62173000  0.87972000  0.12211000  1.0
  C  C70  1  0.94554000  0.10082000  0.89776000  1.0
  C  C71  1  0.44553000  0.89917000  0.10224000  1.0
  C  C72  1  0.06072000  0.25595000  0.78604000  1.0
  C  C73  1  0.56072000  0.74405000  0.21397000  1.0
  C  C74  1  0.04873000  0.29233000  0.75028000  1.0
  C  C75  1  0.54874000  0.70767000  0.24972000  1.0
  C  C76  1  0.89264000  0.28707000  0.71334000  1.0
  C  C77  1  0.39265000  0.71293000  0.28666000  1.0
  C  C78  1  0.74877000  0.24375000  0.71379000  1.0
  C  C79  1  0.24877000  0.75625000  0.28621000  1.0
  C  C80  1  0.76081000  0.20734000  0.74953000  1.0
  C  C81  1  0.26080000  0.79266000  0.25047000  1.0
  C  C82  1  0.91684000  0.21263000  0.78651000  1.0
  C  C83  1  0.41684000  0.78737000  0.21350000  1.0
  C  C84  1  0.69736000  0.34323000  0.65781000  1.0
  C  C85  1  0.19736000  0.65676000  0.34219000  1.0
  C  C86  1  0.68870000  0.37941000  0.62179000  1.0
  C  C87  1  0.18870000  0.62059000  0.37821000  1.0
  C  C88  1  0.86505000  0.39893000  0.60205000  1.0
  C  C89  1  0.36505000  0.60107000  0.39795000  1.0
  C  C90  1  0.04981000  0.38165000  0.61912000  1.0
  C  C91  1  0.54981000  0.61835000  0.38088000  1.0
  C  C92  1  0.05781000  0.34549000  0.65505000  1.0
  C  C93  1  0.55782000  0.65451000  0.34495000  1.0
  C  C94  1  0.88199000  0.32552000  0.67520000  1.0
  C  C95  1  0.38200000  0.67448000  0.32480000  1.0
  C  C96  1  0.79265000  0.18791000  0.25124000  1.0
  C  C97  1  0.29259000  0.81208000  0.74876000  1.0
  C  C98  1  0.13459000  0.22553000  0.23403000  1.0
  C  C99  1  0.63458000  0.77449000  0.76595000  1.0
  C  C100  1  0.10821000  0.27410000  0.28424000  1.0
  C  C101  1  0.60820000  0.72591000  0.71575000  1.0
  C  C102  1  0.85908000  0.37775000  0.37572000  1.0
  C  C103  1  0.35908000  0.62225000  0.62427000  1.0
  C  C104  1  0.92516000  0.20722000  0.20921000  1.0
  C  C105  1  0.42516000  0.79279000  0.79078000  1.0
  C  C106  1  0.76309000  0.23834000  0.29901000  1.0
  C  C107  1  0.26305000  0.76165000  0.70100000  1.0
  C  C108  1  0.88572000  0.29179000  0.29166000  1.0
  C  C109  1  0.38572000  0.70821000  0.70834000  1.0
  C  C110  1  0.81132000  0.31142000  0.24164000  1.0
  C  C111  1  0.31138000  0.68858000  0.75836000  1.0
  C  C112  1  0.83229000  0.26127000  0.19326000  1.0
  C  C113  1  0.33235000  0.73873000  0.80674000  1.0
  C  C114  1  0.86706000  0.33860000  0.33729000  1.0
  C  C115  1  0.36706000  0.66140000  0.66271000  1.0
  C  C116  1  0.94308000  0.16095000  0.16312000  1.0
  C  C117  1  0.44308000  0.83905000  0.83688000  1.0
  C  C118  1  0.95051000  0.12242000  0.12423000  1.0
  C  C119  1  0.45051000  0.87759000  0.87577000  1.0
  C  C120  1  0.45196000  0.93712000  0.06294000  1.0
  C  C121  1  0.95196000  0.06288000  0.93706000  1.0
  C  C122  1  0.23977000  0.17604000  0.24654000  1.0
  C  C123  1  0.73970000  0.82398000  0.75344000  1.0
  N  N124  1  0.32270000  0.13720000  0.25843000  1.0
  N  N125  1  0.82261000  0.86282000  0.74155000  1.0
  O  O126  1  0.52671000  0.54818000  0.45338000  1.0
  O  O127  1  0.02672000  0.45183000  0.54663000  1.0
  O  O128  1  0.18689000  0.55953000  0.55899000  1.0
  O  O129  1  0.68688000  0.44047000  0.44101000  1.0
  O  O130  1  0.18750000  0.54918000  0.45225000  1.0
  O  O131  1  0.68750000  0.45081000  0.54775000  1.0
  O  O132  1  0.02717000  0.44174000  0.44016000  1.0
  O  O133  1  0.52717000  0.55825000  0.55984000  1.0
  O  O134  1  0.78404000  0.04796000  0.95323000  1.0
  O  O135  1  0.28404000  0.95204000  0.04676000  1.0
  O  O136  1  0.35643000  0.46535000  0.49641000  1.0
  O  O137  1  0.85644000  0.53465000  0.50359000  1.0
  O  O138  1  0.62321000  0.94020000  0.94102000  1.0
  O  O139  1  0.12322000  0.05980000  0.05898000  1.0
  O  O140  1  0.45416000  0.03463000  0.00351000  1.0
  O  O141  1  0.95416000  0.96537000  0.99649000  1.0
  O  O142  1  0.28294000  0.94162000  0.94027000  1.0
  O  O143  1  0.78294000  0.05838000  0.05973000  1.0
  O  O144  1  0.62326000  0.95086000  0.04779000  1.0
  O  O145  1  0.12326000  0.04915000  0.95222000  1.0
