# generated using pymatgen
data_CuH8C6(BrN)2
_symmetry_space_group_name_H-M   'P 1'
_cell_length_a   6.87482000
_cell_length_b   7.47167000
_cell_length_c   9.72392000
_cell_angle_alpha   75.75200000
_cell_angle_beta   89.99780000
_cell_angle_gamma   62.67100000
_symmetry_Int_Tables_number   1
_chemical_formula_structural   CuH8C6(BrN)2
_chemical_formula_sum   'Cu2 H16 C12 Br4 N4'
_cell_volume   426.36679789
_cell_formula_units_Z   2
loop_
 _symmetry_equiv_pos_site_id
 _symmetry_equiv_pos_as_xyz
  1  'x, y, z'
loop_
 _atom_site_type_symbol
 _atom_site_label
 _atom_site_symmetry_multiplicity
 _atom_site_fract_x
 _atom_site_fract_y
 _atom_site_fract_z
 _atom_site_occupancy
  Cu  Cu0  1  0.53752000  0.92492000  0.82375000  1.0
  Cu  Cu1  1  0.46248000  0.07508000  0.17626000  1.0
  H  H2  1  0.33804000  0.68613000  0.99619000  1.0
  H  H3  1  0.02516000  0.31366000  0.00378000  1.0
  H  H4  1  0.66195000  0.31388000  0.00381000  1.0
  H  H5  1  0.97483000  0.68634000  0.99623000  1.0
  H  H6  1  0.03249000  0.23257000  0.47763000  1.0
  H  H7  1  0.26432000  0.76693000  0.52231000  1.0
  H  H8  1  0.96750000  0.76743000  0.52237000  1.0
  H  H9  1  0.73568000  0.23307000  0.47768000  1.0
  H  H10  1  0.28615000  0.15441000  0.57888000  1.0
  H  H11  1  0.44030000  0.84482000  0.42125000  1.0
  H  H12  1  0.71385000  0.84560000  0.42111000  1.0
  H  H13  1  0.55969000  0.15518000  0.57874000  1.0
  H  H14  1  0.03931000  0.36514000  0.60406000  1.0
  H  H15  1  0.40325000  0.63447000  0.39586000  1.0
  H  H16  1  0.96068000  0.63487000  0.39595000  1.0
  H  H17  1  0.59675000  0.36552000  0.60414000  1.0
  C  C18  1  0.20307000  0.79453000  0.91088000  1.0
  C  C19  1  0.99827000  0.20535000  0.08911000  1.0
  C  C20  1  0.79694000  0.20548000  0.08910000  1.0
  C  C21  1  0.00173000  0.79465000  0.91089000  1.0
  C  C22  1  0.07201000  0.06270000  0.69968000  1.0
  C  C23  1  0.13449000  0.93710000  0.30033000  1.0
  C  C24  1  0.92799000  0.93731000  0.30031000  1.0
  C  C25  1  0.86552000  0.06289000  0.69968000  1.0
  C  C26  1  0.10953000  0.21052000  0.58331000  1.0
  C  C27  1  0.31943000  0.78905000  0.41668000  1.0
  C  C28  1  0.89046000  0.78949000  0.41669000  1.0
  C  C29  1  0.68059000  0.21093000  0.58332000  1.0
  Br  Br30  1  0.36474000  0.27070000  0.87011000  1.0
  Br  Br31  1  0.63527000  0.72928000  0.12989000  1.0
  Br  Br32  1  0.69508000  0.60944000  0.74510000  1.0
  Br  Br33  1  0.30491000  0.39056000  0.25491000  1.0
  N  N34  1  0.23657000  0.93043000  0.80753000  1.0
  N  N35  1  0.16730000  0.06929000  0.19248000  1.0
  N  N36  1  0.76343000  0.06958000  0.19247000  1.0
  N  N37  1  0.83270000  0.93072000  0.80752000  1.0
