# generated using pymatgen
data_KNaH12(C2O5)2
_symmetry_space_group_name_H-M   'P 1'
_cell_length_a   6.19669000
_cell_length_b   11.64420000
_cell_length_c   14.26600000
_cell_angle_alpha   89.99990000
_cell_angle_beta   90.00000000
_cell_angle_gamma   89.99970000
_symmetry_Int_Tables_number   1
_chemical_formula_structural   KNaH12(C2O5)2
_chemical_formula_sum   'K4 Na4 H48 C16 O40'
_cell_volume   1029.37033014
_cell_formula_units_Z   4
loop_
 _symmetry_equiv_pos_site_id
 _symmetry_equiv_pos_as_xyz
  1  'x, y, z'
loop_
 _atom_site_type_symbol
 _atom_site_label
 _atom_site_symmetry_multiplicity
 _atom_site_fract_x
 _atom_site_fract_y
 _atom_site_fract_z
 _atom_site_occupancy
  K  K0  1  0.17161000  0.00000000  0.50000000  1.0
  K  K1  1  0.82837000  0.50000000  0.99999000  1.0
  K  K2  1  0.97127000  0.50000000  0.50001000  1.0
  K  K3  1  0.02869000  0.99999000  0.00000000  1.0
  Na  Na4  1  0.47571000  0.26950000  0.49409000  1.0
  Na  Na5  1  0.47571000  0.73050000  0.50591000  1.0
  Na  Na6  1  0.52428000  0.23050000  0.99409000  1.0
  Na  Na7  1  0.52429000  0.76950000  0.00591000  1.0
  H  H8  1  0.55205000  0.46739000  0.77903000  1.0
  H  H9  1  0.55204000  0.53261000  0.22097000  1.0
  H  H10  1  0.44796000  0.03261000  0.27903000  1.0
  H  H11  1  0.44796000  0.96739000  0.72097000  1.0
  H  H12  1  0.26944000  0.35365000  0.70323000  1.0
  H  H13  1  0.26943000  0.64635000  0.29677000  1.0
  H  H14  1  0.73057000  0.14635000  0.20323000  1.0
  H  H15  1  0.73057000  0.85365000  0.79677000  1.0
  H  H16  1  0.43822000  0.16072000  0.80767000  1.0
  H  H17  1  0.43822000  0.83928000  0.19233000  1.0
  H  H18  1  0.56178000  0.33928000  0.30767000  1.0
  H  H19  1  0.56178000  0.66072000  0.69233000  1.0
  H  H20  1  0.64762000  0.06020000  0.60309000  1.0
  H  H21  1  0.64762000  0.93980000  0.39692000  1.0
  H  H22  1  0.35239000  0.43980000  0.10309000  1.0
  H  H23  1  0.35238000  0.56020000  0.89691000  1.0
  H  H24  1  0.80821000  0.29424000  0.83147000  1.0
  H  H25  1  0.80821000  0.70576000  0.16853000  1.0
  H  H26  1  0.19179000  0.20576000  0.33147000  1.0
  H  H27  1  0.19180000  0.79424000  0.66853000  1.0
  H  H28  1  0.03096000  0.26615000  0.60386000  1.0
  H  H29  1  0.03096000  0.73385000  0.39614000  1.0
  H  H30  1  0.96904000  0.23385000  0.10386000  1.0
  H  H31  1  0.96904000  0.76614000  0.89613000  1.0
  H  H32  1  0.49204000  0.49714000  0.38666000  1.0
  H  H33  1  0.49204000  0.50286000  0.61334000  1.0
  H  H34  1  0.50796000  0.00286000  0.88666000  1.0
  H  H35  1  0.50796000  0.99714000  0.11334000  1.0
  H  H36  1  0.27822000  0.42652000  0.35354000  1.0
  H  H37  1  0.27823000  0.57349000  0.64646000  1.0
  H  H38  1  0.72177000  0.07348000  0.85354000  1.0
  H  H39  1  0.72177000  0.92652000  0.14646000  1.0
  H  H40  1  0.93989000  0.62120000  0.71006000  1.0
  H  H41  1  0.93989000  0.37881000  0.28994000  1.0
  H  H42  1  0.06011000  0.87881000  0.21006000  1.0
  H  H43  1  0.06011000  0.12120000  0.78994000  1.0
  H  H44  1  0.07175000  0.52018000  0.75687000  1.0
  H  H45  1  0.07175000  0.47982000  0.24313000  1.0
  H  H46  1  0.92825000  0.97982000  0.25687000  1.0
  H  H47  1  0.92825000  0.02018000  0.74313000  1.0
  H  H48  1  0.00260000  0.24200000  0.49609000  1.0
  H  H49  1  0.00260000  0.75801000  0.50391000  1.0
  H  H50  1  0.99739000  0.25800000  0.99609000  1.0
  H  H51  1  0.99739000  0.74199000  0.00391000  1.0
  H  H52  1  0.46989000  0.13923000  0.64898000  1.0
  H  H53  1  0.46989000  0.86078000  0.35103000  1.0
  H  H54  1  0.53011000  0.36077000  0.14898000  1.0
  H  H55  1  0.53011000  0.63923000  0.85102000  1.0
  C  C56  1  0.71089000  0.34696000  0.68800000  1.0
  C  C57  1  0.71088000  0.65303000  0.31200000  1.0
  C  C58  1  0.28911000  0.15303000  0.18799000  1.0
  C  C59  1  0.28912000  0.84697000  0.81201000  1.0
  C  C60  1  0.57308000  0.37372000  0.77464000  1.0
  C  C61  1  0.57306000  0.62629000  0.22536000  1.0
  C  C62  1  0.42693000  0.12628000  0.27464000  1.0
  C  C63  1  0.42693000  0.87371000  0.72536000  1.0
  C  C64  1  0.21325000  0.35095000  0.85201000  1.0
  C  C65  1  0.21325000  0.64906000  0.14799000  1.0
  C  C66  1  0.78675000  0.14905000  0.35201000  1.0
  C  C67  1  0.78675000  0.85095000  0.64799000  1.0
  C  C68  1  0.34860000  0.31837000  0.76567000  1.0
  C  C69  1  0.34860000  0.68164000  0.23433000  1.0
  C  C70  1  0.65140000  0.18163000  0.26567000  1.0
  C  C71  1  0.65141000  0.81836000  0.73433000  1.0
  O  O72  1  0.87678000  0.28664000  0.70227000  1.0
  O  O73  1  0.87677000  0.71336000  0.29773000  1.0
  O  O74  1  0.12322000  0.21336000  0.20227000  1.0
  O  O75  1  0.12323000  0.78664000  0.79773000  1.0
  O  O76  1  0.67931000  0.33337000  0.85716000  1.0
  O  O77  1  0.67931000  0.66666667  0.14284000  1.0
  O  O78  1  0.32069000  0.16663000  0.35716000  1.0
  O  O79  1  0.32069000  0.83337000  0.64284000  1.0
  O  O80  1  0.36056000  0.19705000  0.75300000  1.0
  O  O81  1  0.36055000  0.80296000  0.24700000  1.0
  O  O82  1  0.63944000  0.30295000  0.25300000  1.0
  O  O83  1  0.63945000  0.69705000  0.74700000  1.0
  O  O84  1  0.64659000  0.38602000  0.60913000  1.0
  O  O85  1  0.64658000  0.61398000  0.39087000  1.0
  O  O86  1  0.35342000  0.11398000  0.10913000  1.0
  O  O87  1  0.35342000  0.88602000  0.89087000  1.0
  O  O88  1  0.42136000  0.41947000  0.38578000  1.0
  O  O89  1  0.42136000  0.58053000  0.61422000  1.0
  O  O90  1  0.57864000  0.08053000  0.88578000  1.0
  O  O91  1  0.57864000  0.91947000  0.11422000  1.0
  O  O92  1  0.51836000  0.10605000  0.58844000  1.0
  O  O93  1  0.51836000  0.89396000  0.41157000  1.0
  O  O94  1  0.48164000  0.39395000  0.08843000  1.0
  O  O95  1  0.48164000  0.60605000  0.91156000  1.0
  O  O96  1  0.14793000  0.45460000  0.85860000  1.0
  O  O97  1  0.14793000  0.54540000  0.14140000  1.0
  O  O98  1  0.85208000  0.04540000  0.35860000  1.0
  O  O99  1  0.85208000  0.95460000  0.64140000  1.0
  O  O100  1  0.18154000  0.27243000  0.91188000  1.0
  O  O101  1  0.18154000  0.72757000  0.08812000  1.0
  O  O102  1  0.81845000  0.22756000  0.41188000  1.0
  O  O103  1  0.81845000  0.77244000  0.58812000  1.0
  O  O104  1  0.11357000  0.26274000  0.54389000  1.0
  O  O105  1  0.11357000  0.73726000  0.45611000  1.0
  O  O106  1  0.88643000  0.23726000  0.04388000  1.0
  O  O107  1  0.88643000  0.76273000  0.95611000  1.0
  O  O108  1  0.03352000  0.55562000  0.69509000  1.0
  O  O109  1  0.03351000  0.44438000  0.30491000  1.0
  O  O110  1  0.96648000  0.94438000  0.19509000  1.0
  O  O111  1  0.96648000  0.05562000  0.80491000  1.0
