# generated using pymatgen
data_Ag2H11C24N3(O2F3)2
_symmetry_space_group_name_H-M   'P 1'
_cell_length_a   7.02328000
_cell_length_b   11.12190000
_cell_length_c   15.29360000
_cell_angle_alpha   90.00020000
_cell_angle_beta   90.00020000
_cell_angle_gamma   85.09740000
_symmetry_Int_Tables_number   1
_chemical_formula_structural   Ag2H11C24N3(O2F3)2
_chemical_formula_sum   'Ag4 H22 C48 N6 O8 F12'
_cell_volume   1190.24641159
_cell_formula_units_Z   2
loop_
 _symmetry_equiv_pos_site_id
 _symmetry_equiv_pos_as_xyz
  1  'x, y, z'
loop_
 _atom_site_type_symbol
 _atom_site_label
 _atom_site_symmetry_multiplicity
 _atom_site_fract_x
 _atom_site_fract_y
 _atom_site_fract_z
 _atom_site_occupancy
  Ag  Ag0  1  0.75000000  0.00001000  0.25801000  1.0
  Ag  Ag1  1  0.24999000  0.00000000  0.74199000  1.0
  Ag  Ag2  1  0.75001000  0.00000000  0.44769000  1.0
  Ag  Ag3  1  0.25000000  0.00000000  0.55231000  1.0
  H  H4  1  0.17206000  0.61977000  0.13482000  1.0
  H  H5  1  0.32793000  0.38023000  0.13482000  1.0
  H  H6  1  0.82792000  0.38024000  0.86518000  1.0
  H  H7  1  0.67206000  0.61977000  0.86518000  1.0
  H  H8  1  0.08253000  0.73706000  0.81814000  1.0
  H  H9  1  0.41746000  0.26294000  0.81815000  1.0
  H  H10  1  0.91747000  0.26294000  0.18185000  1.0
  H  H11  1  0.58253000  0.73706000  0.18185000  1.0
  H  H12  1  0.98695000  0.88162000  0.93574000  1.0
  H  H13  1  0.51304000  0.11838000  0.93574000  1.0
  H  H14  1  0.01304000  0.11838000  0.06426000  1.0
  H  H15  1  0.48695000  0.88162000  0.06426000  1.0
  H  H16  1  0.09261000  0.34160000  0.75482000  1.0
  H  H17  1  0.40739000  0.65841000  0.75482000  1.0
  H  H18  1  0.90739000  0.65840000  0.24518000  1.0
  H  H19  1  0.59261000  0.34159000  0.24518000  1.0
  H  H20  1  0.09423000  0.34132000  0.59251000  1.0
  H  H21  1  0.40578000  0.65868000  0.59251000  1.0
  H  H22  1  0.90578000  0.65867000  0.40749000  1.0
  H  H23  1  0.59422000  0.34131000  0.40748000  1.0
  H  H24  1  0.25001000  0.50000000  0.51112000  1.0
  H  H25  1  0.75000000  0.49999000  0.48888000  1.0
  C  C26  1  0.01947000  0.84446000  0.10749000  1.0
  C  C27  1  0.48051000  0.15554000  0.10749000  1.0
  C  C28  1  0.98051000  0.15554000  0.89250000  1.0
  C  C29  1  0.51947000  0.84446000  0.89250000  1.0
  C  C30  1  0.07427000  0.75898000  0.04171000  1.0
  C  C31  1  0.42572000  0.24103000  0.04171000  1.0
  C  C32  1  0.92571000  0.24103000  0.95829000  1.0
  C  C33  1  0.57428000  0.75898000  0.95829000  1.0
  C  C34  1  0.15345000  0.64335000  0.06604000  1.0
  C  C35  1  0.34654000  0.35666000  0.06604000  1.0
  C  C36  1  0.84653000  0.35666000  0.93396000  1.0
  C  C37  1  0.65345000  0.64335000  0.93396000  1.0
  C  C38  1  0.20835000  0.56168000  0.00019000  1.0
  C  C39  1  0.29165000  0.43833000  0.00019000  1.0
  C  C40  1  0.79164000  0.43834000  0.99981000  1.0
  C  C41  1  0.70835000  0.56168000  0.99981000  1.0
  C  C42  1  0.18408000  0.59650000  0.91079000  1.0
  C  C43  1  0.31592000  0.40350000  0.91079000  1.0
  C  C44  1  0.81591000  0.40350000  0.08921000  1.0
  C  C45  1  0.68408000  0.59651000  0.08921000  1.0
  C  C46  1  0.10308000  0.71065000  0.88629000  1.0
  C  C47  1  0.39691000  0.28936000  0.88629000  1.0
  C  C48  1  0.89691000  0.28936000  0.11371000  1.0
  C  C49  1  0.60308000  0.71064000  0.11371000  1.0
  C  C50  1  0.04934000  0.79161000  0.95262000  1.0
  C  C51  1  0.45065000  0.20840000  0.95262000  1.0
  C  C52  1  0.95065000  0.20840000  0.04737000  1.0
  C  C53  1  0.54934000  0.79161000  0.04738000  1.0
  C  C54  1  0.25000000  0.50000000  0.76447000  1.0
  C  C55  1  0.75000000  0.50000000  0.23553000  1.0
  C  C56  1  0.16128000  0.41087000  0.71916000  1.0
  C  C57  1  0.33872000  0.58912000  0.71916000  1.0
  C  C58  1  0.83873000  0.58912000  0.28084000  1.0
  C  C59  1  0.66128000  0.41087000  0.28084000  1.0
  C  C60  1  0.16235000  0.41095000  0.62798000  1.0
  C  C61  1  0.33765000  0.58904000  0.62798000  1.0
  C  C62  1  0.83766000  0.58904000  0.37202000  1.0
  C  C63  1  0.66235000  0.41095000  0.37202000  1.0
  C  C64  1  0.25001000  0.49999000  0.58230000  1.0
  C  C65  1  0.75001000  0.49999000  0.41770000  1.0
  C  C66  1  0.02937000  0.15648000  0.36514000  1.0
  C  C67  1  0.47065000  0.84352000  0.36514000  1.0
  C  C68  1  0.97064000  0.84352000  0.63488000  1.0
  C  C69  1  0.52937000  0.15647000  0.63488000  1.0
  C  C70  1  0.20438000  0.23326000  0.36318000  1.0
  C  C71  1  0.29563000  0.76674000  0.36317000  1.0
  C  C72  1  0.79562000  0.76674000  0.63682000  1.0
  C  C73  1  0.70439000  0.23325000  0.63683000  1.0
  N  N74  1  0.97528000  0.91557000  0.16171000  1.0
  N  N75  1  0.52471000  0.08443000  0.16172000  1.0
  N  N76  1  0.02470000  0.08444000  0.83828000  1.0
  N  N77  1  0.47528000  0.91557000  0.83829000  1.0
  N  N78  1  0.25000000  0.50000000  0.85792000  1.0
  N  N79  1  0.75000000  0.50000000  0.14208000  1.0
  O  O80  1  0.93877000  0.15180000  0.29499000  1.0
  O  O81  1  0.56124000  0.84820000  0.29499000  1.0
  O  O82  1  0.06121000  0.84820000  0.70500000  1.0
  O  O83  1  0.43878000  0.15180000  0.70500000  1.0
  O  O84  1  0.00297000  0.10514000  0.43768000  1.0
  O  O85  1  0.49704000  0.89485000  0.43767000  1.0
  O  O86  1  0.99704000  0.89485000  0.56232000  1.0
  O  O87  1  0.50297000  0.10514000  0.56232000  1.0
  F  F88  1  0.20113000  0.30948000  0.29342000  1.0
  F  F89  1  0.29889000  0.69051000  0.29342000  1.0
  F  F90  1  0.79888000  0.69051000  0.70658000  1.0
  F  F91  1  0.70114000  0.30947000  0.70659000  1.0
  F  F92  1  0.21644000  0.30139000  0.43641000  1.0
  F  F93  1  0.28357000  0.69861000  0.43641000  1.0
  F  F94  1  0.78356000  0.69861000  0.56359000  1.0
  F  F95  1  0.71644000  0.30139000  0.56359000  1.0
  F  F96  1  0.36939000  0.15879000  0.35736000  1.0
  F  F97  1  0.13063000  0.84120000  0.35736000  1.0
  F  F98  1  0.63061000  0.84120000  0.64264000  1.0
  F  F99  1  0.86939000  0.15878000  0.64264000  1.0
