# generated using pymatgen
data_MnH12(C4N5)2
_symmetry_space_group_name_H-M   'P 1'
_cell_length_a   6.89381000
_cell_length_b   9.41231000
_cell_length_c   9.41223000
_cell_angle_alpha   85.26220000
_cell_angle_beta   89.99820000
_cell_angle_gamma   89.99980000
_symmetry_Int_Tables_number   1
_chemical_formula_structural   MnH12(C4N5)2
_chemical_formula_sum   'Mn2 H24 C16 N20'
_cell_volume   608.64153556
_cell_formula_units_Z   2
loop_
 _symmetry_equiv_pos_site_id
 _symmetry_equiv_pos_as_xyz
  1  'x, y, z'
loop_
 _atom_site_type_symbol
 _atom_site_label
 _atom_site_symmetry_multiplicity
 _atom_site_fract_x
 _atom_site_fract_y
 _atom_site_fract_z
 _atom_site_occupancy
  Mn  Mn0  1  0.75000000  0.00586000  0.00587000  1.0
  Mn  Mn1  1  0.25001000  0.99412000  0.99413000  1.0
  H  H2  1  0.74998000  0.66277000  0.02345000  1.0
  H  H3  1  0.25000000  0.33723000  0.97656000  1.0
  H  H4  1  0.24998000  0.97656000  0.33720000  1.0
  H  H5  1  0.75000000  0.02345000  0.66280000  1.0
  H  H6  1  0.75000000  0.65774000  0.47232000  1.0
  H  H7  1  0.25003000  0.34225000  0.52768000  1.0
  H  H8  1  0.25002000  0.52768000  0.34226000  1.0
  H  H9  1  0.75003000  0.47233000  0.65774000  1.0
  H  H10  1  0.75000000  0.48194000  0.27352000  1.0
  H  H11  1  0.25003000  0.51807000  0.72648000  1.0
  H  H12  1  0.25001000  0.72650000  0.51804000  1.0
  H  H13  1  0.75002000  0.27351000  0.48196000  1.0
  H  H14  1  0.62118000  0.94009000  0.46879000  1.0
  H  H15  1  0.12119000  0.05989000  0.53124000  1.0
  H  H16  1  0.37881000  0.53122000  0.05989000  1.0
  H  H17  1  0.87883000  0.46878000  0.94010000  1.0
  H  H18  1  0.37881000  0.05989000  0.53123000  1.0
  H  H19  1  0.87881000  0.94010000  0.46877000  1.0
  H  H20  1  0.62118000  0.46880000  0.94010000  1.0
  H  H21  1  0.12118000  0.53122000  0.05990000  1.0
  H  H22  1  0.74997000  0.04647000  0.33463000  1.0
  H  H23  1  0.25000000  0.95353000  0.66538000  1.0
  H  H24  1  0.24999000  0.66536000  0.95352000  1.0
  H  H25  1  0.74999000  0.33465000  0.04648000  1.0
  C  C26  1  0.74999000  0.68729000  0.13355000  1.0
  C  C27  1  0.25000000  0.31271000  0.86645000  1.0
  C  C28  1  0.24999000  0.86646000  0.31269000  1.0
  C  C29  1  0.75000000  0.13355000  0.68731000  1.0
  C  C30  1  0.74998000  0.94506000  0.39989000  1.0
  C  C31  1  0.25000000  0.05493000  0.60012000  1.0
  C  C32  1  0.25000000  0.60010000  0.05493000  1.0
  C  C33  1  0.75000000  0.39991000  0.94507000  1.0
  C  C34  1  0.75000000  0.59718000  0.25576000  1.0
  C  C35  1  0.25002000  0.40282000  0.74424000  1.0
  C  C36  1  0.25000000  0.74425000  0.40280000  1.0
  C  C37  1  0.75002000  0.25575000  0.59720000  1.0
  C  C38  1  0.74999000  0.82378000  0.30993000  1.0
  C  C39  1  0.25000000  0.17621000  0.69007000  1.0
  C  C40  1  0.24999000  0.69007000  0.17620000  1.0
  C  C41  1  0.75000000  0.30993000  0.82379000  1.0
  N  N42  1  0.50438000  0.89329000  0.89328000  1.0
  N  N43  1  0.00437000  0.10670000  0.10671000  1.0
  N  N44  1  0.49562000  0.10671000  0.10671000  1.0
  N  N45  1  0.99562000  0.89330000  0.89328000  1.0
  N  N46  1  0.74999000  0.82729000  0.16822000  1.0
  N  N47  1  0.25000000  0.17271000  0.83178000  1.0
  N  N48  1  0.24999000  0.83178000  0.17269000  1.0
  N  N49  1  0.75000000  0.16821000  0.82732000  1.0
  N  N50  1  0.51229000  0.80637000  0.80637000  1.0
  N  N51  1  0.01228000  0.19362000  0.19362000  1.0
  N  N52  1  0.48770000  0.19363000  0.19363000  1.0
  N  N53  1  0.98770000  0.80637000  0.80638000  1.0
  N  N54  1  0.75000000  0.68579000  0.36580000  1.0
  N  N55  1  0.25002000  0.31420000  0.63420000  1.0
  N  N56  1  0.25000000  0.63420000  0.31420000  1.0
  N  N57  1  0.75002000  0.36581000  0.68579000  1.0
  N  N58  1  0.51782000  0.72163000  0.72162000  1.0
  N  N59  1  0.01781000  0.27838000  0.27836000  1.0
  N  N60  1  0.48219000  0.27837000  0.27837000  1.0
  N  N61  1  0.98217000  0.72161000  0.72164000  1.0
