# generated using pymatgen
data_CdH3(CO)5
_symmetry_space_group_name_H-M   'P 1'
_cell_length_a   7.44704000
_cell_length_b   9.52800000
_cell_length_c   9.52794000
_cell_angle_alpha   67.64030000
_cell_angle_beta   71.66660000
_cell_angle_gamma   71.66660000
_symmetry_Int_Tables_number   1
_chemical_formula_structural   CdH3(CO)5
_chemical_formula_sum   'Cd4 H12 C20 O20'
_cell_volume   578.68389658
_cell_formula_units_Z   4
loop_
 _symmetry_equiv_pos_site_id
 _symmetry_equiv_pos_as_xyz
  1  'x, y, z'
loop_
 _atom_site_type_symbol
 _atom_site_label
 _atom_site_symmetry_multiplicity
 _atom_site_fract_x
 _atom_site_fract_y
 _atom_site_fract_z
 _atom_site_occupancy
  Cd  Cd0  1  0.04290000  0.10259000  0.27354000  1.0
  Cd  Cd1  1  0.45710000  0.72645000  0.89741000  1.0
  Cd  Cd2  1  0.95710000  0.89742000  0.72646000  1.0
  Cd  Cd3  1  0.54290000  0.27355000  0.10259000  1.0
  H  H4  1  0.38441000  0.87630000  0.18319000  1.0
  H  H5  1  0.11560000  0.81680000  0.12370000  1.0
  H  H6  1  0.61559000  0.12370000  0.81681000  1.0
  H  H7  1  0.88440000  0.18320000  0.87630000  1.0
  H  H8  1  0.40780000  0.94295000  0.29897000  1.0
  H  H9  1  0.09220000  0.70103000  0.05705000  1.0
  H  H10  1  0.59220000  0.05705000  0.70103000  1.0
  H  H11  1  0.90780000  0.29897000  0.94295000  1.0
  H  H12  1  0.26812000  0.68014000  0.46877000  1.0
  H  H13  1  0.23188000  0.53122000  0.31985000  1.0
  H  H14  1  0.73188000  0.31986000  0.53123000  1.0
  H  H15  1  0.76812000  0.46878000  0.68015000  1.0
  C  C16  1  0.26484000  0.25246000  0.92426000  1.0
  C  C17  1  0.23516000  0.07574000  0.74754000  1.0
  C  C18  1  0.73516000  0.74754000  0.07574000  1.0
  C  C19  1  0.76484000  0.92426000  0.25246000  1.0
  C  C20  1  0.26149000  0.32992000  0.75411000  1.0
  C  C21  1  0.23851000  0.24589000  0.67008000  1.0
  C  C22  1  0.73851000  0.67008000  0.24589000  1.0
  C  C23  1  0.76149000  0.75411000  0.32992000  1.0
  C  C24  1  0.27057000  0.48755000  0.68209000  1.0
  C  C25  1  0.22943000  0.31790000  0.51244000  1.0
  C  C26  1  0.72943000  0.51245000  0.31791000  1.0
  C  C27  1  0.77057000  0.68210000  0.48756000  1.0
  C  C28  1  0.25915000  0.55852000  0.52567000  1.0
  C  C29  1  0.24085000  0.47432000  0.44147000  1.0
  C  C30  1  0.74085000  0.44148000  0.47433000  1.0
  C  C31  1  0.75915000  0.52568000  0.55853000  1.0
  C  C32  1  0.30483000  0.58025000  0.76382000  1.0
  C  C33  1  0.19517000  0.23617000  0.41975000  1.0
  C  C34  1  0.69517000  0.41975000  0.23618000  1.0
  C  C35  1  0.80483000  0.76383000  0.58025000  1.0
  O  O36  1  0.10002000  0.26525000  0.01824000  1.0
  O  O37  1  0.39996000  0.98177000  0.73476000  1.0
  O  O38  1  0.89998000  0.73475000  0.98176000  1.0
  O  O39  1  0.60004000  0.01823000  0.26524000  1.0
  O  O40  1  0.42486000  0.17748000  0.96370000  1.0
  O  O41  1  0.07512000  0.03630000  0.82252000  1.0
  O  O42  1  0.57514000  0.82252000  0.03630000  1.0
  O  O43  1  0.92488000  0.96370000  0.17748000  1.0
  O  O44  1  0.39205000  0.51130000  0.87643000  1.0
  O  O45  1  0.10795000  0.12356000  0.48870000  1.0
  O  O46  1  0.60795000  0.48870000  0.12357000  1.0
  O  O47  1  0.89205000  0.87644000  0.51130000  1.0
  O  O48  1  0.25807000  0.72889000  0.71245000  1.0
  O  O49  1  0.24193000  0.28754000  0.27111000  1.0
  O  O50  1  0.74193000  0.27111000  0.28755000  1.0
  O  O51  1  0.75807000  0.71246000  0.72889000  1.0
  O  O52  1  0.31031000  0.90449000  0.27951000  1.0
  O  O53  1  0.18970000  0.72048000  0.09551000  1.0
  O  O54  1  0.68970000  0.09551000  0.72048000  1.0
  O  O55  1  0.81030000  0.27952000  0.90449000  1.0
