# generated using pymatgen
data_Zr3H5C24S6Cl3O16
_symmetry_space_group_name_H-M   'P 1'
_cell_length_a   16.49650000
_cell_length_b   16.49670000
_cell_length_c   23.26230000
_cell_angle_alpha   89.99890000
_cell_angle_beta   89.99820000
_cell_angle_gamma   89.98680000
_symmetry_Int_Tables_number   1
_chemical_formula_structural   Zr3H5C24S6Cl3O16
_chemical_formula_sum   'Zr12 H20 C96 S24 Cl12 O64'
_cell_volume   6330.55124133
_cell_formula_units_Z   4
loop_
 _symmetry_equiv_pos_site_id
 _symmetry_equiv_pos_as_xyz
  1  'x, y, z'
loop_
 _atom_site_type_symbol
 _atom_site_label
 _atom_site_symmetry_multiplicity
 _atom_site_fract_x
 _atom_site_fract_y
 _atom_site_fract_z
 _atom_site_occupancy
  Zr  Zr0  1  0.60759000  0.60750000  0.50119000  1.0
  Zr  Zr1  1  0.39276000  0.39275000  0.49881000  1.0
  Zr  Zr2  1  0.50130000  0.50120000  0.39261000  1.0
  Zr  Zr3  1  0.49908000  0.49888000  0.60740000  1.0
  Zr  Zr4  1  0.39300000  0.60776000  0.49999000  1.0
  Zr  Zr5  1  0.60784000  0.39286000  0.50003000  1.0
  Zr  Zr6  1  0.10793000  0.89320000  0.00000000  1.0
  Zr  Zr7  1  0.89163000  0.10629000  0.99996000  1.0
  Zr  Zr8  1  0.89346000  0.89180000  0.99954000  1.0
  Zr  Zr9  1  0.10652000  0.10812000  0.00049000  1.0
  Zr  Zr10  1  0.00063000  0.00041000  0.89253000  1.0
  Zr  Zr11  1  0.99960000  0.99955000  0.10747000  1.0
  H  H12  1  0.50100000  0.66944000  0.41594000  1.0
  H  H13  1  0.33079000  0.49933000  0.58390000  1.0
  H  H14  1  0.50100000  0.33195000  0.41471000  1.0
  H  H15  1  0.66827000  0.49931000  0.58547000  1.0
  H  H16  1  0.00138000  0.83134000  0.91509000  1.0
  H  H17  1  0.99937000  0.16910000  0.91572000  1.0
  H  H18  1  0.83089000  0.99881000  0.08427000  1.0
  H  H19  1  0.16862000  0.00057000  0.08490000  1.0
  H  H20  1  0.37175000  0.89101000  0.50309000  1.0
  H  H21  1  0.89111000  0.37144000  0.49760000  1.0
  H  H22  1  0.86903000  0.13068000  0.26021000  1.0
  H  H23  1  0.13557000  0.87380000  0.73987000  1.0
  H  H24  1  0.12541000  0.86376000  0.26013000  1.0
  H  H25  1  0.86844000  0.13001000  0.73991000  1.0
  H  H26  1  0.26227000  0.25773000  0.86897000  1.0
  H  H27  1  0.74285000  0.73778000  0.13079000  1.0
  H  H28  1  0.12803000  0.13367000  0.26047000  1.0
  H  H29  1  0.86665000  0.87210000  0.73938000  1.0
  H  H30  1  0.12957000  0.60820000  0.00297000  1.0
  H  H31  1  0.39108000  0.12873000  0.99817000  1.0
  C  C32  1  0.49941000  0.77274000  0.50352000  1.0
  C  C33  1  0.22783000  0.50236000  0.49642000  1.0
  C  C34  1  0.50244000  0.22775000  0.50209000  1.0
  C  C35  1  0.77283000  0.49912000  0.49807000  1.0
  C  C36  1  0.64058000  0.63532000  0.36539000  1.0
  C  C37  1  0.63233000  0.63760000  0.63775000  1.0
  C  C38  1  0.36486000  0.35944000  0.63439000  1.0
  C  C39  1  0.36248000  0.36780000  0.36247000  1.0
  C  C40  1  0.36325000  0.63385000  0.36280000  1.0
  C  C41  1  0.63941000  0.36879000  0.36276000  1.0
  C  C42  1  0.63172000  0.36097000  0.63731000  1.0
  C  C43  1  0.36649000  0.63699000  0.63714000  1.0
  C  C44  1  0.13937000  0.86792000  0.86318000  1.0
  C  C45  1  0.86146000  0.13229000  0.86318000  1.0
  C  C46  1  0.86645000  0.13738000  0.13689000  1.0
  C  C47  1  0.13290000  0.86173000  0.13684000  1.0
  C  C48  1  0.00216000  0.72725000  0.00229000  1.0
  C  C49  1  0.27243000  0.00138000  0.99769000  1.0
  C  C50  1  0.99693000  0.27225000  0.00308000  1.0
  C  C51  1  0.72745000  0.99709000  0.99693000  1.0
  C  C52  1  0.86273000  0.86712000  0.86277000  1.0
  C  C53  1  0.86663000  0.85989000  0.13562000  1.0
  C  C54  1  0.13205000  0.13869000  0.13711000  1.0
  C  C55  1  0.13939000  0.13457000  0.86443000  1.0
  C  C56  1  0.56941000  0.08563000  0.50236000  1.0
  C  C57  1  0.43379000  0.91332000  0.50299000  1.0
  C  C58  1  0.50366000  0.13877000  0.50261000  1.0
  C  C59  1  0.50012000  0.86187000  0.50325000  1.0
  C  C60  1  0.45889000  0.99518000  0.50269000  1.0
  C  C61  1  0.54392000  0.00380000  0.50246000  1.0
  C  C62  1  0.08565000  0.56920000  0.49719000  1.0
  C  C63  1  0.91342000  0.43347000  0.49750000  1.0
  C  C64  1  0.13885000  0.50351000  0.49669000  1.0
  C  C65  1  0.86195000  0.49978000  0.49752000  1.0
  C  C66  1  0.99528000  0.45861000  0.49737000  1.0
  C  C67  1  0.00385000  0.54364000  0.49745000  1.0
  C  C68  1  0.67804000  0.33183000  0.25812000  1.0
  C  C69  1  0.82827000  0.17413000  0.24018000  1.0
  C  C70  1  0.68315000  0.32459000  0.31770000  1.0
  C  C71  1  0.82223000  0.18287000  0.18114000  1.0
  C  C72  1  0.77530000  0.22823000  0.26852000  1.0
  C  C73  1  0.73048000  0.27680000  0.23007000  1.0
  C  C74  1  0.32666000  0.67276000  0.74172000  1.0
  C  C75  1  0.17655000  0.83047000  0.75982000  1.0
  C  C76  1  0.32216000  0.68069000  0.68216000  1.0
  C  C77  1  0.18356000  0.82254000  0.81886000  1.0
  C  C78  1  0.22891000  0.77590000  0.73140000  1.0
  C  C79  1  0.27392000  0.72745000  0.76979000  1.0
  C  C80  1  0.32738000  0.67365000  0.25821000  1.0
  C  C81  1  0.16912000  0.82318000  0.24017000  1.0
  C  C82  1  0.31911000  0.67773000  0.31776000  1.0
  C  C83  1  0.17776000  0.81698000  0.18114000  1.0
  C  C84  1  0.22362000  0.77071000  0.26856000  1.0
  C  C85  1  0.27264000  0.72634000  0.23015000  1.0
  C  C86  1  0.66865000  0.32241000  0.74199000  1.0
  C  C87  1  0.82534000  0.17115000  0.75994000  1.0
  C  C88  1  0.67569000  0.31705000  0.68241000  1.0
  C  C89  1  0.81662000  0.17722000  0.81897000  1.0
  C  C90  1  0.77158000  0.22444000  0.73161000  1.0
  C  C91  1  0.72340000  0.26968000  0.77004000  1.0
  C  C92  1  0.26028000  0.25528000  0.67227000  1.0
  C  C93  1  0.24247000  0.23754000  0.82674000  1.0
  C  C94  1  0.31993000  0.31441000  0.67846000  1.0
  C  C95  1  0.18386000  0.17843000  0.81945000  1.0
  C  C96  1  0.27060000  0.26583000  0.77301000  1.0
  C  C97  1  0.23226000  0.22747000  0.72620000  1.0
  C  C98  1  0.74469000  0.73985000  0.32754000  1.0
  C  C99  1  0.76286000  0.75757000  0.17308000  1.0
  C  C100  1  0.68552000  0.68025000  0.32130000  1.0
  C  C101  1  0.82216000  0.81595000  0.18051000  1.0
  C  C102  1  0.73425000  0.72959000  0.22677000  1.0
  C  C103  1  0.77257000  0.76785000  0.27364000  1.0
  C  C104  1  0.32488000  0.32899000  0.25799000  1.0
  C  C105  1  0.17025000  0.17565000  0.24041000  1.0
  C  C106  1  0.31843000  0.32350000  0.31758000  1.0
  C  C107  1  0.17718000  0.18330000  0.18134000  1.0
  C  C108  1  0.22418000  0.22884000  0.26868000  1.0
  C  C109  1  0.27100000  0.27523000  0.23014000  1.0
  C  C110  1  0.67119000  0.67540000  0.74219000  1.0
  C  C111  1  0.82468000  0.82990000  0.75948000  1.0
  C  C112  1  0.67650000  0.68182000  0.68259000  1.0
  C  C113  1  0.81745000  0.82267000  0.81856000  1.0
  C  C114  1  0.77127000  0.77611000  0.73129000  1.0
  C  C115  1  0.72503000  0.72929000  0.76994000  1.0
  C  C116  1  0.93069000  0.41471000  0.00247000  1.0
  C  C117  1  0.06738000  0.58630000  0.00279000  1.0
  C  C118  1  0.99611000  0.36120000  0.00312000  1.0
  C  C119  1  0.00135000  0.63812000  0.00259000  1.0
  C  C120  1  0.04181000  0.50457000  0.00275000  1.0
  C  C121  1  0.95673000  0.49639000  0.00236000  1.0
  C  C122  1  0.58518000  0.93051000  0.99708000  1.0
  C  C123  1  0.41322000  0.06663000  0.99778000  1.0
  C  C124  1  0.63848000  0.99611000  0.99693000  1.0
  C  C125  1  0.36158000  0.00048000  0.99740000  1.0
  C  C126  1  0.49501000  0.04129000  0.99768000  1.0
  C  C127  1  0.50342000  0.95623000  0.99742000  1.0
  S  S128  1  0.41094000  0.08813000  0.50286000  1.0
  S  S129  1  0.59306000  0.91191000  0.50281000  1.0
  S  S130  1  0.08827000  0.41075000  0.49687000  1.0
  S  S131  1  0.91193000  0.59273000  0.49749000  1.0
  S  S132  1  0.75215000  0.25044000  0.33907000  1.0
  S  S133  1  0.75279000  0.25619000  0.15944000  1.0
  S  S134  1  0.25241000  0.75413000  0.66084000  1.0
  S  S135  1  0.25286000  0.74902000  0.84045000  1.0
  S  S136  1  0.24489000  0.74664000  0.33910000  1.0
  S  S137  1  0.25179000  0.74825000  0.15950000  1.0
  S  S138  1  0.74917000  0.24733000  0.66105000  1.0
  S  S139  1  0.74392000  0.24731000  0.84068000  1.0
  S  S140  1  0.34117000  0.33593000  0.75025000  1.0
  S  S141  1  0.16213000  0.15679000  0.74782000  1.0
  S  S142  1  0.66402000  0.65910000  0.24948000  1.0
  S  S143  1  0.84348000  0.83781000  0.25216000  1.0
  S  S144  1  0.24678000  0.25202000  0.33917000  1.0
  S  S145  1  0.24893000  0.25426000  0.15954000  1.0
  S  S146  1  0.74786000  0.75350000  0.66084000  1.0
  S  S147  1  0.74650000  0.75101000  0.84051000  1.0
  S  S148  1  0.08916000  0.41134000  0.00342000  1.0
  S  S149  1  0.90814000  0.58855000  0.00213000  1.0
  S  S150  1  0.58804000  0.08899000  0.99741000  1.0
  S  S151  1  0.41141000  0.90738000  0.99713000  1.0
  Cl  Cl152  1  0.66971000  0.11131000  0.50176000  1.0
  Cl  Cl153  1  0.11120000  0.66954000  0.49754000  1.0
  Cl  Cl154  1  0.61827000  0.39755000  0.22051000  1.0
  Cl  Cl155  1  0.38596000  0.60656000  0.77927000  1.0
  Cl  Cl156  1  0.39423000  0.61505000  0.22068000  1.0
  Cl  Cl157  1  0.60341000  0.38275000  0.77957000  1.0
  Cl  Cl158  1  0.22259000  0.21819000  0.60917000  1.0
  Cl  Cl159  1  0.78188000  0.77749000  0.39062000  1.0
  Cl  Cl160  1  0.38827000  0.39076000  0.22015000  1.0
  Cl  Cl161  1  0.60953000  0.61207000  0.78016000  1.0
  Cl  Cl162  1  0.83036000  0.38946000  0.00175000  1.0
  Cl  Cl163  1  0.61076000  0.83020000  0.99686000  1.0
  O  O164  1  0.56867000  0.73760000  0.50378000  1.0
  O  O165  1  0.26173000  0.43239000  0.49630000  1.0
  O  O166  1  0.43249000  0.26159000  0.50101000  1.0
  O  O167  1  0.73777000  0.56839000  0.49906000  1.0
  O  O168  1  0.58814000  0.58414000  0.34711000  1.0
  O  O169  1  0.58032000  0.58504000  0.65363000  1.0
  O  O170  1  0.41603000  0.41177000  0.65278000  1.0
  O  O171  1  0.41489000  0.41987000  0.34654000  1.0
  O  O172  1  0.34533000  0.65196000  0.41489000  1.0
  O  O173  1  0.65659000  0.34996000  0.41484000  1.0
  O  O174  1  0.65105000  0.34420000  0.58527000  1.0
  O  O175  1  0.34906000  0.65552000  0.58504000  1.0
  O  O176  1  0.58727000  0.42128000  0.34671000  1.0
  O  O177  1  0.57890000  0.41282000  0.65332000  1.0
  O  O178  1  0.41787000  0.58385000  0.65327000  1.0
  O  O179  1  0.41615000  0.58222000  0.34670000  1.0
  O  O180  1  0.65627000  0.65121000  0.41795000  1.0
  O  O181  1  0.34472000  0.34921000  0.41460000  1.0
  O  O182  1  0.34894000  0.34386000  0.58181000  1.0
  O  O183  1  0.65095000  0.65527000  0.58562000  1.0
  O  O184  1  0.73793000  0.42992000  0.49828000  1.0
  O  O185  1  0.43022000  0.73787000  0.50276000  1.0
  O  O186  1  0.26423000  0.57068000  0.49704000  1.0
  O  O187  1  0.57078000  0.26417000  0.50203000  1.0
  O  O188  1  0.62061000  0.49946000  0.56108000  1.0
  O  O189  1  0.50076000  0.37976000  0.43895000  1.0
  O  O190  1  0.37882000  0.49959000  0.55987000  1.0
  O  O191  1  0.50070000  0.62157000  0.44012000  1.0
  O  O192  1  0.41157000  0.50055000  0.45517000  1.0
  O  O193  1  0.49982000  0.58877000  0.54492000  1.0
  O  O194  1  0.49979000  0.41066000  0.54395000  1.0
  O  O195  1  0.58972000  0.50052000  0.45599000  1.0
  O  O196  1  0.15635000  0.85060000  0.91553000  1.0
  O  O197  1  0.84373000  0.14866000  0.91554000  1.0
  O  O198  1  0.84866000  0.15380000  0.08455000  1.0
  O  O199  1  0.15074000  0.84532000  0.08448000  1.0
  O  O200  1  0.93272000  0.76219000  0.00161000  1.0
  O  O201  1  0.23736000  0.07044000  0.99837000  1.0
  O  O202  1  0.06703000  0.23840000  0.00288000  1.0
  O  O203  1  0.76411000  0.92894000  0.99694000  1.0
  O  O204  1  0.91507000  0.91892000  0.84571000  1.0
  O  O205  1  0.91820000  0.91262000  0.15298000  1.0
  O  O206  1  0.08066000  0.08602000  0.15418000  1.0
  O  O207  1  0.08708000  0.08262000  0.84708000  1.0
  O  O208  1  0.84981000  0.84289000  0.08339000  1.0
  O  O209  1  0.14916000  0.15602000  0.08476000  1.0
  O  O210  1  0.15547000  0.15239000  0.91667000  1.0
  O  O211  1  0.84637000  0.84900000  0.91507000  1.0
  O  O212  1  0.07115000  0.76244000  0.00201000  1.0
  O  O213  1  0.76128000  0.06718000  0.99769000  1.0
  O  O214  1  0.92876000  0.23566000  0.00251000  1.0
  O  O215  1  0.23741000  0.93198000  0.99797000  1.0
  O  O216  1  0.08090000  0.91381000  0.15398000  1.0
  O  O217  1  0.08715000  0.91980000  0.84606000  1.0
  O  O218  1  0.91478000  0.08159000  0.84596000  1.0
  O  O219  1  0.91794000  0.08479000  0.15408000  1.0
  O  O220  1  0.12062000  0.00052000  0.06084000  1.0
  O  O221  1  0.87899000  0.99893000  0.06031000  1.0
  O  O222  1  0.99957000  0.12097000  0.93966000  1.0
  O  O223  1  0.00120000  0.87932000  0.93917000  1.0
  O  O224  1  0.91137000  0.99948000  0.95524000  1.0
  O  O225  1  0.08933000  0.00076000  0.95573000  1.0
  O  O226  1  0.99922000  0.08872000  0.04466000  1.0
  O  O227  1  0.00047000  0.91073000  0.04436000  1.0
