# generated using pymatgen
data_AgH20C18(NO)5
_symmetry_space_group_name_H-M   'P 1'
_cell_length_a   5.19078000
_cell_length_b   12.32860000
_cell_length_c   14.65860000
_cell_angle_alpha   89.99880000
_cell_angle_beta   90.00010000
_cell_angle_gamma   89.99910000
_symmetry_Int_Tables_number   1
_chemical_formula_structural   AgH20C18(NO)5
_chemical_formula_sum   'Ag2 H40 C36 N10 O10'
_cell_volume   938.07784412
_cell_formula_units_Z   2
loop_
 _symmetry_equiv_pos_site_id
 _symmetry_equiv_pos_as_xyz
  1  'x, y, z'
loop_
 _atom_site_type_symbol
 _atom_site_label
 _atom_site_symmetry_multiplicity
 _atom_site_fract_x
 _atom_site_fract_y
 _atom_site_fract_z
 _atom_site_occupancy
  Ag  Ag0  1  0.00001000  0.00001000  0.48049000  1.0
  Ag  Ag1  1  0.50001000  0.49999000  0.51951000  1.0
  H  H2  1  0.29432000  0.49441000  0.93353000  1.0
  H  H3  1  0.70568000  0.50558000  0.93353000  1.0
  H  H4  1  0.20567000  0.99442000  0.06647000  1.0
  H  H5  1  0.79431000  0.00558000  0.06647000  1.0
  H  H6  1  0.89397000  0.37898000  0.83068000  1.0
  H  H7  1  0.10603000  0.62102000  0.83069000  1.0
  H  H8  1  0.60603000  0.87898000  0.16931000  1.0
  H  H9  1  0.39395000  0.12102000  0.16932000  1.0
  H  H10  1  0.07832000  0.40376000  0.17136000  1.0
  H  H11  1  0.92168000  0.59623000  0.17136000  1.0
  H  H12  1  0.42168000  0.90377000  0.82864000  1.0
  H  H13  1  0.57834000  0.09624000  0.82863000  1.0
  H  H14  1  0.29470000  0.49325000  0.11620000  1.0
  H  H15  1  0.70531000  0.50674000  0.11620000  1.0
  H  H16  1  0.20531000  0.99327000  0.88380000  1.0
  H  H17  1  0.79470000  0.00674000  0.88380000  1.0
  H  H18  1  0.90455000  0.34113000  0.02375000  1.0
  H  H19  1  0.09546000  0.65886000  0.02375000  1.0
  H  H20  1  0.59544000  0.84113000  0.97625000  1.0
  H  H21  1  0.40456000  0.15887000  0.97624000  1.0
  H  H22  1  0.24304000  0.32595000  0.02316000  1.0
  H  H23  1  0.75696000  0.67404000  0.02316000  1.0
  H  H24  1  0.25695000  0.82596000  0.97684000  1.0
  H  H25  1  0.74306000  0.17404000  0.97684000  1.0
  H  H26  1  0.41155000  0.19589000  0.52314000  1.0
  H  H27  1  0.58847000  0.80412000  0.52314000  1.0
  H  H28  1  0.08844000  0.69588000  0.47686000  1.0
  H  H29  1  0.91155000  0.30412000  0.47686000  1.0
  H  H30  1  0.53689000  0.31919000  0.65276000  1.0
  H  H31  1  0.46313000  0.68082000  0.65276000  1.0
  H  H32  1  0.96311000  0.81918000  0.34723000  1.0
  H  H33  1  0.03689000  0.18082000  0.34724000  1.0
  H  H34  1  0.76658000  0.08727000  0.66133000  1.0
  H  H35  1  0.23343000  0.91273000  0.66134000  1.0
  H  H36  1  0.73343000  0.58727000  0.33867000  1.0
  H  H37  1  0.26655000  0.41272000  0.33868000  1.0
  H  H38  1  0.85718000  0.20839000  0.79398000  1.0
  H  H39  1  0.14281000  0.79162000  0.79399000  1.0
  H  H40  1  0.64282000  0.70839000  0.20602000  1.0
  H  H41  1  0.35717000  0.29162000  0.20602000  1.0
  C  C42  1  0.27766000  0.34230000  0.81417000  1.0
  C  C43  1  0.72234000  0.65770000  0.81417000  1.0
  C  C44  1  0.22234000  0.84230000  0.18582000  1.0
  C  C45  1  0.77765000  0.15770000  0.18583000  1.0
  C  C46  1  0.10343000  0.45555000  0.93780000  1.0
  C  C47  1  0.89657000  0.54444000  0.93780000  1.0
  C  C48  1  0.39656000  0.95556000  0.06220000  1.0
  C  C49  1  0.60343000  0.04444000  0.06220000  1.0
  C  C50  1  0.20737000  0.27250000  0.73402000  1.0
  C  C51  1  0.79264000  0.72751000  0.73403000  1.0
  C  C52  1  0.29262000  0.77250000  0.26597000  1.0
  C  C53  1  0.70735000  0.22750000  0.26598000  1.0
  C  C54  1  0.10239000  0.45561000  0.11100000  1.0
  C  C55  1  0.89762000  0.54439000  0.11099000  1.0
  C  C56  1  0.39761000  0.95562000  0.88901000  1.0
  C  C57  1  0.60240000  0.04439000  0.88901000  1.0
  C  C58  1  0.08753000  0.38647000  0.02474000  1.0
  C  C59  1  0.91248000  0.61352000  0.02474000  1.0
  C  C60  1  0.41246000  0.88648000  0.97526000  1.0
  C  C61  1  0.58754000  0.11353000  0.97526000  1.0
  C  C62  1  0.29495000  0.20084000  0.58480000  1.0
  C  C63  1  0.70506000  0.79917000  0.58481000  1.0
  C  C64  1  0.20505000  0.70083000  0.41519000  1.0
  C  C65  1  0.79495000  0.29916000  0.41519000  1.0
  C  C66  1  0.36505000  0.26857000  0.65672000  1.0
  C  C67  1  0.63495000  0.73144000  0.65672000  1.0
  C  C68  1  0.13494000  0.76856000  0.34328000  1.0
  C  C69  1  0.86505000  0.23143000  0.34328000  1.0
  C  C70  1  0.93496000  0.14023000  0.66167000  1.0
  C  C71  1  0.06506000  0.85978000  0.66167000  1.0
  C  C72  1  0.56505000  0.64023000  0.33833000  1.0
  C  C73  1  0.43492000  0.35977000  0.33833000  1.0
  C  C74  1  0.98763000  0.20692000  0.73588000  1.0
  C  C75  1  0.01236000  0.79309000  0.73589000  1.0
  C  C76  1  0.51237000  0.70691000  0.26412000  1.0
  C  C77  1  0.48761000  0.29308000  0.26412000  1.0
  N  N78  1  0.50000000  0.99999000  0.38093000  1.0
  N  N79  1  0.00001000  0.50000000  0.61907000  1.0
  N  N80  1  0.07560000  0.38824000  0.85685000  1.0
  N  N81  1  0.92439000  0.61175000  0.85686000  1.0
  N  N82  1  0.42438000  0.88824000  0.14314000  1.0
  N  N83  1  0.57559000  0.11176000  0.14314000  1.0
  N  N84  1  0.08393000  0.13710000  0.58669000  1.0
  N  N85  1  0.91610000  0.86291000  0.58669000  1.0
  N  N86  1  0.41609000  0.63709000  0.41331000  1.0
  N  N87  1  0.58390000  0.36291000  0.41331000  1.0
  O  O88  1  0.29188000  0.01782000  0.33863000  1.0
  O  O89  1  0.70809000  0.98215000  0.33862000  1.0
  O  O90  1  0.20811000  0.51783000  0.66138000  1.0
  O  O91  1  0.79189000  0.48218000  0.66137000  1.0
  O  O92  1  0.50651000  0.35190000  0.83928000  1.0
  O  O93  1  0.49347000  0.64809000  0.83928000  1.0
  O  O94  1  0.99347000  0.85191000  0.16071000  1.0
  O  O95  1  0.00650000  0.14809000  0.16073000  1.0
  O  O96  1  0.50003000  0.00001000  0.46839000  1.0
  O  O97  1  0.00002000  0.50000000  0.53161000  1.0
