# generated using pymatgen
data_AlH5C10O5F2
_symmetry_space_group_name_H-M   'P 1'
_cell_length_a   6.66746000
_cell_length_b   13.55230000
_cell_length_c   16.57520000
_cell_angle_alpha   90.00220000
_cell_angle_beta   89.72220000
_cell_angle_gamma   89.65080000
_symmetry_Int_Tables_number   1
_chemical_formula_structural   AlH5C10O5F2
_chemical_formula_sum   'Al4 H20 C40 O20 F8'
_cell_volume   1497.68000375
_cell_formula_units_Z   4
loop_
 _symmetry_equiv_pos_site_id
 _symmetry_equiv_pos_as_xyz
  1  'x, y, z'
loop_
 _atom_site_type_symbol
 _atom_site_label
 _atom_site_symmetry_multiplicity
 _atom_site_fract_x
 _atom_site_fract_y
 _atom_site_fract_z
 _atom_site_occupancy
  Al  Al0  1  0.98183000  0.99721000  0.49706000  1.0
  Al  Al1  1  0.48154000  0.00168000  0.49787000  1.0
  Al  Al2  1  0.01292000  0.49756000  0.99863000  1.0
  Al  Al3  1  0.51338000  0.50195000  0.99768000  1.0
  H  H4  1  0.72762000  0.88054000  0.53382000  1.0
  H  H5  1  0.22362000  0.11517000  0.54014000  1.0
  H  H6  1  0.76671000  0.62630000  0.02260000  1.0
  H  H7  1  0.27122000  0.37477000  0.02607000  1.0
  H  H8  1  0.77965000  0.65332000  0.21015000  1.0
  H  H9  1  0.91702000  0.56719000  0.26973000  1.0
  H  H10  1  0.90917000  0.68398000  0.38708000  1.0
  H  H11  1  0.77272000  0.77202000  0.32887000  1.0
  H  H12  1  0.28263000  0.36007000  0.78790000  1.0
  H  H13  1  0.42253000  0.44329000  0.72628000  1.0
  H  H14  1  0.40080000  0.32545000  0.60939000  1.0
  H  H15  1  0.26452000  0.24062000  0.67114000  1.0
  H  H16  1  0.22972000  0.34158000  0.22198000  1.0
  H  H17  1  0.09570000  0.43293000  0.27804000  1.0
  H  H18  1  0.07640000  0.31920000  0.39715000  1.0
  H  H19  1  0.21131000  0.22649000  0.34266000  1.0
  H  H20  1  0.91607000  0.55467000  0.72653000  1.0
  H  H21  1  0.77904000  0.64129000  0.78674000  1.0
  H  H22  1  0.76350000  0.75788000  0.66796000  1.0
  H  H23  1  0.89682000  0.66970000  0.60759000  1.0
  C  C24  1  0.23143000  0.88065000  0.60759000  1.0
  C  C25  1  0.23942000  0.89142000  0.38314000  1.0
  C  C26  1  0.73408000  0.11455000  0.38787000  1.0
  C  C27  1  0.73034000  0.11265000  0.61178000  1.0
  C  C28  1  0.25409000  0.61540000  0.88883000  1.0
  C  C29  1  0.26473000  0.62146000  0.10530000  1.0
  C  C30  1  0.76707000  0.38105000  0.10748000  1.0
  C  C31  1  0.75696000  0.38239000  0.89013000  1.0
  C  C32  1  0.25447000  0.69362000  0.17303000  1.0
  C  C33  1  0.24279000  0.82836000  0.30980000  1.0
  C  C34  1  0.09726000  0.69534000  0.22899000  1.0
  C  C35  1  0.39914000  0.82938000  0.25228000  1.0
  C  C36  1  0.09235000  0.75992000  0.29441000  1.0
  C  C37  1  0.40422000  0.76434000  0.18655000  1.0
  C  C38  1  0.90282000  0.64546000  0.25334000  1.0
  C  C39  1  0.89772000  0.71908000  0.32748000  1.0
  C  C40  1  0.75274000  0.31149000  0.82159000  1.0
  C  C41  1  0.73451000  0.17666000  0.68474000  1.0
  C  C42  1  0.59639000  0.31230000  0.76574000  1.0
  C  C43  1  0.89113000  0.17378000  0.74141000  1.0
  C  C44  1  0.58689000  0.24755000  0.70065000  1.0
  C  C45  1  0.89994000  0.23842000  0.80740000  1.0
  C  C46  1  0.40394000  0.36542000  0.74316000  1.0
  C  C47  1  0.39227000  0.29129000  0.66946000  1.0
  C  C48  1  0.75911000  0.31135000  0.17680000  1.0
  C  C49  1  0.74026000  0.17972000  0.31565000  1.0
  C  C50  1  0.90672000  0.30848000  0.23640000  1.0
  C  C51  1  0.59200000  0.18075000  0.25562000  1.0
  C  C52  1  0.89751000  0.24529000  0.30259000  1.0
  C  C53  1  0.60151000  0.24388000  0.18870000  1.0
  C  C54  1  0.10292000  0.35397000  0.26320000  1.0
  C  C55  1  0.09176000  0.28216000  0.33840000  1.0
  C  C56  1  0.24903000  0.68545000  0.81975000  1.0
  C  C57  1  0.23436000  0.81705000  0.68074000  1.0
  C  C58  1  0.09346000  0.68463000  0.76360000  1.0
  C  C59  1  0.38958000  0.82033000  0.73796000  1.0
  C  C60  1  0.08566000  0.74783000  0.69740000  1.0
  C  C61  1  0.39672000  0.75724000  0.80495000  1.0
  C  C62  1  0.89983000  0.63320000  0.74199000  1.0
  C  C63  1  0.88980000  0.70556000  0.66704000  1.0
  O  O64  1  0.05900000  0.90368000  0.58043000  1.0
  O  O65  1  0.40670000  0.91961000  0.41053000  1.0
  O  O66  1  0.56435000  0.09514000  0.41877000  1.0
  O  O67  1  0.89888000  0.08931000  0.58074000  1.0
  O  O68  1  0.90374000  0.08613000  0.41393000  1.0
  O  O69  1  0.55787000  0.08980000  0.58508000  1.0
  O  O70  1  0.39998000  0.90428000  0.57719000  1.0
  O  O71  1  0.06789000  0.90885000  0.41427000  1.0
  O  O72  1  0.73071000  0.93872000  0.49973000  1.0
  O  O73  1  0.22926000  0.06011000  0.50274000  1.0
  O  O74  1  0.08705000  0.57655000  0.90752000  1.0
  O  O75  1  0.43683000  0.58761000  0.08620000  1.0
  O  O76  1  0.60270000  0.40199000  0.07261000  1.0
  O  O77  1  0.92272000  0.39835000  0.92514000  1.0
  O  O78  1  0.93963000  0.41469000  0.08933000  1.0
  O  O79  1  0.58895000  0.42212000  0.90757000  1.0
  O  O80  1  0.42123000  0.59915000  0.92293000  1.0
  O  O81  1  0.09778000  0.59925000  0.07330000  1.0
  O  O82  1  0.76422000  0.56052000  0.99965000  1.0
  O  O83  1  0.26544000  0.43920000  0.00067000  1.0
  F  F84  1  0.55047000  0.89507000  0.25706000  1.0
  F  F85  1  0.55984000  0.77409000  0.13411000  1.0
  F  F86  1  0.03985000  0.10550000  0.73557000  1.0
  F  F87  1  0.05624000  0.22597000  0.85817000  1.0
  F  F88  1  0.43524000  0.11794000  0.25889000  1.0
  F  F89  1  0.45183000  0.23480000  0.13410000  1.0
  F  F90  1  0.53818000  0.88772000  0.73173000  1.0
  F  F91  1  0.55178000  0.77020000  0.85612000  1.0
