# generated using pymatgen
data_LaH13C19S(NO4)2
_symmetry_space_group_name_H-M   'P 1'
_cell_length_a   8.52187000
_cell_length_b   10.75650000
_cell_length_c   11.20330000
_cell_angle_alpha   79.95520000
_cell_angle_beta   71.83830000
_cell_angle_gamma   88.84150000
_symmetry_Int_Tables_number   1
_chemical_formula_structural   LaH13C19S(NO4)2
_chemical_formula_sum   'La2 H26 C38 S2 N4 O16'
_cell_volume   960.19627273
_cell_formula_units_Z   2
loop_
 _symmetry_equiv_pos_site_id
 _symmetry_equiv_pos_as_xyz
  1  'x, y, z'
loop_
 _atom_site_type_symbol
 _atom_site_label
 _atom_site_symmetry_multiplicity
 _atom_site_fract_x
 _atom_site_fract_y
 _atom_site_fract_z
 _atom_site_occupancy
  La  La0  1  0.16484000  0.58040000  0.19964000  1.0
  La  La1  1  0.83515000  0.41960000  0.80036000  1.0
  H  H2  1  0.46533000  0.43093000  0.28773000  1.0
  H  H3  1  0.53467000  0.56908000  0.71227000  1.0
  H  H4  1  0.30935000  0.43023000  0.40617000  1.0
  H  H5  1  0.69065000  0.56977000  0.59383000  1.0
  H  H6  1  0.39206000  0.84829000  0.98472000  1.0
  H  H7  1  0.60794000  0.15171000  0.01527000  1.0
  H  H8  1  0.40261000  0.08586000  0.92719000  1.0
  H  H9  1  0.59739000  0.91415000  0.07281000  1.0
  H  H10  1  0.16589000  0.20532000  0.04347000  1.0
  H  H11  1  0.83411000  0.79468000  0.95654000  1.0
  H  H12  1  0.88204000  0.19949000  0.20272000  1.0
  H  H13  1  0.11796000  0.80051000  0.79729000  1.0
  H  H14  1  0.63744000  0.07514000  0.35229000  1.0
  H  H15  1  0.36256000  0.92486000  0.64772000  1.0
  H  H16  1  0.48731000  0.86315000  0.44831000  1.0
  H  H17  1  0.51269000  0.13685000  0.55170000  1.0
  H  H18  1  0.48515000  0.63139000  0.45810000  1.0
  H  H19  1  0.51485000  0.36860000  0.54190000  1.0
  H  H20  1  0.74355000  0.53103000  0.33755000  1.0
  H  H21  1  0.25645000  0.46896000  0.66245000  1.0
  H  H22  1  0.22809000  0.28052000  0.30396000  1.0
  H  H23  1  0.77191000  0.71948000  0.69603000  1.0
  H  H24  1  0.39227000  0.09232000  0.25845000  1.0
  H  H25  1  0.60773000  0.90768000  0.74155000  1.0
  H  H26  1  0.27600000  0.87893000  0.36844000  1.0
  H  H27  1  0.72400000  0.12107000  0.63155000  1.0
  C  C28  1  0.28784000  0.90353000  0.02870000  1.0
  C  C29  1  0.71216000  0.09647000  0.97130000  1.0
  C  C30  1  0.29387000  0.03634000  0.99806000  1.0
  C  C31  1  0.70613000  0.96366000  0.00194000  1.0
  C  C32  1  0.16201000  0.10228000  0.06066000  1.0
  C  C33  1  0.83799000  0.89772000  0.93935000  1.0
  C  C34  1  0.02121000  0.03458000  0.14939000  1.0
  C  C35  1  0.97880000  0.96542000  0.85061000  1.0
  C  C36  1  0.87980000  0.09652000  0.21745000  1.0
  C  C37  1  0.12020000  0.90348000  0.78255000  1.0
  C  C38  1  0.74438000  0.02758000  0.29983000  1.0
  C  C39  1  0.25563000  0.97242000  0.70018000  1.0
  C  C40  1  0.73812000  0.89261000  0.31771000  1.0
  C  C41  1  0.26188000  0.10738000  0.68229000  1.0
  C  C42  1  0.59685000  0.81824000  0.39582000  1.0
  C  C43  1  0.40315000  0.18175000  0.60418000  1.0
  C  C44  1  0.59599000  0.68870000  0.40288000  1.0
  C  C45  1  0.40402000  0.31130000  0.59712000  1.0
  C  C46  1  0.73907000  0.63316000  0.33448000  1.0
  C  C47  1  0.26093000  0.36684000  0.66552000  1.0
  C  C48  1  0.87753000  0.82801000  0.25281000  1.0
  C  C49  1  0.12248000  0.17199000  0.74719000  1.0
  C  C50  1  0.02371000  0.90027000  0.17035000  1.0
  C  C51  1  0.97630000  0.09972000  0.82966000  1.0
  C  C52  1  0.53706000  0.56861000  0.99010000  1.0
  C  C53  1  0.46292000  0.43138000  0.00991000  1.0
  C  C54  1  0.94365000  0.45020000  0.05449000  1.0
  C  C55  1  0.05635000  0.54981000  0.94551000  1.0
  C  C56  1  0.02441000  0.17559000  0.44803000  1.0
  C  C57  1  0.97559000  0.82441000  0.55196000  1.0
  C  C58  1  0.17888000  0.18812000  0.35787000  1.0
  C  C59  1  0.82112000  0.81188000  0.64213000  1.0
  C  C60  1  0.27097000  0.08057000  0.33093000  1.0
  C  C61  1  0.72903000  0.91943000  0.66907000  1.0
  C  C62  1  0.20649000  0.96182000  0.39238000  1.0
  C  C63  1  0.79350000  0.03817000  0.60761000  1.0
  C  C64  1  0.95282000  0.05458000  0.51503000  1.0
  C  C65  1  0.04718000  0.94542000  0.48496000  1.0
  S  S66  1  0.91022000  0.31441000  0.47317000  1.0
  S  S67  1  0.08978000  0.68559000  0.52681000  1.0
  N  N68  1  0.15843000  0.83683000  0.11351000  1.0
  N  N69  1  0.84158000  0.16316000  0.88648000  1.0
  N  N70  1  0.87640000  0.70017000  0.26309000  1.0
  N  N71  1  0.12360000  0.29983000  0.73691000  1.0
  O  O72  1  0.84648000  0.38224000  0.02531000  1.0
  O  O73  1  0.15353000  0.61777000  0.97468000  1.0
  O  O74  1  0.67318000  0.59672000  0.90270000  1.0
  O  O75  1  0.32680000  0.40327000  0.09731000  1.0
  O  O76  1  0.95826000  0.44436000  0.16426000  1.0
  O  O77  1  0.04174000  0.55565000  0.83573000  1.0
  O  O78  1  0.45491000  0.64096000  0.06317000  1.0
  O  O79  1  0.54507000  0.35904000  0.93683000  1.0
  O  O80  1  0.37669000  0.48333000  0.32757000  1.0
  O  O81  1  0.62331000  0.51667000  0.67243000  1.0
  O  O82  1  0.02897000  0.41989000  0.40168000  1.0
  O  O83  1  0.97103000  0.58011000  0.59831000  1.0
  O  O84  1  0.76833000  0.30611000  0.42880000  1.0
  O  O85  1  0.23167000  0.69390000  0.57120000  1.0
  O  O86  1  0.86140000  0.31333000  0.61236000  1.0
  O  O87  1  0.13860000  0.68667000  0.38764000  1.0
