# generated using pymatgen
data_HgH14C18N4(ClO2)2
_symmetry_space_group_name_H-M   'P 1'
_cell_length_a   8.10882000
_cell_length_b   10.52990000
_cell_length_c   12.04040000
_cell_angle_alpha   89.99980000
_cell_angle_beta   76.98800000
_cell_angle_gamma   89.99990000
_symmetry_Int_Tables_number   1
_chemical_formula_structural   HgH14C18N4(ClO2)2
_chemical_formula_sum   'Hg2 H28 C36 N8 Cl4 O8'
_cell_volume   1001.67248735
_cell_formula_units_Z   2
loop_
 _symmetry_equiv_pos_site_id
 _symmetry_equiv_pos_as_xyz
  1  'x, y, z'
loop_
 _atom_site_type_symbol
 _atom_site_label
 _atom_site_symmetry_multiplicity
 _atom_site_fract_x
 _atom_site_fract_y
 _atom_site_fract_z
 _atom_site_occupancy
  Hg  Hg0  1  0.25000000  0.35827000  0.75000000  1.0
  Hg  Hg1  1  0.75000000  0.64173000  0.25000000  1.0
  H  H2  1  0.77832000  0.61298000  0.89556000  1.0
  H  H3  1  0.72168000  0.61298000  0.60444000  1.0
  H  H4  1  0.22168000  0.38701000  0.10444000  1.0
  H  H5  1  0.27832000  0.38701000  0.39556000  1.0
  H  H6  1  0.60712000  0.79630000  0.98947000  1.0
  H  H7  1  0.89288000  0.79630000  0.51053000  1.0
  H  H8  1  0.39289000  0.20370000  0.01053000  1.0
  H  H9  1  0.10712000  0.20370000  0.48947000  1.0
  H  H10  1  0.30098000  0.81174000  0.97802000  1.0
  H  H11  1  0.19903000  0.81174000  0.52198000  1.0
  H  H12  1  0.69903000  0.18826000  0.02199000  1.0
  H  H13  1  0.80097000  0.18826000  0.47802000  1.0
  H  H14  1  0.18112000  0.64032000  0.87553000  1.0
  H  H15  1  0.31888000  0.64032000  0.62447000  1.0
  H  H16  1  0.81888000  0.35968000  0.12447000  1.0
  H  H17  1  0.68112000  0.35968000  0.37554000  1.0
  H  H18  1  0.56816000  0.87363000  0.57025000  1.0
  H  H19  1  0.93183000  0.87363000  0.92976000  1.0
  H  H20  1  0.43183000  0.12637000  0.42975000  1.0
  H  H21  1  0.06817000  0.12637000  0.07025000  1.0
  H  H22  1  0.38166000  0.93556000  0.66639000  1.0
  H  H23  1  0.11834000  0.93556000  0.83361000  1.0
  H  H24  1  0.61834000  0.06444000  0.33361000  1.0
  H  H25  1  0.88167000  0.06444000  0.16639000  1.0
  H  H26  1  0.52241000  0.83172000  0.71918000  1.0
  H  H27  1  0.97759000  0.83172000  0.78083000  1.0
  H  H28  1  0.47759000  0.16828000  0.28083000  1.0
  H  H29  1  0.02241000  0.16828000  0.21917000  1.0
  C  C30  1  0.66078000  0.20100000  0.76691000  1.0
  C  C31  1  0.83922000  0.20100000  0.73309000  1.0
  C  C32  1  0.33922000  0.79900000  0.23308000  1.0
  C  C33  1  0.16078000  0.79900000  0.26692000  1.0
  C  C34  1  0.66420000  0.41991000  0.78053000  1.0
  C  C35  1  0.83580000  0.41991000  0.71947000  1.0
  C  C36  1  0.33580000  0.58009000  0.21947000  1.0
  C  C37  1  0.16420000  0.58009000  0.28054000  1.0
  C  C38  1  0.57045000  0.53403000  0.83190000  1.0
  C  C39  1  0.92955000  0.53403000  0.66810000  1.0
  C  C40  1  0.42955000  0.46597000  0.16810000  1.0
  C  C41  1  0.07045000  0.46597000  0.33191000  1.0
  C  C42  1  0.64750000  0.62469000  0.88863000  1.0
  C  C43  1  0.85250000  0.62469000  0.61137000  1.0
  C  C44  1  0.35250000  0.37531000  0.11137000  1.0
  C  C45  1  0.14750000  0.37531000  0.38863000  1.0
  C  C46  1  0.55146000  0.72657000  0.94182000  1.0
  C  C47  1  0.94853000  0.72657000  0.55818000  1.0
  C  C48  1  0.44853000  0.27343000  0.05819000  1.0
  C  C49  1  0.05147000  0.27343000  0.44182000  1.0
  C  C50  1  0.38153000  0.73461000  0.93675000  1.0
  C  C51  1  0.11847000  0.73461000  0.56325000  1.0
  C  C52  1  0.61848000  0.26539000  0.06325000  1.0
  C  C53  1  0.88153000  0.26538000  0.43676000  1.0
  C  C54  1  0.31422000  0.63967000  0.87928000  1.0
  C  C55  1  0.18578000  0.63967000  0.62072000  1.0
  C  C56  1  0.68578000  0.36033000  0.12073000  1.0
  C  C57  1  0.81422000  0.36033000  0.37928000  1.0
  C  C58  1  0.55195000  0.08557000  0.76761000  1.0
  C  C59  1  0.94804000  0.08557000  0.73239000  1.0
  C  C60  1  0.44805000  0.91444000  0.23238000  1.0
  C  C61  1  0.05195000  0.91444000  0.26762000  1.0
  C  C62  1  0.51398000  0.90620000  0.65698000  1.0
  C  C63  1  0.98602000  0.90620000  0.84302000  1.0
  C  C64  1  0.48602000  0.09380000  0.34302000  1.0
  C  C65  1  0.01398000  0.09380000  0.15698000  1.0
  N  N66  1  0.57986000  0.31002000  0.79603000  1.0
  N  N67  1  0.92014000  0.31002000  0.70397000  1.0
  N  N68  1  0.42014000  0.68998000  0.20396000  1.0
  N  N69  1  0.07986000  0.68998000  0.29603000  1.0
  N  N70  1  0.40599000  0.54183000  0.82763000  1.0
  N  N71  1  0.09401000  0.54183000  0.67237000  1.0
  N  N72  1  0.59400000  0.45817000  0.17237000  1.0
  N  N73  1  0.90599000  0.45817000  0.32763000  1.0
  Cl  Cl74  1  0.06743000  0.31647000  0.93262000  1.0
  Cl  Cl75  1  0.43256000  0.31646000  0.56738000  1.0
  Cl  Cl76  1  0.93256000  0.68353000  0.06738000  1.0
  Cl  Cl77  1  0.56744000  0.68353000  0.43262000  1.0
  O  O78  1  0.42252000  0.06321000  0.83906000  1.0
  O  O79  1  0.07748000  0.06321000  0.66095000  1.0
  O  O80  1  0.57748000  0.93679000  0.16093000  1.0
  O  O81  1  0.92252000  0.93679000  0.33906000  1.0
  O  O82  1  0.61551000  0.01450000  0.67480000  1.0
  O  O83  1  0.88448000  0.01450000  0.82520000  1.0
  O  O84  1  0.38449000  0.98550000  0.32520000  1.0
  O  O85  1  0.11552000  0.98550000  0.17480000  1.0
