# generated using pymatgen
data_Al3H23C42Br4(ClO2)7
_symmetry_space_group_name_H-M   'P 1'
_cell_length_a   13.57270000
_cell_length_b   13.92250000
_cell_length_c   28.06990000
_cell_angle_alpha   89.58290000
_cell_angle_beta   88.79290000
_cell_angle_gamma   61.15430000
_symmetry_Int_Tables_number   1
_chemical_formula_structural   Al3H23C42Br4(ClO2)7
_chemical_formula_sum   'Al6 H46 C84 Br8 Cl14 O28'
_cell_volume   4645.05761850
_cell_formula_units_Z   2
loop_
 _symmetry_equiv_pos_site_id
 _symmetry_equiv_pos_as_xyz
  1  'x, y, z'
loop_
 _atom_site_type_symbol
 _atom_site_label
 _atom_site_symmetry_multiplicity
 _atom_site_fract_x
 _atom_site_fract_y
 _atom_site_fract_z
 _atom_site_occupancy
  Al  Al0  1  0.59030000  0.58517000  0.49710000  1.0
  Al  Al1  1  0.36015000  0.57280000  0.49926000  1.0
  Al  Al2  1  0.57709000  0.36096000  0.50045000  1.0
  Al  Al3  1  0.07484000  0.07798000  0.99737000  1.0
  Al  Al4  1  0.08120000  0.30591000  0.00071000  1.0
  Al  Al5  1  0.30145000  0.09755000  0.00083000  1.0
  H  H6  1  0.99688000  0.16804000  0.30229000  1.0
  H  H7  1  0.31971000  0.01808000  0.21722000  1.0
  H  H8  1  0.19060000  0.02548000  0.23482000  1.0
  H  H9  1  0.28292000  0.72790000  0.21325000  1.0
  H  H10  1  0.33475000  0.50541000  0.26115000  1.0
  H  H11  1  0.49534000  0.20689000  0.79262000  1.0
  H  H12  1  0.24494000  0.28018000  0.69356000  1.0
  H  H13  1  0.34758000  0.16541000  0.78116000  1.0
  H  H14  1  0.20663000  0.26872000  0.77302000  1.0
  H  H15  1  0.27110000  0.52266000  0.71772000  1.0
  H  H16  1  0.17914000  0.46809000  0.70894000  1.0
  H  H17  1  0.99258000  0.14757000  0.21959000  1.0
  H  H18  1  0.48067000  0.32803000  0.20156000  1.0
  H  H19  1  0.46154000  0.40485000  0.73629000  1.0
  H  H20  1  0.47360000  0.33616000  0.81312000  1.0
  H  H21  1  0.66613000  0.50389000  0.73267000  1.0
  H  H22  1  0.97966000  0.37634000  0.78187000  1.0
  H  H23  1  0.81751000  0.20189000  0.71329000  1.0
  H  H24  1  0.50385000  0.17852000  0.27550000  1.0
  H  H25  1  0.94713000  0.18998000  0.69308000  1.0
  H  H26  1  0.90208000  0.16169000  0.78893000  1.0
  H  H27  1  0.63782000  0.39579000  0.71761000  1.0
  H  H28  1  0.70220000  0.48574000  0.28714000  1.0
  H  H29  1  0.71093000  0.30050000  0.78926000  1.0
  H  H30  1  0.00486000  0.19851000  0.77068000  1.0
  H  H31  1  0.28103000  0.75137000  0.80811000  1.0
  H  H32  1  0.28240000  0.70376000  0.72841000  1.0
  H  H33  1  0.15220000  0.89457000  0.70942000  1.0
  H  H34  1  0.14715000  0.95165000  0.78791000  1.0
  H  H35  1  0.31489000  0.16688000  0.24073000  1.0
  H  H36  1  0.20371000  0.03675000  0.76890000  1.0
  H  H37  1  0.50850000  0.77744000  0.70320000  1.0
  H  H38  1  0.41965000  0.91546000  0.68717000  1.0
  H  H39  1  0.73829000  0.48632000  0.20560000  1.0
  H  H40  1  0.42949000  0.65305000  0.72491000  1.0
  H  H41  1  0.42840000  0.69964000  0.80457000  1.0
  H  H42  1  0.40405000  0.97193000  0.76543000  1.0
  H  H43  1  0.79230000  0.19478000  0.20440000  1.0
  H  H44  1  0.00211000  0.29183000  0.29585000  1.0
  H  H45  1  0.68768000  0.33460000  0.20785000  1.0
  H  H46  1  0.87931000  0.45361000  0.21550000  1.0
  H  H47  1  0.48525000  0.82903000  0.21418000  1.0
  H  H48  1  0.17048000  0.34316000  0.29983000  1.0
  H  H49  1  0.41302000  0.92632000  0.28683000  1.0
  H  H50  1  0.70302000  0.65924000  0.52241000  1.0
  H  H51  1  0.99670000  0.96875000  0.02424000  1.0
  C  C52  1  0.39248000  0.70414000  0.43276000  1.0
  C  C53  1  0.36194000  0.36187000  0.34653000  1.0
  C  C54  1  0.76560000  0.26548000  0.27548000  1.0
  C  C55  1  0.40483000  0.40004000  0.43388000  1.0
  C  C56  1  0.95890000  0.24719000  0.28411000  1.0
  C  C57  1  0.96997000  0.23183000  0.22975000  1.0
  C  C58  1  0.89445000  0.29454000  0.11220000  1.0
  C  C59  1  0.83372000  0.31722000  0.29905000  1.0
  C  C60  1  0.77033000  0.27394000  0.22083000  1.0
  C  C61  1  0.85687000  0.31157000  0.20585000  1.0
  C  C62  1  0.81517000  0.42953000  0.22420000  1.0
  C  C63  1  0.37819000  0.37575000  0.38791000  1.0
  C  C64  1  0.79147000  0.43456000  0.27809000  1.0
  C  C65  1  0.87273000  0.30471000  0.15460000  1.0
  C  C66  1  0.81413000  0.32477000  0.35007000  1.0
  C  C67  1  0.71836000  0.38383000  0.43503000  1.0
  C  C68  1  0.78193000  0.34424000  0.39124000  1.0
  C  C69  1  0.44562000  0.74365000  0.26977000  1.0
  C  C70  1  0.32677000  0.93990000  0.28513000  1.0
  C  C71  1  0.28192000  0.97283000  0.23487000  1.0
  C  C72  1  0.29180000  0.92157000  0.11407000  1.0
  C  C73  1  0.33424000  0.82670000  0.29840000  1.0
  C  C74  1  0.32101000  0.24144000  0.24550000  1.0
  C  C75  1  0.43768000  0.78415000  0.21716000  1.0
  C  C76  1  0.31245000  0.86704000  0.20570000  1.0
  C  C77  1  0.23915000  0.81506000  0.22305000  1.0
  C  C78  1  0.22668000  0.82271000  0.27806000  1.0
  C  C79  1  0.39051000  0.70076000  0.56594000  1.0
  C  C80  1  0.30147000  0.89372000  0.15550000  1.0
  C  C81  1  0.34623000  0.80019000  0.34843000  1.0
  C  C82  1  0.36066000  0.76474000  0.38872000  1.0
  C  C83  1  0.45934000  0.32703000  0.73648000  1.0
  C  C84  1  0.31999000  0.25686000  0.71467000  1.0
  C  C85  1  0.30836000  0.32324000  0.20334000  1.0
  C  C86  1  0.29486000  0.24876000  0.76786000  1.0
  C  C87  1  0.28813000  0.29736000  0.88985000  1.0
  C  C88  1  0.35656000  0.34540000  0.70649000  1.0
  C  C89  1  0.44502000  0.29584000  0.78772000  1.0
  C  C90  1  0.32002000  0.32732000  0.79817000  1.0
  C  C91  1  0.39961000  0.40192000  0.56614000  1.0
  C  C92  1  0.24174000  0.44666000  0.78107000  1.0
  C  C93  1  0.25632000  0.45386000  0.72666000  1.0
  C  C94  1  0.30246000  0.31292000  0.84827000  1.0
  C  C95  1  0.37126000  0.36037000  0.65608000  1.0
  C  C96  1  0.42493000  0.24803000  0.26427000  1.0
  C  C97  1  0.37851000  0.37716000  0.61396000  1.0
  C  C98  1  0.69936000  0.41475000  0.73364000  1.0
  C  C99  1  0.88002000  0.41608000  0.71788000  1.0
  C  C100  1  0.89014000  0.41254000  0.77394000  1.0
  C  C101  1  0.90335000  0.30270000  0.88693000  1.0
  C  C102  1  0.81126000  0.35769000  0.70368000  1.0
  C  C103  1  0.70439000  0.39808000  0.56677000  1.0
  C  C104  1  0.72235000  0.37291000  0.78485000  1.0
  C  C105  1  0.84755000  0.33563000  0.79581000  1.0
  C  C106  1  0.91482000  0.22350000  0.76937000  1.0
  C  C107  1  0.34461000  0.34662000  0.29825000  1.0
  C  C108  1  0.87572000  0.23484000  0.71769000  1.0
  C  C109  1  0.87278000  0.32039000  0.84600000  1.0
  C  C110  1  0.78481000  0.36887000  0.65366000  1.0
  C  C111  1  0.75556000  0.37520000  0.61271000  1.0
  C  C112  1  0.34925000  0.72485000  0.73502000  1.0
  C  C113  1  0.21687000  0.91875000  0.71519000  1.0
  C  C114  1  0.21638000  0.95277000  0.76739000  1.0
  C  C115  1  0.23997000  0.33918000  0.27804000  1.0
  C  C116  1  0.30691000  0.93055000  0.88309000  1.0
  C  C117  1  0.33308000  0.82118000  0.70182000  1.0
  C  C118  1  0.41252000  0.33078000  0.22395000  1.0
  C  C119  1  0.34871000  0.75562000  0.78771000  1.0
  C  C120  1  0.32953000  0.87415000  0.79157000  1.0
  C  C121  1  0.42173000  0.88646000  0.76342000  1.0
  C  C122  1  0.42766000  0.85003000  0.71146000  1.0
  C  C123  1  0.32143000  0.90503000  0.84125000  1.0
  C  C124  1  0.34098000  0.78717000  0.65257000  1.0
  C  C125  1  0.35802000  0.75292000  0.61191000  1.0
  C  C126  1  0.94809000  0.26759000  0.06581000  1.0
  C  C127  1  0.22837000  0.42177000  0.23778000  1.0
  C  C128  1  0.25108000  0.27112000  0.06730000  1.0
  C  C129  1  0.33197000  0.42905000  0.25637000  1.0
  C  C130  1  0.26738000  0.96814000  0.06700000  1.0
  C  C131  1  0.95569000  0.27243000  0.93263000  1.0
  C  C132  1  0.26122000  0.27111000  0.93625000  1.0
  C  C133  1  0.27569000  0.97371000  0.93066000  1.0
  C  C134  1  0.27513000  0.29701000  0.11342000  1.0
  C  C135  1  0.29094000  0.30939000  0.15505000  1.0
  Br  Br136  1  0.86304000  0.50904000  0.31100000  1.0
  Br  Br137  1  0.57858000  0.74264000  0.29848000  1.0
  Br  Br138  1  0.25285000  0.05901000  0.33179000  1.0
  Br  Br139  1  0.47723000  0.59158000  0.27558000  1.0
  Br  Br140  1  0.09623000  0.87279000  0.19066000  1.0
  Br  Br141  1  0.42743000  0.11285000  0.68747000  1.0
  Br  Br142  1  0.28275000  0.54696000  0.81492000  1.0
  Br  Br143  1  0.56962000  0.80493000  0.79352000  1.0
  Cl  Cl144  1  0.10332000  0.53426000  0.22086000  1.0
  Cl  Cl145  1  0.02087000  0.34125000  0.69227000  1.0
  Cl  Cl146  1  0.81824000  0.55016000  0.69381000  1.0
  Cl  Cl147  1  0.82656000  0.54272000  0.80242000  1.0
  Cl  Cl148  1  0.18022000  0.03320000  0.67561000  1.0
  Cl  Cl149  1  0.82447000  0.12435000  0.29307000  1.0
  Cl  Cl150  1  0.08278000  0.25240000  0.20625000  1.0
  Cl  Cl151  1  0.62184000  0.33184000  0.29713000  1.0
  Cl  Cl152  1  0.20941000  0.71125000  0.30030000  1.0
  Cl  Cl153  1  0.10348000  0.94208000  0.29884000  1.0
  Cl  Cl154  1  0.50143000  0.67787000  0.17409000  1.0
  Cl  Cl155  1  0.59303000  0.22941000  0.71139000  1.0
  Cl  Cl156  1  0.09831000  0.48962000  0.79628000  1.0
  Cl  Cl157  1  0.62023000  0.47146000  0.82527000  1.0
  O  O158  1  0.68474000  0.48261000  0.44588000  1.0
  O  O159  1  0.32458000  0.18051000  0.04834000  1.0
  O  O160  1  0.34034000  0.99197000  0.04816000  1.0
  O  O161  1  0.48849000  0.67904000  0.44802000  1.0
  O  O162  1  0.17939000  0.99371000  0.94567000  1.0
  O  O163  1  0.97967000  0.17870000  0.94827000  1.0
  O  O164  1  0.97751000  0.34319000  0.95244000  1.0
  O  O165  1  0.16593000  0.33852000  0.95476000  1.0
  O  O166  1  0.33254000  0.17964000  0.95415000  1.0
  O  O167  1  0.34699000  0.99174000  0.95335000  1.0
  O  O168  1  0.15333000  0.16133000  0.99993000  1.0
  O  O169  1  0.32986000  0.49503000  0.54918000  1.0
  O  O170  1  0.32141000  0.67729000  0.45107000  1.0
  O  O171  1  0.33215000  0.48948000  0.45411000  1.0
  O  O172  1  0.50091000  0.33302000  0.45067000  1.0
  O  O173  1  0.69662000  0.31513000  0.45793000  1.0
  O  O174  1  0.68831000  0.48583000  0.54671000  1.0
  O  O175  1  0.48837000  0.67454000  0.55069000  1.0
  O  O176  1  0.31762000  0.68199000  0.54490000  1.0
  O  O177  1  0.48985000  0.33053000  0.54531000  1.0
  O  O178  1  0.67550000  0.32874000  0.55109000  1.0
  O  O179  1  0.50829000  0.50547000  0.49918000  1.0
  O  O180  1  0.17578000  0.98539000  0.04926000  1.0
  O  O181  1  0.97636000  0.17333000  0.04969000  1.0
  O  O182  1  0.96771000  0.34087000  0.04619000  1.0
  O  O183  1  0.15643000  0.33774000  0.04918000  1.0
  O  O184  1  0.66177000  0.66117000  0.49443000  1.0
  O  O185  1  0.00553000  0.00011000  0.99468000  1.0
