# generated using pymatgen
data_CuPH12C10SN4
_symmetry_space_group_name_H-M   'P 1'
_cell_length_a   8.84620000
_cell_length_b   11.47500000
_cell_length_c   13.26300000
_cell_angle_alpha   75.49400000
_cell_angle_beta   89.99970000
_cell_angle_gamma   89.99990000
_symmetry_Int_Tables_number   1
_chemical_formula_structural   CuPH12C10SN4
_chemical_formula_sum   'Cu4 P4 H48 C40 S4 N16'
_cell_volume   1303.40998841
_cell_formula_units_Z   4
loop_
 _symmetry_equiv_pos_site_id
 _symmetry_equiv_pos_as_xyz
  1  'x, y, z'
loop_
 _atom_site_type_symbol
 _atom_site_label
 _atom_site_symmetry_multiplicity
 _atom_site_fract_x
 _atom_site_fract_y
 _atom_site_fract_z
 _atom_site_occupancy
  Cu  Cu0  1  0.53030000  0.39339000  0.78462000  1.0
  Cu  Cu1  1  0.03031000  0.60661000  0.71538000  1.0
  Cu  Cu2  1  0.46970000  0.60661000  0.21538000  1.0
  Cu  Cu3  1  0.96969000  0.39339000  0.28462000  1.0
  P  P4  1  0.43819000  0.25082000  0.71720000  1.0
  P  P5  1  0.93819000  0.74919000  0.78280000  1.0
  P  P6  1  0.56181000  0.74918000  0.28280000  1.0
  P  P7  1  0.06181000  0.25082000  0.21720000  1.0
  H  H8  1  0.47997000  0.05921000  0.91628000  1.0
  H  H9  1  0.97997000  0.94079000  0.58372000  1.0
  H  H10  1  0.52003000  0.94079000  0.08372000  1.0
  H  H11  1  0.02003000  0.05921000  0.41628000  1.0
  H  H12  1  0.39244000  0.18662000  0.94219000  1.0
  H  H13  1  0.89243000  0.81338000  0.55781000  1.0
  H  H14  1  0.60756000  0.81338000  0.05781000  1.0
  H  H15  1  0.10757000  0.18662000  0.44219000  1.0
  H  H16  1  0.20002000  0.18543000  0.79882000  1.0
  H  H17  1  0.70001000  0.81456000  0.70118000  1.0
  H  H18  1  0.79998000  0.81456000  0.20118000  1.0
  H  H19  1  0.29998000  0.18544000  0.29882000  1.0
  H  H20  1  0.29770000  0.06227000  0.76984000  1.0
  H  H21  1  0.79770000  0.93773000  0.73016000  1.0
  H  H22  1  0.70230000  0.93773000  0.23016000  1.0
  H  H23  1  0.20230000  0.06227000  0.26984000  1.0
  H  H24  1  0.41543000  0.29777000  0.52885000  1.0
  H  H25  1  0.91542000  0.70223000  0.97115000  1.0
  H  H26  1  0.58457000  0.70222000  0.47115000  1.0
  H  H27  1  0.08458000  0.29778000  0.02885000  1.0
  H  H28  1  0.26918000  0.19958000  0.59148000  1.0
  H  H29  1  0.76917000  0.80042000  0.90852000  1.0
  H  H30  1  0.73082000  0.80042000  0.40852000  1.0
  H  H31  1  0.23083000  0.19959000  0.09148000  1.0
  H  H32  1  0.67446000  0.24991000  0.53454000  1.0
  H  H33  1  0.17446000  0.75009000  0.96546000  1.0
  H  H34  1  0.32554000  0.75009000  0.46546000  1.0
  H  H35  1  0.82554000  0.24992000  0.03454000  1.0
  H  H36  1  0.71691000  0.32704000  0.63227000  1.0
  H  H37  1  0.21691000  0.67296000  0.86773000  1.0
  H  H38  1  0.28309000  0.67296000  0.36773000  1.0
  H  H39  1  0.78309000  0.32704000  0.13227000  1.0
  H  H40  1  0.14767000  0.37916000  0.64492000  1.0
  H  H41  1  0.64768000  0.62083000  0.85508000  1.0
  H  H42  1  0.85233000  0.62084000  0.35508000  1.0
  H  H43  1  0.35233000  0.37917000  0.14492000  1.0
  H  H44  1  0.29335000  0.47208000  0.57855000  1.0
  H  H45  1  0.79336000  0.52791000  0.92145000  1.0
  H  H46  1  0.70665000  0.52791000  0.42145000  1.0
  H  H47  1  0.20665000  0.47209000  0.07855000  1.0
  H  H48  1  0.65162000  0.12042000  0.76747000  1.0
  H  H49  1  0.15162000  0.87958000  0.73253000  1.0
  H  H50  1  0.34838000  0.87958000  0.23253000  1.0
  H  H51  1  0.84838000  0.12042000  0.26747000  1.0
  H  H52  1  0.55645000  0.08238000  0.66122000  1.0
  H  H53  1  0.05645000  0.91762000  0.83878000  1.0
  H  H54  1  0.44355000  0.91762000  0.33878000  1.0
  H  H55  1  0.94355000  0.08238000  0.16122000  1.0
  C  C56  1  0.26974000  0.02789000  0.98690000  1.0
  C  C57  1  0.76974000  0.97212000  0.51310000  1.0
  C  C58  1  0.73026000  0.97211000  0.01311000  1.0
  C  C59  1  0.23026000  0.02788000  0.48689000  1.0
  C  C60  1  0.37106000  0.10606000  0.91364000  1.0
  C  C61  1  0.87106000  0.89395000  0.58636000  1.0
  C  C62  1  0.62894000  0.89395000  0.08637000  1.0
  C  C63  1  0.12894000  0.10605000  0.41363000  1.0
  C  C64  1  0.31089000  0.14126000  0.80171000  1.0
  C  C65  1  0.81088000  0.85873000  0.69829000  1.0
  C  C66  1  0.68912000  0.85874000  0.19829000  1.0
  C  C67  1  0.18912000  0.14126000  0.30171000  1.0
  C  C68  1  0.33381000  0.28069000  0.59331000  1.0
  C  C69  1  0.83381000  0.71931000  0.90669000  1.0
  C  C70  1  0.66619000  0.71931000  0.40669000  1.0
  C  C71  1  0.16619000  0.28069000  0.09331000  1.0
  C  C72  1  0.70993000  0.23734000  0.61608000  1.0
  C  C73  1  0.20993000  0.76266000  0.88392000  1.0
  C  C74  1  0.29006000  0.76266000  0.38392000  1.0
  C  C75  1  0.79007000  0.23734000  0.11608000  1.0
  C  C76  1  0.14284000  0.40869000  0.48420000  1.0
  C  C77  1  0.64284000  0.59130000  0.01580000  1.0
  C  C78  1  0.85716000  0.59131000  0.51580000  1.0
  C  C79  1  0.35716000  0.40869000  0.98420000  1.0
  C  C80  1  0.86197000  0.18820000  0.62571000  1.0
  C  C81  1  0.36197000  0.81180000  0.87429000  1.0
  C  C82  1  0.13803000  0.81181000  0.37429000  1.0
  C  C83  1  0.63803000  0.18820000  0.12571000  1.0
  C  C84  1  0.22841000  0.39002000  0.57976000  1.0
  C  C85  1  0.72841000  0.60998000  0.92024000  1.0
  C  C86  1  0.77159000  0.60998000  0.42024000  1.0
  C  C87  1  0.27159000  0.39002000  0.07976000  1.0
  C  C88  1  0.59686000  0.15744000  0.69176000  1.0
  C  C89  1  0.09686000  0.84256000  0.80823000  1.0
  C  C90  1  0.40313000  0.84255000  0.30824000  1.0
  C  C91  1  0.90314000  0.15745000  0.19176000  1.0
  C  C92  1  0.37397000  0.62272000  0.67557000  1.0
  C  C93  1  0.87396000  0.37728000  0.82443000  1.0
  C  C94  1  0.62603000  0.37728000  0.32443000  1.0
  C  C95  1  0.12604000  0.62272000  0.17557000  1.0
  S  S96  1  0.55408000  0.59152000  0.67271000  1.0
  S  S97  1  0.05407000  0.40848000  0.82729000  1.0
  S  S98  1  0.44593000  0.40848000  0.32729000  1.0
  S  S99  1  0.94593000  0.59152000  0.17272000  1.0
  N  N100  1  0.19004000  0.96549000  0.04718000  1.0
  N  N101  1  0.69004000  0.03451000  0.45282000  1.0
  N  N102  1  0.80996000  0.03451000  0.95282000  1.0
  N  N103  1  0.30996000  0.96549000  0.54718000  1.0
  N  N104  1  0.07535000  0.41761000  0.40716000  1.0
  N  N105  1  0.57535000  0.58239000  0.09284000  1.0
  N  N106  1  0.92465000  0.58239000  0.59284000  1.0
  N  N107  1  0.42465000  0.41760000  0.90716000  1.0
  N  N108  1  0.98432000  0.14905000  0.63459000  1.0
  N  N109  1  0.48431000  0.85095000  0.86541000  1.0
  N  N110  1  0.01568000  0.85095000  0.36541000  1.0
  N  N111  1  0.51569000  0.14905000  0.13459000  1.0
  N  N112  1  0.24239000  0.64081000  0.67709000  1.0
  N  N113  1  0.74239000  0.35919000  0.82291000  1.0
  N  N114  1  0.75761000  0.35919000  0.32291000  1.0
  N  N115  1  0.25761000  0.64081000  0.17709000  1.0
