# generated using pymatgen
data_Al4H24C47I6(NO5)4
_symmetry_space_group_name_H-M   'P 1'
_cell_length_a   6.65740000
_cell_length_b   20.10900000
_cell_length_c   23.49780000
_cell_angle_alpha   78.20100000
_cell_angle_beta   89.90850000
_cell_angle_gamma   88.55190000
_symmetry_Int_Tables_number   1
_chemical_formula_structural   Al4H24C47I6(NO5)4
_chemical_formula_sum   'Al4 H24 C47 I6 N4 O20'
_cell_volume   3078.26608258
_cell_formula_units_Z   1
loop_
 _symmetry_equiv_pos_site_id
 _symmetry_equiv_pos_as_xyz
  1  'x, y, z'
loop_
 _atom_site_type_symbol
 _atom_site_label
 _atom_site_symmetry_multiplicity
 _atom_site_fract_x
 _atom_site_fract_y
 _atom_site_fract_z
 _atom_site_occupancy
  Al  Al0  1  0.92767000  0.49873000  0.50114000  1.0
  Al  Al1  1  0.42759000  0.49974000  0.49832000  1.0
  Al  Al2  1  0.43428000  0.99844000  0.00006000  1.0
  Al  Al3  1  0.93407000  0.99730000  0.99894000  1.0
  H  H4  1  0.88739000  0.88750000  0.86829000  1.0
  H  H5  1  0.90931000  0.81392000  0.79337000  1.0
  H  H6  1  0.85594000  0.73695000  0.65306000  1.0
  H  H7  1  0.88702000  0.65764000  0.58358000  1.0
  H  H8  1  0.52588000  0.86636000  0.89438000  1.0
  H  H9  1  0.41449000  0.65605000  0.73288000  1.0
  H  H10  1  0.54700000  0.78962000  0.82152000  1.0
  H  H11  1  0.37852000  0.76853000  0.26025000  1.0
  H  H12  1  0.40231000  0.08175000  0.15179000  1.0
  H  H13  1  0.41973000  0.25496000  0.35473000  1.0
  H  H14  1  0.42119000  0.34079000  0.41893000  1.0
  H  H15  1  0.96142000  0.16134000  0.07961000  1.0
  H  H16  1  0.95268000  0.24471000  0.14624000  1.0
  H  H17  1  0.21510000  0.13281000  0.68797000  1.0
  H  H18  1  0.17908000  0.21171000  0.63834000  1.0
  H  H19  1  0.37733000  0.20106000  0.69011000  1.0
  H  H20  1  0.12674000  0.19026000  0.77150000  1.0
  H  H21  1  0.09288000  0.26859000  0.72220000  1.0
  H  H22  1  0.84581000  0.14152000  0.72235000  1.0
  H  H23  1  0.81440000  0.22037000  0.67260000  1.0
  H  H24  1  0.66951000  0.57949000  0.51620000  1.0
  H  H25  1  0.18804000  0.41397000  0.53174000  1.0
  H  H26  1  0.68854000  0.91088000  0.02842000  1.0
  H  H27  1  0.17674000  0.08580000  0.97333000  1.0
  C  C28  1  0.68069000  0.41027000  0.58737000  1.0
  C  C29  1  0.68478000  0.43138000  0.42613000  1.0
  C  C30  1  0.16823000  0.58796000  0.41416000  1.0
  C  C31  1  0.17397000  0.57069000  0.57247000  1.0
  C  C32  1  0.16941000  0.61358000  0.61755000  1.0
  C  C33  1  0.31844000  0.61277000  0.66055000  1.0
  C  C34  1  0.30216000  0.65666000  0.69914000  1.0
  C  C35  1  0.13665000  0.70222000  0.69568000  1.0
  C  C36  1  0.98524000  0.70235000  0.65430000  1.0
  C  C37  1  0.00318000  0.65849000  0.61595000  1.0
  C  C38  1  0.04237000  0.82556000  0.81608000  1.0
  C  C39  1  0.03091000  0.86618000  0.85718000  1.0
  C  C40  1  0.23010000  0.79811000  0.80339000  1.0
  C  C41  1  0.20588000  0.88096000  0.88523000  1.0
  C  C42  1  0.39270000  0.85418000  0.87202000  1.0
  C  C43  1  0.40449000  0.81231000  0.83183000  1.0
  C  C44  1  0.15379000  0.63628000  0.35976000  1.0
  C  C45  1  0.09875000  0.72224000  0.26102000  1.0
  C  C46  1  0.23618000  0.76904000  0.23679000  1.0
  C  C47  1  0.21095000  0.81678000  0.18498000  1.0
  C  C48  1  0.13066000  0.67645000  0.31357000  1.0
  C  C49  1  0.19643000  0.85945000  0.13995000  1.0
  C  C50  1  0.68086000  0.13604000  0.85889000  1.0
  C  C51  1  0.72113000  0.22200000  0.75971000  1.0
  C  C52  1  0.63279000  0.28554000  0.74559000  1.0
  C  C53  1  0.65527000  0.32885000  0.69156000  1.0
  C  C54  1  0.69377000  0.17834000  0.81375000  1.0
  C  C55  1  0.67290000  0.36611000  0.64386000  1.0
  C  C56  1  0.68680000  0.38885000  0.38051000  1.0
  C  C57  1  0.83197000  0.39175000  0.33614000  1.0
  C  C58  1  0.82699000  0.34533000  0.29843000  1.0
  C  C59  1  0.67659000  0.29557000  0.30612000  1.0
  C  C60  1  0.53322000  0.29376000  0.35019000  1.0
  C  C61  1  0.53511000  0.34077000  0.38564000  1.0
  C  C62  1  0.53068000  0.15804000  0.19282000  1.0
  C  C63  1  0.52562000  0.11629000  0.15210000  1.0
  C  C64  1  0.68529000  0.20553000  0.18996000  1.0
  C  C65  1  0.68072000  0.11730000  0.11162000  1.0
  C  C66  1  0.83994000  0.16189000  0.11059000  1.0
  C  C67  1  0.83648000  0.20722000  0.14768000  1.0
  C  C68  1  0.67548000  0.07232000  0.06843000  1.0
  C  C69  1  0.68155000  0.08580000  0.91212000  1.0
  C  C70  1  0.19610000  0.92437000  0.92970000  1.0
  C  C71  1  0.18697000  0.90978000  0.08681000  1.0
  C  C72  1  0.86094000  0.19681000  0.71724000  1.0
  C  C73  1  0.08127000  0.21325000  0.72659000  1.0
  C  C74  1  0.22101000  0.18826000  0.68336000  1.0
  I  I75  1  0.82054000  0.71500000  0.21999000  1.0
  I  I76  1  0.45002000  0.32536000  0.80462000  1.0
  I  I77  1  0.29439000  0.14807000  0.25342000  1.0
  I  I78  1  0.05367000  0.34715000  0.23532000  1.0
  I  I79  1  0.04288000  0.47003000  0.32230000  1.0
  I  I80  1  0.56405000  0.54261000  0.67494000  1.0
  N  N81  1  0.10726000  0.74789000  0.73354000  1.0
  N  N82  1  0.26000000  0.75479000  0.76368000  1.0
  N  N83  1  0.65860000  0.24211000  0.27534000  1.0
  N  N84  1  0.69944000  0.25739000  0.22206000  1.0
  O  O85  1  0.51215000  0.44780000  0.44295000  1.0
  O  O86  1  0.85355000  0.42791000  0.56724000  1.0
  O  O87  1  0.00363000  0.55403000  0.55576000  1.0
  O  O88  1  0.85126000  0.44459000  0.44710000  1.0
  O  O89  1  0.00157000  0.56899000  0.43763000  1.0
  O  O90  1  0.51126000  0.42725000  0.56288000  1.0
  O  O91  1  0.67464000  0.53962000  0.49895000  1.0
  O  O92  1  0.34303000  0.56920000  0.43363000  1.0
  O  O93  1  0.34406000  0.55627000  0.55270000  1.0
  O  O94  1  0.18113000  0.45772000  0.50506000  1.0
  O  O95  1  0.85382000  0.06105000  0.92963000  1.0
  O  O96  1  0.50500000  0.05087000  0.05674000  1.0
  O  O97  1  0.35529000  0.92725000  0.06331000  1.0
  O  O98  1  0.51386000  0.07048000  0.93690000  1.0
  O  O99  1  0.36341000  0.94492000  0.94481000  1.0
  O  O100  1  0.84292000  0.06022000  0.04572000  1.0
  O  O101  1  0.68689000  0.95630000  0.00450000  1.0
  O  O102  1  0.02388000  0.93656000  0.94964000  1.0
  O  O103  1  0.01380000  0.93206000  0.06789000  1.0
  O  O104  1  0.18039000  0.03916000  0.99474000  1.0
