# generated using pymatgen
data_DyCd2H19C20N6Cl2O13
_symmetry_space_group_name_H-M   'P 1'
_cell_length_a   7.35165000
_cell_length_b   12.49850000
_cell_length_c   17.24840000
_cell_angle_alpha   68.79430000
_cell_angle_beta   87.07250000
_cell_angle_gamma   81.37650000
_symmetry_Int_Tables_number   1
_chemical_formula_structural   DyCd2H19C20N6Cl2O13
_chemical_formula_sum   'Dy2 Cd4 H38 C40 N12 Cl4 O26'
_cell_volume   1460.83547760
_cell_formula_units_Z   2
loop_
 _symmetry_equiv_pos_site_id
 _symmetry_equiv_pos_as_xyz
  1  'x, y, z'
loop_
 _atom_site_type_symbol
 _atom_site_label
 _atom_site_symmetry_multiplicity
 _atom_site_fract_x
 _atom_site_fract_y
 _atom_site_fract_z
 _atom_site_occupancy
  Dy  Dy0  1  0.77467000  0.58837000  0.77424000  1.0
  Dy  Dy1  1  0.27487000  0.36224000  0.22603000  1.0
  Cd  Cd2  1  0.81396000  0.02067000  0.90492000  1.0
  Cd  Cd3  1  0.31376000  0.92553000  0.09471000  1.0
  Cd  Cd4  1  0.55651000  0.83499000  0.47299000  1.0
  Cd  Cd5  1  0.05620000  0.30872000  0.52700000  1.0
  H  H6  1  0.26848000  0.32840000  0.83334000  1.0
  H  H7  1  0.76838000  0.16252000  0.16676000  1.0
  H  H8  1  0.37951000  0.77754000  0.84464000  1.0
  H  H9  1  0.87927000  0.62194000  0.15498000  1.0
  H  H10  1  0.34795000  0.48360000  0.57972000  1.0
  H  H11  1  0.84785000  0.06288000  0.42074000  1.0
  H  H12  1  0.20366000  0.86865000  0.60183000  1.0
  H  H13  1  0.70478000  0.47001000  0.39736000  1.0
  H  H14  1  0.86045000  0.70846000  0.55462000  1.0
  H  H15  1  0.35909000  0.26294000  0.44549000  1.0
  H  H16  1  0.82832000  0.61363000  0.52008000  1.0
  H  H17  1  0.32735000  0.13362000  0.47992000  1.0
  H  H18  1  0.53317000  0.30285000  0.57183000  1.0
  H  H19  1  0.03323000  0.87421000  0.42856000  1.0
  H  H20  1  0.24454000  0.96991000  0.85033000  1.0
  H  H21  1  0.74408000  0.82000000  0.14932000  1.0
  H  H22  1  0.05289000  0.06421000  0.59721000  1.0
  H  H23  1  0.55453000  0.66087000  0.40208000  1.0
  H  H24  1  0.44047000  0.14045000  0.83647000  1.0
  H  H25  1  0.94066000  0.97784000  0.16351000  1.0
  H  H26  1  0.94695000  0.40316000  0.94733000  1.0
  H  H27  1  0.44678000  0.35090000  0.05251000  1.0
  H  H28  1  0.09584000  0.48403000  0.91225000  1.0
  H  H29  1  0.59526000  0.39674000  0.08806000  1.0
  H  H30  1  0.55770000  0.08824000  0.58799000  1.0
  H  H31  1  0.05827000  0.67642000  0.41210000  1.0
  H  H32  1  0.46435000  0.62272000  0.67062000  1.0
  H  H33  1  0.96548000  0.29255000  0.32923000  1.0
  H  H34  1  0.39993000  0.70443000  0.72402000  1.0
  H  H35  1  0.90060000  0.42770000  0.27570000  1.0
  H  H36  1  0.17540000  0.50924000  0.73291000  1.0
  H  H37  1  0.67578000  0.24198000  0.26764000  1.0
  H  H38  1  0.16239000  0.62173000  0.75856000  1.0
  H  H39  1  0.66203000  0.38031000  0.24211000  1.0
  H  H40  1  0.57266000  0.51653000  0.94547000  1.0
  H  H41  1  0.07267000  0.46161000  0.05443000  1.0
  H  H42  1  0.67467000  0.62554000  0.92450000  1.0
  H  H43  1  0.17438000  0.54966000  0.07578000  1.0
  C  C44  1  0.74466000  0.91738000  0.76075000  1.0
  C  C45  1  0.24437000  0.67821000  0.23968000  1.0
  C  C46  1  0.89821000  0.26236000  0.78286000  1.0
  C  C47  1  0.39856000  0.04504000  0.21690000  1.0
  C  C48  1  0.69916000  0.93536000  0.67854000  1.0
  C  C49  1  0.19921000  0.61401000  0.32176000  1.0
  C  C50  1  0.32914000  0.31933000  0.77655000  1.0
  C  C51  1  0.82919000  0.09639000  0.22360000  1.0
  C  C52  1  0.91920000  0.32154000  0.69707000  1.0
  C  C53  1  0.41982000  0.01804000  0.30279000  1.0
  C  C54  1  0.60077000  0.09398000  0.70780000  1.0
  C  C55  1  0.10081000  0.80196000  0.29243000  1.0
  C  C56  1  0.30725000  0.84449000  0.79116000  1.0
  C  C57  1  0.80724000  0.63536000  0.20837000  1.0
  C  C58  1  0.04389000  0.14164000  0.72877000  1.0
  C  C59  1  0.54437000  0.86999000  0.27095000  1.0
  C  C60  1  0.85384000  0.44070000  0.64113000  1.0
  C  C61  1  0.35457000  0.08113000  0.35876000  1.0
  C  C62  1  0.80761000  0.29332000  0.85283000  1.0
  C  C63  1  0.30791000  0.14628000  0.14684000  1.0
  C  C64  1  0.84561000  0.81719000  0.82865000  1.0
  C  C65  1  0.34439000  0.64569000  0.17189000  1.0
  C  C66  1  0.37283000  0.40548000  0.63513000  1.0
  C  C67  1  0.87280000  0.04043000  0.36525000  1.0
  C  C68  1  0.13721000  0.03325000  0.72387000  1.0
  C  C69  1  0.63773000  0.75674000  0.27564000  1.0
  C  C70  1  0.50175000  0.20603000  0.70396000  1.0
  C  C71  1  0.00184000  0.91022000  0.29623000  1.0
  C  C72  1  0.20879000  0.89602000  0.65494000  1.0
  C  C73  1  0.70976000  0.55051000  0.34437000  1.0
  C  C74  1  0.47446000  0.30415000  0.63086000  1.0
  C  C75  1  0.97447000  0.93486000  0.36946000  1.0
  C  C76  1  0.23099000  0.95121000  0.79412000  1.0
  C  C77  1  0.73089000  0.74504000  0.20543000  1.0
  C  C78  1  0.12849000  0.00489000  0.65256000  1.0
  C  C79  1  0.62963000  0.65697000  0.34680000  1.0
  C  C80  1  0.42672000  0.21472000  0.77828000  1.0
  C  C81  1  0.92689000  0.99361000  0.22180000  1.0
  C  C82  1  0.72513000  0.86503000  0.62460000  1.0
  C  C83  1  0.22484000  0.48969000  0.37563000  1.0
  N  N84  1  0.97577000  0.14962000  0.80108000  1.0
  N  N85  1  0.47599000  0.95061000  0.19860000  1.0
  N  N86  1  0.01022000  0.24323000  0.66434000  1.0
  N  N87  1  0.51084000  0.90687000  0.33550000  1.0
  N  N88  1  0.30075000  0.41323000  0.70657000  1.0
  N  N89  1  0.80075000  0.11992000  0.29370000  1.0
  N  N90  1  0.29474000  0.81700000  0.72329000  1.0
  N  N91  1  0.79519000  0.53989000  0.27611000  1.0
  N  N92  1  0.61132000  0.04815000  0.64693000  1.0
  N  N93  1  0.11153000  0.69523000  0.35326000  1.0
  N  N94  1  0.68363000  0.01610000  0.77672000  1.0
  N  N95  1  0.18336000  0.79295000  0.22364000  1.0
  Cl  Cl96  1  0.32559000  0.70548000  0.53918000  1.0
  Cl  Cl97  1  0.82534000  0.24476000  0.46065000  1.0
  Cl  Cl98  1  0.99247000  0.92626000  0.03925000  1.0
  Cl  Cl99  1  0.49347000  0.96460000  0.96108000  1.0
  O  O100  1  0.86681000  0.71688000  0.82231000  1.0
  O  O101  1  0.36595000  0.53894000  0.17847000  1.0
  O  O102  1  0.80522000  0.39751000  0.85184000  1.0
  O  O103  1  0.30585000  0.24932000  0.14808000  1.0
  O  O104  1  0.74404000  0.21450000  0.91130000  1.0
  O  O105  1  0.24401000  0.12625000  0.08811000  1.0
  O  O106  1  0.83523000  0.69917000  0.50187000  1.0
  O  O107  1  0.33426000  0.20089000  0.49817000  1.0
  O  O108  1  0.86592000  0.46423000  0.56273000  1.0
  O  O109  1  0.36626000  0.02616000  0.43717000  1.0
  O  O110  1  0.02677000  0.44880000  0.96262000  1.0
  O  O111  1  0.52708000  0.41143000  0.03732000  1.0
  O  O112  1  0.47780000  0.62435000  0.72668000  1.0
  O  O113  1  0.97835000  0.35026000  0.27324000  1.0
  O  O114  1  0.67625000  0.92091000  0.54904000  1.0
  O  O115  1  0.17568000  0.47016000  0.45103000  1.0
  O  O116  1  0.09540000  0.55782000  0.76384000  1.0
  O  O117  1  0.59516000  0.32163000  0.23676000  1.0
  O  O118  1  0.78638000  0.51623000  0.67213000  1.0
  O  O119  1  0.28743000  0.18782000  0.32775000  1.0
  O  O120  1  0.78967000  0.75778000  0.65345000  1.0
  O  O121  1  0.28935000  0.41115000  0.34697000  1.0
  O  O122  1  0.90276000  0.83611000  0.88917000  1.0
  O  O123  1  0.40042000  0.72496000  0.11118000  1.0
  O  O124  1  0.60507000  0.58644000  0.89879000  1.0
  O  O125  1  0.10513000  0.48481000  0.10124000  1.0
