# generated using pymatgen
data_Gd2Cu3P6H24C30(NO3)6
_symmetry_space_group_name_H-M   'P 1'
_cell_length_a   10.19890000
_cell_length_b   11.36250000
_cell_length_c   11.36290000
_cell_angle_alpha   111.45200000
_cell_angle_beta   107.41400000
_cell_angle_gamma   107.40000000
_symmetry_Int_Tables_number   1
_chemical_formula_structural   Gd2Cu3P6H24C30(NO3)6
_chemical_formula_sum   'Gd2 Cu3 P6 H24 C30 N6 O18'
_cell_volume   1038.34255539
_cell_formula_units_Z   1
loop_
 _symmetry_equiv_pos_site_id
 _symmetry_equiv_pos_as_xyz
  1  'x, y, z'
loop_
 _atom_site_type_symbol
 _atom_site_label
 _atom_site_symmetry_multiplicity
 _atom_site_fract_x
 _atom_site_fract_y
 _atom_site_fract_z
 _atom_site_occupancy
  Gd  Gd0  1  0.00000000  0.00000000  0.00000000  1.0
  Gd  Gd1  1  0.50000000  0.00000000  0.00000000  1.0
  Cu  Cu2  1  0.00000000  0.00000000  0.50000000  1.0
  Cu  Cu3  1  0.00000000  0.50000000  0.00000000  1.0
  Cu  Cu4  1  0.49999000  0.49999000  0.50000000  1.0
  P  P5  1  0.15823000  0.98564000  0.75172000  1.0
  P  P6  1  0.17263000  0.76611000  0.01436000  1.0
  P  P7  1  0.40648000  0.24828000  0.23388000  1.0
  P  P8  1  0.84177000  0.01436000  0.24828000  1.0
  P  P9  1  0.82738000  0.23390000  0.98564000  1.0
  P  P10  1  0.59351000  0.75171000  0.76611000  1.0
  H  H11  1  0.02323000  0.68612000  0.70853000  1.0
  H  H12  1  0.33717000  0.02246000  0.31391000  1.0
  H  H13  1  0.31450000  0.29150000  0.97754000  1.0
  H  H14  1  0.97677000  0.31387000  0.29148000  1.0
  H  H15  1  0.66284000  0.97755000  0.68609000  1.0
  H  H16  1  0.68550000  0.70850000  0.02245000  1.0
  H  H17  1  0.82721000  0.45325000  0.48136000  1.0
  H  H18  1  0.37397000  0.02814000  0.54679000  1.0
  H  H19  1  0.34583000  0.51872000  0.97188000  1.0
  H  H20  1  0.17279000  0.54675000  0.51864000  1.0
  H  H21  1  0.62603000  0.97186000  0.45322000  1.0
  H  H22  1  0.65417000  0.48128000  0.02812000  1.0
  H  H23  1  0.71519000  0.45592000  0.25610000  1.0
  H  H24  1  0.25935000  0.80021000  0.54410000  1.0
  H  H25  1  0.45930000  0.74399000  0.19988000  1.0
  H  H26  1  0.28481000  0.54409000  0.74390000  1.0
  H  H27  1  0.74064000  0.19979000  0.45589000  1.0
  H  H28  1  0.54070000  0.25601000  0.80013000  1.0
  H  H29  1  0.78292000  0.69623000  0.26834000  1.0
  H  H30  1  0.08675000  0.57222000  0.30379000  1.0
  H  H31  1  0.51456000  0.73162000  0.42784000  1.0
  H  H32  1  0.21708000  0.30378000  0.73167000  1.0
  H  H33  1  0.91325000  0.42779000  0.69621000  1.0
  H  H34  1  0.48543000  0.26837000  0.57215000  1.0
  C  C35  1  0.00657000  0.80904000  0.60407000  1.0
  C  C36  1  0.19764000  0.79511000  0.19100000  1.0
  C  C37  1  0.40239000  0.39591000  0.20489000  1.0
  C  C38  1  0.99343000  0.19096000  0.39593000  1.0
  C  C39  1  0.80236000  0.20490000  0.80900000  1.0
  C  C40  1  0.59761000  0.60409000  0.79510000  1.0
  C  C41  1  0.96828000  0.68226000  0.60795000  1.0
  C  C42  1  0.28611000  0.92575000  0.31778000  1.0
  C  C43  1  0.36012000  0.39207000  0.07425000  1.0
  C  C44  1  0.03173000  0.31774000  0.39205000  1.0
  C  C45  1  0.71390000  0.07425000  0.68222000  1.0
  C  C46  1  0.63988000  0.60793000  0.92574000  1.0
  C  C47  1  0.86065000  0.55422000  0.48249000  1.0
  C  C48  1  0.30649000  0.92833000  0.44581000  1.0
  C  C49  1  0.37812000  0.51759000  0.07171000  1.0
  C  C50  1  0.13935000  0.44578000  0.51752000  1.0
  C  C51  1  0.69351000  0.07167000  0.55419000  1.0
  C  C52  1  0.62188000  0.48241000  0.92829000  1.0
  C  C53  1  0.79515000  0.55517000  0.35608000  1.0
  C  C54  1  0.24011000  0.80097000  0.44486000  1.0
  C  C55  1  0.43923000  0.64398000  0.19911000  1.0
  C  C56  1  0.20485000  0.44483000  0.64392000  1.0
  C  C57  1  0.75989000  0.19903000  0.55514000  1.0
  C  C58  1  0.56076000  0.35601000  0.80089000  1.0
  C  C59  1  0.83303000  0.68545000  0.36062000  1.0
  C  C60  1  0.14767000  0.67526000  0.31457000  1.0
  C  C61  1  0.47240000  0.63935000  0.32480000  1.0
  C  C62  1  0.16697000  0.31455000  0.63938000  1.0
  C  C63  1  0.85233000  0.32474000  0.68542000  1.0
  C  C64  1  0.52759000  0.36064000  0.67520000  1.0
  N  N65  1  0.93580000  0.80876000  0.48247000  1.0
  N  N66  1  0.12710000  0.67380000  0.19125000  1.0
  N  N67  1  0.45325000  0.51748000  0.32623000  1.0
  N  N68  1  0.06420000  0.19124000  0.51753000  1.0
  N  N69  1  0.87289000  0.32621000  0.80875000  1.0
  N  N70  1  0.54674000  0.48251000  0.67376000  1.0
  O  O71  1  0.09628000  0.04117000  0.85522000  1.0
  O  O72  1  0.05516000  0.81408000  0.95880000  1.0
  O  O73  1  0.24109000  0.14474000  0.18591000  1.0
  O  O74  1  0.90372000  0.95883000  0.14479000  1.0
  O  O75  1  0.94484000  0.18592000  0.04120000  1.0
  O  O76  1  0.75891000  0.85525000  0.81408000  1.0
  O  O77  1  0.30057000  0.96804000  0.81397000  1.0
  O  O78  1  0.33254000  0.84594000  0.03195000  1.0
  O  O79  1  0.48654000  0.18604000  0.15400000  1.0
  O  O80  1  0.69943000  0.03196000  0.18603000  1.0
  O  O81  1  0.66746000  0.15406000  0.96805000  1.0
  O  O82  1  0.51346000  0.81396000  0.84600000  1.0
  O  O83  1  0.18200000  0.07301000  0.67550000  1.0
  O  O84  1  0.10902000  0.60252000  0.92701000  1.0
  O  O85  1  0.50651000  0.32450000  0.39748000  1.0
  O  O86  1  0.81800000  0.92699000  0.32450000  1.0
  O  O87  1  0.89098000  0.39749000  0.07299000  1.0
  O  O88  1  0.49348000  0.67549000  0.60251000  1.0
