# generated using pymatgen
data_CoH8(C3N)4
_symmetry_space_group_name_H-M   'P 1'
_cell_length_a   13.31310000
_cell_length_b   13.89690000
_cell_length_c   26.50030000
_cell_angle_alpha   90.00000000
_cell_angle_beta   101.67600000
_cell_angle_gamma   90.00000000
_symmetry_Int_Tables_number   1
_chemical_formula_structural   CoH8(C3N)4
_chemical_formula_sum   'Co8 H64 C96 N32'
_cell_volume   4801.39097846
_cell_formula_units_Z   8
loop_
 _symmetry_equiv_pos_site_id
 _symmetry_equiv_pos_as_xyz
  1  'x, y, z'
loop_
 _atom_site_type_symbol
 _atom_site_label
 _atom_site_symmetry_multiplicity
 _atom_site_fract_x
 _atom_site_fract_y
 _atom_site_fract_z
 _atom_site_occupancy
  Co  Co0  1  0.98300000  0.13277000  0.73151000  1.0
  Co  Co1  1  0.01701000  0.63277000  0.76849000  1.0
  Co  Co2  1  0.01700000  0.86723000  0.26849000  1.0
  Co  Co3  1  0.98300000  0.36723000  0.23151000  1.0
  Co  Co4  1  0.98972000  0.88591000  0.75592000  1.0
  Co  Co5  1  0.01028000  0.38592000  0.74408000  1.0
  Co  Co6  1  0.01028000  0.11408000  0.24408000  1.0
  Co  Co7  1  0.98972000  0.61409000  0.25592000  1.0
  H  H8  1  0.73546000  0.15359000  0.70322000  1.0
  H  H9  1  0.26454000  0.65359000  0.79678000  1.0
  H  H10  1  0.26454000  0.84641000  0.29678000  1.0
  H  H11  1  0.73547000  0.34641000  0.20322000  1.0
  H  H12  1  0.76269000  0.86770000  0.76995000  1.0
  H  H13  1  0.23731000  0.36770000  0.73005000  1.0
  H  H14  1  0.23731000  0.13230000  0.23005000  1.0
  H  H15  1  0.76269000  0.63230000  0.26995000  1.0
  H  H16  1  0.20211000  0.14712000  0.70365000  1.0
  H  H17  1  0.79789000  0.64712000  0.79635000  1.0
  H  H18  1  0.79789000  0.85288000  0.29635000  1.0
  H  H19  1  0.20211000  0.35288000  0.20365000  1.0
  H  H20  1  0.23361000  0.86328000  0.77298000  1.0
  H  H21  1  0.76639000  0.36328000  0.72702000  1.0
  H  H22  1  0.76639000  0.13672000  0.22702000  1.0
  H  H23  1  0.23361000  0.63672000  0.27298000  1.0
  H  H24  1  0.37275000  0.14170000  0.69605000  1.0
  H  H25  1  0.62725000  0.64170000  0.80395000  1.0
  H  H26  1  0.62725000  0.85830000  0.30395000  1.0
  H  H27  1  0.37275000  0.35830000  0.19605000  1.0
  H  H28  1  0.55624000  0.14434000  0.69580000  1.0
  H  H29  1  0.44376000  0.64434000  0.80420000  1.0
  H  H30  1  0.44376000  0.85566000  0.30420000  1.0
  H  H31  1  0.55624000  0.35566000  0.19580000  1.0
  H  H32  1  0.59232000  0.87086000  0.77442000  1.0
  H  H33  1  0.40768000  0.37086000  0.72559000  1.0
  H  H34  1  0.40768000  0.12914000  0.22559000  1.0
  H  H35  1  0.59232000  0.62914000  0.27441000  1.0
  H  H36  1  0.40931000  0.86892000  0.77531000  1.0
  H  H37  1  0.59069000  0.36892000  0.72469000  1.0
  H  H38  1  0.59069000  0.13108000  0.22469000  1.0
  H  H39  1  0.40931000  0.63108000  0.27531000  1.0
  H  H40  1  0.03199000  0.42736000  0.62805000  1.0
  H  H41  1  0.96801000  0.92736000  0.87195000  1.0
  H  H42  1  0.96801000  0.57264000  0.37195000  1.0
  H  H43  1  0.03199000  0.07264000  0.12805000  1.0
  H  H44  1  0.97924000  0.12032000  0.61348000  1.0
  H  H45  1  0.02076000  0.62032000  0.88652000  1.0
  H  H46  1  0.02076000  0.87968000  0.38652000  1.0
  H  H47  1  0.97924000  0.37968000  0.11348000  1.0
  H  H48  1  0.07554000  0.13009000  0.54525000  1.0
  H  H49  1  0.92446000  0.63009000  0.95475000  1.0
  H  H50  1  0.92446000  0.86991000  0.45475000  1.0
  H  H51  1  0.07554000  0.36992000  0.04525000  1.0
  H  H52  1  0.08356000  0.12359000  0.45372000  1.0
  H  H53  1  0.91644000  0.62359000  0.04628000  1.0
  H  H54  1  0.91644000  0.87641000  0.54628000  1.0
  H  H55  1  0.08356000  0.37641000  0.95372000  1.0
  H  H56  1  0.97627000  0.41679000  0.43520000  1.0
  H  H57  1  0.02373000  0.91680000  0.06480000  1.0
  H  H58  1  0.02373000  0.58320000  0.56480000  1.0
  H  H59  1  0.97627000  0.08321000  0.93520000  1.0
  H  H60  1  0.96721000  0.42278000  0.52666000  1.0
  H  H61  1  0.03278000  0.92278000  0.97334000  1.0
  H  H62  1  0.03279000  0.57722000  0.47334000  1.0
  H  H63  1  0.96721000  0.07722000  0.02666000  1.0
  H  H64  1  0.98306000  0.40991000  0.34752000  1.0
  H  H65  1  0.01694000  0.90991000  0.15248000  1.0
  H  H66  1  0.01694000  0.59009000  0.65248000  1.0
  H  H67  1  0.98306000  0.09009000  0.84752000  1.0
  H  H68  1  0.06521000  0.10825000  0.36555000  1.0
  H  H69  1  0.93479000  0.60825000  0.13445000  1.0
  H  H70  1  0.93479000  0.89175000  0.63445000  1.0
  H  H71  1  0.06521000  0.39175000  0.86555000  1.0
  C  C72  1  0.75865000  0.08342000  0.71951000  1.0
  C  C73  1  0.24135000  0.58342000  0.78049000  1.0
  C  C74  1  0.24135000  0.91658000  0.28049000  1.0
  C  C75  1  0.75865000  0.41658000  0.21951000  1.0
  C  C76  1  0.69987000  0.01012000  0.73607000  1.0
  C  C77  1  0.30013000  0.51012000  0.76392000  1.0
  C  C78  1  0.30013000  0.98988000  0.26393000  1.0
  C  C79  1  0.69987000  0.48988000  0.23608000  1.0
  C  C80  1  0.77276000  0.93827000  0.75413000  1.0
  C  C81  1  0.22724000  0.43827000  0.74588000  1.0
  C  C82  1  0.22724000  0.06173000  0.24588000  1.0
  C  C83  1  0.77276000  0.56173000  0.25412000  1.0
  C  C84  1  0.19358000  0.07752000  0.72089000  1.0
  C  C85  1  0.80643000  0.57752000  0.77911000  1.0
  C  C86  1  0.80642000  0.92248000  0.27911000  1.0
  C  C87  1  0.19358000  0.42248000  0.22089000  1.0
  C  C88  1  0.26667000  0.00511000  0.73756000  1.0
  C  C89  1  0.73333000  0.50511000  0.76244000  1.0
  C  C90  1  0.73333000  0.99489000  0.26244000  1.0
  C  C91  1  0.26667000  0.49489000  0.23756000  1.0
  C  C92  1  0.20982000  0.93337000  0.75677000  1.0
  C  C93  1  0.79018000  0.43337000  0.74323000  1.0
  C  C94  1  0.79018000  0.06663000  0.24323000  1.0
  C  C95  1  0.20982000  0.56663000  0.25677000  1.0
  C  C96  1  0.37574000  0.00550000  0.73613000  1.0
  C  C97  1  0.62426000  0.50550000  0.76387000  1.0
  C  C98  1  0.62426000  0.99450000  0.26387000  1.0
  C  C99  1  0.37574000  0.49450000  0.23613000  1.0
  C  C100  1  0.42050000  0.08209000  0.71377000  1.0
  C  C101  1  0.57950000  0.58209000  0.78623000  1.0
  C  C102  1  0.57950000  0.91791000  0.28623000  1.0
  C  C103  1  0.42050000  0.41791000  0.21377000  1.0
  C  C104  1  0.52478000  0.08353000  0.71355000  1.0
  C  C105  1  0.47522000  0.58353000  0.78645000  1.0
  C  C106  1  0.47522000  0.91647000  0.28645000  1.0
  C  C107  1  0.52478000  0.41647000  0.21355000  1.0
  C  C108  1  0.58995000  0.00827000  0.73548000  1.0
  C  C109  1  0.41004000  0.50827000  0.76452000  1.0
  C  C110  1  0.41005000  0.99173000  0.26452000  1.0
  C  C111  1  0.58995000  0.49173000  0.23548000  1.0
  C  C112  1  0.54490000  0.93106000  0.75721000  1.0
  C  C113  1  0.45510000  0.43106000  0.74279000  1.0
  C  C114  1  0.45510000  0.06894000  0.24279000  1.0
  C  C115  1  0.54490000  0.56894000  0.25721000  1.0
  C  C116  1  0.44074000  0.92981000  0.75762000  1.0
  C  C117  1  0.55926000  0.42981000  0.74238000  1.0
  C  C118  1  0.55926000  0.07019000  0.24238000  1.0
  C  C119  1  0.44074000  0.57019000  0.25762000  1.0
  C  C120  1  0.01614000  0.35160000  0.63267000  1.0
  C  C121  1  0.98386000  0.85160000  0.86733000  1.0
  C  C122  1  0.98386000  0.64840000  0.36733000  1.0
  C  C123  1  0.01614000  0.14840000  0.13267000  1.0
  C  C124  1  0.00952000  0.27576000  0.59703000  1.0
  C  C125  1  0.99048000  0.77576000  0.90297000  1.0
  C  C126  1  0.99048000  0.72424000  0.40297000  1.0
  C  C127  1  0.00952000  0.22424000  0.09703000  1.0
  C  C128  1  0.99054000  0.19486000  0.62554000  1.0
  C  C129  1  0.00945000  0.69486000  0.87446000  1.0
  C  C130  1  0.00945000  0.80514000  0.37446000  1.0
  C  C131  1  0.99055000  0.30514000  0.12554000  1.0
  C  C132  1  0.01947000  0.27639000  0.54312000  1.0
  C  C133  1  0.98053000  0.77640000  0.95688000  1.0
  C  C134  1  0.98053000  0.72360000  0.45688000  1.0
  C  C135  1  0.01947000  0.22361000  0.04312000  1.0
  C  C136  1  0.05260000  0.19304000  0.52106000  1.0
  C  C137  1  0.94740000  0.69305000  0.97894000  1.0
  C  C138  1  0.94740000  0.80695000  0.47894000  1.0
  C  C139  1  0.05260000  0.30696000  0.02106000  1.0
  C  C140  1  0.05740000  0.18957000  0.46925000  1.0
  C  C141  1  0.94260000  0.68957000  0.03075000  1.0
  C  C142  1  0.94260000  0.81043000  0.53075000  1.0
  C  C143  1  0.05740000  0.31043000  0.96925000  1.0
  C  C144  1  0.02919000  0.26924000  0.43667000  1.0
  C  C145  1  0.97081000  0.76924000  0.06333000  1.0
  C  C146  1  0.97081000  0.73075000  0.56333000  1.0
  C  C147  1  0.02919000  0.23076000  0.93667000  1.0
  C  C148  1  0.99910000  0.35352000  0.45913000  1.0
  C  C149  1  0.00090000  0.85352000  0.04087000  1.0
  C  C150  1  0.00090000  0.64648000  0.54087000  1.0
  C  C151  1  0.99910000  0.14648000  0.95913000  1.0
  C  C152  1  0.99428000  0.35720000  0.51107000  1.0
  C  C153  1  0.00572000  0.85720000  0.98893000  1.0
  C  C154  1  0.00572000  0.64280000  0.48893000  1.0
  C  C155  1  0.99428000  0.14280000  0.01107000  1.0
  C  C156  1  0.00193000  0.33466000  0.34371000  1.0
  C  C157  1  0.99807000  0.83466000  0.15629000  1.0
  C  C158  1  0.99807000  0.66534000  0.65629000  1.0
  C  C159  1  0.00193000  0.16534000  0.84371000  1.0
  C  C160  1  0.02734000  0.26276000  0.38149000  1.0
  C  C161  1  0.97266000  0.76276000  0.11851000  1.0
  C  C162  1  0.97266000  0.73724000  0.61851000  1.0
  C  C163  1  0.02734000  0.23724000  0.88149000  1.0
  C  C164  1  0.04464000  0.18121000  0.35287000  1.0
  C  C165  1  0.95536000  0.68121000  0.14713000  1.0
  C  C166  1  0.95536000  0.81879000  0.64713000  1.0
  C  C167  1  0.04464000  0.31879000  0.85287000  1.0
  N  N168  1  0.85814000  0.05672000  0.72706000  1.0
  N  N169  1  0.14186000  0.55672000  0.77294000  1.0
  N  N170  1  0.14186000  0.94328000  0.27294000  1.0
  N  N171  1  0.85813000  0.44328000  0.22706000  1.0
  N  N172  1  0.86679000  0.96676000  0.74866000  1.0
  N  N173  1  0.13321000  0.46676000  0.75134000  1.0
  N  N174  1  0.13322000  0.03324000  0.25135000  1.0
  N  N175  1  0.86679000  0.53324000  0.24865000  1.0
  N  N176  1  0.10128000  0.05067000  0.72974000  1.0
  N  N177  1  0.89872000  0.55067000  0.77026000  1.0
  N  N178  1  0.89871000  0.94933000  0.27026000  1.0
  N  N179  1  0.10128000  0.44933000  0.22974000  1.0
  N  N180  1  0.11137000  0.96157000  0.75209000  1.0
  N  N181  1  0.88863000  0.46157000  0.74791000  1.0
  N  N182  1  0.88863000  0.03843000  0.24791000  1.0
  N  N183  1  0.11137000  0.53843000  0.25209000  1.0
  N  N184  1  0.00255000  0.31776000  0.67870000  1.0
  N  N185  1  0.99744000  0.81776000  0.82130000  1.0
  N  N186  1  0.99745000  0.68224000  0.32130000  1.0
  N  N187  1  0.00256000  0.18224000  0.17870000  1.0
  N  N188  1  0.98599000  0.22076000  0.67406000  1.0
  N  N189  1  0.01401000  0.72076000  0.82594000  1.0
  N  N190  1  0.01401000  0.77925000  0.32594000  1.0
  N  N191  1  0.98599000  0.27925000  0.17406000  1.0
  N  N192  1  0.00331000  0.29816000  0.29670000  1.0
  N  N193  1  0.99669000  0.79816000  0.20330000  1.0
  N  N194  1  0.99669000  0.70184000  0.70330000  1.0
  N  N195  1  0.00331000  0.20184000  0.79670000  1.0
  N  N196  1  0.02989000  0.20332000  0.30233000  1.0
  N  N197  1  0.97011000  0.70333000  0.19767000  1.0
  N  N198  1  0.97011000  0.79668000  0.69767000  1.0
  N  N199  1  0.02989000  0.29668000  0.80233000  1.0
