# generated using pymatgen
data_CuH25C27S(N2O3)2
_symmetry_space_group_name_H-M   'P 1'
_cell_length_a   11.09840000
_cell_length_b   14.77820000
_cell_length_c   18.40650000
_cell_angle_alpha   89.99990000
_cell_angle_beta   90.00000000
_cell_angle_gamma   89.99990000
_symmetry_Int_Tables_number   1
_chemical_formula_structural   CuH25C27S(N2O3)2
_chemical_formula_sum   'Cu4 H100 C108 S4 N16 O24'
_cell_volume   3018.93059122
_cell_formula_units_Z   4
loop_
 _symmetry_equiv_pos_site_id
 _symmetry_equiv_pos_as_xyz
  1  'x, y, z'
loop_
 _atom_site_type_symbol
 _atom_site_label
 _atom_site_symmetry_multiplicity
 _atom_site_fract_x
 _atom_site_fract_y
 _atom_site_fract_z
 _atom_site_occupancy
  Cu  Cu0  1  0.89639000  0.21342000  0.22154000  1.0
  Cu  Cu1  1  0.89639000  0.78658000  0.77846000  1.0
  Cu  Cu2  1  0.10361000  0.28658000  0.72154000  1.0
  Cu  Cu3  1  0.10361000  0.71343000  0.27846000  1.0
  H  H4  1  0.48623000  0.92826000  0.05001000  1.0
  H  H5  1  0.32152000  0.95450000  0.14032000  1.0
  H  H6  1  0.57868000  0.93011000  0.31424000  1.0
  H  H7  1  0.74066000  0.90151000  0.22605000  1.0
  H  H8  1  0.31104000  0.88376000  0.30823000  1.0
  H  H9  1  0.25776000  0.98221000  0.26496000  1.0
  H  H10  1  0.36669000  0.99051000  0.33592000  1.0
  H  H11  1  0.91607000  0.89390000  0.16838000  1.0
  H  H12  1  0.12168000  0.96584000  0.15299000  1.0
  H  H13  1  0.07419000  0.00413000  0.06607000  1.0
  H  H14  1  0.03173000  0.83826000  0.03226000  1.0
  H  H15  1  0.18470000  0.85997000  0.05038000  1.0
  H  H16  1  0.84038000  0.24081000  0.04668000  1.0
  H  H17  1  0.84840000  0.35965000  0.95247000  1.0
  H  H18  1  0.98869000  0.54157000  0.11675000  1.0
  H  H19  1  0.96978000  0.41595000  0.20463000  1.0
  H  H20  1  0.70481000  0.21316000  0.33907000  1.0
  H  H21  1  0.48060000  0.21352000  0.34128000  1.0
  H  H22  1  0.49015000  0.16109000  0.10976000  1.0
  H  H23  1  0.71074000  0.16879000  0.11697000  1.0
  H  H24  1  0.30317000  0.15643000  0.33678000  1.0
  H  H25  1  0.08024000  0.17169000  0.33013000  1.0
  H  H26  1  0.09209000  0.23543000  0.11154000  1.0
  H  H27  1  0.31544000  0.22808000  0.10886000  1.0
  H  H28  1  0.82108000  0.01932000  0.05880000  1.0
  H  H29  1  0.48623000  0.07175000  0.94999000  1.0
  H  H30  1  0.32152000  0.04550000  0.85968000  1.0
  H  H31  1  0.57868000  0.06990000  0.68576000  1.0
  H  H32  1  0.74066000  0.09849000  0.77395000  1.0
  H  H33  1  0.31105000  0.11625000  0.69177000  1.0
  H  H34  1  0.25776000  0.01779000  0.73504000  1.0
  H  H35  1  0.36670000  0.00949000  0.66408000  1.0
  H  H36  1  0.91607000  0.10611000  0.83162000  1.0
  H  H37  1  0.12169000  0.03416000  0.84701000  1.0
  H  H38  1  0.07419000  0.99587000  0.93393000  1.0
  H  H39  1  0.03173000  0.16174000  0.96774000  1.0
  H  H40  1  0.18470000  0.14003000  0.94962000  1.0
  H  H41  1  0.84038000  0.75919000  0.95332000  1.0
  H  H42  1  0.84840000  0.64035000  0.04753000  1.0
  H  H43  1  0.98869000  0.45843000  0.88325000  1.0
  H  H44  1  0.96978000  0.58405000  0.79537000  1.0
  H  H45  1  0.70481000  0.78684000  0.66093000  1.0
  H  H46  1  0.48060000  0.78649000  0.65872000  1.0
  H  H47  1  0.49015000  0.83891000  0.89024000  1.0
  H  H48  1  0.71074000  0.83121000  0.88303000  1.0
  H  H49  1  0.30316000  0.84358000  0.66322000  1.0
  H  H50  1  0.08024000  0.82831000  0.66987000  1.0
  H  H51  1  0.09209000  0.76457000  0.88846000  1.0
  H  H52  1  0.31543000  0.77192000  0.89114000  1.0
  H  H53  1  0.82108000  0.98068000  0.94120000  1.0
  H  H54  1  0.51377000  0.57175000  0.55001000  1.0
  H  H55  1  0.67848000  0.54550000  0.64032000  1.0
  H  H56  1  0.42133000  0.56989000  0.81424000  1.0
  H  H57  1  0.25934000  0.59849000  0.72605000  1.0
  H  H58  1  0.68895000  0.61624000  0.80823000  1.0
  H  H59  1  0.74224000  0.51779000  0.76496000  1.0
  H  H60  1  0.63331000  0.50948000  0.83592000  1.0
  H  H61  1  0.08393000  0.60610000  0.66838000  1.0
  H  H62  1  0.87831000  0.53416000  0.65299000  1.0
  H  H63  1  0.92581000  0.49587000  0.56607000  1.0
  H  H64  1  0.96827000  0.66174000  0.53226000  1.0
  H  H65  1  0.81530000  0.64003000  0.55038000  1.0
  H  H66  1  0.15962000  0.25919000  0.54668000  1.0
  H  H67  1  0.15160000  0.14034000  0.45247000  1.0
  H  H68  1  0.01131000  0.95843000  0.61674000  1.0
  H  H69  1  0.03022000  0.08405000  0.70463000  1.0
  H  H70  1  0.29520000  0.28684000  0.83907000  1.0
  H  H71  1  0.51941000  0.28648000  0.84128000  1.0
  H  H72  1  0.50986000  0.33891000  0.60976000  1.0
  H  H73  1  0.28926000  0.33121000  0.61697000  1.0
  H  H74  1  0.69683000  0.34357000  0.83678000  1.0
  H  H75  1  0.91975000  0.32831000  0.83013000  1.0
  H  H76  1  0.90790000  0.26458000  0.61154000  1.0
  H  H77  1  0.68456000  0.27192000  0.60886000  1.0
  H  H78  1  0.17892000  0.48068000  0.55880000  1.0
  H  H79  1  0.51377000  0.42825000  0.44999000  1.0
  H  H80  1  0.67848000  0.45450000  0.35968000  1.0
  H  H81  1  0.42132000  0.43011000  0.18576000  1.0
  H  H82  1  0.25934000  0.40151000  0.27395000  1.0
  H  H83  1  0.68896000  0.38375000  0.19177000  1.0
  H  H84  1  0.74224000  0.48221000  0.23504000  1.0
  H  H85  1  0.63331000  0.49051000  0.16408000  1.0
  H  H86  1  0.08393000  0.39390000  0.33162000  1.0
  H  H87  1  0.87831000  0.46584000  0.34701000  1.0
  H  H88  1  0.92581000  0.50413000  0.43393000  1.0
  H  H89  1  0.96827000  0.33826000  0.46774000  1.0
  H  H90  1  0.81530000  0.35997000  0.44962000  1.0
  H  H91  1  0.15962000  0.74081000  0.45332000  1.0
  H  H92  1  0.15161000  0.85966000  0.54753000  1.0
  H  H93  1  0.01131000  0.04157000  0.38325000  1.0
  H  H94  1  0.03022000  0.91595000  0.29537000  1.0
  H  H95  1  0.29519000  0.71317000  0.16093000  1.0
  H  H96  1  0.51940000  0.71352000  0.15872000  1.0
  H  H97  1  0.50985000  0.66109000  0.39024000  1.0
  H  H98  1  0.28926000  0.66879000  0.38303000  1.0
  H  H99  1  0.69683000  0.65642000  0.16322000  1.0
  H  H100  1  0.91976000  0.67169000  0.16987000  1.0
  H  H101  1  0.90790000  0.73543000  0.38846000  1.0
  H  H102  1  0.68456000  0.72808000  0.39114000  1.0
  H  H103  1  0.17892000  0.51932000  0.44120000  1.0
  C  C104  1  0.50464000  0.92785000  0.10815000  1.0
  C  C105  1  0.41353000  0.94284000  0.15895000  1.0
  C  C106  1  0.43774000  0.94201000  0.23373000  1.0
  C  C107  1  0.55731000  0.92897000  0.25635000  1.0
  C  C108  1  0.64916000  0.91276000  0.20661000  1.0
  C  C109  1  0.62182000  0.91108000  0.13231000  1.0
  C  C110  1  0.33833000  0.95090000  0.28840000  1.0
  C  C111  1  0.93199000  0.95404000  0.13493000  1.0
  C  C112  1  0.91588000  0.03835000  0.18233000  1.0
  C  C113  1  0.06233000  0.95035000  0.10680000  1.0
  C  C114  1  0.09462000  0.85793000  0.07568000  1.0
  C  C115  1  0.09731000  0.78022000  0.13111000  1.0
  C  C116  1  0.86998000  0.30893000  0.06069000  1.0
  C  C117  1  0.87541000  0.37591000  0.00776000  1.0
  C  C118  1  0.91448000  0.46299000  0.02693000  1.0
  C  C119  1  0.95068000  0.47715000  0.09907000  1.0
  C  C120  1  0.94205000  0.40601000  0.14843000  1.0
  C  C121  1  0.65264000  0.20409000  0.28950000  1.0
  C  C122  1  0.52747000  0.20170000  0.29018000  1.0
  C  C123  1  0.46350000  0.18857000  0.22521000  1.0
  C  C124  1  0.53189000  0.17539000  0.16202000  1.0
  C  C125  1  0.65662000  0.17935000  0.16539000  1.0
  C  C126  1  0.33066000  0.19087000  0.22319000  1.0
  C  C127  1  0.26141000  0.17430000  0.28535000  1.0
  C  C128  1  0.13679000  0.18239000  0.28254000  1.0
  C  C129  1  0.14313000  0.21851000  0.16019000  1.0
  C  C130  1  0.26793000  0.21272000  0.15916000  1.0
  C  C131  1  0.50464000  0.07215000  0.89185000  1.0
  C  C132  1  0.41353000  0.05716000  0.84105000  1.0
  C  C133  1  0.43774000  0.05800000  0.76627000  1.0
  C  C134  1  0.55732000  0.07104000  0.74365000  1.0
  C  C135  1  0.64917000  0.08724000  0.79339000  1.0
  C  C136  1  0.62182000  0.08892000  0.86769000  1.0
  C  C137  1  0.33833000  0.04910000  0.71160000  1.0
  C  C138  1  0.93199000  0.04596000  0.86507000  1.0
  C  C139  1  0.91588000  0.96165000  0.81767000  1.0
  C  C140  1  0.06233000  0.04965000  0.89320000  1.0
  C  C141  1  0.09462000  0.14207000  0.92432000  1.0
  C  C142  1  0.09731000  0.21978000  0.86889000  1.0
  C  C143  1  0.86998000  0.69107000  0.93931000  1.0
  C  C144  1  0.87541000  0.62409000  0.99224000  1.0
  C  C145  1  0.91448000  0.53701000  0.97307000  1.0
  C  C146  1  0.95068000  0.52285000  0.90093000  1.0
  C  C147  1  0.94205000  0.59399000  0.85157000  1.0
  C  C148  1  0.65264000  0.79592000  0.71050000  1.0
  C  C149  1  0.52747000  0.79830000  0.70982000  1.0
  C  C150  1  0.46350000  0.81143000  0.77479000  1.0
  C  C151  1  0.53189000  0.82461000  0.83798000  1.0
  C  C152  1  0.65662000  0.82065000  0.83461000  1.0
  C  C153  1  0.33066000  0.80913000  0.77681000  1.0
  C  C154  1  0.26141000  0.82571000  0.71465000  1.0
  C  C155  1  0.13679000  0.81761000  0.71746000  1.0
  C  C156  1  0.14313000  0.78150000  0.83981000  1.0
  C  C157  1  0.26793000  0.78728000  0.84084000  1.0
  C  C158  1  0.49536000  0.57215000  0.60815000  1.0
  C  C159  1  0.58647000  0.55715000  0.65895000  1.0
  C  C160  1  0.56226000  0.55799000  0.73373000  1.0
  C  C161  1  0.44269000  0.57103000  0.75635000  1.0
  C  C162  1  0.35084000  0.58724000  0.70661000  1.0
  C  C163  1  0.37818000  0.58892000  0.63231000  1.0
  C  C164  1  0.66167000  0.54910000  0.78840000  1.0
  C  C165  1  0.06801000  0.54596000  0.63493000  1.0
  C  C166  1  0.08412000  0.46164000  0.68232000  1.0
  C  C167  1  0.93767000  0.54965000  0.60680000  1.0
  C  C168  1  0.90538000  0.64207000  0.57568000  1.0
  C  C169  1  0.90269000  0.71978000  0.63111000  1.0
  C  C170  1  0.13002000  0.19106000  0.56069000  1.0
  C  C171  1  0.12459000  0.12408000  0.50776000  1.0
  C  C172  1  0.08552000  0.03701000  0.52693000  1.0
  C  C173  1  0.04932000  0.02285000  0.59907000  1.0
  C  C174  1  0.05795000  0.09399000  0.64843000  1.0
  C  C175  1  0.34736000  0.29592000  0.78950000  1.0
  C  C176  1  0.47254000  0.29830000  0.79019000  1.0
  C  C177  1  0.53650000  0.31143000  0.72521000  1.0
  C  C178  1  0.46811000  0.32461000  0.66203000  1.0
  C  C179  1  0.34339000  0.32065000  0.66539000  1.0
  C  C180  1  0.66933000  0.30913000  0.72319000  1.0
  C  C181  1  0.73858000  0.32570000  0.78535000  1.0
  C  C182  1  0.86320000  0.31761000  0.78254000  1.0
  C  C183  1  0.85686000  0.28150000  0.66019000  1.0
  C  C184  1  0.73206000  0.28728000  0.65916000  1.0
  C  C185  1  0.49536000  0.42785000  0.39185000  1.0
  C  C186  1  0.58647000  0.44284000  0.34105000  1.0
  C  C187  1  0.56226000  0.44201000  0.26627000  1.0
  C  C188  1  0.44269000  0.42897000  0.24365000  1.0
  C  C189  1  0.35084000  0.41276000  0.29339000  1.0
  C  C190  1  0.37818000  0.41108000  0.36769000  1.0
  C  C191  1  0.66167000  0.45090000  0.21160000  1.0
  C  C192  1  0.06801000  0.45404000  0.36507000  1.0
  C  C193  1  0.08412000  0.53835000  0.31767000  1.0
  C  C194  1  0.93767000  0.45035000  0.39320000  1.0
  C  C195  1  0.90538000  0.35793000  0.42432000  1.0
  C  C196  1  0.90269000  0.28022000  0.36889000  1.0
  C  C197  1  0.13002000  0.80893000  0.43931000  1.0
  C  C198  1  0.12459000  0.87591000  0.49224000  1.0
  C  C199  1  0.08552000  0.96299000  0.47307000  1.0
  C  C200  1  0.04932000  0.97715000  0.40093000  1.0
  C  C201  1  0.05795000  0.90601000  0.35157000  1.0
  C  C202  1  0.34736000  0.70408000  0.21050000  1.0
  C  C203  1  0.47253000  0.70170000  0.20982000  1.0
  C  C204  1  0.53650000  0.68857000  0.27479000  1.0
  C  C205  1  0.46811000  0.67539000  0.33798000  1.0
  C  C206  1  0.34338000  0.67935000  0.33461000  1.0
  C  C207  1  0.66934000  0.69086000  0.27682000  1.0
  C  C208  1  0.73859000  0.67429000  0.21465000  1.0
  C  C209  1  0.86321000  0.68239000  0.21746000  1.0
  C  C210  1  0.85687000  0.71850000  0.33981000  1.0
  C  C211  1  0.73207000  0.71271000  0.34084000  1.0
  S  S212  1  0.73553000  0.88294000  0.06827000  1.0
  S  S213  1  0.73553000  0.11707000  0.93173000  1.0
  S  S214  1  0.26447000  0.61707000  0.56827000  1.0
  S  S215  1  0.26447000  0.38293000  0.43173000  1.0
  N  N216  1  0.71666000  0.19501000  0.22777000  1.0
  N  N217  1  0.07856000  0.20498000  0.22120000  1.0
  N  N218  1  0.90071000  0.32334000  0.13047000  1.0
  N  N219  1  0.84580000  0.95512000  0.07421000  1.0
  N  N220  1  0.71666000  0.80499000  0.77224000  1.0
  N  N221  1  0.07856000  0.79502000  0.77880000  1.0
  N  N222  1  0.90071000  0.67666000  0.86954000  1.0
  N  N223  1  0.84580000  0.04488000  0.92579000  1.0
  N  N224  1  0.28334000  0.30500000  0.72777000  1.0
  N  N225  1  0.92144000  0.29502000  0.72120000  1.0
  N  N226  1  0.09929000  0.17666000  0.63046000  1.0
  N  N227  1  0.15420000  0.54488000  0.57421000  1.0
  N  N228  1  0.28334000  0.69501000  0.27223000  1.0
  N  N229  1  0.92144000  0.70498000  0.27880000  1.0
  N  N230  1  0.09929000  0.82334000  0.36954000  1.0
  N  N231  1  0.15421000  0.45512000  0.42579000  1.0
  O  O232  1  0.92203000  0.03213000  0.24962000  1.0
  O  O233  1  0.90091000  0.11273000  0.14602000  1.0
  O  O234  1  0.09698000  0.70048000  0.10894000  1.0
  O  O235  1  0.10244000  0.80532000  0.19888000  1.0
  O  O236  1  0.78379000  0.79570000  0.08890000  1.0
  O  O237  1  0.68391000  0.89470000  0.99639000  1.0
  O  O238  1  0.92203000  0.96787000  0.75038000  1.0
  O  O239  1  0.90091000  0.88727000  0.85399000  1.0
  O  O240  1  0.09699000  0.29952000  0.89106000  1.0
  O  O241  1  0.10244000  0.19468000  0.80112000  1.0
  O  O242  1  0.78378000  0.20430000  0.91110000  1.0
  O  O243  1  0.68391000  0.10530000  0.00361000  1.0
  O  O244  1  0.07797000  0.46787000  0.74962000  1.0
  O  O245  1  0.09909000  0.38727000  0.64601000  1.0
  O  O246  1  0.90301000  0.79952000  0.60893000  1.0
  O  O247  1  0.89755000  0.69468000  0.69888000  1.0
  O  O248  1  0.21621000  0.70430000  0.58890000  1.0
  O  O249  1  0.31609000  0.60530000  0.49639000  1.0
  O  O250  1  0.07797000  0.53213000  0.25038000  1.0
  O  O251  1  0.09909000  0.61273000  0.35399000  1.0
  O  O252  1  0.90301000  0.20048000  0.39107000  1.0
  O  O253  1  0.89756000  0.30531000  0.30112000  1.0
  O  O254  1  0.21621000  0.29570000  0.41109000  1.0
  O  O255  1  0.31609000  0.39470000  0.50360000  1.0
