# generated using pymatgen
data_KVH9C7N3O8
_symmetry_space_group_name_H-M   'P 1'
_cell_length_a   6.65309000
_cell_length_b   9.47078000
_cell_length_c   10.82940000
_cell_angle_alpha   115.29700000
_cell_angle_beta   90.82110000
_cell_angle_gamma   105.79400000
_symmetry_Int_Tables_number   1
_chemical_formula_structural   KVH9C7N3O8
_chemical_formula_sum   'K2 V2 H18 C14 N6 O16'
_cell_volume   586.90307622
_cell_formula_units_Z   2
loop_
 _symmetry_equiv_pos_site_id
 _symmetry_equiv_pos_as_xyz
  1  'x, y, z'
loop_
 _atom_site_type_symbol
 _atom_site_label
 _atom_site_symmetry_multiplicity
 _atom_site_fract_x
 _atom_site_fract_y
 _atom_site_fract_z
 _atom_site_occupancy
  K  K0  1  0.31811000  0.61185000  0.48622000  1.0
  K  K1  1  0.68189000  0.38815000  0.51378000  1.0
  V  V2  1  0.28729000  0.05392000  0.20294000  1.0
  V  V3  1  0.71271000  0.94608000  0.79706000  1.0
  H  H4  1  0.64427000  0.39312000  0.03202000  1.0
  H  H5  1  0.35574000  0.60688000  0.96799000  1.0
  H  H6  1  0.70541000  0.51374000  0.86348000  1.0
  H  H7  1  0.29459000  0.48625000  0.13652000  1.0
  H  H8  1  0.97672000  0.78985000  0.94114000  1.0
  H  H9  1  0.02328000  0.21014000  0.05885000  1.0
  H  H10  1  0.55214000  0.89618000  0.23638000  1.0
  H  H11  1  0.44787000  0.10382000  0.76362000  1.0
  H  H12  1  0.59227000  0.92395000  0.08562000  1.0
  H  H13  1  0.40772000  0.07605000  0.91438000  1.0
  H  H14  1  0.98337000  0.21723000  0.25888000  1.0
  H  H15  1  0.01663000  0.78277000  0.74112000  1.0
  H  H16  1  0.03181000  0.16634000  0.38746000  1.0
  H  H17  1  0.96818000  0.83367000  0.61254000  1.0
  H  H18  1  0.61194000  0.88068000  0.43449000  1.0
  H  H19  1  0.38806000  0.11932000  0.56551000  1.0
  H  H20  1  0.60751000  0.70277000  0.33399000  1.0
  H  H21  1  0.39249000  0.29723000  0.66601000  1.0
  C  C22  1  0.01987000  0.75543000  0.22911000  1.0
  C  C23  1  0.98013000  0.24457000  0.77089000  1.0
  C  C24  1  0.87647000  0.60081000  0.19406000  1.0
  C  C25  1  0.12353000  0.39918000  0.80594000  1.0
  C  C26  1  0.75954000  0.51289000  0.06092000  1.0
  C  C27  1  0.24046000  0.48711000  0.93908000  1.0
  C  C28  1  0.79198000  0.57919000  0.96796000  1.0
  C  C29  1  0.20802000  0.42080000  0.03204000  1.0
  C  C30  1  0.94235000  0.73234000  0.00926000  1.0
  C  C31  1  0.05765000  0.26765000  0.99074000  1.0
  C  C32  1  0.14299000  0.86847000  0.37102000  1.0
  C  C33  1  0.85701000  0.13153000  0.62898000  1.0
  C  C34  1  0.83238000  0.52917000  0.29552000  1.0
  C  C35  1  0.16762000  0.47082000  0.70448000  1.0
  N  N36  1  0.05281000  0.81780000  0.13696000  1.0
  N  N37  1  0.94719000  0.18220000  0.86304000  1.0
  N  N38  1  0.52672000  0.95352000  0.17616000  1.0
  N  N39  1  0.47328000  0.04649000  0.82384000  1.0
  N  N40  1  0.08001000  0.17411000  0.29947000  1.0
  N  N41  1  0.91999000  0.82590000  0.70053000  1.0
  O  O42  1  0.27021000  0.00419000  0.38130000  1.0
  O  O43  1  0.72978000  0.99581000  0.61870000  1.0
  O  O44  1  0.11706000  0.82972000  0.46768000  1.0
  O  O45  1  0.88294000  0.17028000  0.53232000  1.0
  O  O46  1  0.67065000  0.55036000  0.35312000  1.0
  O  O47  1  0.32935000  0.44965000  0.64689000  1.0
  O  O48  1  0.94778000  0.44985000  0.30983000  1.0
  O  O49  1  0.05222000  0.55015000  0.69017000  1.0
  O  O50  1  0.25235000  0.04202000  0.04945000  1.0
  O  O51  1  0.74765000  0.95797000  0.95055000  1.0
  O  O52  1  0.58452000  0.12441000  0.25106000  1.0
  O  O53  1  0.41548000  0.87559000  0.74894000  1.0
  O  O54  1  0.29118000  0.27020000  0.32422000  1.0
  O  O55  1  0.70882000  0.72980000  0.67578000  1.0
  O  O56  1  0.55172000  0.79311000  0.33987000  1.0
  O  O57  1  0.44829000  0.20689000  0.66013000  1.0
