# generated using pymatgen
data_SrH6C6S2(N2O3)2
_symmetry_space_group_name_H-M   'P 1'
_cell_length_a   5.94151000
_cell_length_b   7.25472000
_cell_length_c   14.18840000
_cell_angle_alpha   92.73770000
_cell_angle_beta   101.36300000
_cell_angle_gamma   97.73600000
_symmetry_Int_Tables_number   1
_chemical_formula_structural   SrH6C6S2(N2O3)2
_chemical_formula_sum   'Sr2 H12 C12 S4 N8 O12'
_cell_volume   592.39244505
_cell_formula_units_Z   2
loop_
 _symmetry_equiv_pos_site_id
 _symmetry_equiv_pos_as_xyz
  1  'x, y, z'
loop_
 _atom_site_type_symbol
 _atom_site_label
 _atom_site_symmetry_multiplicity
 _atom_site_fract_x
 _atom_site_fract_y
 _atom_site_fract_z
 _atom_site_occupancy
  Sr  Sr0  1  0.17781000  0.77098000  0.48164000  1.0
  Sr  Sr1  1  0.82219000  0.22902000  0.51836000  1.0
  H  H2  1  0.28707000  0.70017000  0.97993000  1.0
  H  H3  1  0.71293000  0.29983000  0.02007000  1.0
  H  H4  1  0.78516000  0.78215000  0.95055000  1.0
  H  H5  1  0.21483000  0.21785000  0.04944000  1.0
  H  H6  1  0.19693000  0.66686000  0.14687000  1.0
  H  H7  1  0.80307000  0.33314000  0.85313000  1.0
  H  H8  1  0.91182000  0.91249000  0.16064000  1.0
  H  H9  1  0.08818000  0.08751000  0.83936000  1.0
  H  H10  1  0.55896000  0.84683000  0.78736000  1.0
  H  H11  1  0.44103000  0.15317000  0.21264000  1.0
  H  H12  1  0.17043000  0.59740000  0.76059000  1.0
  H  H13  1  0.82957000  0.40260000  0.23941000  1.0
  C  C14  1  0.36477000  0.72528000  0.13371000  1.0
  C  C15  1  0.63523000  0.27473000  0.86630000  1.0
  C  C16  1  0.56901000  0.80163000  0.19741000  1.0
  C  C17  1  0.43099000  0.19837000  0.80259000  1.0
  C  C18  1  0.73117000  0.84973000  0.13885000  1.0
  C  C19  1  0.26883000  0.15027000  0.86116000  1.0
  C  C20  1  0.72014000  0.78859000  0.79798000  1.0
  C  C21  1  0.27986000  0.21141000  0.20202000  1.0
  C  C22  1  0.84174000  0.72643000  0.73129000  1.0
  C  C23  1  0.15826000  0.27356000  0.26871000  1.0
  C  C24  1  0.03623000  0.66138000  0.78621000  1.0
  C  C25  1  0.96377000  0.33862000  0.21379000  1.0
  S  S26  1  0.61493000  0.82668000  0.32336000  1.0
  S  S27  1  0.38507000  0.17332000  0.67664000  1.0
  S  S28  1  0.75523000  0.71156000  0.60597000  1.0
  S  S29  1  0.24478000  0.28844000  0.39403000  1.0
  N  N30  1  0.63276000  0.80653000  0.04565000  1.0
  N  N31  1  0.36724000  0.19347000  0.95435000  1.0
  N  N32  1  0.41066000  0.73026000  0.04431000  1.0
  N  N33  1  0.58933000  0.26974000  0.95569000  1.0
  N  N34  1  0.03480000  0.68307000  0.88057000  1.0
  N  N35  1  0.96519000  0.31692000  0.11943000  1.0
  N  N36  1  0.84198000  0.76189000  0.88573000  1.0
  N  N37  1  0.15801000  0.23811000  0.11427000  1.0
  O  O38  1  0.39360000  0.74663000  0.34623000  1.0
  O  O39  1  0.60640000  0.25337000  0.65377000  1.0
  O  O40  1  0.80696000  0.72247000  0.35691000  1.0
  O  O41  1  0.19304000  0.27753000  0.64309000  1.0
  O  O42  1  0.67446000  0.02778000  0.35193000  1.0
  O  O43  1  0.32555000  0.97222000  0.64807000  1.0
  O  O44  1  0.81185000  0.89599000  0.56940000  1.0
  O  O45  1  0.18816000  0.10401000  0.43059000  1.0
  O  O46  1  0.90000000  0.58144000  0.57291000  1.0
  O  O47  1  0.09999000  0.41856000  0.42709000  1.0
  O  O48  1  0.50785000  0.64318000  0.58409000  1.0
  O  O49  1  0.49215000  0.35683000  0.41590000  1.0
