# generated using pymatgen
data_CuH15C18(NO2)2
_symmetry_space_group_name_H-M   'P 1'
_cell_length_a   12.30220000
_cell_length_b   18.04250000
_cell_length_c   18.17410000
_cell_angle_alpha   80.57850000
_cell_angle_beta   89.99980000
_cell_angle_gamma   89.99970000
_symmetry_Int_Tables_number   1
_chemical_formula_structural   CuH15C18(NO2)2
_chemical_formula_sum   'Cu8 H120 C144 N16 O32'
_cell_volume   3979.55266724
_cell_formula_units_Z   8
loop_
 _symmetry_equiv_pos_site_id
 _symmetry_equiv_pos_as_xyz
  1  'x, y, z'
loop_
 _atom_site_type_symbol
 _atom_site_label
 _atom_site_symmetry_multiplicity
 _atom_site_fract_x
 _atom_site_fract_y
 _atom_site_fract_z
 _atom_site_occupancy
  Cu  Cu0  1  0.25737000  0.25277000  0.01113000  1.0
  Cu  Cu1  1  0.74718000  0.24684000  0.01765000  1.0
  Cu  Cu2  1  0.75738000  0.24723000  0.48888000  1.0
  Cu  Cu3  1  0.24719000  0.25316000  0.48235000  1.0
  Cu  Cu4  1  0.74262000  0.74724000  0.98887000  1.0
  Cu  Cu5  1  0.25282000  0.75317000  0.98235000  1.0
  Cu  Cu6  1  0.24264000  0.75276000  0.51112000  1.0
  Cu  Cu7  1  0.75283000  0.74683000  0.51764000  1.0
  H  H8  1  0.96193000  0.78021000  0.58717000  1.0
  H  H9  1  0.11518000  0.87197000  0.55535000  1.0
  H  H10  1  0.93249000  0.96664000  0.35888000  1.0
  H  H11  1  0.78508000  0.87548000  0.40226000  1.0
  H  H12  1  0.20629000  0.94615000  0.43489000  1.0
  H  H13  1  0.14032000  0.01427000  0.47626000  1.0
  H  H14  1  0.04868000  0.06363000  0.35277000  1.0
  H  H15  1  0.11817000  0.99457000  0.31238000  1.0
  H  H16  1  0.29775000  0.04849000  0.35501000  1.0
  H  H17  1  0.22191000  0.12138000  0.38255000  1.0
  H  H18  1  0.40072000  0.09964000  0.25080000  1.0
  H  H19  1  0.40728000  0.16649000  0.11915000  1.0
  H  H20  1  0.06417000  0.16692000  0.25681000  1.0
  H  H21  1  0.08643000  0.23581000  0.12826000  1.0
  H  H22  1  0.30572000  0.98186000  0.97309000  1.0
  H  H23  1  0.53444000  0.72840000  0.46077000  1.0
  H  H24  1  0.38438000  0.63318000  0.48177000  1.0
  H  H25  1  0.59036000  0.50213000  0.64698000  1.0
  H  H26  1  0.73205000  0.60030000  0.61611000  1.0
  H  H27  1  0.30626000  0.52964000  0.56134000  1.0
  H  H28  1  0.39852000  0.45963000  0.54629000  1.0
  H  H29  1  0.35047000  0.50621000  0.69733000  1.0
  H  H30  1  0.44904000  0.43890000  0.68324000  1.0
  H  H31  1  0.20466000  0.42562000  0.65155000  1.0
  H  H32  1  0.30431000  0.36035000  0.63553000  1.0
  H  H33  1  0.43913000  0.31785000  0.75776000  1.0
  H  H34  1  0.42349000  0.26232000  0.89136000  1.0
  H  H35  1  0.10937000  0.39798000  0.76787000  1.0
  H  H36  1  0.10788000  0.34006000  0.90281000  1.0
  H  H37  1  0.19105000  0.52671000  0.02847000  1.0
  H  H38  1  0.46191000  0.71979000  0.91283000  1.0
  H  H39  1  0.61517000  0.62802000  0.94465000  1.0
  H  H40  1  0.43248000  0.53337000  0.14113000  1.0
  H  H41  1  0.28506000  0.62453000  0.09774000  1.0
  H  H42  1  0.70627000  0.55385000  0.06511000  1.0
  H  H43  1  0.64031000  0.48573000  0.02375000  1.0
  H  H44  1  0.54866000  0.43638000  0.14723000  1.0
  H  H45  1  0.61815000  0.50544000  0.18762000  1.0
  H  H46  1  0.79774000  0.45153000  0.14499000  1.0
  H  H47  1  0.72190000  0.37863000  0.11746000  1.0
  H  H48  1  0.90072000  0.40037000  0.24920000  1.0
  H  H49  1  0.90728000  0.33351000  0.38085000  1.0
  H  H50  1  0.56416000  0.33308000  0.24320000  1.0
  H  H51  1  0.58644000  0.26419000  0.37174000  1.0
  H  H52  1  0.80573000  0.51815000  0.52690000  1.0
  H  H53  1  0.03443000  0.77160000  0.03923000  1.0
  H  H54  1  0.88437000  0.86682000  0.01824000  1.0
  H  H55  1  0.09034000  0.99787000  0.85302000  1.0
  H  H56  1  0.23204000  0.89969000  0.88388000  1.0
  H  H57  1  0.80625000  0.97035000  0.93865000  1.0
  H  H58  1  0.89850000  0.04037000  0.95372000  1.0
  H  H59  1  0.85047000  0.99380000  0.80267000  1.0
  H  H60  1  0.94904000  0.06110000  0.81676000  1.0
  H  H61  1  0.70466000  0.07438000  0.84845000  1.0
  H  H62  1  0.80430000  0.13966000  0.86448000  1.0
  H  H63  1  0.93913000  0.18216000  0.74225000  1.0
  H  H64  1  0.92350000  0.23769000  0.60865000  1.0
  H  H65  1  0.60936000  0.10204000  0.73214000  1.0
  H  H66  1  0.60789000  0.15995000  0.59719000  1.0
  H  H67  1  0.69108000  0.97329000  0.47151000  1.0
  H  H68  1  0.03809000  0.21979000  0.41283000  1.0
  H  H69  1  0.88483000  0.12803000  0.44465000  1.0
  H  H70  1  0.06750000  0.03337000  0.64113000  1.0
  H  H71  1  0.21493000  0.12452000  0.59774000  1.0
  H  H72  1  0.79372000  0.05385000  0.56511000  1.0
  H  H73  1  0.85968000  0.98573000  0.52375000  1.0
  H  H74  1  0.95132000  0.93638000  0.64723000  1.0
  H  H75  1  0.88183000  0.00544000  0.68762000  1.0
  H  H76  1  0.70224000  0.95153000  0.64499000  1.0
  H  H77  1  0.77809000  0.87863000  0.61746000  1.0
  H  H78  1  0.59927000  0.90037000  0.74920000  1.0
  H  H79  1  0.59272000  0.83351000  0.88085000  1.0
  H  H80  1  0.93582000  0.83309000  0.74318000  1.0
  H  H81  1  0.91356000  0.76419000  0.87173000  1.0
  H  H82  1  0.69428000  0.01815000  0.02692000  1.0
  H  H83  1  0.46559000  0.27160000  0.53921000  1.0
  H  H84  1  0.61564000  0.36682000  0.51822000  1.0
  H  H85  1  0.40964000  0.49786000  0.35301000  1.0
  H  H86  1  0.26796000  0.39968000  0.38389000  1.0
  H  H87  1  0.69374000  0.47036000  0.43865000  1.0
  H  H88  1  0.60148000  0.54037000  0.45371000  1.0
  H  H89  1  0.64954000  0.49379000  0.30266000  1.0
  H  H90  1  0.55097000  0.56110000  0.31675000  1.0
  H  H91  1  0.79534000  0.57438000  0.34844000  1.0
  H  H92  1  0.69569000  0.63965000  0.36447000  1.0
  H  H93  1  0.56087000  0.68216000  0.24224000  1.0
  H  H94  1  0.57650000  0.73769000  0.10864000  1.0
  H  H95  1  0.89064000  0.60204000  0.23212000  1.0
  H  H96  1  0.89211000  0.65995000  0.09718000  1.0
  H  H97  1  0.80892000  0.47330000  0.97151000  1.0
  H  H98  1  0.53807000  0.28021000  0.08717000  1.0
  H  H99  1  0.38482000  0.37198000  0.05535000  1.0
  H  H100  1  0.56750000  0.46664000  0.85888000  1.0
  H  H101  1  0.71492000  0.37547000  0.90226000  1.0
  H  H102  1  0.29372000  0.44615000  0.93489000  1.0
  H  H103  1  0.35967000  0.51427000  0.97625000  1.0
  H  H104  1  0.45132000  0.56362000  0.85277000  1.0
  H  H105  1  0.38183000  0.49457000  0.81238000  1.0
  H  H106  1  0.20225000  0.54848000  0.85502000  1.0
  H  H107  1  0.27810000  0.62138000  0.88254000  1.0
  H  H108  1  0.09928000  0.59964000  0.75080000  1.0
  H  H109  1  0.09272000  0.66649000  0.61915000  1.0
  H  H110  1  0.43583000  0.66692000  0.75681000  1.0
  H  H111  1  0.41357000  0.73581000  0.62826000  1.0
  H  H112  1  0.19430000  0.48184000  0.47310000  1.0
  H  H113  1  0.96557000  0.22840000  0.96078000  1.0
  H  H114  1  0.11563000  0.13318000  0.98177000  1.0
  H  H115  1  0.90965000  0.00214000  0.14699000  1.0
  H  H116  1  0.76796000  0.10032000  0.11612000  1.0
  H  H117  1  0.19374000  0.02965000  0.06135000  1.0
  H  H118  1  0.10149000  0.95963000  0.04629000  1.0
  H  H119  1  0.14954000  0.00622000  0.19733000  1.0
  H  H120  1  0.05096000  0.93891000  0.18325000  1.0
  H  H121  1  0.29534000  0.92563000  0.15156000  1.0
  H  H122  1  0.19569000  0.86035000  0.13553000  1.0
  H  H123  1  0.06087000  0.81785000  0.25776000  1.0
  H  H124  1  0.07650000  0.76232000  0.39136000  1.0
  H  H125  1  0.39063000  0.89797000  0.26788000  1.0
  H  H126  1  0.39211000  0.84005000  0.40282000  1.0
  H  H127  1  0.30895000  0.02669000  0.52849000  1.0
  C  C128  1  0.95871000  0.82374000  0.53798000  1.0
  C  C129  1  0.04360000  0.87383000  0.51921000  1.0
  C  C130  1  0.03782000  0.92657000  0.45323000  1.0
  C  C131  1  0.94348000  0.92676000  0.41016000  1.0
  C  C132  1  0.86061000  0.87594000  0.43339000  1.0
  C  C133  1  0.13102000  0.97959000  0.43209000  1.0
  C  C134  1  0.12356000  0.02980000  0.35626000  1.0
  C  C135  1  0.22287000  0.08149000  0.34269000  1.0
  C  C136  1  0.23073000  0.12536000  0.26521000  1.0
  C  C137  1  0.32836000  0.12778000  0.22525000  1.0
  C  C138  1  0.33366000  0.16607000  0.15258000  1.0
  C  C139  1  0.14265000  0.16531000  0.22927000  1.0
  C  C140  1  0.15359000  0.20370000  0.15685000  1.0
  C  C141  1  0.34965000  0.12527000  0.96853000  1.0
  C  C142  1  0.43077000  0.06231000  0.98161000  1.0
  C  C143  1  0.39163000  0.98909000  0.98472000  1.0
  C  C144  1  0.54111000  0.07352000  0.99650000  1.0
  C  C145  1  0.59503000  0.14948000  0.98601000  1.0
  C  C146  1  0.54301000  0.67671000  0.50071000  1.0
  C  C147  1  0.45979000  0.62439000  0.51389000  1.0
  C  C148  1  0.47271000  0.55999000  0.56797000  1.0
  C  C149  1  0.57253000  0.55140000  0.60555000  1.0
  C  C150  1  0.65287000  0.60577000  0.58895000  1.0
  C  C151  1  0.38305000  0.50267000  0.58161000  1.0
  C  C152  1  0.37114000  0.46397000  0.66230000  1.0
  C  C153  1  0.28398000  0.40227000  0.67117000  1.0
  C  C154  1  0.27538000  0.36412000  0.75077000  1.0
  C  C155  1  0.36338000  0.32446000  0.78720000  1.0
  C  C156  1  0.35589000  0.29315000  0.86202000  1.0
  C  C157  1  0.18121000  0.36871000  0.79302000  1.0
  C  C158  1  0.17884000  0.33608000  0.86778000  1.0
  C  C159  1  0.15328000  0.38063000  0.05394000  1.0
  C  C160  1  0.07001000  0.44110000  0.03051000  1.0
  C  C161  1  0.10660000  0.51542000  0.01614000  1.0
  C  C162  1  0.96123000  0.42548000  0.01490000  1.0
  C  C163  1  0.91088000  0.34895000  0.03726000  1.0
  C  C164  1  0.45869000  0.67626000  0.96202000  1.0
  C  C165  1  0.54358000  0.62616000  0.98079000  1.0
  C  C166  1  0.53781000  0.57343000  0.04677000  1.0
  C  C167  1  0.44347000  0.57324000  0.08984000  1.0
  C  C168  1  0.36060000  0.62406000  0.06661000  1.0
  C  C169  1  0.63101000  0.52041000  0.06792000  1.0
  C  C170  1  0.62354000  0.47021000  0.14375000  1.0
  C  C171  1  0.72286000  0.41852000  0.15732000  1.0
  C  C172  1  0.73072000  0.37465000  0.23480000  1.0
  C  C173  1  0.82835000  0.37223000  0.27476000  1.0
  C  C174  1  0.83366000  0.33393000  0.34743000  1.0
  C  C175  1  0.64265000  0.33469000  0.27074000  1.0
  C  C176  1  0.65359000  0.29630000  0.34316000  1.0
  C  C177  1  0.84965000  0.37473000  0.53147000  1.0
  C  C178  1  0.93078000  0.43769000  0.51840000  1.0
  C  C179  1  0.89164000  0.51090000  0.51528000  1.0
  C  C180  1  0.04112000  0.42647000  0.50351000  1.0
  C  C181  1  0.09504000  0.35050000  0.51401000  1.0
  C  C182  1  0.04300000  0.82330000  0.99929000  1.0
  C  C183  1  0.95979000  0.87561000  0.98611000  1.0
  C  C184  1  0.97270000  0.94001000  0.93203000  1.0
  C  C185  1  0.07252000  0.94860000  0.89445000  1.0
  C  C186  1  0.15285000  0.89423000  0.91105000  1.0
  C  C187  1  0.88304000  0.99733000  0.91839000  1.0
  C  C188  1  0.87113000  0.03604000  0.83770000  1.0
  C  C189  1  0.78397000  0.09774000  0.82884000  1.0
  C  C190  1  0.77538000  0.13589000  0.74924000  1.0
  C  C191  1  0.86338000  0.17554000  0.71280000  1.0
  C  C192  1  0.85590000  0.20686000  0.63799000  1.0
  C  C193  1  0.68121000  0.13130000  0.70699000  1.0
  C  C194  1  0.67885000  0.16393000  0.63222000  1.0
  C  C195  1  0.65331000  0.11937000  0.44604000  1.0
  C  C196  1  0.57003000  0.05889000  0.46948000  1.0
  C  C197  1  0.60663000  0.98457000  0.48384000  1.0
  C  C198  1  0.46125000  0.07451000  0.48509000  1.0
  C  C199  1  0.41091000  0.15105000  0.46273000  1.0
  C  C200  1  0.04130000  0.17626000  0.46202000  1.0
  C  C201  1  0.95641000  0.12617000  0.48079000  1.0
  C  C202  1  0.96218000  0.07343000  0.54677000  1.0
  C  C203  1  0.05652000  0.07324000  0.58984000  1.0
  C  C204  1  0.13940000  0.12406000  0.56661000  1.0
  C  C205  1  0.86898000  0.02042000  0.56791000  1.0
  C  C206  1  0.87644000  0.97022000  0.64374000  1.0
  C  C207  1  0.77713000  0.91853000  0.65731000  1.0
  C  C208  1  0.76926000  0.87466000  0.73479000  1.0
  C  C209  1  0.67163000  0.87223000  0.77476000  1.0
  C  C210  1  0.66633000  0.83394000  0.84742000  1.0
  C  C211  1  0.85734000  0.83469000  0.77073000  1.0
  C  C212  1  0.84640000  0.79631000  0.84315000  1.0
  C  C213  1  0.65036000  0.87473000  0.03148000  1.0
  C  C214  1  0.56923000  0.93770000  0.01841000  1.0
  C  C215  1  0.60838000  0.01091000  0.01530000  1.0
  C  C216  1  0.45889000  0.92649000  0.00352000  1.0
  C  C217  1  0.40498000  0.85052000  0.01401000  1.0
  C  C218  1  0.45701000  0.32329000  0.49928000  1.0
  C  C219  1  0.54022000  0.37561000  0.48610000  1.0
  C  C220  1  0.52730000  0.44000000  0.43202000  1.0
  C  C221  1  0.42748000  0.44859000  0.39444000  1.0
  C  C222  1  0.34715000  0.39421000  0.41104000  1.0
  C  C223  1  0.61695000  0.49733000  0.41838000  1.0
  C  C224  1  0.62887000  0.53603000  0.33769000  1.0
  C  C225  1  0.71603000  0.59773000  0.32883000  1.0
  C  C226  1  0.72464000  0.63589000  0.24923000  1.0
  C  C227  1  0.63662000  0.67554000  0.21280000  1.0
  C  C228  1  0.64410000  0.70685000  0.13798000  1.0
  C  C229  1  0.81880000  0.63129000  0.20697000  1.0
  C  C230  1  0.82115000  0.66392000  0.13221000  1.0
  C  C231  1  0.84668000  0.61938000  0.94603000  1.0
  C  C232  1  0.92997000  0.55890000  0.96946000  1.0
  C  C233  1  0.89338000  0.48458000  0.98383000  1.0
  C  C234  1  0.03875000  0.57453000  0.98507000  1.0
  C  C235  1  0.08909000  0.65106000  0.96271000  1.0
  C  C236  1  0.54129000  0.32374000  0.03798000  1.0
  C  C237  1  0.45641000  0.37384000  0.01921000  1.0
  C  C238  1  0.46218000  0.42657000  0.95323000  1.0
  C  C239  1  0.55652000  0.42676000  0.91016000  1.0
  C  C240  1  0.63939000  0.37594000  0.93339000  1.0
  C  C241  1  0.36898000  0.47959000  0.93209000  1.0
  C  C242  1  0.37644000  0.52979000  0.85626000  1.0
  C  C243  1  0.27713000  0.58148000  0.84269000  1.0
  C  C244  1  0.26927000  0.62535000  0.76521000  1.0
  C  C245  1  0.17164000  0.62778000  0.72525000  1.0
  C  C246  1  0.16634000  0.66607000  0.65258000  1.0
  C  C247  1  0.35735000  0.66531000  0.72927000  1.0
  C  C248  1  0.34641000  0.70369000  0.65685000  1.0
  C  C249  1  0.15037000  0.62526000  0.46852000  1.0
  C  C250  1  0.06925000  0.56230000  0.48160000  1.0
  C  C251  1  0.10839000  0.48908000  0.48472000  1.0
  C  C252  1  0.95891000  0.57351000  0.49649000  1.0
  C  C253  1  0.90499000  0.64947000  0.48600000  1.0
  C  C254  1  0.95699000  0.17671000  0.00071000  1.0
  C  C255  1  0.04021000  0.12439000  0.01389000  1.0
  C  C256  1  0.02729000  0.05999000  0.06798000  1.0
  C  C257  1  0.92747000  0.05141000  0.10555000  1.0
  C  C258  1  0.84714000  0.10578000  0.08896000  1.0
  C  C259  1  0.11695000  0.00267000  0.08162000  1.0
  C  C260  1  0.12887000  0.96397000  0.16231000  1.0
  C  C261  1  0.21603000  0.90227000  0.17117000  1.0
  C  C262  1  0.22462000  0.86412000  0.25078000  1.0
  C  C263  1  0.13661000  0.82446000  0.28721000  1.0
  C  C264  1  0.14410000  0.79314000  0.36202000  1.0
  C  C265  1  0.31879000  0.86871000  0.29303000  1.0
  C  C266  1  0.32115000  0.83607000  0.36779000  1.0
  C  C267  1  0.34673000  0.88061000  0.55395000  1.0
  C  C268  1  0.43000000  0.94109000  0.53052000  1.0
  C  C269  1  0.39341000  0.01541000  0.51616000  1.0
  C  C270  1  0.53878000  0.92547000  0.51490000  1.0
  C  C271  1  0.58913000  0.84893000  0.53726000  1.0
  N  N272  1  0.86817000  0.82497000  0.49609000  1.0
  N  N273  1  0.24733000  0.20301000  0.11840000  1.0
  N  N274  1  0.26507000  0.29941000  0.90218000  1.0
  N  N275  1  0.63849000  0.66778000  0.53747000  1.0
  N  N276  1  0.36815000  0.67504000  0.00391000  1.0
  N  N277  1  0.74734000  0.29700000  0.38161000  1.0
  N  N278  1  0.76508000  0.20060000  0.59782000  1.0
  N  N279  1  0.13848000  0.83222000  0.96252000  1.0
  N  N280  1  0.13185000  0.17503000  0.50391000  1.0
  N  N281  1  0.75266000  0.79700000  0.88160000  1.0
  N  N282  1  0.73492000  0.70060000  0.09781000  1.0
  N  N283  1  0.36153000  0.33221000  0.46252000  1.0
  N  N284  1  0.63184000  0.32497000  0.99609000  1.0
  N  N285  1  0.25266000  0.70300000  0.61840000  1.0
  N  N286  1  0.23492000  0.79940000  0.40219000  1.0
  N  N287  1  0.86151000  0.16778000  0.03748000  1.0
  O  O288  1  0.37663000  0.18394000  0.99794000  1.0
  O  O289  1  0.26221000  0.11765000  0.93576000  1.0
  O  O290  1  0.60650000  0.18571000  0.92191000  1.0
  O  O291  1  0.63566000  0.16805000  0.04663000  1.0
  O  O292  1  0.13806000  0.32117000  0.02264000  1.0
  O  O293  1  0.23154000  0.39159000  0.09417000  1.0
  O  O294  1  0.85446000  0.32661000  0.98414000  1.0
  O  O295  1  0.91865000  0.31543000  0.10259000  1.0
  O  O296  1  0.87663000  0.31607000  0.50206000  1.0
  O  O297  1  0.76221000  0.38235000  0.56424000  1.0
  O  O298  1  0.10647000  0.31427000  0.57811000  1.0
  O  O299  1  0.13567000  0.33194000  0.45339000  1.0
  O  O300  1  0.63809000  0.17881000  0.47736000  1.0
  O  O301  1  0.73157000  0.10841000  0.40580000  1.0
  O  O302  1  0.35448000  0.17337000  0.51585000  1.0
  O  O303  1  0.41869000  0.18457000  0.39740000  1.0
  O  O304  1  0.62337000  0.81607000  0.00206000  1.0
  O  O305  1  0.73779000  0.88235000  0.06425000  1.0
  O  O306  1  0.39353000  0.81428000  0.07811000  1.0
  O  O307  1  0.36433000  0.83195000  0.95339000  1.0
  O  O308  1  0.86191000  0.67882000  0.97735000  1.0
  O  O309  1  0.76842000  0.60842000  0.90580000  1.0
  O  O310  1  0.14552000  0.67338000  0.01584000  1.0
  O  O311  1  0.08130000  0.68459000  0.89739000  1.0
  O  O312  1  0.12339000  0.68392000  0.49794000  1.0
  O  O313  1  0.23781000  0.61764000  0.43575000  1.0
  O  O314  1  0.89353000  0.68571000  0.42190000  1.0
  O  O315  1  0.86435000  0.66805000  0.54662000  1.0
  O  O316  1  0.36195000  0.82116000  0.52264000  1.0
  O  O317  1  0.26846000  0.89157000  0.59418000  1.0
  O  O318  1  0.64554000  0.82660000  0.48412000  1.0
  O  O319  1  0.58137000  0.81541000  0.60259000  1.0
