# generated using pymatgen
data_ZnH22C26NO6
_symmetry_space_group_name_H-M   'P 1'
_cell_length_a   13.94440000
_cell_length_b   15.33680000
_cell_length_c   19.63390000
_cell_angle_alpha   89.49890000
_cell_angle_beta   89.98990000
_cell_angle_gamma   89.84300000
_symmetry_Int_Tables_number   1
_chemical_formula_structural   ZnH22C26NO6
_chemical_formula_sum   'Zn2 H44 C52 N2 O12'
_cell_volume   4198.77802707
_cell_formula_units_Z   2
loop_
 _symmetry_equiv_pos_site_id
 _symmetry_equiv_pos_as_xyz
  1  'x, y, z'
loop_
 _atom_site_type_symbol
 _atom_site_label
 _atom_site_symmetry_multiplicity
 _atom_site_fract_x
 _atom_site_fract_y
 _atom_site_fract_z
 _atom_site_occupancy
  Zn  Zn0  1  0.59989000  0.50007000  0.49987000  1.0
  Zn  Zn1  1  0.40150000  0.50014000  0.50000000  1.0
  H  H2  1  0.34423000  0.48317000  0.71621000  1.0
  H  H3  1  0.35797000  0.06193000  0.46496000  1.0
  H  H4  1  0.64918000  0.05766000  0.53811000  1.0
  H  H5  1  0.35812000  0.93901000  0.53652000  1.0
  H  H6  1  0.65004000  0.77911000  0.46317000  1.0
  H  H7  1  0.35969000  0.22460000  0.46718000  1.0
  H  H8  1  0.65066000  0.22021000  0.53706000  1.0
  H  H9  1  0.35933000  0.77633000  0.53363000  1.0
  H  H10  1  0.06852000  0.55416000  0.39789000  1.0
  H  H11  1  0.93321000  0.37685000  0.55441000  1.0
  H  H12  1  0.06878000  0.44571000  0.60201000  1.0
  H  H13  1  0.64881000  0.51080000  0.28587000  1.0
  H  H14  1  0.93259000  0.62339000  0.44566000  1.0
  H  H15  1  0.24887000  0.55189000  0.40261000  1.0
  H  H16  1  0.75303000  0.38221000  0.55153000  1.0
  H  H17  1  0.24911000  0.44833000  0.59739000  1.0
  H  H18  1  0.75240000  0.61812000  0.44857000  1.0
  H  H19  1  0.23737000  0.41511000  0.79302000  1.0
  H  H20  1  0.22873000  0.53126000  0.78711000  1.0
  H  H21  1  0.16566000  0.53709000  0.90675000  1.0
  H  H22  1  0.09223000  0.46826000  0.85594000  1.0
  H  H23  1  0.17618000  0.42180000  0.91445000  1.0
  H  H24  1  0.34310000  0.49145000  0.28386000  1.0
  H  H25  1  0.76686000  0.46679000  0.21612000  1.0
  H  H26  1  0.75486000  0.58270000  0.21109000  1.0
  H  H27  1  0.82039000  0.57979000  0.09088000  1.0
  H  H28  1  0.90350000  0.53387000  0.15024000  1.0
  H  H29  1  0.83379000  0.46460000  0.09722000  1.0
  H  H30  1  0.22653000  0.53693000  0.21153000  1.0
  H  H31  1  0.23853000  0.42094000  0.20884000  1.0
  H  H32  1  0.17718000  0.42297000  0.08752000  1.0
  H  H33  1  0.09203000  0.46936000  0.14452000  1.0
  H  H34  1  0.16373000  0.53818000  0.09149000  1.0
  H  H35  1  0.64836000  0.51663000  0.71391000  1.0
  H  H36  1  0.75587000  0.58544000  0.78880000  1.0
  H  H37  1  0.76570000  0.46952000  0.78350000  1.0
  H  H38  1  0.83292000  0.46284000  0.90204000  1.0
  H  H39  1  0.90356000  0.53320000  0.84950000  1.0
  H  H40  1  0.82114000  0.57792000  0.90928000  1.0
  H  H41  1  0.55737000  0.62951000  0.93552000  1.0
  H  H42  1  0.44034000  0.37096000  0.06451000  1.0
  H  H43  1  0.55715000  0.63025000  0.06186000  1.0
  H  H44  1  0.44033000  0.37025000  0.93819000  1.0
  H  H45  1  0.64904000  0.94166000  0.46269000  1.0
  C  C46  1  0.50591000  0.67048000  0.49828000  1.0
  C  C47  1  0.50361000  0.04814000  0.50122000  1.0
  C  C48  1  0.10542000  0.53094000  0.44351000  1.0
  C  C49  1  0.89622000  0.43204000  0.53082000  1.0
  C  C50  1  0.10557000  0.46906000  0.55642000  1.0
  C  C51  1  0.89588000  0.56817000  0.46919000  1.0
  C  C52  1  0.20499000  0.52972000  0.44538000  1.0
  C  C53  1  0.79663000  0.43418000  0.52945000  1.0
  C  C54  1  0.20512000  0.47044000  0.55462000  1.0
  C  C55  1  0.79630000  0.56608000  0.47056000  1.0
  C  C56  1  0.05364000  0.50001000  0.49996000  1.0
  C  C57  1  0.50634000  0.32970000  0.50166000  1.0
  C  C58  1  0.94793000  0.50006000  0.49999000  1.0
  C  C59  1  0.49508000  0.50091000  0.36678000  1.0
  C  C60  1  0.49542000  0.49978000  0.63307000  1.0
  C  C61  1  0.41021000  0.48997000  0.74507000  1.0
  C  C62  1  0.58334000  0.50746000  0.25602000  1.0
  C  C63  1  0.40939000  0.49567000  0.25495000  1.0
  C  C64  1  0.58329000  0.50923000  0.74383000  1.0
  C  C65  1  0.41140000  0.49031000  0.81625000  1.0
  C  C66  1  0.58377000  0.50805000  0.18479000  1.0
  C  C67  1  0.41080000  0.49503000  0.18376000  1.0
  C  C68  1  0.58647000  0.81508000  0.47900000  1.0
  C  C69  1  0.58374000  0.50873000  0.81505000  1.0
  C  C70  1  0.49804000  0.49953000  0.85260000  1.0
  C  C71  1  0.49780000  0.50136000  0.14738000  1.0
  C  C72  1  0.49633000  0.49966000  0.70933000  1.0
  C  C73  1  0.49594000  0.50144000  0.29056000  1.0
  C  C74  1  0.53185000  0.57261000  0.96379000  1.0
  C  C75  1  0.46592000  0.42783000  0.03620000  1.0
  C  C76  1  0.53176000  0.57304000  0.03470000  1.0
  C  C77  1  0.46595000  0.42741000  0.96531000  1.0
  C  C78  1  0.49864000  0.50073000  0.07193000  1.0
  C  C79  1  0.42254000  0.18700000  0.48265000  1.0
  C  C80  1  0.49877000  0.49983000  0.92804000  1.0
  C  C81  1  0.58580000  0.90571000  0.47950000  1.0
  C  C82  1  0.42183000  0.09633000  0.48207000  1.0
  C  C83  1  0.58599000  0.09399000  0.52133000  1.0
  C  C84  1  0.42179000  0.90424000  0.51913000  1.0
  C  C85  1  0.23949000  0.47594000  0.82278000  1.0
  C  C86  1  0.16391000  0.47577000  0.87833000  1.0
  C  C87  1  0.75558000  0.52232000  0.18076000  1.0
  C  C88  1  0.83286000  0.52529000  0.12646000  1.0
  C  C89  1  0.23897000  0.48105000  0.17740000  1.0
  C  C90  1  0.58692000  0.18464000  0.52148000  1.0
  C  C91  1  0.16349000  0.47774000  0.12187000  1.0
  C  C92  1  0.75546000  0.52430000  0.81899000  1.0
  C  C93  1  0.83284000  0.52455000  0.87326000  1.0
  C  C94  1  0.42223000  0.81356000  0.51819000  1.0
  C  C95  1  0.50476000  0.76806000  0.49835000  1.0
  C  C96  1  0.50527000  0.23211000  0.50207000  1.0
  C  C97  1  0.50357000  0.95200000  0.49993000  1.0
  N  N98  1  0.25372000  0.50016000  0.50003000  1.0
  N  N99  1  0.74778000  0.50012000  0.49997000  1.0
  O  O100  1  0.58618000  0.63324000  0.48670000  1.0
  O  O101  1  0.66566000  0.51310000  0.14637000  1.0
  O  O102  1  0.32992000  0.49004000  0.14431000  1.0
  O  O103  1  0.66545000  0.51535000  0.85341000  1.0
  O  O104  1  0.42707000  0.36837000  0.48987000  1.0
  O  O105  1  0.58650000  0.36693000  0.51296000  1.0
  O  O106  1  0.42679000  0.63185000  0.50996000  1.0
  O  O107  1  0.57468000  0.48763000  0.39705000  1.0
  O  O108  1  0.41529000  0.48538000  0.60381000  1.0
  O  O109  1  0.57458000  0.51421000  0.60261000  1.0
  O  O110  1  0.41454000  0.51369000  0.39606000  1.0
  O  O111  1  0.33059000  0.48360000  0.85572000  1.0
