# generated using pymatgen
data_AgH10C6N2O2F3
_symmetry_space_group_name_H-M   'P 1'
_cell_length_a   7.73446000
_cell_length_b   8.55748000
_cell_length_c   8.70943000
_cell_angle_alpha   106.37300000
_cell_angle_beta   113.24700000
_cell_angle_gamma   104.52600000
_symmetry_Int_Tables_number   1
_chemical_formula_structural   AgH10C6N2O2F3
_chemical_formula_sum   'Ag2 H20 C12 N4 O4 F6'
_cell_volume   463.33191769
_cell_formula_units_Z   2
loop_
 _symmetry_equiv_pos_site_id
 _symmetry_equiv_pos_as_xyz
  1  'x, y, z'
loop_
 _atom_site_type_symbol
 _atom_site_label
 _atom_site_symmetry_multiplicity
 _atom_site_fract_x
 _atom_site_fract_y
 _atom_site_fract_z
 _atom_site_occupancy
  Ag  Ag0  1  0.47503000  0.84715000  0.14890000  1.0
  Ag  Ag1  1  0.52498000  0.15285000  0.85110000  1.0
  H  H2  1  0.72047000  0.77618000  0.03623000  1.0
  H  H3  1  0.27954000  0.22382000  0.96378000  1.0
  H  H4  1  0.24137000  0.00651000  0.24235000  1.0
  H  H5  1  0.75864000  0.99350000  0.75765000  1.0
  H  H6  1  0.52965000  0.47614000  0.78020000  1.0
  H  H7  1  0.47035000  0.52386000  0.21980000  1.0
  H  H8  1  0.37835000  0.60538000  0.76100000  1.0
  H  H9  1  0.62166000  0.39462000  0.23900000  1.0
  H  H10  1  0.81945000  0.70364000  0.29048000  1.0
  H  H11  1  0.18055000  0.29637000  0.70952000  1.0
  H  H12  1  0.79021000  0.53409000  0.09512000  1.0
  H  H13  1  0.20980000  0.46592000  0.90488000  1.0
  H  H14  1  0.48120000  0.23313000  0.54574000  1.0
  H  H15  1  0.51881000  0.76688000  0.45426000  1.0
  H  H16  1  0.59142000  0.23139000  0.39948000  1.0
  H  H17  1  0.40858000  0.76862000  0.60053000  1.0
  H  H18  1  0.16579000  0.74527000  0.29439000  1.0
  H  H19  1  0.83422000  0.25474000  0.70561000  1.0
  H  H20  1  0.22531000  0.94236000  0.48163000  1.0
  H  H21  1  0.77470000  0.05764000  0.51837000  1.0
  C  C22  1  0.45308000  0.54157000  0.84355000  1.0
  C  C23  1  0.54692000  0.45843000  0.15645000  1.0
  C  C24  1  0.70695000  0.59797000  0.15076000  1.0
  C  C25  1  0.29305000  0.40203000  0.84924000  1.0
  C  C26  1  0.53586000  0.15561000  0.46534000  1.0
  C  C27  1  0.46415000  0.84439000  0.53465000  1.0
  C  C28  1  0.28953000  0.87398000  0.40474000  1.0
  C  C29  1  0.71048000  0.12603000  0.59527000  1.0
  C  C30  1  0.90822000  0.13420000  0.19236000  1.0
  C  C31  1  0.09176000  0.86580000  0.80764000  1.0
  C  C32  1  0.07350000  0.32032000  0.24902000  1.0
  C  C33  1  0.92649000  0.67967000  0.75098000  1.0
  N  N34  1  0.60641000  0.67964000  0.03316000  1.0
  N  N35  1  0.39359000  0.32036000  0.96684000  1.0
  N  N36  1  0.36384000  0.98251000  0.31971000  1.0
  N  N37  1  0.63617000  0.01750000  0.68029000  1.0
  O  O38  1  0.73840000  0.13701000  0.17125000  1.0
  O  O39  1  0.26158000  0.86298000  0.82873000  1.0
  O  O40  1  0.96242000  0.00653000  0.17173000  1.0
  O  O41  1  0.03756000  0.99346000  0.82828000  1.0
  F  F42  1  0.03134000  0.36151000  0.10005000  1.0
  F  F43  1  0.96866000  0.63847000  0.89995000  1.0
  F  F44  1  0.26922000  0.32888000  0.31549000  1.0
  F  F45  1  0.73076000  0.67110000  0.68450000  1.0
  F  F46  1  0.07950000  0.45566000  0.38218000  1.0
  F  F47  1  0.92050000  0.54433000  0.61781000  1.0
