# generated using pymatgen
data_CuH28C22(NO2)2
_symmetry_space_group_name_H-M   'P 1'
_cell_length_a   7.09164000
_cell_length_b   8.65431000
_cell_length_c   9.43524000
_cell_angle_alpha   94.71300000
_cell_angle_beta   96.71810000
_cell_angle_gamma   95.21720000
_symmetry_Int_Tables_number   1
_chemical_formula_structural   CuH28C22(NO2)2
_chemical_formula_sum   'Cu1 H28 C22 N2 O4'
_cell_volume   570.18595108
_cell_formula_units_Z   1
loop_
 _symmetry_equiv_pos_site_id
 _symmetry_equiv_pos_as_xyz
  1  'x, y, z'
loop_
 _atom_site_type_symbol
 _atom_site_label
 _atom_site_symmetry_multiplicity
 _atom_site_fract_x
 _atom_site_fract_y
 _atom_site_fract_z
 _atom_site_occupancy
  Cu  Cu0  1  0.00000000  0.00000000  0.00000000  1.0
  H  H1  1  0.62414000  0.48015000  0.33613000  1.0
  H  H2  1  0.37586000  0.51984000  0.66385000  1.0
  H  H3  1  0.38157000  0.45152000  0.36720000  1.0
  H  H4  1  0.61844000  0.54848000  0.63280000  1.0
  H  H5  1  0.43914000  0.50225000  0.19731000  1.0
  H  H6  1  0.56084000  0.49774000  0.80268000  1.0
  H  H7  1  0.76643000  0.28378000  0.17722000  1.0
  H  H8  1  0.23357000  0.71622000  0.82276000  1.0
  H  H9  1  0.58691000  0.30989000  0.03499000  1.0
  H  H10  1  0.41307000  0.69011000  0.96501000  1.0
  H  H11  1  0.61912000  0.12009000  0.08366000  1.0
  H  H12  1  0.38088000  0.87991000  0.91632000  1.0
  H  H13  1  0.67633000  0.20964000  0.41617000  1.0
  H  H14  1  0.32370000  0.79036000  0.58383000  1.0
  H  H15  1  0.52811000  0.04281000  0.32916000  1.0
  H  H16  1  0.47191000  0.95719000  0.67084000  1.0
  H  H17  1  0.43343000  0.18136000  0.44508000  1.0
  H  H18  1  0.56660000  0.81864000  0.55492000  1.0
  H  H19  1  0.89891000  0.03263000  0.28869000  1.0
  H  H20  1  0.10109000  0.96737000  0.71130000  1.0
  H  H21  1  0.88629000  0.86707000  0.49482000  1.0
  H  H22  1  0.11371000  0.13296000  0.50519000  1.0
  H  H23  1  0.06585000  0.49331000  0.22396000  1.0
  H  H24  1  0.93413000  0.50670000  0.77606000  1.0
  H  H25  1  0.06325000  0.67297000  0.03001000  1.0
  H  H26  1  0.93673000  0.32701000  0.97000000  1.0
  H  H27  1  0.93653000  0.63343000  0.59787000  1.0
  H  H28  1  0.06346000  0.36658000  0.40215000  1.0
  C  C29  1  0.27614000  0.19283000  0.16806000  1.0
  C  C30  1  0.72385000  0.80715000  0.83194000  1.0
  C  C31  1  0.47840000  0.26116000  0.23543000  1.0
  C  C32  1  0.52161000  0.73885000  0.76457000  1.0
  C  C33  1  0.47985000  0.43379000  0.28717000  1.0
  C  C34  1  0.52015000  0.56620000  0.71283000  1.0
  C  C35  1  0.62117000  0.24193000  0.12653000  1.0
  C  C36  1  0.37882000  0.75807000  0.87346000  1.0
  C  C37  1  0.53170000  0.16751000  0.36401000  1.0
  C  C38  1  0.46832000  0.83249000  0.63598000  1.0
  C  C39  1  0.93286000  0.91221000  0.28030000  1.0
  C  C40  1  0.06712000  0.08780000  0.71969000  1.0
  C  C41  1  0.92783000  0.82011000  0.39363000  1.0
  C  C42  1  0.07217000  0.17990000  0.60638000  1.0
  C  C43  1  0.97768000  0.66643000  0.37839000  1.0
  C  C44  1  0.02232000  0.33359000  0.62162000  1.0
  C  C45  1  0.02664000  0.61158000  0.24397000  1.0
  C  C46  1  0.97336000  0.38843000  0.75604000  1.0
  C  C47  1  0.02709000  0.71040000  0.13569000  1.0
  C  C48  1  0.97289000  0.28960000  0.86432000  1.0
  C  C49  1  0.97717000  0.57429000  0.50049000  1.0
  C  C50  1  0.02285000  0.42573000  0.49953000  1.0
  N  N51  1  0.98301000  0.85860000  0.15365000  1.0
  N  N52  1  0.01698000  0.14140000  0.84635000  1.0
  O  O53  1  0.26875000  0.07122000  0.07808000  1.0
  O  O54  1  0.73125000  0.92878000  0.92193000  1.0
  O  O55  1  0.12958000  0.25082000  0.20325000  1.0
  O  O56  1  0.87043000  0.74917000  0.79675000  1.0
