# generated using pymatgen
data_CuH18C28(N2O)4
_symmetry_space_group_name_H-M   'P 1'
_cell_length_a   7.09629000
_cell_length_b   8.03294000
_cell_length_c   10.86430000
_cell_angle_alpha   97.50030000
_cell_angle_beta   96.03380000
_cell_angle_gamma   97.83280000
_symmetry_Int_Tables_number   1
_chemical_formula_structural   CuH18C28(N2O)4
_chemical_formula_sum   'Cu1 H18 C28 N8 O4'
_cell_volume   603.50084293
_cell_formula_units_Z   1
loop_
 _symmetry_equiv_pos_site_id
 _symmetry_equiv_pos_as_xyz
  1  'x, y, z'
loop_
 _atom_site_type_symbol
 _atom_site_label
 _atom_site_symmetry_multiplicity
 _atom_site_fract_x
 _atom_site_fract_y
 _atom_site_fract_z
 _atom_site_occupancy
  Cu  Cu0  1  0.50001000  0.00000000  0.00000000  1.0
  H  H1  1  0.64130000  0.42250000  0.76526000  1.0
  H  H2  1  0.35868000  0.57750000  0.23475000  1.0
  H  H3  1  0.44447000  0.13612000  0.25850000  1.0
  H  H4  1  0.55554000  0.86388000  0.74150000  1.0
  H  H5  1  0.99897000  0.37348000  0.45030000  1.0
  H  H6  1  0.00103000  0.62653000  0.54970000  1.0
  H  H7  1  0.13830000  0.28226000  0.25630000  1.0
  H  H8  1  0.86170000  0.71776000  0.74370000  1.0
  H  H9  1  0.92458000  0.11118000  0.07347000  1.0
  H  H10  1  0.07543000  0.88881000  0.92654000  1.0
  H  H11  1  0.11963000  0.06547000  0.55032000  1.0
  H  H12  1  0.88038000  0.93454000  0.44968000  1.0
  H  H13  1  0.82981000  0.01426000  0.66032000  1.0
  H  H14  1  0.17018000  0.98574000  0.33966000  1.0
  H  H15  1  0.07793000  0.43468000  0.94661000  1.0
  H  H16  1  0.92206000  0.56529000  0.05339000  1.0
  H  H17  1  0.36088000  0.48231000  0.83934000  1.0
  H  H18  1  0.63912000  0.51769000  0.16066000  1.0
  C  C19  1  0.59874000  0.17045000  0.26180000  1.0
  C  C20  1  0.40127000  0.82955000  0.73821000  1.0
  C  C21  1  0.70960000  0.25960000  0.37059000  1.0
  C  C22  1  0.29040000  0.74041000  0.62941000  1.0
  C  C23  1  0.90722000  0.30346000  0.36830000  1.0
  C  C24  1  0.09279000  0.69655000  0.63171000  1.0
  C  C25  1  0.98492000  0.25300000  0.26011000  1.0
  C  C26  1  0.01508000  0.74702000  0.73990000  1.0
  C  C27  1  0.86649000  0.15917000  0.15732000  1.0
  C  C28  1  0.13352000  0.84083000  0.84268000  1.0
  C  C29  1  0.62140000  0.30038000  0.48417000  1.0
  C  C30  1  0.37861000  0.69962000  0.51584000  1.0
  C  C31  1  0.42285000  0.30275000  0.61764000  1.0
  C  C32  1  0.57714000  0.69726000  0.38235000  1.0
  C  C33  1  0.25692000  0.27737000  0.68503000  1.0
  C  C34  1  0.74307000  0.72264000  0.31497000  1.0
  C  C35  1  0.10590000  0.14603000  0.63644000  1.0
  C  C36  1  0.89409000  0.85397000  0.36355000  1.0
  C  C37  1  0.94610000  0.11723000  0.69885000  1.0
  C  C38  1  0.05389000  0.88277000  0.30114000  1.0
  C  C39  1  0.93359000  0.22198000  0.81059000  1.0
  C  C40  1  0.06640000  0.77801000  0.18940000  1.0
  C  C41  1  0.08444000  0.35305000  0.85943000  1.0
  C  C42  1  0.91557000  0.64695000  0.14056000  1.0
  C  C43  1  0.24584000  0.37991000  0.79833000  1.0
  C  C44  1  0.75415000  0.62009000  0.20167000  1.0
  C  C45  1  0.76112000  0.19808000  0.87881000  1.0
  C  C46  1  0.23887000  0.80191000  0.12119000  1.0
  N  N47  1  0.67535000  0.12082000  0.15727000  1.0
  N  N48  1  0.32465000  0.87918000  0.84274000  1.0
  N  N49  1  0.43500000  0.24350000  0.49808000  1.0
  N  N50  1  0.56500000  0.75650000  0.50192000  1.0
  N  N51  1  0.59521000  0.39343000  0.67055000  1.0
  N  N52  1  0.40478000  0.60657000  0.32945000  1.0
  N  N53  1  0.72396000  0.39160000  0.58770000  1.0
  N  N54  1  0.27604000  0.60840000  0.41231000  1.0
  O  O55  1  0.70877000  0.04300000  0.89769000  1.0
  O  O56  1  0.29126000  0.95698000  0.10231000  1.0
  O  O57  1  0.68157000  0.32270000  0.91497000  1.0
  O  O58  1  0.31841000  0.67728000  0.08502000  1.0
