# generated using pymatgen
data_CdH15C17S2N11
_symmetry_space_group_name_H-M   'P 1'
_cell_length_a   8.77840000
_cell_length_b   9.85448000
_cell_length_c   12.71290000
_cell_angle_alpha   104.14600000
_cell_angle_beta   94.71920000
_cell_angle_gamma   100.67000000
_symmetry_Int_Tables_number   1
_chemical_formula_structural   CdH15C17S2N11
_chemical_formula_sum   'Cd2 H30 C34 S4 N22'
_cell_volume   1038.53613622
_cell_formula_units_Z   2
loop_
 _symmetry_equiv_pos_site_id
 _symmetry_equiv_pos_as_xyz
  1  'x, y, z'
loop_
 _atom_site_type_symbol
 _atom_site_label
 _atom_site_symmetry_multiplicity
 _atom_site_fract_x
 _atom_site_fract_y
 _atom_site_fract_z
 _atom_site_occupancy
  Cd  Cd0  1  0.23922000  0.27826000  0.37079000  1.0
  Cd  Cd1  1  0.76079000  0.72174000  0.62921000  1.0
  H  H2  1  0.98051000  0.25378000  0.56749000  1.0
  H  H3  1  0.01950000  0.74622000  0.43250000  1.0
  H  H4  1  0.46850000  0.29147000  0.62336000  1.0
  H  H5  1  0.53150000  0.70853000  0.37663000  1.0
  H  H6  1  0.50204000  0.35794000  0.82776000  1.0
  H  H7  1  0.49796000  0.64206000  0.17224000  1.0
  H  H8  1  0.34045000  0.27702000  0.88372000  1.0
  H  H9  1  0.65955000  0.72298000  0.11628000  1.0
  H  H10  1  0.24202000  0.43099000  0.02352000  1.0
  H  H11  1  0.75798000  0.56901000  0.97647000  1.0
  H  H12  1  0.26030000  0.87262000  0.02575000  1.0
  H  H13  1  0.73970000  0.12738000  0.97425000  1.0
  H  H14  1  0.45896000  0.60386000  0.77912000  1.0
  H  H15  1  0.54104000  0.39614000  0.22088000  1.0
  H  H16  1  0.10273000  0.97957000  0.58658000  1.0
  H  H17  1  0.89727000  0.02044000  0.41342000  1.0
  H  H18  1  0.09000000  0.69340000  0.78368000  1.0
  H  H19  1  0.91000000  0.30660000  0.21632000  1.0
  H  H20  1  0.50402000  0.85838000  0.79855000  1.0
  H  H21  1  0.49598000  0.14162000  0.20145000  1.0
  H  H22  1  0.42869000  0.97551000  0.90307000  1.0
  H  H23  1  0.57130000  0.02449000  0.09693000  1.0
  H  H24  1  0.05722000  0.93707000  0.17858000  1.0
  H  H25  1  0.94279000  0.06293000  0.82142000  1.0
  H  H26  1  0.46162000  0.01806000  0.40591000  1.0
  H  H27  1  0.53838000  0.98194000  0.59410000  1.0
  H  H28  1  0.02946000  0.66536000  0.11024000  1.0
  H  H29  1  0.97054000  0.33464000  0.88976000  1.0
  H  H30  1  0.16068000  0.58422000  0.17494000  1.0
  H  H31  1  0.83932000  0.41578000  0.82505000  1.0
  C  C32  1  0.09851000  0.26628000  0.60710000  1.0
  C  C33  1  0.90149000  0.73372000  0.39289000  1.0
  C  C34  1  0.34579000  0.28673000  0.63193000  1.0
  C  C35  1  0.65421000  0.71327000  0.36807000  1.0
  C  C36  1  0.37931000  0.35635000  0.83867000  1.0
  C  C37  1  0.62069000  0.64365000  0.16133000  1.0
  C  C38  1  0.35354000  0.50194000  0.89592000  1.0
  C  C39  1  0.64646000  0.49806000  0.10408000  1.0
  C  C40  1  0.27620000  0.52092000  0.98852000  1.0
  C  C41  1  0.72380000  0.47908000  0.01148000  1.0
  C  C42  1  0.24343000  0.65416000  0.03694000  1.0
  C  C43  1  0.75657000  0.34584000  0.96305000  1.0
  C  C44  1  0.28863000  0.76870000  0.99153000  1.0
  C  C45  1  0.71136000  0.23130000  0.00848000  1.0
  C  C46  1  0.36686000  0.75055000  0.89910000  1.0
  C  C47  1  0.63314000  0.24945000  0.10090000  1.0
  C  C48  1  0.39958000  0.61739000  0.85191000  1.0
  C  C49  1  0.60043000  0.38261000  0.14809000  1.0
  C  C50  1  0.13652000  0.92321000  0.64512000  1.0
  C  C51  1  0.86348000  0.07680000  0.35488000  1.0
  C  C52  1  0.12724000  0.77700000  0.74393000  1.0
  C  C53  1  0.87275000  0.22300000  0.25607000  1.0
  C  C54  1  0.40427000  0.86941000  0.84418000  1.0
  C  C55  1  0.59573000  0.13059000  0.15582000  1.0
  C  C56  1  0.15934000  0.92797000  0.22865000  1.0
  C  C57  1  0.84066000  0.07203000  0.77135000  1.0
  C  C58  1  0.36367000  0.96384000  0.34283000  1.0
  C  C59  1  0.63633000  0.03616000  0.65717000  1.0
  C  C60  1  0.15381000  0.66996000  0.13456000  1.0
  C  C61  1  0.84619000  0.33004000  0.86544000  1.0
  C  C62  1  0.20275000  0.22286000  0.10628000  1.0
  C  C63  1  0.79725000  0.77715000  0.89373000  1.0
  C  C64  1  0.37269000  0.61849000  0.53512000  1.0
  C  C65  1  0.62732000  0.38152000  0.46489000  1.0
  S  S66  1  0.20771000  0.55779000  0.45412000  1.0
  S  S67  1  0.79229000  0.44221000  0.54589000  1.0
  S  S68  1  0.18653000  0.11704000  0.98494000  1.0
  S  S69  1  0.81346000  0.88297000  0.01507000  1.0
  N  N70  1  0.22561000  0.25819000  0.55223000  1.0
  N  N71  1  0.77439000  0.74181000  0.44777000  1.0
  N  N72  1  0.29134000  0.30933000  0.72898000  1.0
  N  N73  1  0.70866000  0.69067000  0.27102000  1.0
  N  N74  1  0.13354000  0.29701000  0.71501000  1.0
  N  N75  1  0.86646000  0.70300000  0.28499000  1.0
  N  N76  1  0.03932000  0.81210000  0.66798000  1.0
  N  N77  1  0.96068000  0.18790000  0.33201000  1.0
  N  N78  1  0.27812000  0.95871000  0.70259000  1.0
  N  N79  1  0.72188000  0.04129000  0.29741000  1.0
  N  N80  1  0.26985000  0.86406000  0.76504000  1.0
  N  N81  1  0.73015000  0.13594000  0.23496000  1.0
  N  N82  1  0.25294000  0.03053000  0.30897000  1.0
  N  N83  1  0.74706000  0.96946000  0.69103000  1.0
  N  N84  1  0.34363000  0.82710000  0.28830000  1.0
  N  N85  1  0.65637000  0.17290000  0.71170000  1.0
  N  N86  1  0.21227000  0.80617000  0.21627000  1.0
  N  N87  1  0.78773000  0.19383000  0.78374000  1.0
  N  N88  1  0.21628000  0.30318000  0.19515000  1.0
  N  N89  1  0.78373000  0.69684000  0.80485000  1.0
  N  N90  1  0.49142000  0.66533000  0.59563000  1.0
  N  N91  1  0.50859000  0.33468000  0.40437000  1.0
