# generated using pymatgen
data_Zn2H24C37N10O
_symmetry_space_group_name_H-M   'P 1'
_cell_length_a   19.80830000
_cell_length_b   19.88740000
_cell_length_c   20.61490000
_cell_angle_alpha   108.61200000
_cell_angle_beta   105.57700000
_cell_angle_gamma   112.33100000
_symmetry_Int_Tables_number   1
_chemical_formula_structural   Zn2H24C37N10O
_chemical_formula_sum   'Zn4 H48 C74 N20 O2'
_cell_volume   6376.53396110
_cell_formula_units_Z   2
loop_
 _symmetry_equiv_pos_site_id
 _symmetry_equiv_pos_as_xyz
  1  'x, y, z'
loop_
 _atom_site_type_symbol
 _atom_site_label
 _atom_site_symmetry_multiplicity
 _atom_site_fract_x
 _atom_site_fract_y
 _atom_site_fract_z
 _atom_site_occupancy
  Zn  Zn0  1  0.60507000  0.60216000  0.50235000  1.0
  Zn  Zn1  1  0.38782000  0.39234000  0.49369000  1.0
  Zn  Zn2  1  0.50074000  0.59483000  0.60323000  1.0
  Zn  Zn3  1  0.49374000  0.40163000  0.39692000  1.0
  H  H4  1  0.76275000  0.79376000  0.61862000  1.0
  H  H5  1  0.37040000  0.63172000  0.51322000  1.0
  H  H6  1  0.37052000  0.39137000  0.24799000  1.0
  H  H7  1  0.23043000  0.37995000  0.37798000  1.0
  H  H8  1  0.50482000  0.63489000  0.37814000  1.0
  H  H9  1  0.53243000  0.38426000  0.24717000  1.0
  H  H10  1  0.36949000  0.62406000  0.67345000  1.0
  H  H11  1  0.02829000  0.60194000  0.73678000  1.0
  H  H12  1  0.07161000  0.48158000  0.73701000  1.0
  H  H13  1  0.08293000  0.61314000  0.62443000  1.0
  H  H14  1  0.33156000  0.20075000  0.47136000  1.0
  H  H15  1  0.92346000  0.48733000  0.50807000  1.0
  H  H16  1  0.96698000  0.36681000  0.50834000  1.0
  H  H17  1  0.91265000  0.35579000  0.62086000  1.0
  H  H18  1  0.43230000  0.99311000  0.52811000  1.0
  H  H19  1  0.29232000  0.83267000  0.44186000  1.0
  H  H20  1  0.48627000  0.95564000  0.34944000  1.0
  H  H21  1  0.34590000  0.79560000  0.26445000  1.0
  H  H22  1  0.25455000  0.86247000  0.31452000  1.0
  H  H23  1  0.70693000  0.58903000  0.83694000  1.0
  H  H24  1  0.63248000  0.60546000  0.74155000  1.0
  H  H25  1  0.73684000  0.58816000  0.96144000  1.0
  H  H26  1  0.73142000  0.65216000  0.16288000  1.0
  H  H27  1  0.70493000  0.65388000  0.27469000  1.0
  H  H28  1  0.52022000  0.33177000  0.72114000  1.0
  H  H29  1  0.61331000  0.38798000  0.05497000  1.0
  H  H30  1  0.55434000  0.33110000  0.84616000  1.0
  H  H31  1  0.58884000  0.38840000  0.16678000  1.0
  H  H32  1  0.25619000  0.34849000  0.14102000  1.0
  H  H33  1  0.12936000  0.25683000  0.01946000  1.0
  H  H34  1  0.98541000  0.05395000  0.82953000  1.0
  H  H35  1  0.61398000  0.35132000  0.48529000  1.0
  H  H36  1  0.87405000  0.91500000  0.72401000  1.0
  H  H37  1  0.11381000  0.32425000  0.26711000  1.0
  H  H38  1  0.83093000  0.06348000  0.93952000  1.0
  H  H39  1  0.98723000  0.23435000  0.14441000  1.0
  H  H40  1  0.71817000  0.92588000  0.83369000  1.0
  H  H41  1  0.48540000  0.33933000  0.60288000  1.0
  H  H42  1  0.47556000  0.21447000  0.34579000  1.0
  H  H43  1  0.62927000  0.78328000  0.75401000  1.0
  H  H44  1  0.68738000  0.64919000  0.38621000  1.0
  H  H45  1  0.11414000  0.36041000  0.46214000  1.0
  H  H46  1  0.11738000  0.32003000  0.52842000  1.0
  H  H47  1  0.09680000  0.25743000  0.43247000  1.0
  H  H48  1  0.58914000  0.04655000  0.56616000  1.0
  H  H49  1  0.61413000  0.03161000  0.48712000  1.0
  H  H50  1  0.65660000  0.00774000  0.55921000  1.0
  H  H51  1  0.75908000  0.61715000  0.62662000  1.0
  C  C52  1  0.72029000  0.77810000  0.64284000  1.0
  C  C53  1  0.40169000  0.17459000  0.40658000  1.0
  C  C54  1  0.57676000  0.46829000  0.70108000  1.0
  C  C55  1  0.71696000  0.48132000  0.57107000  1.0
  C  C56  1  0.64551000  0.58343000  0.36130000  1.0
  C  C57  1  0.27027000  0.42770000  0.54956000  1.0
  C  C58  1  0.40925000  0.62623000  0.48590000  1.0
  C  C59  1  0.34693000  0.39226000  0.28992000  1.0
  C  C60  1  0.27543000  0.38659000  0.35617000  1.0
  C  C61  1  0.47802000  0.62786000  0.41679000  1.0
  C  C62  1  0.56716000  0.44841000  0.29086000  1.0
  C  C63  1  0.36793000  0.21709000  0.44183000  1.0
  C  C64  1  0.34561000  0.56075000  0.63223000  1.0
  C  C65  1  0.62125000  0.51868000  0.29024000  1.0
  C  C66  1  0.26550000  0.49308000  0.59812000  1.0
  C  C67  1  0.42220000  0.65070000  0.43112000  1.0
  C  C68  1  0.26880000  0.37558000  0.28319000  1.0
  C  C69  1  0.03812000  0.48277000  0.68608000  1.0
  C  C70  1  0.01515000  0.54980000  0.68592000  1.0
  C  C71  1  0.78768000  0.47696000  0.59825000  1.0
  C  C72  1  0.19893000  0.49271000  0.61044000  1.0
  C  C73  1  0.95079000  0.41297000  0.62150000  1.0
  C  C74  1  0.59072000  0.54173000  0.69764000  1.0
  C  C75  1  0.92608000  0.47993000  0.62110000  1.0
  C  C76  1  0.97980000  0.41898000  0.55903000  1.0
  C  C77  1  0.06898000  0.48895000  0.62351000  1.0
  C  C78  1  0.95745000  0.48617000  0.55879000  1.0
  C  C79  1  0.04426000  0.55601000  0.62356000  1.0
  C  C80  1  0.85164000  0.47679000  0.61461000  1.0
  C  C81  1  0.14061000  0.49226000  0.62017000  1.0
  C  C82  1  0.33550000  0.86074000  0.42161000  1.0
  C  C83  1  0.41340000  0.94872000  0.46972000  1.0
  C  C84  1  0.39816000  0.10135000  0.40289000  1.0
  C  C85  1  0.63828000  0.41739000  0.51353000  1.0
  C  C86  1  0.39771000  0.70017000  0.40746000  1.0
  C  C87  1  0.31442000  0.87570000  0.35074000  1.0
  C  C88  1  0.39293000  0.96535000  0.39863000  1.0
  C  C89  1  0.36530000  0.83992000  0.32296000  1.0
  C  C90  1  0.38586000  0.82261000  0.39359000  1.0
  C  C91  1  0.44347000  0.92783000  0.37019000  1.0
  C  C92  1  0.46423000  0.91224000  0.44137000  1.0
  C  C93  1  0.39639000  0.03871000  0.40114000  1.0
  C  C94  1  0.38667000  0.75243000  0.39573000  1.0
  C  C95  1  0.64328000  0.52102000  0.22864000  1.0
  C  C96  1  0.51490000  0.40598000  0.62738000  1.0
  C  C97  1  0.61970000  0.44664000  0.16623000  1.0
  C  C98  1  0.63372000  0.44567000  0.10385000  1.0
  C  C99  1  0.67314000  0.52018000  0.10182000  1.0
  C  C100  1  0.70070000  0.59496000  0.16517000  1.0
  C  C101  1  0.68562000  0.59532000  0.22737000  1.0
  C  C102  1  0.69016000  0.53237000  0.90828000  1.0
  C  C103  1  0.67243000  0.53238000  0.83861000  1.0
  C  C104  1  0.64478000  0.46009000  0.91143000  1.0
  C  C105  1  0.60809000  0.46165000  0.76995000  1.0
  C  C106  1  0.56897000  0.38785000  0.77320000  1.0
  C  C107  1  0.71248000  0.55343000  0.58589000  1.0
  C  C108  1  0.58747000  0.38695000  0.84274000  1.0
  C  C109  1  0.78794000  0.90927000  0.77138000  1.0
  C  C110  1  0.77684000  0.95343000  0.83253000  1.0
  C  C111  1  0.83906000  0.03055000  0.89149000  1.0
  C  C112  1  0.91535000  0.06686000  0.89107000  1.0
  C  C113  1  0.92599000  0.02505000  0.82893000  1.0
  C  C114  1  0.86349000  0.94754000  0.77032000  1.0
  C  C115  1  0.12696000  0.27274000  0.07418000  1.0
  C  C116  1  0.19744000  0.32340000  0.14242000  1.0
  C  C117  1  0.05060000  0.23713000  0.07472000  1.0
  C  C118  1  0.44143000  0.22410000  0.37758000  1.0
  C  C119  1  0.19510000  0.33962000  0.21359000  1.0
  C  C120  1  0.11801000  0.31075000  0.21324000  1.0
  C  C121  1  0.04693000  0.26065000  0.14503000  1.0
  C  C122  1  0.65193000  0.77303000  0.71144000  1.0
  C  C123  1  0.72403000  0.82593000  0.71230000  1.0
  C  C124  1  0.13072000  0.32017000  0.48009000  1.0
  C  C125  1  0.60250000  0.00716000  0.52652000  1.0
  N  N126  1  0.65185000  0.70367000  0.60420000  1.0
  N  N127  1  0.34595000  0.45451000  0.55580000  1.0
  N  N128  1  0.45540000  0.59362000  0.50347000  1.0
  N  N129  1  0.39449000  0.40991000  0.36038000  1.0
  N  N130  1  0.35055000  0.40647000  0.40108000  1.0
  N  N131  1  0.49759000  0.59462000  0.46110000  1.0
  N  N132  1  0.56039000  0.46956000  0.35645000  1.0
  N  N133  1  0.39303000  0.53764000  0.60728000  1.0
  N  N134  1  0.68188000  0.52536000  0.03772000  1.0
  N  N135  1  0.64601000  0.45576000  0.97834000  1.0
  N  N136  1  0.98576000  0.13966000  0.95162000  1.0
  N  N137  1  0.38636000  0.28577000  0.43441000  1.0
  N  N138  1  0.97727000  0.17245000  0.01067000  1.0
  N  N139  1  0.54011000  0.52387000  0.62843000  1.0
  N  N140  1  0.59233000  0.44996000  0.49514000  1.0
  N  N141  1  0.49354000  0.44045000  0.58507000  1.0
  N  N142  1  0.63784000  0.53323000  0.53944000  1.0
  N  N143  1  0.43207000  0.29013000  0.39443000  1.0
  N  N144  1  0.60924000  0.70040000  0.64703000  1.0
  N  N145  1  0.60926000  0.55374000  0.40054000  1.0
  O  O146  1  0.21531000  0.34693000  0.50028000  1.0
  O  O147  1  0.53736000  0.92311000  0.48556000  1.0
