# generated using pymatgen
data_ZnH18C14(NO4)2
_symmetry_space_group_name_H-M   'P 1'
_cell_length_a   4.77454000
_cell_length_b   11.80480000
_cell_length_c   14.68900000
_cell_angle_alpha   88.90570000
_cell_angle_beta   89.99970000
_cell_angle_gamma   89.99960000
_symmetry_Int_Tables_number   1
_chemical_formula_structural   ZnH18C14(NO4)2
_chemical_formula_sum   'Zn2 H36 C28 N4 O16'
_cell_volume   827.75761607
_cell_formula_units_Z   2
loop_
 _symmetry_equiv_pos_site_id
 _symmetry_equiv_pos_as_xyz
  1  'x, y, z'
loop_
 _atom_site_type_symbol
 _atom_site_label
 _atom_site_symmetry_multiplicity
 _atom_site_fract_x
 _atom_site_fract_y
 _atom_site_fract_z
 _atom_site_occupancy
  Zn  Zn0  1  0.09770000  0.96848000  0.16700000  1.0
  Zn  Zn1  1  0.59770000  0.03152000  0.83300000  1.0
  H  H2  1  0.98640000  0.38388000  0.17418000  1.0
  H  H3  1  0.48640000  0.61612000  0.82582000  1.0
  H  H4  1  0.36456000  0.48801000  0.09649000  1.0
  H  H5  1  0.86455000  0.51198000  0.90351000  1.0
  H  H6  1  0.16650000  0.41169000  0.01533000  1.0
  H  H7  1  0.66650000  0.58831000  0.98467000  1.0
  H  H8  1  0.50224000  0.36001000  0.05111000  1.0
  H  H9  1  0.00224000  0.63999000  0.94889000  1.0
  H  H10  1  0.36678000  0.45784000  0.46296000  1.0
  H  H11  1  0.86679000  0.54216000  0.53704000  1.0
  H  H12  1  0.61852000  0.39023000  0.60057000  1.0
  H  H13  1  0.11851000  0.60978000  0.39943000  1.0
  H  H14  1  0.05245000  0.14399000  0.43900000  1.0
  H  H15  1  0.55244000  0.85602000  0.56100000  1.0
  H  H16  1  0.80383000  0.21184000  0.30219000  1.0
  H  H17  1  0.30383000  0.78816000  0.69781000  1.0
  H  H18  1  0.44108000  0.22433000  0.73127000  1.0
  H  H19  1  0.94109000  0.77567000  0.26873000  1.0
  H  H20  1  0.41815000  0.42081000  0.78573000  1.0
  H  H21  1  0.91815000  0.57918000  0.21427000  1.0
  H  H22  1  0.41309000  0.32102000  0.87760000  1.0
  H  H23  1  0.91310000  0.67898000  0.12239000  1.0
  H  H24  1  0.09517000  0.38942000  0.84332000  1.0
  H  H25  1  0.59518000  0.61058000  0.15668000  1.0
  H  H26  1  0.39506000  0.22924000  0.23699000  1.0
  H  H27  1  0.89507000  0.77076000  0.76302000  1.0
  H  H28  1  0.00198000  0.37828000  0.67296000  1.0
  H  H29  1  0.50198000  0.62172000  0.32704000  1.0
  H  H30  1  0.23049000  0.87855000  0.99741000  1.0
  H  H31  1  0.73049000  0.12145000  0.00259000  1.0
  H  H32  1  0.32318000  0.00275000  0.01031000  1.0
  H  H33  1  0.82318000  0.99725000  0.98969000  1.0
  H  H34  1  0.25179000  0.95793000  0.34944000  1.0
  H  H35  1  0.75180000  0.04207000  0.65057000  1.0
  H  H36  1  0.92056000  0.94802000  0.34514000  1.0
  H  H37  1  0.42056000  0.05197000  0.65486000  1.0
  C  C38  1  0.05718000  0.22122000  0.11675000  1.0
  C  C39  1  0.55718000  0.77878000  0.88325000  1.0
  C  C40  1  0.16901000  0.33573000  0.15016000  1.0
  C  C41  1  0.66902000  0.66427000  0.84984000  1.0
  C  C42  1  0.31073000  0.40315000  0.07304000  1.0
  C  C43  1  0.81072000  0.59684000  0.92696000  1.0
  C  C44  1  0.40584000  0.38718000  0.29368000  1.0
  C  C45  1  0.90585000  0.61282000  0.70632000  1.0
  C  C46  1  0.56833000  0.34134000  0.37326000  1.0
  C  C47  1  0.06833000  0.65866000  0.62674000  1.0
  C  C48  1  0.51943000  0.38993000  0.45800000  1.0
  C  C49  1  0.01942000  0.61008000  0.54200000  1.0
  C  C50  1  0.66143000  0.35165000  0.53520000  1.0
  C  C51  1  0.16143000  0.64835000  0.46480000  1.0
  C  C52  1  0.85818000  0.26413000  0.52845000  1.0
  C  C53  1  0.35818000  0.73587000  0.47155000  1.0
  C  C54  1  0.90283000  0.21313000  0.44423000  1.0
  C  C55  1  0.40283000  0.78688000  0.55577000  1.0
  C  C56  1  0.75975000  0.25156000  0.36710000  1.0
  C  C57  1  0.25975000  0.74844000  0.63290000  1.0
  C  C58  1  0.02388000  0.22322000  0.60823000  1.0
  C  C59  1  0.52388000  0.77678000  0.39177000  1.0
  C  C60  1  0.23927000  0.25830000  0.75332000  1.0
  C  C61  1  0.73927000  0.74170000  0.24668000  1.0
  C  C62  1  0.07538000  0.16172000  0.80007000  1.0
  C  C63  1  0.57538000  0.83828000  0.19993000  1.0
  C  C64  1  0.29328000  0.35394000  0.81921000  1.0
  C  C65  1  0.79329000  0.64606000  0.18079000  1.0
  N  N66  1  0.35414000  0.31351000  0.22713000  1.0
  N  N67  1  0.85414000  0.68649000  0.77287000  1.0
  N  N68  1  0.08619000  0.29776000  0.67306000  1.0
  N  N69  1  0.58619000  0.70224000  0.32694000  1.0
  O  O70  1  0.16132000  0.95197000  0.02457000  1.0
  O  O71  1  0.66132000  0.04803000  0.97543000  1.0
  O  O72  1  0.08414000  0.98963000  0.31936000  1.0
  O  O73  1  0.58415000  0.01037000  0.68064000  1.0
  O  O74  1  0.15972000  0.13364000  0.15825000  1.0
  O  O75  1  0.65973000  0.86636000  0.84176000  1.0
  O  O76  1  0.88029000  0.22429000  0.05379000  1.0
  O  O77  1  0.38027000  0.77571000  0.94621000  1.0
  O  O78  1  0.81160000  0.17397000  0.80396000  1.0
  O  O79  1  0.31160000  0.82603000  0.19604000  1.0
  O  O80  1  0.19668000  0.07446000  0.83327000  1.0
  O  O81  1  0.69668000  0.92554000  0.16673000  1.0
  O  O82  1  0.31973000  0.48769000  0.29097000  1.0
  O  O83  1  0.81974000  0.51232000  0.70903000  1.0
  O  O84  1  0.10344000  0.12098000  0.61372000  1.0
  O  O85  1  0.60344000  0.87902000  0.38628000  1.0
