# generated using pymatgen
data_Zn2H27C46N7O12
_symmetry_space_group_name_H-M   'P 1'
_cell_length_a   9.82977000
_cell_length_b   11.10730000
_cell_length_c   28.10850000
_cell_angle_alpha   89.40260000
_cell_angle_beta   89.59030000
_cell_angle_gamma   89.89190000
_symmetry_Int_Tables_number   1
_chemical_formula_structural   Zn2H27C46N7O12
_chemical_formula_sum   'Zn2 H27 C46 N7 O12'
_cell_volume   3068.69767854
_cell_formula_units_Z   1
loop_
 _symmetry_equiv_pos_site_id
 _symmetry_equiv_pos_as_xyz
  1  'x, y, z'
loop_
 _atom_site_type_symbol
 _atom_site_label
 _atom_site_symmetry_multiplicity
 _atom_site_fract_x
 _atom_site_fract_y
 _atom_site_fract_z
 _atom_site_occupancy
  Zn  Zn0  1  0.63872000  0.50110000  0.50086000  1.0
  Zn  Zn1  1  0.35717000  0.50331000  0.50005000  1.0
  H  H2  1  0.27060000  0.48078000  0.74162000  1.0
  H  H3  1  0.86832000  0.65791000  0.46374000  1.0
  H  H4  1  0.90123000  0.43145000  0.51599000  1.0
  H  H5  1  0.43715000  0.20329000  0.87829000  1.0
  H  H6  1  0.27809000  0.51512000  0.34591000  1.0
  H  H7  1  0.28525000  0.51979000  0.25683000  1.0
  H  H8  1  0.57860000  0.21214000  0.12301000  1.0
  H  H9  1  0.55560000  0.20352000  0.03578000  1.0
  H  H10  1  0.70584000  0.53071000  0.65237000  1.0
  H  H11  1  0.50600000  0.80323000  0.87709000  1.0
  H  H12  1  0.29939000  0.11077000  0.48561000  1.0
  H  H13  1  0.42462000  0.80309000  0.03235000  1.0
  H  H14  1  0.59475000  0.09768000  0.52113000  1.0
  H  H15  1  0.06015000  0.68402000  0.41845000  1.0
  H  H16  1  0.22238000  0.63097000  0.43169000  1.0
  H  H17  1  0.16982000  0.40294000  0.55961000  1.0
  H  H18  1  0.04537000  0.49963000  0.56673000  1.0
  H  H19  1  0.38837000  0.16822000  0.00343000  1.0
  H  H20  1  0.38248000  0.10862000  0.94799000  1.0
  H  H21  1  0.27312000  0.48464000  0.65241000  1.0
  H  H22  1  0.71312000  0.48823000  0.34940000  1.0
  H  H23  1  0.42551000  0.80126000  0.12065000  1.0
  H  H24  1  0.72157000  0.49393000  0.26009000  1.0
  H  H25  1  0.49334000  0.80526000  0.96540000  1.0
  H  H26  1  0.30237000  0.88769000  0.50307000  1.0
  H  H27  1  0.60829000  0.91023000  0.48074000  1.0
  H  H28  1  0.70494000  0.52592000  0.74175000  1.0
  C  C29  1  0.49625000  0.26970000  0.50533000  1.0
  C  C30  1  0.49564000  0.38981000  0.02649000  1.0
  C  C31  1  0.46692000  0.61312000  0.02547000  1.0
  C  C32  1  0.49055000  0.50877000  0.59382000  1.0
  C  C33  1  0.48413000  0.50231000  0.05085000  1.0
  C  C34  1  0.53250000  0.28772000  0.05352000  1.0
  C  C35  1  0.54848000  0.29211000  0.10283000  1.0
  C  C36  1  0.52449000  0.39791000  0.12739000  1.0
  C  C37  1  0.49260000  0.50447000  0.10166000  1.0
  C  C38  1  0.47107000  0.61355000  0.12625000  1.0
  C  C39  1  0.47503000  0.61729000  0.17881000  1.0
  C  C40  1  0.61075000  0.51665000  0.72191000  1.0
  C  C41  1  0.53489000  0.39767000  0.17978000  1.0
  C  C42  1  0.37868000  0.51354000  0.27736000  1.0
  C  C43  1  0.37484000  0.51147000  0.32684000  1.0
  C  C44  1  0.51018000  0.73592000  0.49371000  1.0
  C  C45  1  0.62027000  0.49617000  0.32868000  1.0
  C  C46  1  0.62484000  0.49912000  0.27914000  1.0
  C  C47  1  0.50378000  0.50755000  0.25374000  1.0
  C  C48  1  0.47437000  0.38770000  0.97516000  1.0
  C  C49  1  0.47769000  0.49993000  0.94951000  1.0
  C  C50  1  0.47800000  0.61248000  0.97373000  1.0
  C  C51  1  0.48771000  0.50284000  0.74632000  1.0
  C  C52  1  0.44950000  0.28132000  0.94889000  1.0
  C  C53  1  0.49610000  0.71982000  0.89756000  1.0
  C  C54  1  0.44388000  0.71875000  0.05122000  1.0
  C  C55  1  0.44426000  0.71894000  0.10084000  1.0
  C  C56  1  0.49131000  0.50032000  0.40624000  1.0
  C  C57  1  0.48874000  0.71951000  0.94705000  1.0
  C  C58  1  0.39797000  0.93584000  0.49683000  1.0
  C  C59  1  0.51085000  0.86882000  0.48986000  1.0
  C  C60  1  0.39433000  0.06638000  0.49593000  1.0
  C  C61  1  0.49975000  0.13669000  0.50829000  1.0
  C  C62  1  0.47895000  0.50194000  0.89868000  1.0
  C  C63  1  0.91967000  0.58147000  0.48115000  1.0
  C  C64  1  0.07021000  0.57725000  0.47787000  1.0
  C  C65  1  0.47107000  0.38954000  0.82095000  1.0
  C  C66  1  0.49545000  0.61390000  0.82054000  1.0
  C  C67  1  0.36565000  0.49144000  0.72184000  1.0
  C  C68  1  0.36706000  0.49352000  0.67234000  1.0
  C  C69  1  0.61134000  0.51936000  0.67237000  1.0
  C  C70  1  0.46818000  0.39210000  0.87373000  1.0
  C  C71  1  0.45036000  0.28580000  0.89854000  1.0
  C  C72  1  0.48998000  0.61164000  0.87317000  1.0
  C  C73  1  0.48966000  0.50756000  0.64722000  1.0
  C  C74  1  0.49548000  0.50270000  0.35290000  1.0
  N  N75  1  0.48581000  0.50162000  0.79771000  1.0
  N  N76  1  0.50593000  0.50793000  0.20239000  1.0
  N  N77  1  0.84531000  0.50006000  0.50045000  1.0
  N  N78  1  0.14894000  0.51143000  0.50498000  1.0
  N  N79  1  0.12432000  0.64753000  0.44260000  1.0
  N  N80  1  0.08987000  0.44300000  0.54248000  1.0
  N  N81  1  0.42578000  0.16988000  0.96969000  1.0
  O  O82  1  0.60929000  0.32238000  0.51319000  1.0
  O  O83  1  0.60055000  0.47515000  0.42795000  1.0
  O  O84  1  0.37678000  0.52405000  0.42621000  1.0
  O  O85  1  0.46145000  0.29577000  0.79837000  1.0
  O  O86  1  0.56524000  0.30740000  0.20314000  1.0
  O  O87  1  0.50726000  0.70757000  0.79722000  1.0
  O  O88  1  0.45274000  0.70963000  0.20142000  1.0
  O  O89  1  0.38420000  0.32191000  0.49508000  1.0
  O  O90  1  0.60263000  0.53217000  0.57287000  1.0
  O  O91  1  0.37814000  0.48561000  0.57337000  1.0
  O  O92  1  0.62414000  0.68282000  0.48667000  1.0
  O  O93  1  0.39820000  0.68357000  0.50398000  1.0
