# generated using pymatgen
data_Ga2P3H6(CO3)3
_symmetry_space_group_name_H-M   'P 1'
_cell_length_a   5.14240000
_cell_length_b   8.04896000
_cell_length_c   12.41430000
_cell_angle_alpha   91.52260000
_cell_angle_beta   101.01500000
_cell_angle_gamma   90.56850000
_symmetry_Int_Tables_number   1
_chemical_formula_structural   Ga2P3H6(CO3)3
_chemical_formula_sum   'Ga4 P6 H12 C6 O18'
_cell_volume   504.13657922
_cell_formula_units_Z   2
loop_
 _symmetry_equiv_pos_site_id
 _symmetry_equiv_pos_as_xyz
  1  'x, y, z'
loop_
 _atom_site_type_symbol
 _atom_site_label
 _atom_site_symmetry_multiplicity
 _atom_site_fract_x
 _atom_site_fract_y
 _atom_site_fract_z
 _atom_site_occupancy
  Ga  Ga0  1  0.04442000  0.55800000  0.81023000  1.0
  Ga  Ga1  1  0.95557000  0.44200000  0.18977000  1.0
  Ga  Ga2  1  0.49434000  0.88448000  0.26258000  1.0
  Ga  Ga3  1  0.50566000  0.11552000  0.73742000  1.0
  P  P4  1  0.50592000  0.73244000  0.71902000  1.0
  P  P5  1  0.49409000  0.26756000  0.28098000  1.0
  P  P6  1  0.05887000  0.74044000  0.37728000  1.0
  P  P7  1  0.94114000  0.25956000  0.62272000  1.0
  P  P8  1  0.13199000  0.74957000  0.05313000  1.0
  P  P9  1  0.86801000  0.25043000  0.94687000  1.0
  H  H10  1  0.56265000  0.82238000  0.54334000  1.0
  H  H11  1  0.43735000  0.17762000  0.45666000  1.0
  H  H12  1  0.51881000  0.60441000  0.54597000  1.0
  H  H13  1  0.48119000  0.39559000  0.45403000  1.0
  H  H14  1  0.07696000  0.86092000  0.55471000  1.0
  H  H15  1  0.92305000  0.13908000  0.44529000  1.0
  H  H16  1  0.03182000  0.64334000  0.55347000  1.0
  H  H17  1  0.96818000  0.35666000  0.44653000  1.0
  H  H18  1  0.91589000  0.98593000  0.11244000  1.0
  H  H19  1  0.08411000  0.01407000  0.88756000  1.0
  H  H20  1  0.74010000  0.89514000  0.98819000  1.0
  H  H21  1  0.25990000  0.10486000  0.01182000  1.0
  C  C22  1  0.44373000  0.72363000  0.57089000  1.0
  C  C23  1  0.55626000  0.27637000  0.42911000  1.0
  C  C24  1  0.14794000  0.74294000  0.52498000  1.0
  C  C25  1  0.85205000  0.25706000  0.47502000  1.0
  C  C26  1  0.93855000  0.93526000  0.03164000  1.0
  C  C27  1  0.06146000  0.06474000  0.96836000  1.0
  O  O28  1  0.36160000  0.58512000  0.75826000  1.0
  O  O29  1  0.63841000  0.41489000  0.24175000  1.0
  O  O30  1  0.12116000  0.57055000  0.33181000  1.0
  O  O31  1  0.87885000  0.42945000  0.66819000  1.0
  O  O32  1  0.80531000  0.72977000  0.76466000  1.0
  O  O33  1  0.19469000  0.27023000  0.23534000  1.0
  O  O34  1  0.18817000  0.67844000  0.94566000  1.0
  O  O35  1  0.81182000  0.32156000  0.05435000  1.0
  O  O36  1  0.97057000  0.63878000  0.11568000  1.0
  O  O37  1  0.02941000  0.36122000  0.88432000  1.0
  O  O38  1  0.21168000  0.88734000  0.33616000  1.0
  O  O39  1  0.78833000  0.11266000  0.66384000  1.0
  O  O40  1  0.75939000  0.77985000  0.35549000  1.0
  O  O41  1  0.24061000  0.22014000  0.64450000  1.0
  O  O42  1  0.39330000  0.90018000  0.75341000  1.0
  O  O43  1  0.60670000  0.09982000  0.24659000  1.0
  O  O44  1  0.41050000  0.79364000  0.12441000  1.0
  O  O45  1  0.58950000  0.20636000  0.87559000  1.0
