# generated using pymatgen
data_AlH5C8O7
_symmetry_space_group_name_H-M   'P 1'
_cell_length_a   6.60892000
_cell_length_b   8.54277000
_cell_length_c   10.99790000
_cell_angle_alpha   74.48390000
_cell_angle_beta   74.26450000
_cell_angle_gamma   76.56040000
_symmetry_Int_Tables_number   1
_chemical_formula_structural   AlH5C8O7
_chemical_formula_sum   'Al2 H10 C16 O14'
_cell_volume   567.25309836
_cell_formula_units_Z   2
loop_
 _symmetry_equiv_pos_site_id
 _symmetry_equiv_pos_as_xyz
  1  'x, y, z'
loop_
 _atom_site_type_symbol
 _atom_site_label
 _atom_site_symmetry_multiplicity
 _atom_site_fract_x
 _atom_site_fract_y
 _atom_site_fract_z
 _atom_site_occupancy
  Al  Al0  1  0.48553000  0.53065000  0.48786000  1.0
  Al  Al1  1  0.98550000  0.52792000  0.49045000  1.0
  H  H2  1  0.78436000  0.64318000  0.32634000  1.0
  H  H3  1  0.20133000  0.41704000  0.65224000  1.0
  H  H4  1  0.76734000  0.99973000  0.47891000  1.0
  H  H5  1  0.19539000  0.05631000  0.50926000  1.0
  H  H6  1  0.16890000  0.26230000  0.25474000  1.0
  H  H7  1  0.46296000  0.25012000  0.79213000  1.0
  H  H8  1  0.84271000  0.67297000  0.76352000  1.0
  H  H9  1  0.57858000  0.68734000  0.18640000  1.0
  H  H10  1  0.02875000  0.03706000  0.26460000  1.0
  H  H11  1  0.30778000  0.02468000  0.83723000  1.0
  C  C12  1  0.33042000  0.51725000  0.26280000  1.0
  C  C13  1  0.16005000  0.81830000  0.48059000  1.0
  C  C14  1  0.64163000  0.51547000  0.71997000  1.0
  C  C15  1  0.80626000  0.23869000  0.50382000  1.0
  C  C16  1  0.88063000  0.06457000  0.49288000  1.0
  C  C17  1  0.08310000  0.99102000  0.49495000  1.0
  C  C18  1  0.41775000  0.49944000  0.12801000  1.0
  C  C19  1  0.35761000  0.38326000  0.07535000  1.0
  C  C20  1  0.56763000  0.59918000  0.05049000  1.0
  C  C21  1  0.23235000  0.26307000  0.15252000  1.0
  C  C22  1  0.19064000  0.14395000  0.10301000  1.0
  C  C23  1  0.57741000  0.49576000  0.86130000  1.0
  C  C24  1  0.64861000  0.59662000  0.91658000  1.0
  C  C25  1  0.43962000  0.38104000  0.94097000  1.0
  C  C26  1  0.39507000  0.25762000  0.89277000  1.0
  C  C27  1  0.27479000  0.14055000  0.97041000  1.0
  O  O28  1  0.44741000  0.57138000  0.31536000  1.0
  O  O29  1  0.03489000  0.74970000  0.44980000  1.0
  O  O30  1  0.82226000  0.56324000  0.65990000  1.0
  O  O31  1  0.62463000  0.30629000  0.47853000  1.0
  O  O32  1  0.51706000  0.48907000  0.66043000  1.0
  O  O33  1  0.92959000  0.30710000  0.53631000  1.0
  O  O34  1  0.14652000  0.48547000  0.32426000  1.0
  O  O35  1  0.34535000  0.75284000  0.50046000  1.0
  O  O36  1  0.74565000  0.60527000  0.41961000  1.0
  O  O37  1  0.22728000  0.45274000  0.55867000  1.0
  O  O38  1  0.78673000  0.70062000  0.85004000  1.0
  O  O39  1  0.63983000  0.70649000  0.09152000  1.0
  O  O40  1  0.07506000  0.02382000  0.17525000  1.0
  O  O41  1  0.23313000  0.01778000  0.92751000  1.0
