# generated using pymatgen
data_MnH8C13NO5
_symmetry_space_group_name_H-M   'P 1'
_cell_length_a   10.69040000
_cell_length_b   12.38470000
_cell_length_c   12.38460000
_cell_angle_alpha   101.67800000
_cell_angle_beta   106.54000000
_cell_angle_gamma   106.53700000
_symmetry_Int_Tables_number   1
_chemical_formula_structural   MnH8C13NO5
_chemical_formula_sum   'Mn4 H32 C52 N4 O20'
_cell_volume   1433.35845541
_cell_formula_units_Z   4
loop_
 _symmetry_equiv_pos_site_id
 _symmetry_equiv_pos_as_xyz
  1  'x, y, z'
loop_
 _atom_site_type_symbol
 _atom_site_label
 _atom_site_symmetry_multiplicity
 _atom_site_fract_x
 _atom_site_fract_y
 _atom_site_fract_z
 _atom_site_occupancy
  Mn  Mn0  1  0.74999000  0.30037000  0.69959000  1.0
  Mn  Mn1  1  0.25000000  0.69963000  0.30040000  1.0
  Mn  Mn2  1  0.00000000  0.49999000  0.99999000  1.0
  Mn  Mn3  1  0.50000000  0.00001000  0.50000000  1.0
  H  H4  1  0.96200000  0.66951000  0.42923000  1.0
  H  H5  1  0.53799000  0.57079000  0.33052000  1.0
  H  H6  1  0.03800000  0.33049000  0.57077000  1.0
  H  H7  1  0.46201000  0.42921000  0.66948000  1.0
  H  H8  1  0.87133000  0.54097000  0.54369000  1.0
  H  H9  1  0.62863000  0.45629000  0.45901000  1.0
  H  H10  1  0.12866000  0.45904000  0.45632000  1.0
  H  H11  1  0.37136000  0.54371000  0.54097000  1.0
  H  H12  1  0.26021000  0.72027000  0.83969000  1.0
  H  H13  1  0.23975000  0.16033000  0.27974000  1.0
  H  H14  1  0.73979000  0.27972000  0.16031000  1.0
  H  H15  1  0.76025000  0.83967000  0.72026000  1.0
  H  H16  1  0.34599000  0.85394000  0.72824000  1.0
  H  H17  1  0.15397000  0.27180000  0.14610000  1.0
  H  H18  1  0.65402000  0.14605000  0.27176000  1.0
  H  H19  1  0.84602000  0.72821000  0.85391000  1.0
  H  H20  1  0.99976000  0.19213000  0.77041000  1.0
  H  H21  1  0.50028000  0.22960000  0.80786000  1.0
  H  H22  1  0.00025000  0.80787000  0.22961000  1.0
  H  H23  1  0.49972000  0.77041000  0.19213000  1.0
  H  H24  1  0.05701000  0.02649000  0.83122000  1.0
  H  H25  1  0.44303000  0.16880000  0.97351000  1.0
  H  H26  1  0.94303000  0.97352000  0.16881000  1.0
  H  H27  1  0.55697000  0.83121000  0.02649000  1.0
  H  H28  1  0.89190000  0.09972000  0.10975000  1.0
  H  H29  1  0.60810000  0.89024000  0.90030000  1.0
  H  H30  1  0.10812000  0.90029000  0.89027000  1.0
  H  H31  1  0.39189000  0.10976000  0.09970000  1.0
  H  H32  1  0.84556000  0.26228000  0.03657000  1.0
  H  H33  1  0.65444000  0.96341000  0.73772000  1.0
  H  H34  1  0.15443000  0.73771000  0.96343000  1.0
  H  H35  1  0.34554000  0.03659000  0.26228000  1.0
  C  C36  1  0.22008000  0.84019000  0.50194000  1.0
  C  C37  1  0.27992000  0.49808000  0.15984000  1.0
  C  C38  1  0.77991000  0.15981000  0.49806000  1.0
  C  C39  1  0.72008000  0.50192000  0.84016000  1.0
  C  C40  1  0.15872000  0.77135000  0.57305000  1.0
  C  C41  1  0.34126000  0.42696000  0.22867000  1.0
  C  C42  1  0.84128000  0.22865000  0.42695000  1.0
  C  C43  1  0.65873000  0.57304000  0.77133000  1.0
  C  C44  1  0.02448000  0.68292000  0.52071000  1.0
  C  C45  1  0.47551000  0.47929000  0.31708000  1.0
  C  C46  1  0.97552000  0.31708000  0.47929000  1.0
  C  C47  1  0.52449000  0.52071000  0.68291000  1.0
  C  C48  1  0.97460000  0.61098000  0.58367000  1.0
  C  C49  1  0.52538000  0.41633000  0.38901000  1.0
  C  C50  1  0.02540000  0.38902000  0.41633000  1.0
  C  C51  1  0.47462000  0.58367000  0.61098000  1.0
  C  C52  1  0.05874000  0.62382000  0.69911000  1.0
  C  C53  1  0.44125000  0.30089000  0.37617000  1.0
  C  C54  1  0.94126000  0.37619000  0.30090000  1.0
  C  C55  1  0.55876000  0.69911000  0.62382000  1.0
  C  C56  1  0.19293000  0.71247000  0.75151000  1.0
  C  C57  1  0.30705000  0.24849000  0.28753000  1.0
  C  C58  1  0.80707000  0.28753000  0.24849000  1.0
  C  C59  1  0.69295000  0.75151000  0.71247000  1.0
  C  C60  1  0.24131000  0.78645000  0.68950000  1.0
  C  C61  1  0.25866000  0.31051000  0.21356000  1.0
  C  C62  1  0.75869000  0.21354000  0.31049000  1.0
  C  C63  1  0.74134000  0.68949000  0.78644000  1.0
  C  C64  1  0.00433000  0.54087000  0.76257000  1.0
  C  C65  1  0.49565000  0.23742000  0.45911000  1.0
  C  C66  1  0.99566000  0.45912000  0.23742000  1.0
  C  C67  1  0.50434000  0.76258000  0.54088000  1.0
  C  C68  1  0.98242000  0.16663000  0.84545000  1.0
  C  C69  1  0.51760000  0.15455000  0.83337000  1.0
  C  C70  1  0.01759000  0.83337000  0.15456000  1.0
  C  C71  1  0.48239000  0.84546000  0.16663000  1.0
  C  C72  1  0.01103000  0.07531000  0.88133000  1.0
  C  C73  1  0.48899000  0.11868000  0.92469000  1.0
  C  C74  1  0.98900000  0.92469000  0.11869000  1.0
  C  C75  1  0.51101000  0.88133000  0.07532000  1.0
  C  C76  1  0.98253000  0.04649000  0.97903000  1.0
  C  C77  1  0.51749000  0.02099000  0.95352000  1.0
  C  C78  1  0.01750000  0.95352000  0.02101000  1.0
  C  C79  1  0.48250000  0.97902000  0.04648000  1.0
  C  C80  1  0.91888000  0.11440000  0.03423000  1.0
  C  C81  1  0.58113000  0.96577000  0.88560000  1.0
  C  C82  1  0.08114000  0.88561000  0.96579000  1.0
  C  C83  1  0.41885000  0.03423000  0.11439000  1.0
  C  C84  1  0.88974000  0.20404000  0.99570000  1.0
  C  C85  1  0.61027000  0.00428000  0.79596000  1.0
  C  C86  1  0.11027000  0.79597000  0.00431000  1.0
  C  C87  1  0.38973000  0.99572000  0.20404000  1.0
  N  N88  1  0.92309000  0.23028000  0.90357000  1.0
  N  N89  1  0.57693000  0.09642000  0.76971000  1.0
  N  N90  1  0.07692000  0.76971000  0.09644000  1.0
  N  N91  1  0.42306000  0.90358000  0.23029000  1.0
  O  O92  1  0.33178000  0.93149000  0.55628000  1.0
  O  O93  1  0.16823000  0.44373000  0.06851000  1.0
  O  O94  1  0.66823000  0.06850000  0.44372000  1.0
  O  O95  1  0.83176000  0.55626000  0.93148000  1.0
  O  O96  1  0.15958000  0.79900000  0.38877000  1.0
  O  O97  1  0.34042000  0.61125000  0.20099000  1.0
  O  O98  1  0.84041000  0.20099000  0.61124000  1.0
  O  O99  1  0.65957000  0.38875000  0.79899000  1.0
  O  O100  1  0.88491000  0.45965000  0.70356000  1.0
  O  O101  1  0.61509000  0.29641000  0.54033000  1.0
  O  O102  1  0.11509000  0.54035000  0.29644000  1.0
  O  O103  1  0.38491000  0.70358000  0.45966000  1.0
  O  O104  1  0.07867000  0.55738000  0.86976000  1.0
  O  O105  1  0.42133000  0.13024000  0.44261000  1.0
  O  O106  1  0.92133000  0.44262000  0.13024000  1.0
  O  O107  1  0.57867000  0.86976000  0.55737000  1.0
  O  O108  1  0.89797000  0.32066000  0.87100000  1.0
  O  O109  1  0.60204000  0.12899000  0.67932000  1.0
  O  O110  1  0.10202000  0.67933000  0.12900000  1.0
  O  O111  1  0.39795000  0.87102000  0.32067000  1.0
