# generated using pymatgen
data_AgH10C17N4O2F5
_symmetry_space_group_name_H-M   'P 1'
_cell_length_a   5.33651000
_cell_length_b   10.46680000
_cell_length_c   15.58330000
_cell_angle_alpha   74.23650000
_cell_angle_beta   86.01240000
_cell_angle_gamma   84.73170000
_symmetry_Int_Tables_number   1
_chemical_formula_structural   AgH10C17N4O2F5
_chemical_formula_sum   'Ag2 H20 C34 N8 O4 F10'
_cell_volume   833.24573770
_cell_formula_units_Z   2
loop_
 _symmetry_equiv_pos_site_id
 _symmetry_equiv_pos_as_xyz
  1  'x, y, z'
loop_
 _atom_site_type_symbol
 _atom_site_label
 _atom_site_symmetry_multiplicity
 _atom_site_fract_x
 _atom_site_fract_y
 _atom_site_fract_z
 _atom_site_occupancy
  Ag  Ag0  1  0.18060000  0.03799000  0.39074000  1.0
  Ag  Ag1  1  0.81942000  0.96200000  0.60927000  1.0
  H  H2  1  0.65046000  0.84412000  0.44244000  1.0
  H  H3  1  0.34958000  0.15585000  0.55755000  1.0
  H  H4  1  0.40190000  0.50962000  0.65237000  1.0
  H  H5  1  0.59810000  0.49037000  0.34763000  1.0
  H  H6  1  0.04097000  0.66792000  0.67971000  1.0
  H  H7  1  0.95905000  0.33209000  0.32029000  1.0
  H  H8  1  0.76569000  0.42580000  0.64534000  1.0
  H  H9  1  0.23433000  0.57418000  0.35467000  1.0
  H  H10  1  0.86717000  0.71162000  0.38927000  1.0
  H  H11  1  0.13287000  0.28837000  0.61075000  1.0
  H  H12  1  0.69010000  0.01050000  0.27493000  1.0
  H  H13  1  0.30991000  0.98952000  0.72507000  1.0
  H  H14  1  0.96718000  0.14450000  0.15800000  1.0
  H  H15  1  0.03282000  0.85552000  0.84200000  1.0
  H  H16  1  0.38194000  0.46513000  0.14145000  1.0
  H  H17  1  0.61801000  0.53486000  0.85854000  1.0
  H  H18  1  0.08523000  0.25575000  0.02563000  1.0
  H  H19  1  0.91477000  0.74426000  0.97436000  1.0
  H  H20  1  0.66832000  0.59471000  0.08941000  1.0
  H  H21  1  0.33167000  0.40530000  0.91058000  1.0
  C  C22  1  0.52241000  0.79570000  0.49627000  1.0
  C  C23  1  0.47763000  0.20429000  0.50373000  1.0
  C  C24  1  0.56843000  0.66113000  0.54393000  1.0
  C  C25  1  0.43161000  0.33886000  0.45608000  1.0
  C  C26  1  0.38940000  0.61259000  0.61194000  1.0
  C  C27  1  0.61063000  0.38740000  0.38807000  1.0
  C  C28  1  0.18582000  0.69849000  0.62671000  1.0
  C  C29  1  0.81420000  0.30151000  0.37329000  1.0
  C  C30  1  0.86690000  0.45824000  0.58116000  1.0
  C  C31  1  0.13311000  0.54174000  0.41885000  1.0
  C  C32  1  0.78885000  0.57975000  0.52110000  1.0
  C  C33  1  0.21118000  0.42024000  0.47890000  1.0
  C  C34  1  0.92601000  0.62056000  0.43902000  1.0
  C  C35  1  0.07401000  0.37943000  0.56098000  1.0
  C  C36  1  0.63435000  0.11450000  0.24313000  1.0
  C  C37  1  0.36567000  0.88551000  0.75688000  1.0
  C  C38  1  0.78737000  0.19047000  0.17605000  1.0
  C  C39  1  0.21262000  0.80955000  0.82395000  1.0
  C  C40  1  0.70607000  0.32264000  0.13664000  1.0
  C  C41  1  0.29391000  0.67737000  0.86335000  1.0
  C  C42  1  0.46797000  0.36512000  0.16918000  1.0
  C  C43  1  0.53201000  0.63488000  0.83081000  1.0
  C  C44  1  0.04761000  0.36271000  0.01564000  1.0
  C  C45  1  0.95237000  0.63730000  0.98435000  1.0
  C  C46  1  0.85511000  0.41278000  0.06680000  1.0
  C  C47  1  0.14485000  0.58722000  0.93319000  1.0
  C  C48  1  0.81103000  0.55190000  0.04982000  1.0
  C  C49  1  0.18895000  0.44810000  0.95016000  1.0
  C  C50  1  0.27961000  0.83513000  0.27260000  1.0
  C  C51  1  0.72045000  0.16484000  0.72741000  1.0
  C  C52  1  0.25264000  0.77677000  0.19105000  1.0
  C  C53  1  0.74733000  0.22323000  0.80895000  1.0
  C  C54  1  0.32868000  0.87450000  0.10078000  1.0
  C  C55  1  0.67125000  0.12553000  0.89923000  1.0
  N  N56  1  0.31768000  0.87208000  0.51023000  1.0
  N  N57  1  0.68236000  0.12791000  0.48977000  1.0
  N  N58  1  0.14924000  0.82436000  0.57668000  1.0
  N  N59  1  0.85079000  0.17563000  0.42332000  1.0
  N  N60  1  0.41538000  0.16425000  0.27303000  1.0
  N  N61  1  0.58462000  0.83575000  0.72697000  1.0
  N  N62  1  0.33043000  0.29023000  0.23522000  1.0
  N  N63  1  0.66956000  0.70977000  0.76478000  1.0
  O  O64  1  0.09385000  0.91321000  0.28532000  1.0
  O  O65  1  0.90620000  0.08677000  0.71471000  1.0
  O  O66  1  0.48017000  0.80008000  0.31191000  1.0
  O  O67  1  0.51989000  0.19990000  0.68807000  1.0
  F  F68  1  0.01248000  0.74359000  0.18538000  1.0
  F  F69  1  0.98748000  0.25643000  0.81463000  1.0
  F  F70  1  0.40880000  0.66100000  0.19825000  1.0
  F  F71  1  0.59115000  0.33900000  0.80172000  1.0
  F  F72  1  0.55746000  0.91847000  0.10461000  1.0
  F  F73  1  0.44256000  0.08148000  0.89539000  1.0
  F  F74  1  0.15839000  0.98148000  0.08018000  1.0
  F  F75  1  0.84160000  0.01859000  0.91988000  1.0
  F  F76  1  0.34184000  0.81503000  0.03269000  1.0
  F  F77  1  0.65795000  0.18504000  0.96731000  1.0
