# generated using pymatgen
data_Al2H20C33N4O11
_symmetry_space_group_name_H-M   'P 1'
_cell_length_a   6.63570000
_cell_length_b   21.90860000
_cell_length_c   24.58850000
_cell_angle_alpha   70.85540000
_cell_angle_beta   89.98200000
_cell_angle_gamma   89.98990000
_symmetry_Int_Tables_number   1
_chemical_formula_structural   Al2H20C33N4O11
_chemical_formula_sum   'Al4 H40 C66 N8 O22'
_cell_volume   3376.94898694
_cell_formula_units_Z   2
loop_
 _symmetry_equiv_pos_site_id
 _symmetry_equiv_pos_as_xyz
  1  'x, y, z'
loop_
 _atom_site_type_symbol
 _atom_site_label
 _atom_site_symmetry_multiplicity
 _atom_site_fract_x
 _atom_site_fract_y
 _atom_site_fract_z
 _atom_site_occupancy
  Al  Al0  1  0.85617000  0.50018000  0.50094000  1.0
  Al  Al1  1  0.35615000  0.49982000  0.49907000  1.0
  Al  Al2  1  0.35243000  0.99946000  0.00152000  1.0
  Al  Al3  1  0.85250000  0.00059000  0.99850000  1.0
  H  H4  1  0.18516000  0.21612000  0.95022000  1.0
  H  H5  1  0.68316000  0.78380000  0.04974000  1.0
  H  H6  1  0.22842000  0.39963000  0.78189000  1.0
  H  H7  1  0.72821000  0.60033000  0.21810000  1.0
  H  H8  1  0.21428000  0.32711000  0.87988000  1.0
  H  H9  1  0.71345000  0.67287000  0.12009000  1.0
  H  H10  1  0.04718000  0.14222000  0.81296000  1.0
  H  H11  1  0.54839000  0.85781000  0.18718000  1.0
  H  H12  1  0.05081000  0.29140000  0.55755000  1.0
  H  H13  1  0.55097000  0.70859000  0.44249000  1.0
  H  H14  1  0.04142000  0.15786000  0.72993000  1.0
  H  H15  1  0.54177000  0.84213000  0.27012000  1.0
  H  H16  1  0.02048000  0.17882000  0.62576000  1.0
  H  H17  1  0.52071000  0.82118000  0.37429000  1.0
  H  H18  1  0.42629000  0.87721000  0.90743000  1.0
  H  H19  1  0.92671000  0.12312000  0.09238000  1.0
  H  H20  1  0.43070000  0.80796000  0.84358000  1.0
  H  H21  1  0.93072000  0.19231000  0.15628000  1.0
  H  H22  1  0.79066000  0.83456000  0.81841000  1.0
  H  H23  1  0.29079000  0.16528000  0.18165000  1.0
  H  H24  1  0.78810000  0.90354000  0.88243000  1.0
  H  H25  1  0.28880000  0.09621000  0.11770000  1.0
  H  H26  1  0.41975000  0.70159000  0.65047000  1.0
  H  H27  1  0.91981000  0.29836000  0.34949000  1.0
  H  H28  1  0.41844000  0.63901000  0.58131000  1.0
  H  H29  1  0.91862000  0.36094000  0.41865000  1.0
  H  H30  1  0.79492000  0.59169000  0.61934000  1.0
  H  H31  1  0.29514000  0.40841000  0.38068000  1.0
  H  H32  1  0.79586000  0.65282000  0.68984000  1.0
  H  H33  1  0.29600000  0.34729000  0.31017000  1.0
  H  H34  1  0.47405000  0.44601000  0.70791000  1.0
  H  H35  1  0.26787000  0.49861000  0.71020000  1.0
  H  H36  1  0.39647000  0.50899000  0.64360000  1.0
  H  H37  1  0.97419000  0.55394000  0.29201000  1.0
  H  H38  1  0.76802000  0.50134000  0.28977000  1.0
  H  H39  1  0.89666000  0.49096000  0.35634000  1.0
  H  H40  1  0.60376000  0.45280000  0.57089000  1.0
  H  H41  1  0.10384000  0.54716000  0.42911000  1.0
  H  H42  1  0.59673000  0.04806000  0.92862000  1.0
  H  H43  1  0.09628000  0.95182000  0.07132000  1.0
  C  C44  1  0.60699000  0.42981000  0.44101000  1.0
  C  C45  1  0.10681000  0.57020000  0.55898000  1.0
  C  C46  1  0.60927000  0.60145000  0.42120000  1.0
  C  C47  1  0.10917000  0.39855000  0.57882000  1.0
  C  C48  1  0.17954000  0.28638000  0.86519000  1.0
  C  C49  1  0.67883000  0.71360000  0.13480000  1.0
  C  C50  1  0.11423000  0.17307000  0.88470000  1.0
  C  C51  1  0.61373000  0.82691000  0.11535000  1.0
  C  C52  1  0.06494000  0.28184000  0.60379000  1.0
  C  C53  1  0.56513000  0.71815000  0.39623000  1.0
  C  C54  1  0.04610000  0.21871000  0.64223000  1.0
  C  C55  1  0.54640000  0.78128000  0.35781000  1.0
  C  C56  1  0.05816000  0.20722000  0.70089000  1.0
  C  C57  1  0.55853000  0.79276000  0.29916000  1.0
  C  C58  1  0.09393000  0.25767000  0.72359000  1.0
  C  C59  1  0.59436000  0.74231000  0.27646000  1.0
  C  C60  1  0.12049000  0.32185000  0.68424000  1.0
  C  C61  1  0.62084000  0.67813000  0.31579000  1.0
  C  C62  1  0.11017000  0.24538000  0.78530000  1.0
  C  C63  1  0.61053000  0.75461000  0.21474000  1.0
  C  C64  1  0.15746000  0.29778000  0.80543000  1.0
  C  C65  1  0.65738000  0.70220000  0.19459000  1.0
  C  C66  1  0.18854000  0.36082000  0.76531000  1.0
  C  C67  1  0.68854000  0.63915000  0.23470000  1.0
  C  C68  1  0.17219000  0.37263000  0.70727000  1.0
  C  C69  1  0.67235000  0.62733000  0.29274000  1.0
  C  C70  1  0.08530000  0.18343000  0.82649000  1.0
  C  C71  1  0.58589000  0.81659000  0.17359000  1.0
  C  C72  1  0.16250000  0.22495000  0.90436000  1.0
  C  C73  1  0.66121000  0.77502000  0.09564000  1.0
  C  C74  1  0.10180000  0.33289000  0.62418000  1.0
  C  C75  1  0.60203000  0.66709000  0.37585000  1.0
  C  C76  1  0.28865000  0.86760000  0.88743000  1.0
  C  C77  1  0.78904000  0.13264000  0.11244000  1.0
  C  C78  1  0.29117000  0.82944000  0.85207000  1.0
  C  C79  1  0.79129000  0.17076000  0.14783000  1.0
  C  C80  1  0.11115000  0.81748000  0.82706000  1.0
  C  C81  1  0.61115000  0.18257000  0.17290000  1.0
  C  C82  1  0.92891000  0.84402000  0.83821000  1.0
  C  C83  1  0.42914000  0.15591000  0.16180000  1.0
  C  C84  1  0.92731000  0.88210000  0.87363000  1.0
  C  C85  1  0.42787000  0.11778000  0.12642000  1.0
  C  C86  1  0.10699000  0.89424000  0.89833000  1.0
  C  C87  1  0.60765000  0.10580000  0.10163000  1.0
  C  C88  1  0.11115000  0.71373000  0.71772000  1.0
  C  C89  1  0.61112000  0.28629000  0.28227000  1.0
  C  C90  1  0.11264000  0.77747000  0.78948000  1.0
  C  C91  1  0.61254000  0.22256000  0.21050000  1.0
  C  C92  1  0.28369000  0.67735000  0.64344000  1.0
  C  C93  1  0.78379000  0.32262000  0.35653000  1.0
  C  C94  1  0.28271000  0.64285000  0.60500000  1.0
  C  C95  1  0.78286000  0.35714000  0.39497000  1.0
  C  C96  1  0.10666000  0.61159000  0.59672000  1.0
  C  C97  1  0.60687000  0.38844000  0.40327000  1.0
  C  C98  1  0.93010000  0.61630000  0.62648000  1.0
  C  C99  1  0.43031000  0.38375000  0.37353000  1.0
  C  C100  1  0.93058000  0.65014000  0.66539000  1.0
  C  C101  1  0.43071000  0.34992000  0.33461000  1.0
  C  C102  1  0.10821000  0.68046000  0.67464000  1.0
  C  C103  1  0.60828000  0.31956000  0.32534000  1.0
  C  C104  1  0.60385000  0.89368000  0.07281000  1.0
  C  C105  1  0.10503000  0.10631000  0.92724000  1.0
  C  C106  1  0.60603000  0.06399000  0.06430000  1.0
  C  C107  1  0.10456000  0.93601000  0.93571000  1.0
  C  C108  1  0.34504000  0.47358000  0.68393000  1.0
  C  C109  1  0.84522000  0.52637000  0.31602000  1.0
  N  N110  1  0.93565000  0.75124000  0.78052000  1.0
  N  N111  1  0.43552000  0.24873000  0.21955000  1.0
  N  N112  1  0.93485000  0.71962000  0.74337000  1.0
  N  N113  1  0.43474000  0.28033000  0.25672000  1.0
  N  N114  1  0.29170000  0.73297000  0.73221000  1.0
  N  N115  1  0.79168000  0.26708000  0.26771000  1.0
  N  N116  1  0.29189000  0.76621000  0.76811000  1.0
  N  N117  1  0.79183000  0.23384000  0.23181000  1.0
  O  O118  1  0.43878000  0.57564000  0.43816000  1.0
  O  O119  1  0.93873000  0.42436000  0.56187000  1.0
  O  O120  1  0.77801000  0.44543000  0.45613000  1.0
  O  O121  1  0.27789000  0.55456000  0.54387000  1.0
  O  O122  1  0.77843000  0.57881000  0.44247000  1.0
  O  O123  1  0.27837000  0.42116000  0.55755000  1.0
  O  O124  1  0.93546000  0.55242000  0.54666000  1.0
  O  O125  1  0.43560000  0.44760000  0.45334000  1.0
  O  O126  1  0.60461000  0.48995000  0.53588000  1.0
  O  O127  1  0.10469000  0.51004000  0.46413000  1.0
  O  O128  1  0.77627000  0.04965000  0.04785000  1.0
  O  O129  1  0.27456000  0.95202000  0.95090000  1.0
  O  O130  1  0.43157000  0.91916000  0.05814000  1.0
  O  O131  1  0.93345000  0.07984000  0.94075000  1.0
  O  O132  1  0.43444000  0.04535000  0.05266000  1.0
  O  O133  1  0.93229000  0.95297000  0.94859000  1.0
  O  O134  1  0.27327000  0.08081000  0.94710000  1.0
  O  O135  1  0.77203000  0.92013000  0.05414000  1.0
  O  O136  1  0.60053000  0.01221000  0.96451000  1.0
  O  O137  1  0.10050000  0.98780000  0.03553000  1.0
  O  O138  1  0.21099000  0.43142000  0.66741000  1.0
  O  O139  1  0.71117000  0.56853000  0.33259000  1.0
