# generated using pymatgen
data_HgH9C10NCl2O
_symmetry_space_group_name_H-M   'P 1'
_cell_length_a   3.91142000
_cell_length_b   10.71980000
_cell_length_c   26.10600000
_cell_angle_alpha   90.00040000
_cell_angle_beta   90.00060000
_cell_angle_gamma   88.93890000
_symmetry_Int_Tables_number   1
_chemical_formula_structural   HgH9C10NCl2O
_chemical_formula_sum   'Hg4 H36 C40 N4 Cl8 O4'
_cell_volume   1094.42747521
_cell_formula_units_Z   4
loop_
 _symmetry_equiv_pos_site_id
 _symmetry_equiv_pos_as_xyz
  1  'x, y, z'
loop_
 _atom_site_type_symbol
 _atom_site_label
 _atom_site_symmetry_multiplicity
 _atom_site_fract_x
 _atom_site_fract_y
 _atom_site_fract_z
 _atom_site_occupancy
  Hg  Hg0  1  0.77926000  0.67255000  0.96953000  1.0
  Hg  Hg1  1  0.22075000  0.82745000  0.46953000  1.0
  Hg  Hg2  1  0.22074000  0.32745000  0.03047000  1.0
  Hg  Hg3  1  0.77923000  0.17255000  0.53047000  1.0
  H  H4  1  0.14429000  0.09277000  0.80718000  1.0
  H  H5  1  0.85565000  0.40724000  0.30718000  1.0
  H  H6  1  0.85569000  0.90723000  0.19282000  1.0
  H  H7  1  0.14439000  0.59276000  0.69282000  1.0
  H  H8  1  0.52376000  0.65067000  0.86407000  1.0
  H  H9  1  0.47624000  0.84933000  0.36407000  1.0
  H  H10  1  0.47623000  0.34933000  0.13593000  1.0
  H  H11  1  0.52375000  0.15067000  0.63593000  1.0
  H  H12  1  0.05819000  0.94982000  0.96056000  1.0
  H  H13  1  0.94182000  0.55020000  0.46056000  1.0
  H  H14  1  0.94181000  0.05019000  0.03944000  1.0
  H  H15  1  0.05818000  0.44980000  0.53944000  1.0
  H  H16  1  0.90770000  0.96433000  0.73563000  1.0
  H  H17  1  0.09228000  0.53567000  0.23563000  1.0
  H  H18  1  0.09227000  0.03566000  0.26437000  1.0
  H  H19  1  0.90775000  0.46433000  0.76437000  1.0
  H  H20  1  0.40708000  0.61991000  0.77144000  1.0
  H  H21  1  0.59293000  0.88009000  0.27144000  1.0
  H  H22  1  0.59292000  0.38008000  0.22857000  1.0
  H  H23  1  0.40706000  0.11992000  0.72856000  1.0
  H  H24  1  0.24266000  0.11732000  0.90130000  1.0
  H  H25  1  0.75729000  0.38270000  0.40130000  1.0
  H  H26  1  0.75734000  0.88268000  0.09870000  1.0
  H  H27  1  0.24272000  0.61730000  0.59870000  1.0
  H  H28  1  0.63143000  0.80075000  0.62240000  1.0
  H  H29  1  0.36858000  0.69924000  0.12240000  1.0
  H  H30  1  0.36856000  0.19924000  0.37760000  1.0
  H  H31  1  0.63142000  0.30076000  0.87760000  1.0
  H  H32  1  0.98915000  0.84322000  0.66110000  1.0
  H  H33  1  0.01085000  0.65677000  0.16110000  1.0
  H  H34  1  0.01083000  0.15677000  0.33890000  1.0
  H  H35  1  0.98915000  0.34323000  0.83890000  1.0
  H  H36  1  0.60251000  0.93620000  0.66240000  1.0
  H  H37  1  0.39750000  0.56379000  0.16240000  1.0
  H  H38  1  0.39748000  0.06379000  0.33760000  1.0
  H  H39  1  0.60251000  0.43621000  0.83760000  1.0
  C  C40  1  0.05870000  0.02219000  0.83405000  1.0
  C  C41  1  0.94127000  0.47781000  0.33405000  1.0
  C  C42  1  0.94128000  0.97781000  0.16595000  1.0
  C  C43  1  0.05877000  0.52219000  0.66595000  1.0
  C  C44  1  0.78741000  0.82463000  0.85294000  1.0
  C  C45  1  0.21259000  0.67537000  0.35294000  1.0
  C  C46  1  0.21258000  0.17537000  0.14706000  1.0
  C  C47  1  0.78743000  0.32463000  0.64706000  1.0
  C  C48  1  0.61162000  0.71793000  0.83584000  1.0
  C  C49  1  0.38839000  0.78207000  0.33584000  1.0
  C  C50  1  0.38837000  0.28207000  0.16416000  1.0
  C  C51  1  0.61163000  0.21793000  0.66416000  1.0
  C  C52  1  0.65405000  0.78935000  0.74772000  1.0
  C  C53  1  0.34595000  0.71065000  0.24772000  1.0
  C  C54  1  0.34595000  0.21065000  0.25228000  1.0
  C  C55  1  0.65407000  0.28936000  0.75228000  1.0
  C  C56  1  0.00784000  0.94236000  0.91960000  1.0
  C  C57  1  0.99214000  0.55764000  0.41960000  1.0
  C  C58  1  0.99215000  0.05764000  0.08040000  1.0
  C  C59  1  0.00787000  0.44236000  0.58040000  1.0
  C  C60  1  0.82382000  0.89509000  0.76319000  1.0
  C  C61  1  0.17619000  0.60491000  0.26319000  1.0
  C  C62  1  0.17618000  0.10490000  0.23681000  1.0
  C  C63  1  0.82385000  0.39509000  0.73681000  1.0
  C  C64  1  0.54571000  0.70107000  0.78467000  1.0
  C  C65  1  0.45429000  0.79894000  0.28467000  1.0
  C  C66  1  0.45428000  0.29893000  0.21533000  1.0
  C  C67  1  0.54572000  0.20107000  0.71533000  1.0
  C  C68  1  0.89069000  0.91505000  0.81590000  1.0
  C  C69  1  0.10931000  0.58496000  0.31590000  1.0
  C  C70  1  0.10930000  0.08495000  0.18410000  1.0
  C  C71  1  0.89072000  0.41504000  0.68410000  1.0
  C  C72  1  0.11357000  0.03651000  0.88578000  1.0
  C  C73  1  0.88642000  0.46350000  0.38578000  1.0
  C  C74  1  0.88643000  0.96349000  0.11422000  1.0
  C  C75  1  0.11361000  0.53650000  0.61422000  1.0
  C  C76  1  0.70880000  0.84085000  0.65905000  1.0
  C  C77  1  0.29120000  0.65914000  0.15905000  1.0
  C  C78  1  0.29119000  0.15914000  0.34095000  1.0
  C  C79  1  0.70881000  0.34086000  0.84095000  1.0
  N  N80  1  0.85305000  0.84001000  0.90395000  1.0
  N  N81  1  0.14696000  0.65999000  0.40395000  1.0
  N  N82  1  0.14695000  0.15999000  0.09605000  1.0
  N  N83  1  0.85306000  0.34001000  0.59605000  1.0
  Cl  Cl84  1  0.15932000  0.51899000  0.93101000  1.0
  Cl  Cl85  1  0.84067000  0.98101000  0.43101000  1.0
  Cl  Cl86  1  0.84066000  0.48101000  0.06899000  1.0
  Cl  Cl87  1  0.15932000  0.01899000  0.56899000  1.0
  Cl  Cl88  1  0.37397000  0.78151000  0.02387000  1.0
  Cl  Cl89  1  0.62604000  0.71849000  0.52387000  1.0
  Cl  Cl90  1  0.62602000  0.21849000  0.97613000  1.0
  Cl  Cl91  1  0.37395000  0.28151000  0.47613000  1.0
  O  O92  1  0.57612000  0.76094000  0.69826000  1.0
  O  O93  1  0.42388000  0.73906000  0.19826000  1.0
  O  O94  1  0.42386000  0.23905000  0.30174000  1.0
  O  O95  1  0.57612000  0.26095000  0.80174000  1.0
