# generated using pymatgen
data_ZnH16C12N2O9
_symmetry_space_group_name_H-M   'P 1'
_cell_length_a   4.92792000
_cell_length_b   4.92793000
_cell_length_c   29.70110000
_cell_angle_alpha   89.99910000
_cell_angle_beta   89.99910000
_cell_angle_gamma   88.33970000
_symmetry_Int_Tables_number   1
_chemical_formula_structural   ZnH16C12N2O9
_chemical_formula_sum   'Zn2 H32 C24 N4 O18'
_cell_volume   720.97191485
_cell_formula_units_Z   2
loop_
 _symmetry_equiv_pos_site_id
 _symmetry_equiv_pos_as_xyz
  1  'x, y, z'
loop_
 _atom_site_type_symbol
 _atom_site_label
 _atom_site_symmetry_multiplicity
 _atom_site_fract_x
 _atom_site_fract_y
 _atom_site_fract_z
 _atom_site_occupancy
  Zn  Zn0  1  0.23854000  0.76146000  0.25000000  1.0
  Zn  Zn1  1  0.76146000  0.23854000  0.75000000  1.0
  H  H2  1  0.80071000  0.59199000  0.19990000  1.0
  H  H3  1  0.19930000  0.40800000  0.69990000  1.0
  H  H4  1  0.40801000  0.19928000  0.30010000  1.0
  H  H5  1  0.59198000  0.80070000  0.80010000  1.0
  H  H6  1  0.09034000  0.43095000  0.18351000  1.0
  H  H7  1  0.90968000  0.56905000  0.68351000  1.0
  H  H8  1  0.56905000  0.90966000  0.31649000  1.0
  H  H9  1  0.43093000  0.09032000  0.81649000  1.0
  H  H10  1  0.77068000  0.03388000  0.26461000  1.0
  H  H11  1  0.22932000  0.96611000  0.76461000  1.0
  H  H12  1  0.96612000  0.22932000  0.23539000  1.0
  H  H13  1  0.03388000  0.77067000  0.73539000  1.0
  H  H14  1  0.93174000  0.92409000  0.15097000  1.0
  H  H15  1  0.06825000  0.07589000  0.65097000  1.0
  H  H16  1  0.07592000  0.06826000  0.34903000  1.0
  H  H17  1  0.92406000  0.93174000  0.84903000  1.0
  H  H18  1  0.69004000  0.74071000  0.11972000  1.0
  H  H19  1  0.30997000  0.25929000  0.61972000  1.0
  H  H20  1  0.25930000  0.30997000  0.38028000  1.0
  H  H21  1  0.74068000  0.69003000  0.88028000  1.0
  H  H22  1  0.92642000  0.60161000  0.06158000  1.0
  H  H23  1  0.07360000  0.39841000  0.56158000  1.0
  H  H24  1  0.39841000  0.07360000  0.43842000  1.0
  H  H25  1  0.60155000  0.92642000  0.93842000  1.0
  H  H26  1  0.93490000  0.93494000  0.00000000  1.0
  H  H27  1  0.06508000  0.06509000  0.50000000  1.0
  H  H28  1  0.23518000  0.23516000  0.00000000  1.0
  H  H29  1  0.76484000  0.76482000  0.50000000  1.0
  H  H30  1  0.93304000  0.19112000  0.09051000  1.0
  H  H31  1  0.06698000  0.80889000  0.59051000  1.0
  H  H32  1  0.80889000  0.06699000  0.40949000  1.0
  H  H33  1  0.19109000  0.93301000  0.90949000  1.0
  C  C34  1  0.51971000  0.97752000  0.17258000  1.0
  C  C35  1  0.48029000  0.02248000  0.67258000  1.0
  C  C36  1  0.02250000  0.48028000  0.32742000  1.0
  C  C37  1  0.97749000  0.51971000  0.82742000  1.0
  C  C38  1  0.73024000  0.93885000  0.13520000  1.0
  C  C39  1  0.26976000  0.06115000  0.63520000  1.0
  C  C40  1  0.06116000  0.26977000  0.36480000  1.0
  C  C41  1  0.93883000  0.73023000  0.86481000  1.0
  C  C42  1  0.52758000  0.20263000  0.07360000  1.0
  C  C43  1  0.47243000  0.79736000  0.57360000  1.0
  C  C44  1  0.79738000  0.47245000  0.42640000  1.0
  C  C45  1  0.20262000  0.52756000  0.92640000  1.0
  C  C46  1  0.57016000  0.39973000  0.03600000  1.0
  C  C47  1  0.42986000  0.60029000  0.53601000  1.0
  C  C48  1  0.60027000  0.42987000  0.46400000  1.0
  C  C49  1  0.39970000  0.57014000  0.96399000  1.0
  C  C50  1  0.77403000  0.59268000  0.03503000  1.0
  C  C51  1  0.22596000  0.40733000  0.53504000  1.0
  C  C52  1  0.40733000  0.22598000  0.46496000  1.0
  C  C53  1  0.59267000  0.77406000  0.96496000  1.0
  C  C54  1  0.78088000  0.78089000  1.00000000  1.0
  C  C55  1  0.21911000  0.21912000  0.50000000  1.0
  C  C56  1  0.38882000  0.38879000  0.00000000  1.0
  C  C57  1  0.61120000  0.61120000  0.50000000  1.0
  N  N58  1  0.74064000  0.15012000  0.10147000  1.0
  N  N59  1  0.25938000  0.84988000  0.60147000  1.0
  N  N60  1  0.84990000  0.25938000  0.39853000  1.0
  N  N61  1  0.15009000  0.74062000  0.89853000  1.0
  O  O62  1  0.51270000  0.76594000  0.19926000  1.0
  O  O63  1  0.48730000  0.23407000  0.69926000  1.0
  O  O64  1  0.23407000  0.48730000  0.30074000  1.0
  O  O65  1  0.76591000  0.51270000  0.80074000  1.0
  O  O66  1  0.37522000  0.18576000  0.17653000  1.0
  O  O67  1  0.62479000  0.81425000  0.67654000  1.0
  O  O68  1  0.81424000  0.62478000  0.32346000  1.0
  O  O69  1  0.18574000  0.37521000  0.82347000  1.0
  O  O70  1  0.30399000  0.09273000  0.07858000  1.0
  O  O71  1  0.69602000  0.90727000  0.57858000  1.0
  O  O72  1  0.90729000  0.69602000  0.42142000  1.0
  O  O73  1  0.09272000  0.30398000  0.92142000  1.0
  O  O74  1  0.98440000  0.51053000  0.20856000  1.0
  O  O75  1  0.01563000  0.48945000  0.70856000  1.0
  O  O76  1  0.48948000  0.01560000  0.29144000  1.0
  O  O77  1  0.51053000  0.98439000  0.79144000  1.0
  O  O78  1  0.95234000  0.04767000  0.25000000  1.0
  O  O79  1  0.04766000  0.95232000  0.75000000  1.0
