# generated using pymatgen
data_FeH8PtC14(N3F)2
_symmetry_space_group_name_H-M   'P 1'
_cell_length_a   7.00111000
_cell_length_b   7.17070000
_cell_length_c   8.38661000
_cell_angle_alpha   64.75700000
_cell_angle_beta   82.92640000
_cell_angle_gamma   89.99620000
_symmetry_Int_Tables_number   1
_chemical_formula_structural   FeH8PtC14(N3F)2
_chemical_formula_sum   'Fe1 H8 Pt1 C14 N6 F2'
_cell_volume   377.28204669
_cell_formula_units_Z   1
loop_
 _symmetry_equiv_pos_site_id
 _symmetry_equiv_pos_as_xyz
  1  'x, y, z'
loop_
 _atom_site_type_symbol
 _atom_site_label
 _atom_site_symmetry_multiplicity
 _atom_site_fract_x
 _atom_site_fract_y
 _atom_site_fract_z
 _atom_site_occupancy
  Fe  Fe0  1  0.00000000  0.00000000  0.00000000  1.0
  H  H1  1  0.30439000  0.88353000  0.23360000  1.0
  H  H2  1  0.69561000  0.11647000  0.76640000  1.0
  H  H3  1  0.01435000  0.61351000  0.77304000  1.0
  H  H4  1  0.98565000  0.38649000  0.22696000  1.0
  H  H5  1  0.69860000  0.67714000  0.64586000  1.0
  H  H6  1  0.30140000  0.32286000  0.35413000  1.0
  H  H7  1  0.70451000  0.84226000  0.31582000  1.0
  H  H8  1  0.29549000  0.15775000  0.68418000  1.0
  Pt  Pt9  1  0.50000000  0.50000000  0.00000000  1.0
  C  C10  1  0.17209000  0.83677000  0.32699000  1.0
  C  C11  1  0.82791000  0.16323000  0.67301000  1.0
  C  C12  1  0.17643000  0.74568000  0.50914000  1.0
  C  C13  1  0.82357000  0.25431000  0.49087000  1.0
  C  C14  1  0.00920000  0.68495000  0.63035000  1.0
  C  C15  1  0.99080000  0.31505000  0.36965000  1.0
  C  C16  1  0.83597000  0.72076000  0.55862000  1.0
  C  C17  1  0.16403000  0.27924000  0.44138000  1.0
  C  C18  1  0.83732000  0.81254000  0.37518000  1.0
  C  C19  1  0.16268000  0.18747000  0.62482000  1.0
  C  C20  1  0.30609000  0.70488000  0.98174000  1.0
  C  C21  1  0.69453000  0.68613000  0.01819000  1.0
  C  C22  1  0.69392000  0.29511000  0.01827000  1.0
  C  C23  1  0.30547000  0.31387000  0.98181000  1.0
  N  N24  1  0.00296000  0.86984000  0.26059000  1.0
  N  N25  1  0.99704000  0.13015000  0.73941000  1.0
  N  N26  1  0.19053000  0.82398000  0.97881000  1.0
  N  N27  1  0.81009000  0.80239000  0.02098000  1.0
  N  N28  1  0.80946000  0.17603000  0.02119000  1.0
  N  N29  1  0.18992000  0.19761000  0.97902000  1.0
  F  F30  1  0.35238000  0.71717000  0.56658000  1.0
  F  F31  1  0.64762000  0.28283000  0.43341000  1.0
