# generated using pymatgen
data_VAg2H3C5N2O5
_symmetry_space_group_name_H-M   'P 1'
_cell_length_a   3.57489000
_cell_length_b   11.96720000
_cell_length_c   19.00000000
_cell_angle_alpha   89.12190000
_cell_angle_beta   88.44370000
_cell_angle_gamma   86.58550000
_symmetry_Int_Tables_number   1
_chemical_formula_structural   VAg2H3C5N2O5
_chemical_formula_sum   'V4 Ag8 H12 C20 N8 O20'
_cell_volume   811.02822808
_cell_formula_units_Z   4
loop_
 _symmetry_equiv_pos_site_id
 _symmetry_equiv_pos_as_xyz
  1  'x, y, z'
loop_
 _atom_site_type_symbol
 _atom_site_label
 _atom_site_symmetry_multiplicity
 _atom_site_fract_x
 _atom_site_fract_y
 _atom_site_fract_z
 _atom_site_occupancy
  V  V0  1  0.24511000  0.07161000  0.94804000  1.0
  V  V1  1  0.75489000  0.92839000  0.05196000  1.0
  V  V2  1  0.76715000  0.43943000  0.44375000  1.0
  V  V3  1  0.23285000  0.56058000  0.55624000  1.0
  Ag  Ag4  1  0.17928000  0.14334000  0.48460000  1.0
  Ag  Ag5  1  0.82073000  0.85666000  0.51540000  1.0
  Ag  Ag6  1  0.81751000  0.27046000  0.85769000  1.0
  Ag  Ag7  1  0.18247000  0.72954000  0.14231000  1.0
  Ag  Ag8  1  0.39137000  0.66194000  0.00003000  1.0
  Ag  Ag9  1  0.60863000  0.33807000  0.99997000  1.0
  Ag  Ag10  1  0.61730000  0.74359000  0.64787000  1.0
  Ag  Ag11  1  0.38268000  0.25641000  0.35213000  1.0
  H  H12  1  0.11488000  0.06360000  0.76368000  1.0
  H  H13  1  0.88514000  0.93641000  0.23632000  1.0
  H  H14  1  0.60900000  0.37412000  0.70888000  1.0
  H  H15  1  0.39099000  0.62588000  0.29112000  1.0
  H  H16  1  0.73998000  0.33371000  0.58133000  1.0
  H  H17  1  0.26002000  0.66627000  0.41867000  1.0
  H  H18  1  0.06174000  0.55265000  0.73837000  1.0
  H  H19  1  0.93826000  0.44735000  0.26162000  1.0
  H  H20  1  0.91738000  0.85409000  0.90758000  1.0
  H  H21  1  0.08262000  0.14591000  0.09242000  1.0
  H  H22  1  0.68267000  0.88027000  0.78468000  1.0
  H  H23  1  0.31733000  0.11973000  0.21531000  1.0
  C  C24  1  0.31420000  0.99281000  0.63112000  1.0
  C  C25  1  0.68582000  0.00718000  0.36889000  1.0
  C  C26  1  0.10879000  0.10188000  0.65147000  1.0
  C  C27  1  0.89121000  0.89812000  0.34853000  1.0
  C  C28  1  0.03080000  0.12385000  0.72260000  1.0
  C  C29  1  0.96922000  0.87615000  0.27741000  1.0
  C  C30  1  0.75420000  0.29587000  0.69265000  1.0
  C  C31  1  0.24580000  0.70413000  0.30735000  1.0
  C  C32  1  0.82855000  0.27324000  0.62175000  1.0
  C  C33  1  0.17145000  0.72675000  0.37825000  1.0
  C  C34  1  0.35908000  0.49593000  0.86653000  1.0
  C  C35  1  0.64092000  0.50407000  0.13347000  1.0
  C  C36  1  0.02662000  0.61983000  0.77662000  1.0
  C  C37  1  0.97337000  0.38016000  0.22338000  1.0
  C  C38  1  0.16116000  0.60567000  0.84480000  1.0
  C  C39  1  0.83882000  0.39433000  0.15520000  1.0
  C  C40  1  0.95009000  0.78620000  0.87015000  1.0
  C  C41  1  0.04992000  0.21380000  0.12985000  1.0
  C  C42  1  0.82009000  0.80131000  0.80193000  1.0
  C  C43  1  0.17991000  0.19869000  0.19806000  1.0
  N  N44  1  0.00674000  0.17721000  0.60100000  1.0
  N  N45  1  0.99326000  0.82278000  0.39900000  1.0
  N  N46  1  0.85520000  0.22081000  0.74297000  1.0
  N  N47  1  0.14480000  0.77919000  0.25704000  1.0
  N  N48  1  0.85686000  0.71759000  0.75532000  1.0
  N  N49  1  0.14313000  0.28241000  0.24468000  1.0
  N  N50  1  0.12195000  0.68951000  0.89160000  1.0
  N  N51  1  0.87805000  0.31049000  0.10839000  1.0
  O  O52  1  0.32941000  0.96894000  0.56577000  1.0
  O  O53  1  0.67060000  0.03105000  0.43424000  1.0
  O  O54  1  0.45797000  0.93497000  0.68049000  1.0
  O  O55  1  0.54206000  0.06503000  0.31951000  1.0
  O  O56  1  0.53081000  0.49421000  0.92418000  1.0
  O  O57  1  0.46918000  0.50579000  0.07582000  1.0
  O  O58  1  0.34488000  0.41565000  0.82420000  1.0
  O  O59  1  0.65511000  0.58434000  0.17580000  1.0
  O  O60  1  0.22863000  0.21615000  0.94382000  1.0
  O  O61  1  0.77136000  0.78386000  0.05618000  1.0
  O  O62  1  0.27415000  0.02188000  0.86878000  1.0
  O  O63  1  0.72584000  0.97812000  0.13122000  1.0
  O  O64  1  0.74337000  0.05694000  0.98107000  1.0
  O  O65  1  0.25662000  0.94307000  0.01893000  1.0
  O  O66  1  0.80897000  0.29666000  0.43049000  1.0
  O  O67  1  0.19104000  0.70334000  0.56951000  1.0
  O  O68  1  0.26321000  0.44731000  0.47761000  1.0
  O  O69  1  0.73678000  0.55270000  0.52238000  1.0
  O  O70  1  0.76826000  0.50348000  0.36755000  1.0
  O  O71  1  0.23175000  0.49652000  0.63245000  1.0
