# generated using pymatgen
data_LaH10C11NO7
_symmetry_space_group_name_H-M   'P 1'
_cell_length_a   7.84986000
_cell_length_b   8.18327000
_cell_length_c   10.15670000
_cell_angle_alpha   82.03070000
_cell_angle_beta   84.29420000
_cell_angle_gamma   70.64590000
_symmetry_Int_Tables_number   1
_chemical_formula_structural   LaH10C11NO7
_chemical_formula_sum   'La2 H20 C22 N2 O14'
_cell_volume   608.62678064
_cell_formula_units_Z   2
loop_
 _symmetry_equiv_pos_site_id
 _symmetry_equiv_pos_as_xyz
  1  'x, y, z'
loop_
 _atom_site_type_symbol
 _atom_site_label
 _atom_site_symmetry_multiplicity
 _atom_site_fract_x
 _atom_site_fract_y
 _atom_site_fract_z
 _atom_site_occupancy
  La  La0  1  0.22916000  0.08984000  0.53545000  1.0
  La  La1  1  0.77085000  0.91016000  0.46455000  1.0
  H  H2  1  0.86504000  0.08300000  0.84704000  1.0
  H  H3  1  0.13496000  0.91700000  0.15296000  1.0
  H  H4  1  0.91023000  0.18525000  0.05109000  1.0
  H  H5  1  0.08977000  0.81475000  0.94891000  1.0
  H  H6  1  0.33129000  0.34027000  0.14683000  1.0
  H  H7  1  0.66871000  0.65973000  0.85317000  1.0
  H  H8  1  0.29234000  0.23652000  0.94008000  1.0
  H  H9  1  0.70766000  0.76348000  0.05992000  1.0
  H  H10  1  0.37802000  0.53633000  0.24094000  1.0
  H  H11  1  0.62198000  0.46367000  0.75906000  1.0
  H  H12  1  0.53174000  0.54192000  0.35366000  1.0
  H  H13  1  0.46826000  0.45808000  0.64634000  1.0
  H  H14  1  0.78698000  0.51715000  0.27352000  1.0
  H  H15  1  0.21302000  0.48285000  0.72648000  1.0
  H  H16  1  0.87997000  0.41899000  0.12851000  1.0
  H  H17  1  0.12003000  0.58101000  0.87149000  1.0
  H  H18  1  0.85644000  0.39355000  0.58643000  1.0
  H  H19  1  0.14356000  0.60645000  0.41357000  1.0
  H  H20  1  0.83643000  0.20893000  0.64308000  1.0
  H  H21  1  0.16357000  0.79107000  0.35692000  1.0
  C  C22  1  0.57359000  0.16311000  0.87405000  1.0
  C  C23  1  0.42641000  0.83688000  0.12595000  1.0
  C  C24  1  0.74766000  0.14396000  0.91097000  1.0
  C  C25  1  0.25234000  0.85604000  0.08903000  1.0
  C  C26  1  0.77295000  0.20309000  0.02651000  1.0
  C  C27  1  0.22705000  0.79691000  0.97349000  1.0
  C  C28  1  0.62267000  0.28749000  0.11004000  1.0
  C  C29  1  0.37733000  0.71251000  0.88996000  1.0
  C  C30  1  0.44928000  0.28948000  0.08033000  1.0
  C  C31  1  0.55072000  0.71052000  0.91967000  1.0
  C  C32  1  0.42679000  0.23006000  0.96418000  1.0
  C  C33  1  0.57321000  0.76994000  0.03581000  1.0
  C  C34  1  0.54412000  0.12558000  0.74179000  1.0
  C  C35  1  0.45588000  0.87442000  0.25821000  1.0
  C  C36  1  0.49280000  0.45381000  0.29965000  1.0
  C  C37  1  0.50720000  0.54619000  0.70035000  1.0
  C  C38  1  0.42127000  0.33685000  0.40375000  1.0
  C  C39  1  0.57873000  0.66314000  0.59625000  1.0
  C  C40  1  0.81417000  0.39659000  0.22707000  1.0
  C  C41  1  0.18583000  0.60341000  0.77293000  1.0
  C  C42  1  0.95253000  0.25568000  0.31141000  1.0
  C  C43  1  0.04747000  0.74433000  0.68859000  1.0
  N  N44  1  0.64512000  0.36779000  0.21443000  1.0
  N  N45  1  0.35488000  0.63221000  0.78557000  1.0
  O  O46  1  0.67967000  0.09325000  0.65484000  1.0
  O  O47  1  0.32033000  0.90675000  0.34516000  1.0
  O  O48  1  0.38508000  0.13468000  0.71547000  1.0
  O  O49  1  0.61492000  0.86532000  0.28453000  1.0
  O  O50  1  0.28556000  0.40787000  0.47934000  1.0
  O  O51  1  0.71444000  0.59213000  0.52066000  1.0
  O  O52  1  0.49413000  0.17126000  0.41070000  1.0
  O  O53  1  0.50588000  0.82874000  0.58930000  1.0
  O  O54  1  0.91677000  0.12004000  0.36850000  1.0
  O  O55  1  0.08323000  0.87996000  0.63149000  1.0
  O  O56  1  0.09734000  0.28449000  0.32574000  1.0
  O  O57  1  0.90266000  0.71552000  0.67426000  1.0
  O  O58  1  0.92587000  0.27326000  0.62506000  1.0
  O  O59  1  0.07413000  0.72674000  0.37495000  1.0
