# generated using pymatgen
data_ErH10C16N5O8
_symmetry_space_group_name_H-M   'P 1'
_cell_length_a   9.43790000
_cell_length_b   10.10880000
_cell_length_c   11.61200000
_cell_angle_alpha   67.20600000
_cell_angle_beta   66.02040000
_cell_angle_gamma   62.17040000
_symmetry_Int_Tables_number   1
_chemical_formula_structural   ErH10C16N5O8
_chemical_formula_sum   'Er2 H20 C32 N10 O16'
_cell_volume   867.95417225
_cell_formula_units_Z   2
loop_
 _symmetry_equiv_pos_site_id
 _symmetry_equiv_pos_as_xyz
  1  'x, y, z'
loop_
 _atom_site_type_symbol
 _atom_site_label
 _atom_site_symmetry_multiplicity
 _atom_site_fract_x
 _atom_site_fract_y
 _atom_site_fract_z
 _atom_site_occupancy
  Er  Er0  1  0.65992000  0.24999000  0.74999000  1.0
  Er  Er1  1  0.34009000  0.75001000  0.25001000  1.0
  H  H2  1  0.15620000  0.58712000  0.95175000  1.0
  H  H3  1  0.69493000  0.91289000  0.54828000  1.0
  H  H4  1  0.84381000  0.41288000  0.04825000  1.0
  H  H5  1  0.30507000  0.08711000  0.45173000  1.0
  H  H6  1  0.87596000  0.62631000  0.93794000  1.0
  H  H7  1  0.43998000  0.87373000  0.56220000  1.0
  H  H8  1  0.12405000  0.37369000  0.06207000  1.0
  H  H9  1  0.56002000  0.12627000  0.43781000  1.0
  H  H10  1  0.22799000  0.81360000  0.89250000  1.0
  H  H11  1  0.93401000  0.68636000  0.60739000  1.0
  H  H12  1  0.77201000  0.18640000  0.10750000  1.0
  H  H13  1  0.06599000  0.31364000  0.39261000  1.0
  H  H14  1  0.68899000  0.89477000  0.85919000  1.0
  H  H15  1  0.44276000  0.60523000  0.64087000  1.0
  H  H16  1  0.31101000  0.10522000  0.14081000  1.0
  H  H17  1  0.55723000  0.39476000  0.35913000  1.0
  H  H18  1  0.27615000  0.00803000  0.84092000  1.0
  H  H19  1  0.12487000  0.49223000  0.65896000  1.0
  H  H20  1  0.72385000  0.99197000  0.15909000  1.0
  H  H21  1  0.87513000  0.50777000  0.34104000  1.0
  C  C22  1  0.06721000  0.70130000  0.92066000  1.0
  C  C23  1  0.68899000  0.79872000  0.57934000  1.0
  C  C24  1  0.93280000  0.29870000  0.07934000  1.0
  C  C25  1  0.31101000  0.20128000  0.42065000  1.0
  C  C26  1  0.21573000  0.25016000  0.74994000  1.0
  C  C27  1  0.78427000  0.74984000  0.25006000  1.0
  C  C28  1  0.91480000  0.72238000  0.91199000  1.0
  C  C29  1  0.54896000  0.77764000  0.58809000  1.0
  C  C30  1  0.08520000  0.27762000  0.08801000  1.0
  C  C31  1  0.45104000  0.22236000  0.41191000  1.0
  C  C32  1  0.10953000  0.82933000  0.88510000  1.0
  C  C33  1  0.82384000  0.67065000  0.61481000  1.0
  C  C34  1  0.89047000  0.17067000  0.11489000  1.0
  C  C35  1  0.17616000  0.32934000  0.38518000  1.0
  C  C36  1  0.80986000  0.87167000  0.86766000  1.0
  C  C37  1  0.54899000  0.62835000  0.63237000  1.0
  C  C38  1  0.19014000  0.12833000  0.13234000  1.0
  C  C39  1  0.45101000  0.37164000  0.36763000  1.0
  C  C40  1  0.18491000  0.11361000  0.80018000  1.0
  C  C41  1  0.09853000  0.38662000  0.69971000  1.0
  C  C42  1  0.81509000  0.88639000  0.19983000  1.0
  C  C43  1  0.90147000  0.61338000  0.30029000  1.0
  C  C44  1  0.03724000  0.11674000  0.79588000  1.0
  C  C45  1  0.94975000  0.38332000  0.70405000  1.0
  C  C46  1  0.96276000  0.88326000  0.20412000  1.0
  C  C47  1  0.05025000  0.61668000  0.29595000  1.0
  C  C48  1  0.99869000  0.97571000  0.84035000  1.0
  C  C49  1  0.81461000  0.52429000  0.65959000  1.0
  C  C50  1  0.00131000  0.02429000  0.15965000  1.0
  C  C51  1  0.18539000  0.47571000  0.34041000  1.0
  C  C52  1  0.37438000  0.25020000  0.74995000  1.0
  C  C53  1  0.62562000  0.74980000  0.25005000  1.0
  N  N54  1  0.92197000  0.25001000  0.74997000  1.0
  N  N55  1  0.07803000  0.74999000  0.25003000  1.0
  N  N56  1  0.85063000  0.99529000  0.83210000  1.0
  N  N57  1  0.67786000  0.50472000  0.66788000  1.0
  N  N58  1  0.14937000  0.00471000  0.16790000  1.0
  N  N59  1  0.32214000  0.49528000  0.33212000  1.0
  N  N60  1  0.48036000  0.33945000  0.99027000  1.0
  N  N61  1  0.81012000  0.16049000  0.50970000  1.0
  N  N62  1  0.51963000  0.66055000  0.00973000  1.0
  N  N63  1  0.18988000  0.83951000  0.49029000  1.0
  O  O64  1  0.42475000  0.41018000  0.88985000  1.0
  O  O65  1  0.72477000  0.08978000  0.61010000  1.0
  O  O66  1  0.57525000  0.58982000  0.11014000  1.0
  O  O67  1  0.27523000  0.91023000  0.38990000  1.0
  O  O68  1  0.40203000  0.37477000  0.09520000  1.0
  O  O69  1  0.87202000  0.12522000  0.40476000  1.0
  O  O70  1  0.59796000  0.62524000  0.90480000  1.0
  O  O71  1  0.12798000  0.87478000  0.59524000  1.0
  O  O72  1  0.62335000  0.22775000  0.97413000  1.0
  O  O73  1  0.82533000  0.27213000  0.52587000  1.0
  O  O74  1  0.37665000  0.77225000  0.02587000  1.0
  O  O75  1  0.17467000  0.72787000  0.47413000  1.0
  O  O76  1  0.45198000  0.14367000  0.83161000  1.0
  O  O77  1  0.42716000  0.35668000  0.66831000  1.0
  O  O78  1  0.54802000  0.85633000  0.16839000  1.0
  O  O79  1  0.57284000  0.64332000  0.33169000  1.0
