# generated using pymatgen
data_AlH6C15(NO4)3
_symmetry_space_group_name_H-M   'P 1'
_cell_length_a   4.15322000
_cell_length_b   17.21290000
_cell_length_c   17.21270000
_cell_angle_alpha   60.00115308
_cell_angle_beta   89.99870000
_cell_angle_gamma   89.99920002
_symmetry_Int_Tables_number   1
_chemical_formula_structural   AlH6C15(NO4)3
_chemical_formula_sum   'Al2 H12 C30 N6 O24'
_cell_volume   1065.67225653
_cell_formula_units_Z   2
loop_
 _symmetry_equiv_pos_site_id
 _symmetry_equiv_pos_as_xyz
  1  'x, y, z'
loop_
 _atom_site_type_symbol
 _atom_site_label
 _atom_site_symmetry_multiplicity
 _atom_site_fract_x
 _atom_site_fract_y
 _atom_site_fract_z
 _atom_site_occupancy
  Al  Al0  1  0.06421000  0.50000000  0.00000000  1.0
  Al  Al1  1  0.93581000  0.16667000  0.66666000  1.0
  H  H2  1  0.70773000  0.46237000  0.41907000  1.0
  H  H3  1  0.28171000  0.46571000  0.41663000  1.0
  H  H4  1  0.29282000  0.54816000  0.24691000  1.0
  H  H5  1  0.71879000  0.54912000  0.24931000  1.0
  H  H6  1  0.70773000  0.11856000  0.96238000  1.0
  H  H7  1  0.28170000  0.11766000  0.96571000  1.0
  H  H8  1  0.29280000  0.20494000  0.04815000  1.0
  H  H9  1  0.71876000  0.20157000  0.04911000  1.0
  H  H10  1  0.70772000  0.91906000  0.61857000  1.0
  H  H11  1  0.28169000  0.91663000  0.61766000  1.0
  H  H12  1  0.29280000  0.74691000  0.70493000  1.0
  H  H13  1  0.71877000  0.74931000  0.70157000  1.0
  C  C14  1  0.55544000  0.63588000  0.93386000  1.0
  C  C15  1  0.55545000  0.43026000  0.13589000  1.0
  C  C16  1  0.55548000  0.43386000  0.93026000  1.0
  C  C17  1  0.44456000  0.23307000  0.53078000  1.0
  C  C18  1  0.44454000  0.23615000  0.73307000  1.0
  C  C19  1  0.44455000  0.03078000  0.73614000  1.0
  C  C20  1  0.47592000  0.27594000  0.43073000  1.0
  C  C21  1  0.52415000  0.37304000  0.23598000  1.0
  C  C22  1  0.49213000  0.36928000  0.37993000  1.0
  C  C23  1  0.51098000  0.27870000  0.28627000  1.0
  C  C24  1  0.50833000  0.41585000  0.28651000  1.0
  C  C25  1  0.48870000  0.23164000  0.38066000  1.0
  C  C26  1  0.49470000  0.45420000  0.38603000  1.0
  C  C27  1  0.50588000  0.50703000  0.28004000  1.0
  C  C28  1  0.47594000  0.29332000  0.77595000  1.0
  C  C29  1  0.52416000  0.39098000  0.87305000  1.0
  C  C30  1  0.49212000  0.25079000  0.86928000  1.0
  C  C31  1  0.51106000  0.43503000  0.77871000  1.0
  C  C32  1  0.50836000  0.29764000  0.91585000  1.0
  C  C33  1  0.48871000  0.38769000  0.73165000  1.0
  C  C34  1  0.49470000  0.15977000  0.95420000  1.0
  C  C35  1  0.50586000  0.21293000  0.00703000  1.0
  C  C36  1  0.47588000  0.93073000  0.79332000  1.0
  C  C37  1  0.52414000  0.73597000  0.89099000  1.0
  C  C38  1  0.49212000  0.87993000  0.75079000  1.0
  C  C39  1  0.51099000  0.78627000  0.93503000  1.0
  C  C40  1  0.50834000  0.78651000  0.79764000  1.0
  C  C41  1  0.48873000  0.88066000  0.88770000  1.0
  C  C42  1  0.49468000  0.88603000  0.65976000  1.0
  C  C43  1  0.50586000  0.78004000  0.71293000  1.0
  N  N44  1  0.48340000  0.22663000  0.23890000  1.0
  N  N45  1  0.51606000  0.13212000  0.42827000  1.0
  N  N46  1  0.48350000  0.53448000  0.72663000  1.0
  N  N47  1  0.51608000  0.43961000  0.63212000  1.0
  N  N48  1  0.48341000  0.73889000  0.03448000  1.0
  N  N49  1  0.51609000  0.92826000  0.93961000  1.0
  O  O50  1  0.33304000  0.41596000  0.98779000  1.0
  O  O51  1  0.33302000  0.59624000  0.91596000  1.0
  O  O52  1  0.33300000  0.48780000  0.09624000  1.0
  O  O53  1  0.80798000  0.47859000  0.92117000  1.0
  O  O54  1  0.80794000  0.42118000  0.10024000  1.0
  O  O55  1  0.80794000  0.60024000  0.97858000  1.0
  O  O56  1  0.19200000  0.06638000  0.74524000  1.0
  O  O57  1  0.19201000  0.18838000  0.56638000  1.0
  O  O58  1  0.19199000  0.24524000  0.68838000  1.0
  O  O59  1  0.66709000  0.07049000  0.67865000  1.0
  O  O60  1  0.66707000  0.17865000  0.75086000  1.0
  O  O61  1  0.66709000  0.25086000  0.57049000  1.0
  O  O62  1  0.67086000  0.24495000  0.17648000  1.0
  O  O63  1  0.26510000  0.17047000  0.26445000  1.0
  O  O64  1  0.32843000  0.08810000  0.49065000  1.0
  O  O65  1  0.73447000  0.10140000  0.40285000  1.0
  O  O66  1  0.67101000  0.57858000  0.74494000  1.0
  O  O67  1  0.26522000  0.56507000  0.67048000  1.0
  O  O68  1  0.32842000  0.42127000  0.58808000  1.0
  O  O69  1  0.73449000  0.49574000  0.60141000  1.0
  O  O70  1  0.67086000  0.67648000  0.07857000  1.0
  O  O71  1  0.26509000  0.76445000  0.06508000  1.0
  O  O72  1  0.32851000  0.99065000  0.92124000  1.0
  O  O73  1  0.73449000  0.90285000  0.99575000  1.0
