# generated using pymatgen
data_FeH3C7O5
_symmetry_space_group_name_H-M   'P 1'
_cell_length_a   10.52750000
_cell_length_b   14.91660000
_cell_length_c   14.91609534
_cell_angle_alpha   60.01664362
_cell_angle_beta   89.98739810
_cell_angle_gamma   89.99370000
_symmetry_Int_Tables_number   1
_chemical_formula_structural   FeH3C7O5
_chemical_formula_sum   'Fe9 H27 C63 O45'
_cell_volume   2028.86746560
_cell_formula_units_Z   9
loop_
 _symmetry_equiv_pos_site_id
 _symmetry_equiv_pos_as_xyz
  1  'x, y, z'
loop_
 _atom_site_type_symbol
 _atom_site_label
 _atom_site_symmetry_multiplicity
 _atom_site_fract_x
 _atom_site_fract_y
 _atom_site_fract_z
 _atom_site_occupancy
  Fe  Fe0  1  0.32777000  0.27939000  0.36093000  1.0
  Fe  Fe1  1  0.66106000  0.36096000  0.35959000  1.0
  Fe  Fe2  1  0.99467000  0.35969000  0.27926000  1.0
  Fe  Fe3  1  0.34467000  0.01899000  0.95848000  1.0
  Fe  Fe4  1  0.67790000  0.95846000  0.02255000  1.0
  Fe  Fe5  1  0.01145000  0.02230000  0.01907000  1.0
  Fe  Fe6  1  0.78865000  0.64077000  0.67955000  1.0
  Fe  Fe7  1  0.12210000  0.67936000  0.67996000  1.0
  Fe  Fe8  1  0.45536000  0.67975000  0.64068000  1.0
  H  H9  1  0.90498000  0.21258000  0.63692000  1.0
  H  H10  1  0.23778000  0.63696000  0.15076000  1.0
  H  H11  1  0.57168000  0.15021000  0.21296000  1.0
  H  H12  1  0.29924000  0.14281000  0.61016000  1.0
  H  H13  1  0.63204000  0.61023000  0.24721000  1.0
  H  H14  1  0.96566000  0.24729000  0.14224000  1.0
  H  H15  1  0.83652000  0.13355000  0.83184000  1.0
  H  H16  1  0.16964000  0.83184000  0.03452000  1.0
  H  H17  1  0.50316000  0.03438000  0.13376000  1.0
  H  H18  1  0.37655000  0.30574000  0.78023000  1.0
  H  H19  1  0.70958000  0.78020000  0.91396000  1.0
  H  H20  1  0.04277000  0.91403000  0.30618000  1.0
  H  H21  1  0.77650000  0.27978000  0.86093000  1.0
  H  H22  1  0.10958000  0.86081000  0.85971000  1.0
  H  H23  1  0.44287000  0.86003000  0.27972000  1.0
  H  H24  1  0.30383000  0.50296000  0.69440000  1.0
  H  H25  1  0.63711000  0.69459000  0.80230000  1.0
  H  H26  1  0.97035000  0.80209000  0.50347000  1.0
  H  H27  1  0.74417000  0.53599000  0.53659000  1.0
  H  H28  1  0.07766000  0.53651000  0.92722000  1.0
  H  H29  1  0.41026000  0.92732000  0.53600000  1.0
  H  H30  1  0.13803000  0.56157000  0.43959000  1.0
  H  H31  1  0.47153000  0.43978000  0.99846000  1.0
  H  H32  1  0.80415000  0.99863000  0.56140000  1.0
  H  H33  1  0.17960000  0.47467000  0.32392000  1.0
  H  H34  1  0.51311000  0.32424000  0.20111000  1.0
  H  H35  1  0.84585000  0.20106000  0.47461000  1.0
  C  C36  1  0.10029000  0.23897000  0.49950000  1.0
  C  C37  1  0.43334000  0.49958000  0.26171000  1.0
  C  C38  1  0.76720000  0.26138000  0.23902000  1.0
  C  C39  1  0.10160000  0.18246000  0.61355000  1.0
  C  C40  1  0.43447000  0.61362000  0.20419000  1.0
  C  C41  1  0.76820000  0.20398000  0.18234000  1.0
  C  C42  1  0.99603000  0.17959000  0.67336000  1.0
  C  C43  1  0.32889000  0.67336000  0.14724000  1.0
  C  C44  1  0.66264000  0.14686000  0.17978000  1.0
  C  C45  1  0.01427000  0.13992000  0.77917000  1.0
  C  C46  1  0.34725000  0.77914000  0.08098000  1.0
  C  C47  1  0.68088000  0.08078000  0.14001000  1.0
  C  C48  1  0.13457000  0.10415000  0.82262000  1.0
  C  C49  1  0.46761000  0.82257000  0.07320000  1.0
  C  C50  1  0.80117000  0.07310000  0.10416000  1.0
  C  C51  1  0.23713000  0.09913000  0.76393000  1.0
  C  C52  1  0.57015000  0.76396000  0.13693000  1.0
  C  C53  1  0.90369000  0.13691000  0.09894000  1.0
  C  C54  1  0.22028000  0.14115000  0.65790000  1.0
  C  C55  1  0.55316000  0.65799000  0.20108000  1.0
  C  C56  1  0.88676000  0.20110000  0.14074000  1.0
  C  C57  1  0.55796000  0.17053000  0.88983000  1.0
  C  C58  1  0.89109000  0.88978000  0.93967000  1.0
  C  C59  1  0.22438000  0.93975000  0.17072000  1.0
  C  C60  1  0.57563000  0.28332000  0.82433000  1.0
  C  C61  1  0.90873000  0.82424000  0.89245000  1.0
  C  C62  1  0.24197000  0.89273000  0.28350000  1.0
  C  C63  1  0.46748000  0.34342000  0.77320000  1.0
  C  C64  1  0.80058000  0.77321000  0.88331000  1.0
  C  C65  1  0.13383000  0.88348000  0.34376000  1.0
  C  C66  1  0.48052000  0.45003000  0.71443000  1.0
  C  C67  1  0.81377000  0.71453000  0.83538000  1.0
  C  C68  1  0.14697000  0.83547000  0.45038000  1.0
  C  C69  1  0.59828000  0.49477000  0.71043000  1.0
  C  C70  1  0.93165000  0.71046000  0.79480000  1.0
  C  C71  1  0.26486000  0.79490000  0.49498000  1.0
  C  C72  1  0.70701000  0.43557000  0.76237000  1.0
  C  C73  1  0.04040000  0.76225000  0.80231000  1.0
  C  C74  1  0.37352000  0.80242000  0.43561000  1.0
  C  C75  1  0.69535000  0.32746000  0.81849000  1.0
  C  C76  1  0.02856000  0.81835000  0.85431000  1.0
  C  C77  1  0.36176000  0.85459000  0.32753000  1.0
  C  C78  1  0.97026000  0.60888000  0.55113000  1.0
  C  C79  1  0.30380000  0.55099000  0.83986000  1.0
  C  C80  1  0.63649000  0.83994000  0.60900000  1.0
  C  C81  1  0.94361000  0.55460000  0.49269000  1.0
  C  C82  1  0.27714000  0.49279000  0.95252000  1.0
  C  C83  1  0.60974000  0.95258000  0.55451000  1.0
  C  C84  1  0.81751000  0.52321000  0.49284000  1.0
  C  C85  1  0.15104000  0.49298000  0.98377000  1.0
  C  C86  1  0.48365000  0.98384000  0.52308000  1.0
  C  C87  1  0.78683000  0.47254000  0.43807000  1.0
  C  C88  1  0.12032000  0.43836000  0.08917000  1.0
  C  C89  1  0.45306000  0.08928000  0.47230000  1.0
  C  C90  1  0.88157000  0.46451000  0.37513000  1.0
  C  C91  1  0.21518000  0.37559000  0.16008000  1.0
  C  C92  1  0.54784000  0.16022000  0.46422000  1.0
  C  C93  1  0.00744000  0.49508000  0.37601000  1.0
  C  C94  1  0.34104000  0.37642000  0.12866000  1.0
  C  C95  1  0.67367000  0.12875000  0.49475000  1.0
  C  C96  1  0.04074000  0.53810000  0.43688000  1.0
  C  C97  1  0.37430000  0.43714000  0.02476000  1.0
  C  C98  1  0.70689000  0.02485000  0.53786000  1.0
  O  O99  1  0.20610000  0.28208000  0.45755000  1.0
  O  O100  1  0.53920000  0.45769000  0.26053000  1.0
  O  O101  1  0.87315000  0.26024000  0.28192000  1.0
  O  O102  1  0.00185000  0.24777000  0.44528000  1.0
  O  O103  1  0.33499000  0.44527000  0.30725000  1.0
  O  O104  1  0.66883000  0.30684000  0.24798000  1.0
  O  O105  1  0.92589000  0.13489000  0.85019000  1.0
  O  O106  1  0.25903000  0.85015000  0.01486000  1.0
  O  O107  1  0.59256000  0.01476000  0.13502000  1.0
  O  O108  1  0.15843000  0.07007000  0.92283000  1.0
  O  O109  1  0.49156000  0.92277000  0.00700000  1.0
  O  O110  1  0.82507000  0.00685000  0.07022000  1.0
  O  O111  1  0.34312000  0.05576000  0.81516000  1.0
  O  O112  1  0.67622000  0.81514000  0.12897000  1.0
  O  O113  1  0.00975000  0.12893000  0.05569000  1.0
  O  O114  1  0.65066000  0.10892000  0.90441000  1.0
  O  O115  1  0.98380000  0.90429000  0.98673000  1.0
  O  O116  1  0.31704000  0.98676000  0.10907000  1.0
  O  O117  1  0.44834000  0.13975000  0.93160000  1.0
  O  O118  1  0.78155000  0.93170000  0.92857000  1.0
  O  O119  1  0.11490000  0.92844000  0.13996000  1.0
  O  O120  1  0.38579000  0.52055000  0.65743000  1.0
  O  O121  1  0.71906000  0.65758000  0.82169000  1.0
  O  O122  1  0.05220000  0.82167000  0.52103000  1.0
  O  O123  1  0.61247000  0.59783000  0.66170000  1.0
  O  O124  1  0.94587000  0.66169000  0.74048000  1.0
  O  O125  1  0.27911000  0.74049000  0.59801000  1.0
  O  O126  1  0.80949000  0.49005000  0.75592000  1.0
  O  O127  1  0.14301000  0.75560000  0.75450000  1.0
  O  O128  1  0.47612000  0.75447000  0.48996000  1.0
  O  O129  1  0.07589000  0.60148000  0.59543000  1.0
  O  O130  1  0.40945000  0.59524000  0.80293000  1.0
  O  O131  1  0.74214000  0.80304000  0.60156000  1.0
  O  O132  1  0.87867000  0.66694000  0.55282000  1.0
  O  O133  1  0.21221000  0.55261000  0.78016000  1.0
  O  O134  1  0.54505000  0.78018000  0.66725000  1.0
  O  O135  1  0.67537000  0.42967000  0.43992000  1.0
  O  O136  1  0.00880000  0.44002000  0.13021000  1.0
  O  O137  1  0.34159000  0.13033000  0.42946000  1.0
  O  O138  1  0.84733000  0.42099000  0.31893000  1.0
  O  O139  1  0.18085000  0.31933000  0.25977000  1.0
  O  O140  1  0.51364000  0.25991000  0.42087000  1.0
  O  O141  1  0.08560000  0.47788000  0.31161000  1.0
  O  O142  1  0.41915000  0.31196000  0.21025000  1.0
  O  O143  1  0.75191000  0.21029000  0.47765000  1.0
