# generated using pymatgen
data_CeH14(C11O4)2
_symmetry_space_group_name_H-M   'P 1'
_cell_length_a   8.64535000
_cell_length_b   14.27710000
_cell_length_c   14.88876788
_cell_angle_alpha   114.18386408
_cell_angle_beta   106.78128038
_cell_angle_gamma   90.17480000
_symmetry_Int_Tables_number   1
_chemical_formula_structural   CeH14(C11O4)2
_chemical_formula_sum   'Ce2 H28 C44 O16'
_cell_volume   1589.48531243
_cell_formula_units_Z   2
loop_
 _symmetry_equiv_pos_site_id
 _symmetry_equiv_pos_as_xyz
  1  'x, y, z'
loop_
 _atom_site_type_symbol
 _atom_site_label
 _atom_site_symmetry_multiplicity
 _atom_site_fract_x
 _atom_site_fract_y
 _atom_site_fract_z
 _atom_site_occupancy
  Ce  Ce0  1  0.50264000  0.00527000  0.54709000  1.0
  Ce  Ce1  1  0.95542000  0.99397000  0.45269000  1.0
  H  H2  1  0.46353000  0.80264000  0.67064000  1.0
  H  H3  1  0.79300000  0.19847000  0.32953000  1.0
  H  H4  1  0.48006000  0.63676000  0.68752000  1.0
  H  H5  1  0.79315000  0.36443000  0.31284000  1.0
  H  H6  1  0.95905000  0.55403000  0.53834000  1.0
  H  H7  1  0.42115000  0.44575000  0.46201000  1.0
  H  H8  1  0.94532000  0.71935000  0.52229000  1.0
  H  H9  1  0.42295000  0.28032000  0.47777000  1.0
  H  H10  1  0.44392000  0.53386000  0.75517000  1.0
  H  H11  1  0.68968000  0.46691000  0.24507000  1.0
  H  H12  1  0.48020000  0.35878000  0.74688000  1.0
  H  H13  1  0.73447000  0.64187000  0.25295000  1.0
  H  H14  1  0.05855000  0.22675000  0.47353000  1.0
  H  H15  1  0.58646000  0.77382000  0.52640000  1.0
  H  H16  1  0.02494000  0.39956000  0.47861000  1.0
  H  H17  1  0.54723000  0.60116000  0.52183000  1.0
  H  H18  1  0.41785000  0.71843000  0.22997000  1.0
  H  H19  1  0.18794000  0.28113000  0.77042000  1.0
  H  H20  1  0.34089000  0.55274000  0.07347000  1.0
  H  H21  1  0.26745000  0.44729000  0.92633000  1.0
  H  H22  1  0.83263000  0.57452000  0.04824000  1.0
  H  H23  1  0.78386000  0.42500000  0.95120000  1.0
  H  H24  1  0.91396000  0.73707000  0.20958000  1.0
  H  H25  1  0.70391000  0.26217000  0.79029000  1.0
  H  H26  1  0.89505000  0.91577000  0.64968000  1.0
  H  H27  1  0.24420000  0.08437000  0.34978000  1.0
  H  H28  1  0.88474000  0.01804000  0.85541000  1.0
  H  H29  1  0.02902000  0.98100000  0.14397000  1.0
  C  C30  1  0.19719000  0.86752000  0.57844000  1.0
  C  C31  1  0.61941000  0.13304000  0.42210000  1.0
  C  C32  1  0.20376000  0.77136000  0.59468000  1.0
  C  C33  1  0.60915000  0.22909000  0.40544000  1.0
  C  C34  1  0.35382000  0.74758000  0.64248000  1.0
  C  C35  1  0.71149000  0.25323000  0.35767000  1.0
  C  C36  1  0.36188000  0.65484000  0.65214000  1.0
  C  C37  1  0.71013000  0.34603000  0.34812000  1.0
  C  C38  1  0.22124000  0.58181000  0.61302000  1.0
  C  C39  1  0.60869000  0.41873000  0.38731000  1.0
  C  C40  1  0.07083000  0.60759000  0.56732000  1.0
  C  C41  1  0.50383000  0.39248000  0.43293000  1.0
  C  C42  1  0.06208000  0.70099000  0.55889000  1.0
  C  C43  1  0.50330000  0.29898000  0.44124000  1.0
  C  C44  1  0.23375000  0.48009000  0.61598000  1.0
  C  C45  1  0.61875000  0.52055000  0.38442000  1.0
  C  C46  1  0.36000000  0.46667000  0.69250000  1.0
  C  C47  1  0.66860000  0.53403000  0.30777000  1.0
  C  C48  1  0.37975000  0.36898000  0.68913000  1.0
  C  C49  1  0.69195000  0.63168000  0.31090000  1.0
  C  C50  1  0.27308000  0.28103000  0.60952000  1.0
  C  C51  1  0.66517000  0.71968000  0.39042000  1.0
  C  C52  1  0.14282000  0.29405000  0.53556000  1.0
  C  C53  1  0.60875000  0.70656000  0.46450000  1.0
  C  C54  1  0.12383000  0.39187000  0.53885000  1.0
  C  C55  1  0.58620000  0.60877000  0.46148000  1.0
  C  C56  1  0.30876000  0.17653000  0.60030000  1.0
  C  C57  1  0.70845000  0.82398000  0.39851000  1.0
  C  C58  1  0.21761000  0.83534000  0.32733000  1.0
  C  C59  1  0.89058000  0.16306000  0.67365000  1.0
  C  C60  1  0.17119000  0.73797000  0.23025000  1.0
  C  C61  1  0.94079000  0.26131000  0.76988000  1.0
  C  C62  1  0.29002000  0.68564000  0.19001000  1.0
  C  C63  1  0.09993000  0.31393000  0.81018000  1.0
  C  C64  1  0.24510000  0.59279000  0.10093000  1.0
  C  C65  1  0.14410000  0.40705000  0.89900000  1.0
  C  C66  1  0.07993000  0.54926000  0.04730000  1.0
  C  C67  1  0.03249000  0.45051000  0.95247000  1.0
  C  C68  1  0.96189000  0.60399000  0.08808000  1.0
  C  C69  1  0.87350000  0.39555000  0.91159000  1.0
  C  C70  1  0.00606000  0.69608000  0.17803000  1.0
  C  C71  1  0.82772000  0.30326000  0.82186000  1.0
  C  C72  1  0.83556000  0.94828000  0.71020000  1.0
  C  C73  1  0.12458000  0.05077000  0.28901000  1.0
  O  O74  1  0.33160000  0.91505000  0.58937000  1.0
  O  O75  1  0.74441000  0.08737000  0.41286000  1.0
  O  O76  1  0.05872000  0.89749000  0.55307000  1.0
  O  O77  1  0.50528000  0.10175000  0.44606000  1.0
  O  O78  1  0.22646000  0.09466000  0.51840000  1.0
  O  O79  1  0.70818000  0.90623000  0.48019000  1.0
  O  O80  1  0.42940000  0.16736000  0.66753000  1.0
  O  O81  1  0.75996000  0.83324000  0.33033000  1.0
  O  O82  1  0.36829000  0.86985000  0.37716000  1.0
  O  O83  1  0.99201000  0.12715000  0.62476000  1.0
  O  O84  1  0.10289000  0.88111000  0.35732000  1.0
  O  O85  1  0.74508000  0.11781000  0.64379000  1.0
  O  O86  1  0.68846000  0.95143000  0.69399000  1.0
  O  O87  1  0.99364000  0.04610000  0.30496000  1.0
  O  O88  1  0.94421000  0.98581000  0.80571000  1.0
  O  O89  1  0.13806000  0.01387000  0.19362000  1.0
