# generated using pymatgen
data_GaH3C2O5
_symmetry_space_group_name_H-M   'P 1'
_cell_length_a   6.87183000
_cell_length_b   6.87184000
_cell_length_c   10.09830000
_cell_angle_alpha   100.15400000
_cell_angle_beta   100.15500000
_cell_angle_gamma   100.03200000
_symmetry_Int_Tables_number   1
_chemical_formula_structural   GaH3C2O5
_chemical_formula_sum   'Ga4 H12 C8 O20'
_cell_volume   451.55191058
_cell_formula_units_Z   4
loop_
 _symmetry_equiv_pos_site_id
 _symmetry_equiv_pos_as_xyz
  1  'x, y, z'
loop_
 _atom_site_type_symbol
 _atom_site_label
 _atom_site_symmetry_multiplicity
 _atom_site_fract_x
 _atom_site_fract_y
 _atom_site_fract_z
 _atom_site_occupancy
  Ga  Ga0  1  0.75272000  0.24836000  0.25012000  1.0
  Ga  Ga1  1  0.75164000  0.24728000  0.74987000  1.0
  Ga  Ga2  1  0.25263000  0.24813000  0.25005000  1.0
  Ga  Ga3  1  0.75188000  0.74737000  0.74995000  1.0
  H  H4  1  0.95081000  0.77417000  0.35920000  1.0
  H  H5  1  0.22583000  0.04919000  0.64079000  1.0
  H  H6  1  0.14866000  0.55984000  0.59298000  1.0
  H  H7  1  0.44015000  0.85134000  0.40702000  1.0
  H  H8  1  0.35704000  0.93649000  0.90722000  1.0
  H  H9  1  0.06352000  0.64295000  0.09278000  1.0
  H  H10  1  0.53523000  0.19565000  0.42402000  1.0
  H  H11  1  0.80435000  0.46477000  0.57598000  1.0
  H  H12  1  0.96981000  0.29966000  0.07582000  1.0
  H  H13  1  0.70033000  0.03019000  0.92417000  1.0
  H  H14  1  0.55452000  0.72337000  0.14227000  1.0
  H  H15  1  0.27664000  0.44547000  0.85773000  1.0
  C  C16  1  0.97120000  0.92003000  0.32628000  1.0
  C  C17  1  0.07997000  0.02880000  0.67371000  1.0
  C  C18  1  0.10293000  0.46400000  0.48813000  1.0
  C  C19  1  0.53600000  0.89707000  0.51186000  1.0
  C  C20  1  0.40246000  0.03245000  0.01202000  1.0
  C  C21  1  0.96756000  0.59753000  0.98798000  1.0
  C  C22  1  0.53424000  0.57695000  0.17445000  1.0
  C  C23  1  0.42306000  0.46576000  0.82555000  1.0
  O  O24  1  0.51962000  0.22282000  0.33006000  1.0
  O  O25  1  0.77718000  0.48037000  0.66994000  1.0
  O  O26  1  0.14172000  0.98115000  0.29887000  1.0
  O  O27  1  0.01885000  0.85829000  0.70113000  1.0
  O  O28  1  0.98572000  0.27359000  0.17009000  1.0
  O  O29  1  0.72641000  0.01428000  0.82991000  1.0
  O  O30  1  0.91474000  0.43576000  0.43199000  1.0
  O  O31  1  0.56424000  0.08526000  0.56801000  1.0
  O  O32  1  0.23969000  0.39760000  0.43813000  1.0
  O  O33  1  0.60240000  0.76030000  0.56187000  1.0
  O  O34  1  0.81994000  0.00384000  0.32170000  1.0
  O  O35  1  0.99617000  0.18006000  0.67830000  1.0
  O  O36  1  0.59072000  0.06136000  0.06819000  1.0
  O  O37  1  0.93865000  0.40927000  0.93181000  1.0
  O  O38  1  0.26540000  0.09826000  0.06200000  1.0
  O  O39  1  0.90176000  0.73460000  0.93799000  1.0
  O  O40  1  0.36343000  0.51505000  0.20123000  1.0
  O  O41  1  0.48496000  0.63657000  0.79877000  1.0
  O  O42  1  0.68568000  0.49344000  0.17906000  1.0
  O  O43  1  0.50656000  0.31432000  0.82095000  1.0
