# generated using pymatgen
data_FeH4(C2N3)2
_symmetry_space_group_name_H-M   'P 1'
_cell_length_a   11.69050000
_cell_length_b   11.69051767
_cell_length_c   11.69051767
_cell_angle_alpha   60.00000000
_cell_angle_beta   59.99995000
_cell_angle_gamma   59.99995000
_symmetry_Int_Tables_number   1
_chemical_formula_structural   FeH4(C2N3)2
_chemical_formula_sum   'Fe6 H24 C24 N36'
_cell_volume   1129.75753227
_cell_formula_units_Z   6
loop_
 _symmetry_equiv_pos_site_id
 _symmetry_equiv_pos_as_xyz
  1  'x, y, z'
loop_
 _atom_site_type_symbol
 _atom_site_label
 _atom_site_symmetry_multiplicity
 _atom_site_fract_x
 _atom_site_fract_y
 _atom_site_fract_z
 _atom_site_occupancy
  Fe  Fe0  1  0.50000000  0.50000000  0.00000000  1.0
  Fe  Fe1  1  0.50000000  0.00000000  1.00000000  1.0
  Fe  Fe2  1  0.00000000  0.50000000  1.00000000  1.0
  Fe  Fe3  1  0.50000000  0.50000000  0.50000000  1.0
  Fe  Fe4  1  0.37500000  0.37500000  0.87500000  1.0
  Fe  Fe5  1  0.62500000  0.62500000  0.12500000  1.0
  H  H6  1  0.66674000  0.66674000  0.70359000  1.0
  H  H7  1  0.20359000  0.96293000  0.16674000  1.0
  H  H8  1  0.96293000  0.20359000  0.16674000  1.0
  H  H9  1  0.66674000  0.66674000  0.46293000  1.0
  H  H10  1  0.66674000  0.96293000  0.70359000  1.0
  H  H11  1  0.96293000  0.66674000  0.16674000  1.0
  H  H12  1  0.20359000  0.66674000  0.16674000  1.0
  H  H13  1  0.66674000  0.20359000  0.46293000  1.0
  H  H14  1  0.96293000  0.66674000  0.70359000  1.0
  H  H15  1  0.66674000  0.20359000  0.16674000  1.0
  H  H16  1  0.66674000  0.96293000  0.16674000  1.0
  H  H17  1  0.20359000  0.66674000  0.46293000  1.0
  H  H18  1  0.79641000  0.33326000  0.83326000  1.0
  H  H19  1  0.33326000  0.03707000  0.29641000  1.0
  H  H20  1  0.33326000  0.79641000  0.53707000  1.0
  H  H21  1  0.03707000  0.33326000  0.83326000  1.0
  H  H22  1  0.79641000  0.03707000  0.83326000  1.0
  H  H23  1  0.33326000  0.33326000  0.53707000  1.0
  H  H24  1  0.33326000  0.33326000  0.29641000  1.0
  H  H25  1  0.03707000  0.79641000  0.83326000  1.0
  H  H26  1  0.79641000  0.33326000  0.53707000  1.0
  H  H27  1  0.33326000  0.79641000  0.83326000  1.0
  H  H28  1  0.33326000  0.03707000  0.83326000  1.0
  H  H29  1  0.03707000  0.33326000  0.29641000  1.0
  C  C30  1  0.61776000  0.61776000  0.69125000  1.0
  C  C31  1  0.19125000  0.07323000  0.11776000  1.0
  C  C32  1  0.07323000  0.19125000  0.11776000  1.0
  C  C33  1  0.61776000  0.61776000  0.57323000  1.0
  C  C34  1  0.61776000  0.07323000  0.69125000  1.0
  C  C35  1  0.07323000  0.61776000  0.11776000  1.0
  C  C36  1  0.19125000  0.61776000  0.11776000  1.0
  C  C37  1  0.61776000  0.19125000  0.57323000  1.0
  C  C38  1  0.07323000  0.61776000  0.69125000  1.0
  C  C39  1  0.61776000  0.19125000  0.11776000  1.0
  C  C40  1  0.61776000  0.07323000  0.11776000  1.0
  C  C41  1  0.19125000  0.61776000  0.57323000  1.0
  C  C42  1  0.80875000  0.38224000  0.88224000  1.0
  C  C43  1  0.38224000  0.92677000  0.30875000  1.0
  C  C44  1  0.38224000  0.80875000  0.42677000  1.0
  C  C45  1  0.92677000  0.38224000  0.88224000  1.0
  C  C46  1  0.80875000  0.92677000  0.88224000  1.0
  C  C47  1  0.38224000  0.38224000  0.42677000  1.0
  C  C48  1  0.38224000  0.38224000  0.30875000  1.0
  C  C49  1  0.92677000  0.80875000  0.88224000  1.0
  C  C50  1  0.80875000  0.38224000  0.42677000  1.0
  C  C51  1  0.38224000  0.80875000  0.88224000  1.0
  C  C52  1  0.38224000  0.92677000  0.88224000  1.0
  C  C53  1  0.92677000  0.38224000  0.30875000  1.0
  N  N54  1  0.53937000  0.53938000  0.80444000  1.0
  N  N55  1  0.30443000  0.11681000  0.03938000  1.0
  N  N56  1  0.11680000  0.30444000  0.03938000  1.0
  N  N57  1  0.53937000  0.53938000  0.61681000  1.0
  N  N58  1  0.53937000  0.11681000  0.80444000  1.0
  N  N59  1  0.11680000  0.53938000  0.03938000  1.0
  N  N60  1  0.30443000  0.53938000  0.03938000  1.0
  N  N61  1  0.53937000  0.30444000  0.61681000  1.0
  N  N62  1  0.11680000  0.53938000  0.80444000  1.0
  N  N63  1  0.53937000  0.30444000  0.03938000  1.0
  N  N64  1  0.53937000  0.11681000  0.03938000  1.0
  N  N65  1  0.30443000  0.53938000  0.61681000  1.0
  N  N66  1  0.69557000  0.46062000  0.96062000  1.0
  N  N67  1  0.46063000  0.88319000  0.19556000  1.0
  N  N68  1  0.46063000  0.69556000  0.38319000  1.0
  N  N69  1  0.88320000  0.46062000  0.96062000  1.0
  N  N70  1  0.69557000  0.88319000  0.96062000  1.0
  N  N71  1  0.46063000  0.46062000  0.38319000  1.0
  N  N72  1  0.46063000  0.46062000  0.19556000  1.0
  N  N73  1  0.88320000  0.69556000  0.96062000  1.0
  N  N74  1  0.69557000  0.46062000  0.38319000  1.0
  N  N75  1  0.46063000  0.69556000  0.96062000  1.0
  N  N76  1  0.46063000  0.88319000  0.96062000  1.0
  N  N77  1  0.88320000  0.46062000  0.19556000  1.0
  N  N78  1  0.49254000  0.49255000  0.75745000  1.0
  N  N79  1  0.25744000  0.25746000  0.99255000  1.0
  N  N80  1  0.49255000  0.25745000  0.75745000  1.0
  N  N81  1  0.25745000  0.49255000  0.99255000  1.0
  N  N82  1  0.25745000  0.49255000  0.75745000  1.0
  N  N83  1  0.49255000  0.25745000  0.99255000  1.0
  N  N84  1  0.74255000  0.50745000  0.00745000  1.0
  N  N85  1  0.50745000  0.74255000  0.24255000  1.0
  N  N86  1  0.74254000  0.74255000  0.00746000  1.0
  N  N87  1  0.50745000  0.50745000  0.24255000  1.0
  N  N88  1  0.74255000  0.50745000  0.24255000  1.0
  N  N89  1  0.50745000  0.74255000  0.00745000  1.0
