# generated using pymatgen
data_Al6H65C96N27O28
_symmetry_space_group_name_H-M   'P 1'
_cell_length_a   13.20540000
_cell_length_b   13.22580000
_cell_length_c   33.70660000
_cell_angle_alpha   83.46940000
_cell_angle_beta   83.60000000
_cell_angle_gamma   63.55350000
_symmetry_Int_Tables_number   1
_chemical_formula_structural   Al6H65C96N27O28
_chemical_formula_sum   'Al6 H65 C96 N27 O28'
_cell_volume   5224.40716040
_cell_formula_units_Z   1
loop_
 _symmetry_equiv_pos_site_id
 _symmetry_equiv_pos_as_xyz
  1  'x, y, z'
loop_
 _atom_site_type_symbol
 _atom_site_label
 _atom_site_symmetry_multiplicity
 _atom_site_fract_x
 _atom_site_fract_y
 _atom_site_fract_z
 _atom_site_occupancy
  Al  Al0  1  0.57957000  0.60069000  0.49109000  1.0
  Al  Al1  1  0.57456000  0.35920000  0.50273000  1.0
  Al  Al2  1  0.35338000  0.56886000  0.50223000  1.0
  Al  Al3  1  0.06095000  0.08610000  0.01626000  1.0
  Al  Al4  1  0.30271000  0.08927000  0.00361000  1.0
  Al  Al5  1  0.09514000  0.31182000  0.00469000  1.0
  H  H6  1  0.45207000  0.88121000  0.91156000  1.0
  H  H7  1  0.13887000  0.89373000  0.83936000  1.0
  H  H8  1  0.71792000  0.23362000  0.60586000  1.0
  H  H9  1  0.73911000  0.55004000  0.59096000  1.0
  H  H10  1  0.92378000  0.14443000  0.91495000  1.0
  H  H11  1  0.73912000  0.22204000  0.67945000  1.0
  H  H12  1  0.76229000  0.53823000  0.66480000  1.0
  H  H13  1  0.53224000  0.19992000  0.41329000  1.0
  H  H14  1  0.23680000  0.51913000  0.40730000  1.0
  H  H15  1  0.43414000  0.10232000  0.09961000  1.0
  H  H16  1  0.21550000  0.51501000  0.68937000  1.0
  H  H17  1  0.17454000  0.43533000  0.17386000  1.0
  H  H18  1  0.10172000  0.99616000  0.12901000  1.0
  H  H19  1  0.95579000  0.44469000  0.11043000  1.0
  H  H20  1  0.89700000  0.14823000  0.12012000  1.0
  H  H21  1  0.52353000  0.21277000  0.61253000  1.0
  H  H22  1  0.46026000  0.14577000  0.81895000  1.0
  H  H23  1  0.43298000  0.12212000  0.89340000  1.0
  H  H24  1  0.50276000  0.18642000  0.68709000  1.0
  H  H25  1  0.14772000  0.44976000  0.89374000  1.0
  H  H26  1  0.17631000  0.74729000  0.57535000  1.0
  H  H27  1  0.09900000  0.79008000  0.62012000  1.0
  H  H28  1  0.62318000  0.72512000  0.64772000  1.0
  H  H29  1  0.56320000  0.73126000  0.69653000  1.0
  H  H30  1  0.19310000  0.77121000  0.68049000  1.0
  H  H31  1  0.53512000  0.76903000  0.81361000  1.0
  H  H32  1  0.57892000  0.79319000  0.85796000  1.0
  H  H33  1  0.10096000  0.95871000  0.90886000  1.0
  H  H34  1  0.17356000  0.47502000  0.81924000  1.0
  H  H35  1  0.82554000  0.15571000  0.81895000  1.0
  H  H36  1  0.88358000  0.07451000  0.86273000  1.0
  H  H37  1  0.93247000  0.48432000  0.93217000  1.0
  H  H38  1  0.93541000  0.54237000  0.88504000  1.0
  H  H39  1  0.79598000  0.59970000  0.85241000  1.0
  H  H40  1  0.77952000  0.55324000  0.80775000  1.0
  H  H41  1  0.58093000  0.08380000  0.36190000  1.0
  H  H42  1  0.50754000  0.11802000  0.31788000  1.0
  H  H43  1  0.17102000  0.49512000  0.30872000  1.0
  H  H44  1  0.13824000  0.57808000  0.35049000  1.0
  H  H45  1  0.51482000  0.01323000  0.15849000  1.0
  H  H46  1  0.47782000  0.07693000  0.20439000  1.0
  H  H47  1  0.15383000  0.43398000  0.10114000  1.0
  H  H48  1  0.02416000  0.01585000  0.20181000  1.0
  H  H49  1  0.11710000  0.95502000  0.23834000  1.0
  H  H50  1  0.18106000  0.78724000  0.32550000  1.0
  H  H51  1  0.21267000  0.72357000  0.39795000  1.0
  H  H52  1  0.55304000  0.84909000  0.37566000  1.0
  H  H53  1  0.54362000  0.76628000  0.41839000  1.0
  H  H54  1  0.48329000  0.83687000  0.18069000  1.0
  H  H55  1  0.55766000  0.81632000  0.11086000  1.0
  H  H56  1  0.47302000  0.89615000  0.07343000  1.0
  H  H57  1  0.23639000  0.54005000  0.61517000  1.0
  H  H58  1  0.57745000  0.80768000  0.31563000  1.0
  H  H59  1  0.48041000  0.87373000  0.28123000  1.0
  H  H60  1  0.92391000  0.54316000  0.17205000  1.0
  H  H61  1  0.89508000  0.48574000  0.21828000  1.0
  H  H62  1  0.78909000  0.51914000  0.30758000  1.0
  H  H63  1  0.72780000  0.55161000  0.37986000  1.0
  H  H64  1  0.75275000  0.21534000  0.40083000  1.0
  H  H65  1  0.81644000  0.10490000  0.18620000  1.0
  H  H66  1  0.81780000  0.16549000  0.22771000  1.0
  H  H67  1  0.81271000  0.18152000  0.32867000  1.0
  H  H68  1  0.53582000  0.71799000  0.59278000  1.0
  H  H69  1  0.72811000  0.65577000  0.48192000  1.0
  H  H70  1  0.99354000  0.95557000  0.00636000  1.0
  C  C71  1  0.69819000  0.40745000  0.55190000  1.0
  C  C72  1  0.35696000  0.34853000  0.69322000  1.0
  C  C73  1  0.28161000  0.44818000  0.67239000  1.0
  C  C74  1  0.29270000  0.46164000  0.63096000  1.0
  C  C75  1  0.23077000  0.39841000  0.83565000  1.0
  C  C76  1  0.21665000  0.38468000  0.87700000  1.0
  C  C77  1  0.37814000  0.19964000  0.87685000  1.0
  C  C78  1  0.39279000  0.21262000  0.83550000  1.0
  C  C79  1  0.31920000  0.31230000  0.81415000  1.0
  C  C80  1  0.33311000  0.32495000  0.77195000  1.0
  C  C81  1  0.34515000  0.33524000  0.73546000  1.0
  C  C82  1  0.39829000  0.39694000  0.56544000  1.0
  C  C83  1  0.29000000  0.28544000  0.89803000  1.0
  C  C84  1  0.36949000  0.72947000  0.59580000  1.0
  C  C85  1  0.46053000  0.73145000  0.61259000  1.0
  C  C86  1  0.46026000  0.74639000  0.65302000  1.0
  C  C87  1  0.36086000  0.75903000  0.67802000  1.0
  C  C88  1  0.26753000  0.76149000  0.66071000  1.0
  C  C89  1  0.26810000  0.74774000  0.62016000  1.0
  C  C90  1  0.33411000  0.80786000  0.79646000  1.0
  C  C91  1  0.35434000  0.76656000  0.72106000  1.0
  C  C92  1  0.40857000  0.84335000  0.85684000  1.0
  C  C93  1  0.39081000  0.69796000  0.55377000  1.0
  C  C94  1  0.38422000  0.88186000  0.89566000  1.0
  C  C95  1  0.18578000  0.92545000  0.89408000  1.0
  C  C96  1  0.20723000  0.88979000  0.85576000  1.0
  C  C97  1  0.31733000  0.84712000  0.83633000  1.0
  C  C98  1  0.27578000  0.92115000  0.91421000  1.0
  C  C99  1  0.72724000  0.39257000  0.59427000  1.0
  C  C100  1  0.72896000  0.29915000  0.61906000  1.0
  C  C101  1  0.74049000  0.29284000  0.65984000  1.0
  C  C102  1  0.75062000  0.38033000  0.67659000  1.0
  C  C103  1  0.75299000  0.47189000  0.65146000  1.0
  C  C104  1  0.69508000  0.40893000  0.43668000  1.0
  C  C105  1  0.74079000  0.47822000  0.61073000  1.0
  C  C106  1  0.79772000  0.35983000  0.79541000  1.0
  C  C107  1  0.75659000  0.37737000  0.71990000  1.0
  C  C108  1  0.87011000  0.23484000  0.85810000  1.0
  C  C109  1  0.90279000  0.22384000  0.89682000  1.0
  C  C110  1  0.88887000  0.41439000  0.89127000  1.0
  C  C111  1  0.84799000  0.43122000  0.85261000  1.0
  C  C112  1  0.83904000  0.34210000  0.83480000  1.0
  C  C113  1  0.91374000  0.31044000  0.91355000  1.0
  C  C114  1  0.38431000  0.36019000  0.41417000  1.0
  C  C115  1  0.40421000  0.38434000  0.45383000  1.0
  C  C116  1  0.46083000  0.26115000  0.39686000  1.0
  C  C117  1  0.44712000  0.24017000  0.35840000  1.0
  C  C118  1  0.35399000  0.32208000  0.33596000  1.0
  C  C119  1  0.27763000  0.42494000  0.35465000  1.0
  C  C120  1  0.29392000  0.44126000  0.39350000  1.0
  C  C121  1  0.32026000  0.27705000  0.22077000  1.0
  C  C122  1  0.33753000  0.30174000  0.29632000  1.0
  C  C123  1  0.39329000  0.17588000  0.15664000  1.0
  C  C124  1  0.37925000  0.17683000  0.11568000  1.0
  C  C125  1  0.22052000  0.36359000  0.11679000  1.0
  C  C126  1  0.37965000  0.70588000  0.43900000  1.0
  C  C127  1  0.23247000  0.36394000  0.15694000  1.0
  C  C128  1  0.31682000  0.27159000  0.17803000  1.0
  C  C129  1  0.29456000  0.26809000  0.09602000  1.0
  C  C130  1  0.36122000  0.75087000  0.39734000  1.0
  C  C131  1  0.43739000  0.78788000  0.37450000  1.0
  C  C132  1  0.41953000  0.82272000  0.33326000  1.0
  C  C133  1  0.32797000  0.82163000  0.31585000  1.0
  C  C134  1  0.25083000  0.78820000  0.33964000  1.0
  C  C135  1  0.26862000  0.75272000  0.37932000  1.0
  C  C136  1  0.19422000  0.93881000  0.18238000  1.0
  C  C137  1  0.37977000  0.37652000  0.60923000  1.0
  C  C138  1  0.18457000  0.96167000  0.14119000  1.0
  C  C139  1  0.38916000  0.89886000  0.12787000  1.0
  C  C140  1  0.39944000  0.87257000  0.16906000  1.0
  C  C141  1  0.30561000  0.89177000  0.19636000  1.0
  C  C142  1  0.31790000  0.86746000  0.23784000  1.0
  C  C143  1  0.31831000  0.84866000  0.27429000  1.0
  C  C144  1  0.27859000  0.94311000  0.11378000  1.0
  C  C145  1  0.73860000  0.38468000  0.39458000  1.0
  C  C146  1  0.76214000  0.28057000  0.38011000  1.0
  C  C147  1  0.79513000  0.26207000  0.34000000  1.0
  C  C148  1  0.45540000  0.27737000  0.62969000  1.0
  C  C149  1  0.80526000  0.34800000  0.31323000  1.0
  C  C150  1  0.78201000  0.45244000  0.32818000  1.0
  C  C151  1  0.74882000  0.47047000  0.36824000  1.0
  C  C152  1  0.91067000  0.39390000  0.17070000  1.0
  C  C153  1  0.93170000  0.38529000  0.12924000  1.0
  C  C154  1  0.89856000  0.21661000  0.13489000  1.0
  C  C155  1  0.87664000  0.22395000  0.17613000  1.0
  C  C156  1  0.88260000  0.31246000  0.19461000  1.0
  C  C157  1  0.85861000  0.32153000  0.23609000  1.0
  C  C158  1  0.83546000  0.33197000  0.27210000  1.0
  C  C159  1  0.44413000  0.26302000  0.67110000  1.0
  C  C160  1  0.92612000  0.29711000  0.11190000  1.0
  C  C161  1  0.25366000  0.96557000  0.95454000  1.0
  C  C162  1  0.26845000  0.26600000  0.94167000  1.0
  C  C163  1  0.95910000  0.28201000  0.95388000  1.0
  C  C164  1  0.25482000  0.97426000  0.07112000  1.0
  C  C165  1  0.27523000  0.25723000  0.05449000  1.0
  C  C166  1  0.96120000  0.27999000  0.06877000  1.0
  N  N167  1  0.43858000  0.76697000  0.77711000  1.0
  N  N168  1  0.40614000  0.20153000  0.28005000  1.0
  N  N169  1  0.24575000  0.37939000  0.27617000  1.0
  N  N170  1  0.23704000  0.36739000  0.23909000  1.0
  N  N171  1  0.44845000  0.74703000  0.73914000  1.0
  N  N172  1  0.25601000  0.78031000  0.74331000  1.0
  N  N173  1  0.24582000  0.80145000  0.78071000  1.0
  N  N174  1  0.77711000  0.27817000  0.78095000  1.0
  N  N175  1  0.75739000  0.28674000  0.74325000  1.0
  N  N176  1  0.74772000  0.47056000  0.73589000  1.0
  N  N177  1  0.76752000  0.46198000  0.77367000  1.0
  N  N178  1  0.39793000  0.18957000  0.24255000  1.0
  N  N179  1  0.17507000  0.74561000  0.60559000  1.0
  N  N180  1  0.55265000  0.75060000  0.66666667  1.0
  N  N181  1  0.51689000  0.80608000  0.84015000  1.0
  N  N182  1  0.87152000  0.14195000  0.84305000  1.0
  N  N183  1  0.89553000  0.50675000  0.90549000  1.0
  N  N184  1  0.81992000  0.53689000  0.83361000  1.0
  N  N185  1  0.52554000  0.14183000  0.34300000  1.0
  N  N186  1  0.18902000  0.50861000  0.33578000  1.0
  N  N187  1  0.47940000  0.08387000  0.17388000  1.0
  N  N188  1  0.10233000  0.95595000  0.20933000  1.0
  N  N189  1  0.53081000  0.78815000  0.38863000  1.0
  N  N190  1  0.48584000  0.88529000  0.10316000  1.0
  N  N191  1  0.49445000  0.85900000  0.31092000  1.0
  N  N192  1  0.91970000  0.47674000  0.18885000  1.0
  N  N193  1  0.85463000  0.14172000  0.20002000  1.0
  O  O194  1  0.48619000  0.68114000  0.53639000  1.0
  O  O195  1  0.49789000  0.31685000  0.46914000  1.0
  O  O196  1  0.33024000  0.47370000  0.46964000  1.0
  O  O197  1  0.30767000  0.67317000  0.45859000  1.0
  O  O198  1  0.50246000  0.50785000  0.49921000  1.0
  O  O199  1  0.97761000  0.18613000  0.97087000  1.0
  O  O200  1  0.15922000  0.98649000  0.97346000  1.0
  O  O201  1  0.33315000  0.98350000  0.96691000  1.0
  O  O202  1  0.33680000  0.17290000  0.95905000  1.0
  O  O203  1  0.17931000  0.34060000  0.95915000  1.0
  O  O204  1  0.98100000  0.35584000  0.96927000  1.0
  O  O205  1  0.68526000  0.49844000  0.53162000  1.0
  O  O206  1  0.96701000  0.19216000  0.05530000  1.0
  O  O207  1  0.15685000  0.99950000  0.06086000  1.0
  O  O208  1  0.33606000  0.97741000  0.04564000  1.0
  O  O209  1  0.34325000  0.16650000  0.03778000  1.0
  O  O210  1  0.18768000  0.33508000  0.03842000  1.0
  O  O211  1  0.98913000  0.35354000  0.04810000  1.0
  O  O212  1  0.15410000  0.16326000  0.00781000  1.0
  O  O213  1  0.68148000  0.32764000  0.53934000  1.0
  O  O214  1  0.48980000  0.32697000  0.54775000  1.0
  O  O215  1  0.32436000  0.48716000  0.54814000  1.0
  O  O216  1  0.31367000  0.68379000  0.53737000  1.0
  O  O217  1  0.46734000  0.69731000  0.45422000  1.0
  O  O218  1  0.66854000  0.50727000  0.44687000  1.0
  O  O219  1  0.68359000  0.32933000  0.45987000  1.0
  O  O220  1  0.64673000  0.69145000  0.48058000  1.0
  O  O221  1  0.97594000  0.01360000  0.02452000  1.0
