# generated using pymatgen
data_NdH28C24N3O11
_symmetry_space_group_name_H-M   'P 1'
_cell_length_a   9.84583000
_cell_length_b   10.86820000
_cell_length_c   13.00640000
_cell_angle_alpha   101.34400000
_cell_angle_beta   92.94440000
_cell_angle_gamma   105.01700000
_symmetry_Int_Tables_number   1
_chemical_formula_structural   NdH28C24N3O11
_chemical_formula_sum   'Nd2 H56 C48 N6 O22'
_cell_volume   1310.25930517
_cell_formula_units_Z   2
loop_
 _symmetry_equiv_pos_site_id
 _symmetry_equiv_pos_as_xyz
  1  'x, y, z'
loop_
 _atom_site_type_symbol
 _atom_site_label
 _atom_site_symmetry_multiplicity
 _atom_site_fract_x
 _atom_site_fract_y
 _atom_site_fract_z
 _atom_site_occupancy
  Nd  Nd0  1  0.76116000  0.98311000  0.50251000  1.0
  Nd  Nd1  1  0.23885000  0.01689000  0.49748000  1.0
  H  H2  1  0.86569000  0.27287000  0.28888000  1.0
  H  H3  1  0.13431000  0.72713000  0.71112000  1.0
  H  H4  1  0.89527000  0.47881000  0.21921000  1.0
  H  H5  1  0.10472000  0.52121000  0.78081000  1.0
  H  H6  1  0.10340000  0.67069000  0.30087000  1.0
  H  H7  1  0.89659000  0.32932000  0.69913000  1.0
  H  H8  1  0.27587000  0.28729000  0.15938000  1.0
  H  H9  1  0.72413000  0.71272000  0.84062000  1.0
  H  H10  1  0.26084000  0.16195000  0.04584000  1.0
  H  H11  1  0.73917000  0.83806000  0.95416000  1.0
  H  H12  1  0.65159000  0.19044000  0.97564000  1.0
  H  H13  1  0.34842000  0.80957000  0.02436000  1.0
  H  H14  1  0.73040000  0.01111000  0.23300000  1.0
  H  H15  1  0.26960000  0.98889000  0.76700000  1.0
  H  H16  1  0.14762000  0.82353000  0.17909000  1.0
  H  H17  1  0.85238000  0.17646000  0.82091000  1.0
  H  H18  1  0.12199000  0.67582000  0.99718000  1.0
  H  H19  1  0.87801000  0.32416000  0.00282000  1.0
  H  H20  1  0.87829000  0.54847000  0.91570000  1.0
  H  H21  1  0.12171000  0.45153000  0.08430000  1.0
  H  H22  1  0.52868000  0.52802000  0.09883000  1.0
  H  H23  1  0.47131000  0.47198000  0.90117000  1.0
  H  H24  1  0.54068000  0.66674000  0.04258000  1.0
  H  H25  1  0.45932000  0.33326000  0.95742000  1.0
  H  H26  1  0.41372000  0.62697000  0.25053000  1.0
  H  H27  1  0.58627000  0.37302000  0.74947000  1.0
  H  H28  1  0.31986000  0.61888000  0.12799000  1.0
  H  H29  1  0.68013000  0.38112000  0.87201000  1.0
  H  H30  1  0.43478000  0.77039000  0.19995000  1.0
  H  H31  1  0.56522000  0.22960000  0.80005000  1.0
  H  H32  1  0.30248000  0.66334000  0.58917000  1.0
  H  H33  1  0.69752000  0.33666000  0.41083000  1.0
  H  H34  1  0.42906000  0.62269000  0.50614000  1.0
  H  H35  1  0.57094000  0.37731000  0.49386000  1.0
  H  H36  1  0.05048000  0.02021000  0.10334000  1.0
  H  H37  1  0.94953000  0.97979000  0.89665000  1.0
  H  H38  1  0.02282000  0.17752000  0.11256000  1.0
  H  H39  1  0.97718000  0.82248000  0.88744000  1.0
  H  H40  1  0.07544000  0.12965000  0.22828000  1.0
  H  H41  1  0.92456000  0.87035000  0.77172000  1.0
  H  H42  1  0.37967000  0.54670000  0.72069000  1.0
  H  H43  1  0.62032000  0.45330000  0.27931000  1.0
  H  H44  1  0.52646000  0.66591000  0.69158000  1.0
  H  H45  1  0.47353000  0.33409000  0.30842000  1.0
  H  H46  1  0.50102000  0.49784000  0.63553000  1.0
  H  H47  1  0.49897000  0.50216000  0.36448000  1.0
  H  H48  1  0.80307000  0.07969000  0.06408000  1.0
  H  H49  1  0.19694000  0.92032000  0.93593000  1.0
  H  H50  1  0.71185000  0.26690000  0.56947000  1.0
  H  H51  1  0.28815000  0.73310000  0.43053000  1.0
  H  H52  1  0.57320000  0.15568000  0.58475000  1.0
  H  H53  1  0.42680000  0.84432000  0.41524000  1.0
  H  H54  1  0.67911000  0.69960000  0.44842000  1.0
  H  H55  1  0.32089000  0.30039000  0.55158000  1.0
  H  H56  1  0.65008000  0.74147000  0.34300000  1.0
  H  H57  1  0.34992000  0.25852000  0.65701000  1.0
  C  C58  1  0.02961000  0.22651000  0.43580000  1.0
  C  C59  1  0.97043000  0.77349000  0.56419000  1.0
  C  C60  1  0.05217000  0.35171000  0.39815000  1.0
  C  C61  1  0.94784000  0.64829000  0.60185000  1.0
  C  C62  1  0.95462000  0.35854000  0.31934000  1.0
  C  C63  1  0.04538000  0.64147000  0.68066000  1.0
  C  C64  1  0.16544000  0.46525000  0.43811000  1.0
  C  C65  1  0.83456000  0.53475000  0.56189000  1.0
  C  C66  1  0.97062000  0.47201000  0.28072000  1.0
  C  C67  1  0.02937000  0.52800000  0.71929000  1.0
  C  C68  1  0.08517000  0.57763000  0.32492000  1.0
  C  C69  1  0.91482000  0.42238000  0.67508000  1.0
  C  C70  1  0.45637000  0.12379000  0.16353000  1.0
  C  C71  1  0.54363000  0.87622000  0.83648000  1.0
  C  C72  1  0.24098000  0.18086000  0.12888000  1.0
  C  C73  1  0.75902000  0.81915000  0.87112000  1.0
  C  C74  1  0.62216000  0.15398000  0.04624000  1.0
  C  C75  1  0.37784000  0.84602000  0.95376000  1.0
  C  C76  1  0.54107000  0.07307000  0.22709000  1.0
  C  C77  1  0.45894000  0.92693000  0.77291000  1.0
  C  C78  1  0.66632000  0.05541000  0.18864000  1.0
  C  C79  1  0.33368000  0.94459000  0.81136000  1.0
  C  C80  1  0.50527000  0.04092000  0.33134000  1.0
  C  C81  1  0.49472000  0.95908000  0.66866000  1.0
  C  C82  1  0.94794000  0.86357000  0.29822000  1.0
  C  C83  1  0.05206000  0.13644000  0.70177000  1.0
  C  C84  1  0.92557000  0.77460000  0.19053000  1.0
  C  C85  1  0.07442000  0.22540000  0.80947000  1.0
  C  C86  1  0.79196000  0.69751000  0.13642000  1.0
  C  C87  1  0.20803000  0.30249000  0.86358000  1.0
  C  C88  1  0.04455000  0.76501000  0.13859000  1.0
  C  C89  1  0.95545000  0.23498000  0.86141000  1.0
  C  C90  1  0.03070000  0.68408000  0.03900000  1.0
  C  C91  1  0.96930000  0.31591000  0.96100000  1.0
  C  C92  1  0.89489000  0.61296000  0.99391000  1.0
  C  C93  1  0.10511000  0.38703000  0.00609000  1.0
  C  C94  1  0.53807000  0.63307000  0.11697000  1.0
  C  C95  1  0.46191000  0.36693000  0.88303000  1.0
  C  C96  1  0.42050000  0.66470000  0.17814000  1.0
  C  C97  1  0.57949000  0.33529000  0.82186000  1.0
  C  C98  1  0.36127000  0.59087000  0.56575000  1.0
  C  C99  1  0.63873000  0.40913000  0.43425000  1.0
  C  C100  1  0.08836000  0.12327000  0.14435000  1.0
  C  C101  1  0.91165000  0.87673000  0.85565000  1.0
  C  C102  1  0.44637000  0.57326000  0.65893000  1.0
  C  C103  1  0.55362000  0.42674000  0.34107000  1.0
  C  C104  1  0.70718000  0.09426000  0.09613000  1.0
  C  C105  1  0.29283000  0.90575000  0.90387000  1.0
  N  N106  1  0.18004000  0.57425000  0.40184000  1.0
  N  N107  1  0.81996000  0.42575000  0.59816000  1.0
  N  N108  1  0.49920000  0.16867000  0.07876000  1.0
  N  N109  1  0.50080000  0.83133000  0.92125000  1.0
  N  N110  1  0.77830000  0.61854000  0.04130000  1.0
  N  N111  1  0.22169000  0.38146000  0.95870000  1.0
  O  O112  1  0.07322000  0.90079000  0.34443000  1.0
  O  O113  1  0.92676000  0.09924000  0.65556000  1.0
  O  O114  1  0.41073000  0.08252000  0.37780000  1.0
  O  O115  1  0.58928000  0.91748000  0.62220000  1.0
  O  O116  1  0.61985000  0.74355000  0.41413000  1.0
  O  O117  1  0.38016000  0.25644000  0.58588000  1.0
  O  O118  1  0.90214000  0.16699000  0.44134000  1.0
  O  O119  1  0.09789000  0.83299000  0.55866000  1.0
  O  O120  1  0.67228000  0.17245000  0.57032000  1.0
  O  O121  1  0.32772000  0.82755000  0.42967000  1.0
  O  O122  1  0.13718000  0.18799000  0.45612000  1.0
  O  O123  1  0.86286000  0.81203000  0.54385000  1.0
  O  O124  1  0.57562000  0.97245000  0.36845000  1.0
  O  O125  1  0.42438000  0.02754000  0.63155000  1.0
  O  O126  1  0.25898000  0.46561000  0.51822000  1.0
  O  O127  1  0.74102000  0.53440000  0.48178000  1.0
  O  O128  1  0.32528000  0.12255000  0.18889000  1.0
  O  O129  1  0.67472000  0.87745000  0.81111000  1.0
  O  O130  1  0.84254000  0.89554000  0.33533000  1.0
  O  O131  1  0.15742000  0.10445000  0.66466000  1.0
  O  O132  1  0.67219000  0.70168000  0.18205000  1.0
  O  O133  1  0.32780000  0.29831000  0.81795000  1.0
