# generated using pymatgen
data_CoHC5O4
_symmetry_space_group_name_H-M   'P 1'
_cell_length_a   7.36153000
_cell_length_b   8.14159000
_cell_length_c   9.06188781
_cell_angle_alpha   89.62142052
_cell_angle_beta   66.05105794
_cell_angle_gamma   89.97870000
_symmetry_Int_Tables_number   1
_chemical_formula_structural   CoHC5O4
_chemical_formula_sum   'Co4 H4 C20 O16'
_cell_volume   496.34927565
_cell_formula_units_Z   4
loop_
 _symmetry_equiv_pos_site_id
 _symmetry_equiv_pos_as_xyz
  1  'x, y, z'
loop_
 _atom_site_type_symbol
 _atom_site_label
 _atom_site_symmetry_multiplicity
 _atom_site_fract_x
 _atom_site_fract_y
 _atom_site_fract_z
 _atom_site_occupancy
  Co  Co0  1  0.73418000  0.06124000  0.38468000  1.0
  Co  Co1  1  0.11896000  0.43885000  0.61519000  1.0
  Co  Co2  1  0.26581000  0.93876000  0.61533000  1.0
  Co  Co3  1  0.88104000  0.56115000  0.38481000  1.0
  H  H4  1  0.74339000  0.74996000  0.00020000  1.0
  H  H5  1  0.25661000  0.25004000  0.99980000  1.0
  H  H6  1  0.06946000  0.74995000  0.00016000  1.0
  H  H7  1  0.93054000  0.25006000  0.99984000  1.0
  C  C8  1  0.06543000  0.89037000  0.25927000  1.0
  C  C9  1  0.32450000  0.60950000  0.74097000  1.0
  C  C10  1  0.93458000  0.10963000  0.74073000  1.0
  C  C11  1  0.67551000  0.39049000  0.25902000  1.0
  C  C12  1  0.24695000  0.81979000  0.12899000  1.0
  C  C13  1  0.37570000  0.68005000  0.87136000  1.0
  C  C14  1  0.75305000  0.18021000  0.87101000  1.0
  C  C15  1  0.62429000  0.31995000  0.12865000  1.0
  C  C16  1  0.43846000  0.82278000  0.12814000  1.0
  C  C17  1  0.56641000  0.67710000  0.87221000  1.0
  C  C18  1  0.56154000  0.17722000  0.87186000  1.0
  C  C19  1  0.43358000  0.32290000  0.12780000  1.0
  C  C20  1  0.47114000  0.90050000  0.26347000  1.0
  C  C21  1  0.73450000  0.59953000  0.73673000  1.0
  C  C22  1  0.52886000  0.09949000  0.73653000  1.0
  C  C23  1  0.26549000  0.40047000  0.26327000  1.0
  C  C24  1  0.59588000  0.74991000  0.00020000  1.0
  C  C25  1  0.40412000  0.25009000  0.99980000  1.0
  C  C26  1  0.21764000  0.74989000  0.00020000  1.0
  C  C27  1  0.78236000  0.25011000  0.99980000  1.0
  O  O28  1  0.02551000  0.04134000  0.25129000  1.0
  O  O29  1  0.27682000  0.45853000  0.74883000  1.0
  O  O30  1  0.97449000  0.95866000  0.74871000  1.0
  O  O31  1  0.72318000  0.54147000  0.25117000  1.0
  O  O32  1  0.93966000  0.79653000  0.36528000  1.0
  O  O33  1  0.30483000  0.70337000  0.63489000  1.0
  O  O34  1  0.06034000  0.20347000  0.63472000  1.0
  O  O35  1  0.69517000  0.29663000  0.36511000  1.0
  O  O36  1  0.64846000  0.93176000  0.24549000  1.0
  O  O37  1  0.89402000  0.56842000  0.75456000  1.0
  O  O38  1  0.35154000  0.06824000  0.75451000  1.0
  O  O39  1  0.10597000  0.43158000  0.24544000  1.0
  O  O40  1  0.31583000  0.93318000  0.39007000  1.0
  O  O41  1  0.70571000  0.56684000  0.61015000  1.0
  O  O42  1  0.68416000  0.06682000  0.60994000  1.0
  O  O43  1  0.29429000  0.43316000  0.38985000  1.0
