# generated using pymatgen
data_Zr6H29C50ClO37
_symmetry_space_group_name_H-M   'P 1'
_cell_length_a   14.77114029
_cell_length_b   14.77730000
_cell_length_c   14.78250000
_cell_angle_alpha   119.92850000
_cell_angle_beta   90.01151341
_cell_angle_gamma   60.15535414
_symmetry_Int_Tables_number   1
_chemical_formula_structural   Zr6H29C50ClO37
_chemical_formula_sum   'Zr6 H29 C50 Cl1 O37'
_cell_volume   2289.63979490
_cell_formula_units_Z   1
loop_
 _symmetry_equiv_pos_site_id
 _symmetry_equiv_pos_as_xyz
  1  'x, y, z'
loop_
 _atom_site_type_symbol
 _atom_site_label
 _atom_site_symmetry_multiplicity
 _atom_site_fract_x
 _atom_site_fract_y
 _atom_site_fract_z
 _atom_site_occupancy
  Zr  Zr0  1  0.38220000  0.49410000  0.11750000  1.0
  Zr  Zr1  1  0.61803000  0.49946000  0.88203000  1.0
  Zr  Zr2  1  0.38094000  0.73443000  0.11867000  1.0
  Zr  Zr3  1  0.62201000  0.25642000  0.87794000  1.0
  Zr  Zr4  1  0.62080000  0.49516000  0.11819000  1.0
  Zr  Zr5  1  0.38195000  0.49537000  0.87875000  1.0
  H  H6  1  0.40757000  0.68276000  0.28068000  1.0
  H  H7  1  0.78283000  0.31121000  0.90585000  1.0
  H  H8  1  0.40601000  0.68594000  0.90588000  1.0
  H  H9  1  0.40763000  0.30714000  0.90337000  1.0
  H  H10  1  0.35775000  0.48915000  0.40984000  1.0
  H  H11  1  0.64560000  0.49714000  0.41260000  1.0
  H  H12  1  0.35860000  0.49137000  0.58088000  1.0
  H  H13  1  0.08280000  0.50462000  0.14909000  1.0
  H  H14  1  0.07917000  0.51288000  0.86158000  1.0
  H  H15  1  0.91187000  0.50648000  0.14855000  1.0
  H  H16  1  0.91372000  0.22735000  0.14841000  1.0
  H  H17  1  0.91073000  0.93904000  0.85701000  1.0
  H  H18  1  0.08324000  0.05557000  0.14605000  1.0
  H  H19  1  0.35995000  0.22722000  0.57787000  1.0
  H  H20  1  0.65056000  0.93911000  0.58130000  1.0
  H  H21  1  0.36182000  0.05543000  0.40867000  1.0
  H  H22  1  0.08783000  0.05076000  0.40471000  1.0
  H  H23  1  0.03203000  0.70781000  0.37912000  1.0
  H  H24  1  0.11752000  0.70990000  0.46438000  1.0
  H  H25  1  0.94776000  0.88818000  0.63413000  1.0
  H  H26  1  0.86227000  0.88650000  0.54901000  1.0
  H  H27  1  0.65235000  0.93428000  0.85580000  1.0
  H  H28  1  0.36175000  0.22727000  0.14650000  1.0
  H  H29  1  0.64931000  0.76749000  0.85863000  1.0
  H  H30  1  0.65277000  0.49764000  0.65154000  1.0
  H  H31  1  0.84060000  0.51219000  0.85462000  1.0
  H  H32  1  0.14983000  0.69303000  0.84941000  1.0
  H  H33  1  0.65758000  0.69294000  0.34263000  1.0
  H  H34  1  0.35313000  0.99635000  0.15462000  1.0
  C  C35  1  0.50354000  0.49025000  0.29946000  1.0
  C  C36  1  0.80157000  0.50755000  0.00611000  1.0
  C  C37  1  0.50037000  0.49468000  0.69179000  1.0
  C  C38  1  0.19366000  0.50426000  0.00269000  1.0
  C  C39  1  0.19512000  0.79712000  0.29759000  1.0
  C  C40  1  0.50663000  0.19095000  0.00035000  1.0
  C  C41  1  0.80027000  0.19996000  0.69360000  1.0
  C  C42  1  0.50497000  0.80227000  0.00170000  1.0
  C  C43  1  0.50374000  0.80337000  0.30132000  1.0
  C  C44  1  0.19193000  0.80361000  0.00250000  1.0
  C  C45  1  0.50522000  0.19343000  0.69040000  1.0
  C  C46  1  0.80228000  0.19336000  0.00204000  1.0
  C  C47  1  0.50192000  0.49469000  0.59203000  1.0
  C  C48  1  0.50215000  0.49240000  0.40144000  1.0
  C  C49  1  0.58378000  0.49723000  0.54459000  1.0
  C  C50  1  0.41998000  0.49139000  0.44851000  1.0
  C  C51  1  0.58260000  0.49589000  0.44912000  1.0
  C  C52  1  0.42077000  0.49246000  0.54263000  1.0
  C  C53  1  0.90014000  0.51009000  0.00551000  1.0
  C  C54  1  0.09053000  0.50859000  0.00518000  1.0
  C  C55  1  0.94748000  0.51253000  0.92353000  1.0
  C  C56  1  0.04379000  0.50720000  0.08719000  1.0
  C  C57  1  0.04276000  0.51176000  0.92474000  1.0
  C  C58  1  0.94973000  0.50800000  0.08652000  1.0
  C  C59  1  0.09209000  0.90195000  0.00126000  1.0
  C  C60  1  0.90276000  0.09260000  0.00260000  1.0
  C  C61  1  0.04323000  0.86822000  0.91810000  1.0
  C  C62  1  0.95077000  0.12694000  0.08497000  1.0
  C  C63  1  0.94848000  0.96487000  0.92025000  1.0
  C  C64  1  0.04422000  0.03194000  0.08347000  1.0
  C  C65  1  0.50646000  0.90181000  0.39976000  1.0
  C  C66  1  0.50566000  0.09260000  0.58880000  1.0
  C  C67  1  0.58952000  0.86819000  0.44869000  1.0
  C  C68  1  0.42332000  0.12684000  0.54078000  1.0
  C  C69  1  0.58762000  0.96490000  0.54329000  1.0
  C  C70  1  0.42457000  0.03179000  0.44748000  1.0
  C  C71  1  0.09479000  0.89822000  0.39748000  1.0
  C  C72  1  0.90038000  0.10188000  0.59323000  1.0
  C  C73  1  0.04230000  0.87342000  0.45125000  1.0
  C  C74  1  0.95535000  0.12647000  0.53852000  1.0
  C  C75  1  0.94859000  0.97239000  0.54536000  1.0
  C  C76  1  0.04885000  0.02730000  0.44381000  1.0
  C  C77  1  0.04435000  0.77001000  0.45143000  1.0
  C  C78  1  0.93798000  0.88190000  0.55796000  1.0
  C  C79  1  0.50478000  0.90290000  0.00336000  1.0
  C  C80  1  0.50712000  0.09015000  0.00129000  1.0
  C  C81  1  0.42233000  0.03435000  0.08590000  1.0
  C  C82  1  0.58907000  0.96035000  0.91925000  1.0
  C  C83  1  0.42485000  0.12670000  0.08353000  1.0
  C  C84  1  0.58710000  0.86864000  0.92110000  1.0
  Cl  Cl85  1  0.91386000  0.27817000  0.58302000  1.0
  O  O86  1  0.42715000  0.48950000  0.25918000  1.0
  O  O87  1  0.76080000  0.50660000  0.92799000  1.0
  O  O88  1  0.57721000  0.49638000  0.73375000  1.0
  O  O89  1  0.23545000  0.50017000  0.07739000  1.0
  O  O90  1  0.23569000  0.83383000  0.25780000  1.0
  O  O91  1  0.58237000  0.15446000  0.92296000  1.0
  O  O92  1  0.76392000  0.15873000  0.73148000  1.0
  O  O93  1  0.42684000  0.83852000  0.07860000  1.0
  O  O94  1  0.58023000  0.68510000  0.26189000  1.0
  O  O95  1  0.23295000  0.68526000  0.92445000  1.0
  O  O96  1  0.42738000  0.30967000  0.73126000  1.0
  O  O97  1  0.76271000  0.30970000  0.07869000  1.0
  O  O98  1  0.23372000  0.83812000  0.07771000  1.0
  O  O99  1  0.58178000  0.15675000  0.73058000  1.0
  O  O100  1  0.76348000  0.15664000  0.92410000  1.0
  O  O101  1  0.42717000  0.83772000  0.26093000  1.0
  O  O102  1  0.23442000  0.68153000  0.25986000  1.0
  O  O103  1  0.57964000  0.68574000  0.92531000  1.0
  O  O104  1  0.75768000  0.31755000  0.73630000  1.0
  O  O105  1  0.42934000  0.30705000  0.07624000  1.0
  O  O106  1  0.23431000  0.50285000  0.92513000  1.0
  O  O107  1  0.58012000  0.49103000  0.26000000  1.0
  O  O108  1  0.76226000  0.50440000  0.08041000  1.0
  O  O109  1  0.42457000  0.49441000  0.73263000  1.0
  O  O110  1  0.43456000  0.36062000  0.93019000  1.0
  O  O111  1  0.43257000  0.63233000  0.93256000  1.0
  O  O112  1  0.70268000  0.36397000  0.93260000  1.0
  O  O113  1  0.43415000  0.62997000  0.20052000  1.0
  O  O114  1  0.55010000  0.59718000  0.05010000  1.0
  O  O115  1  0.55121000  0.39668000  0.04724000  1.0
  O  O116  1  0.55019000  0.39844000  0.85040000  1.0
  O  O117  1  0.35264000  0.59450000  0.04786000  1.0
  O  O118  1  0.66368000  0.50074000  0.58671000  1.0
  O  O119  1  0.90566000  0.51484000  0.84318000  1.0
  O  O120  1  0.08395000  0.74640000  0.83598000  1.0
  O  O121  1  0.67107000  0.74641000  0.40850000  1.0
  O  O122  1  0.34051000  0.07540000  0.16728000  1.0
