# generated using pymatgen
data_Mn2SiH20(C14O5)2
_symmetry_space_group_name_H-M   'P 1'
_cell_length_a   13.15080000
_cell_length_b   13.89680000
_cell_length_c   14.77990000
_cell_angle_alpha   116.44800000
_cell_angle_beta   114.79100000
_cell_angle_gamma   93.15360000
_symmetry_Int_Tables_number   1
_chemical_formula_structural   Mn2SiH20(C14O5)2
_chemical_formula_sum   'Mn4 Si2 H40 C56 O20'
_cell_volume   2096.14950045
_cell_formula_units_Z   2
loop_
 _symmetry_equiv_pos_site_id
 _symmetry_equiv_pos_as_xyz
  1  'x, y, z'
loop_
 _atom_site_type_symbol
 _atom_site_label
 _atom_site_symmetry_multiplicity
 _atom_site_fract_x
 _atom_site_fract_y
 _atom_site_fract_z
 _atom_site_occupancy
  Mn  Mn0  1  0.56660000  0.31640000  0.63261000  1.0
  Mn  Mn1  1  0.43346000  0.68359000  0.36744000  1.0
  Mn  Mn2  1  0.50001000  0.50000000  0.50001000  1.0
  Mn  Mn3  1  0.50000000  0.99995000  0.50001000  1.0
  Si  Si4  1  0.79648000  0.04653000  0.09305000  1.0
  Si  Si5  1  0.20353000  0.95347000  0.90696000  1.0
  H  H6  1  0.64460000  0.36462000  0.48987000  1.0
  H  H7  1  0.34542000  0.12524000  0.48990000  1.0
  H  H8  1  0.35540000  0.63536000  0.51013000  1.0
  H  H9  1  0.65459000  0.87476000  0.51009000  1.0
  H  H10  1  0.71665000  0.48385000  0.52557000  1.0
  H  H11  1  0.30895000  0.04162000  0.52548000  1.0
  H  H12  1  0.28339000  0.51612000  0.47443000  1.0
  H  H13  1  0.69101000  0.95840000  0.47449000  1.0
  H  H14  1  0.96233000  0.07331000  0.32014000  1.0
  H  H15  1  0.85770000  0.24684000  0.32003000  1.0
  H  H16  1  0.03768000  0.92669000  0.67986000  1.0
  H  H17  1  0.14229000  0.75317000  0.67998000  1.0
  H  H18  1  0.17499000  0.16470000  0.45629000  1.0
  H  H19  1  0.78135000  0.29142000  0.45624000  1.0
  H  H20  1  0.82501000  0.83530000  0.54371000  1.0
  H  H21  1  0.21864000  0.70858000  0.54376000  1.0
  H  H22  1  0.20449000  0.24920000  0.21985000  1.0
  H  H23  1  0.51529000  0.97059000  0.21977000  1.0
  H  H24  1  0.79551000  0.75081000  0.78015000  1.0
  H  H25  1  0.48470000  0.02941000  0.78022000  1.0
  H  H26  1  0.99107000  0.15884000  0.08251000  1.0
  H  H27  1  0.59133000  0.92371000  0.08247000  1.0
  H  H28  1  0.00894000  0.84117000  0.91749000  1.0
  H  H29  1  0.40866000  0.07630000  0.91753000  1.0
  H  H30  1  0.58019000  0.88107000  0.87810000  1.0
  H  H31  1  0.79752000  0.99688000  0.87796000  1.0
  H  H32  1  0.41980000  0.11894000  0.12189000  1.0
  H  H33  1  0.20248000  0.00312000  0.12205000  1.0
  H  H34  1  0.52108000  0.67551000  0.74159000  1.0
  H  H35  1  0.72026000  0.06610000  0.74150000  1.0
  H  H36  1  0.47892000  0.32450000  0.25840000  1.0
  H  H37  1  0.27974000  0.93390000  0.25850000  1.0
  H  H38  1  0.85742000  0.66096000  0.95430000  1.0
  H  H39  1  0.59691000  0.29345000  0.95423000  1.0
  H  H40  1  0.14258000  0.33905000  0.04570000  1.0
  H  H41  1  0.40309000  0.70655000  0.04577000  1.0
  H  H42  1  0.91908000  0.86812000  0.09242000  1.0
  H  H43  1  0.67332000  0.22431000  0.09234000  1.0
  H  H44  1  0.08092000  0.13189000  0.90758000  1.0
  H  H45  1  0.32669000  0.77570000  0.90767000  1.0
  C  C46  1  0.96016000  0.10860000  0.19060000  1.0
  C  C47  1  0.73036000  0.08205000  0.19055000  1.0
  C  C48  1  0.03984000  0.89140000  0.80939000  1.0
  C  C49  1  0.26963000  0.91796000  0.80945000  1.0
  C  C50  1  0.01488000  0.11027000  0.29631000  1.0
  C  C51  1  0.78135000  0.18604000  0.29622000  1.0
  C  C52  1  0.98512000  0.88973000  0.70368000  1.0
  C  C53  1  0.21864000  0.81396000  0.70378000  1.0
  C  C54  1  0.13481000  0.16145000  0.37341000  1.0
  C  C55  1  0.73858000  0.21186000  0.37333000  1.0
  C  C56  1  0.86520000  0.83855000  0.62658000  1.0
  C  C57  1  0.26141000  0.78814000  0.62667000  1.0
  C  C58  1  0.20337000  0.21239000  0.34613000  1.0
  C  C59  1  0.64275000  0.13363000  0.34606000  1.0
  C  C60  1  0.79663000  0.78761000  0.65386000  1.0
  C  C61  1  0.35724000  0.86637000  0.65394000  1.0
  C  C62  1  0.15041000  0.20979000  0.24038000  1.0
  C  C63  1  0.58985000  0.03055000  0.24026000  1.0
  C  C64  1  0.84959000  0.79021000  0.75962000  1.0
  C  C65  1  0.41014000  0.96945000  0.75973000  1.0
  C  C66  1  0.03046000  0.15835000  0.16360000  1.0
  C  C67  1  0.63303000  0.00529000  0.16352000  1.0
  C  C68  1  0.96954000  0.84166000  0.83640000  1.0
  C  C69  1  0.36696000  0.99472000  0.83648000  1.0
  C  C70  1  0.33154000  0.27151000  0.42826000  1.0
  C  C71  1  0.59683000  0.15660000  0.42823000  1.0
  C  C72  1  0.66847000  0.72850000  0.57174000  1.0
  C  C73  1  0.40315000  0.84338000  0.57177000  1.0
  C  C74  1  0.75418000  0.88986000  0.99565000  1.0
  C  C75  1  0.74124000  0.10570000  0.99553000  1.0
  C  C76  1  0.24581000  0.11015000  0.00435000  1.0
  C  C77  1  0.25877000  0.89430000  0.00448000  1.0
  C  C78  1  0.64157000  0.83370000  0.89652000  1.0
  C  C79  1  0.75464000  0.06272000  0.89638000  1.0
  C  C80  1  0.35843000  0.16630000  0.10348000  1.0
  C  C81  1  0.24537000  0.93729000  0.10363000  1.0
  C  C82  1  0.60774000  0.71846000  0.81904000  1.0
  C  C83  1  0.71107000  0.10057000  0.81892000  1.0
  C  C84  1  0.39226000  0.28155000  0.18095000  1.0
  C  C85  1  0.28892000  0.89943000  0.18108000  1.0
  C  C86  1  0.68649000  0.65661000  0.83936000  1.0
  C  C87  1  0.65278000  0.18282000  0.83929000  1.0
  C  C88  1  0.31351000  0.34339000  0.16063000  1.0
  C  C89  1  0.34721000  0.81718000  0.16071000  1.0
  C  C90  1  0.79779000  0.71058000  0.93943000  1.0
  C  C91  1  0.64157000  0.22887000  0.93933000  1.0
  C  C92  1  0.20221000  0.28943000  0.06057000  1.0
  C  C93  1  0.35843000  0.77113000  0.06068000  1.0
  C  C94  1  0.83119000  0.82630000  0.01625000  1.0
  C  C95  1  0.68498000  0.18996000  0.01617000  1.0
  C  C96  1  0.16881000  0.17371000  0.98375000  1.0
  C  C97  1  0.31502000  0.81004000  0.98383000  1.0
  C  C98  1  0.65182000  0.53454000  0.75391000  1.0
  C  C99  1  0.60206000  0.21949000  0.75383000  1.0
  C  C100  1  0.34818000  0.46546000  0.24608000  1.0
  C  C101  1  0.39792000  0.78050000  0.24617000  1.0
  O  O102  1  0.63932000  0.42892000  0.47531000  1.0
  O  O103  1  0.33598000  0.04633000  0.47522000  1.0
  O  O104  1  0.36071000  0.57107000  0.52470000  1.0
  O  O105  1  0.66403000  0.95367000  0.52479000  1.0
  O  O106  1  0.38401000  0.25078000  0.51048000  1.0
  O  O107  1  0.62680000  0.25955000  0.51046000  1.0
  O  O108  1  0.61601000  0.74923000  0.48952000  1.0
  O  O109  1  0.37317000  0.74043000  0.48953000  1.0
  O  O110  1  0.38152000  0.33835000  0.41257000  1.0
  O  O111  1  0.53113000  0.07414000  0.41259000  1.0
  O  O112  1  0.61848000  0.66166000  0.58743000  1.0
  O  O113  1  0.46891000  0.92581000  0.58743000  1.0
  O  O114  1  0.55400000  0.48987000  0.65554000  1.0
  O  O115  1  0.60137000  0.16565000  0.65543000  1.0
  O  O116  1  0.44600000  0.51012000  0.34445000  1.0
  O  O117  1  0.39860000  0.83433000  0.34456000  1.0
  O  O118  1  0.71330000  0.47278000  0.77632000  1.0
  O  O119  1  0.56318000  0.30376000  0.77620000  1.0
  O  O120  1  0.28670000  0.52723000  0.22370000  1.0
  O  O121  1  0.43682000  0.69624000  0.22382000  1.0
