# generated using pymatgen
data_AlH5C14Cl3O5
_symmetry_space_group_name_H-M   'P 1'
_cell_length_a   6.57595000
_cell_length_b   11.09457023
_cell_length_c   17.49330000
_cell_angle_alpha   88.16235533
_cell_angle_beta   82.95480000
_cell_angle_gamma   73.66623174
_symmetry_Int_Tables_number   1
_chemical_formula_structural   AlH5C14Cl3O5
_chemical_formula_sum   'Al2 H10 C28 Cl6 O10'
_cell_volume   1215.50300526
_cell_formula_units_Z   2
loop_
 _symmetry_equiv_pos_site_id
 _symmetry_equiv_pos_as_xyz
  1  'x, y, z'
loop_
 _atom_site_type_symbol
 _atom_site_label
 _atom_site_symmetry_multiplicity
 _atom_site_fract_x
 _atom_site_fract_y
 _atom_site_fract_z
 _atom_site_occupancy
  Al  Al0  1  0.00658000  0.48294000  0.49893000  1.0
  Al  Al1  1  0.50546000  0.48321000  0.49960000  1.0
  H  H2  1  0.34043000  0.33252000  0.45762000  1.0
  H  H3  1  0.69605000  0.54355000  0.59165000  1.0
  H  H4  1  0.85290000  0.60943000  0.71613000  1.0
  H  H5  1  0.75258000  0.64905000  0.85617000  1.0
  H  H6  1  0.39578000  0.44570000  0.89469000  1.0
  H  H7  1  0.57554000  0.63874000  0.11729000  1.0
  H  H8  1  0.14972000  0.43811000  0.27754000  1.0
  H  H9  1  0.24129000  0.45939000  0.13635000  1.0
  H  H10  1  0.57285000  0.20784000  0.60037000  1.0
  H  H11  1  0.78860000  0.74245000  0.58020000  1.0
  C  C12  1  0.87356000  0.25580000  0.50617000  1.0
  C  C13  1  0.78151000  0.50181000  0.36230000  1.0
  C  C14  1  0.14144000  0.70771000  0.49311000  1.0
  C  C15  1  0.21905000  0.48818000  0.63974000  1.0
  C  C16  1  0.17852000  0.50672000  0.72493000  1.0
  C  C17  1  0.97106000  0.57434000  0.75595000  1.0
  C  C18  1  0.91434000  0.59649000  0.83412000  1.0
  C  C19  1  0.06662000  0.54821000  0.88563000  1.0
  C  C20  1  0.27632000  0.48305000  0.85568000  1.0
  C  C21  1  0.33214000  0.46300000  0.77671000  1.0
  C  C22  1  0.01048000  0.55847000  0.96628000  1.0
  C  C23  1  0.96302000  0.55814000  0.03598000  1.0
  C  C24  1  0.91412000  0.54906000  0.11658000  1.0
  C  C25  1  0.70259000  0.59329000  0.15183000  1.0
  C  C26  1  0.65258000  0.57928000  0.23085000  1.0
  C  C27  1  0.81449000  0.52174000  0.27740000  1.0
  C  C28  1  0.02550000  0.48021000  0.24116000  1.0
  C  C29  1  0.07668000  0.49245000  0.16276000  1.0
  C  C30  1  0.94286000  0.11485000  0.50475000  1.0
  C  C31  1  0.81317000  0.04565000  0.54720000  1.0
  C  C32  1  0.13201000  0.05155000  0.46135000  1.0
  C  C33  1  0.62358000  0.10616000  0.59495000  1.0
  C  C34  1  0.49926000  0.03838000  0.63535000  1.0
  C  C35  1  0.07330000  0.84853000  0.49716000  1.0
  C  C36  1  0.20147000  0.91770000  0.45924000  1.0
  C  C37  1  0.87702000  0.91121000  0.54211000  1.0
  C  C38  1  0.74629000  0.84403000  0.58441000  1.0
  C  C39  1  0.56211000  0.90510000  0.63001000  1.0
  Cl  Cl40  1  0.59359000  0.37833000  0.74823000  1.0
  Cl  Cl41  1  0.38675000  0.63746000  0.26612000  1.0
  Cl  Cl42  1  0.44151000  0.84605000  0.40723000  1.0
  Cl  Cl43  1  0.28349000  0.13142000  0.40391000  1.0
  Cl  Cl44  1  0.26941000  0.11662000  0.69196000  1.0
  Cl  Cl45  1  0.41106000  0.81774000  0.68067000  1.0
  O  O46  1  0.00917000  0.31020000  0.52189000  1.0
  O  O47  1  0.59346000  0.51665000  0.39563000  1.0
  O  O48  1  0.32656000  0.65222000  0.50997000  1.0
  O  O49  1  0.05406000  0.50692000  0.60437000  1.0
  O  O50  1  0.00638000  0.65387000  0.47556000  1.0
  O  O51  1  0.41076000  0.45892000  0.60741000  1.0
  O  O52  1  0.68471000  0.30959000  0.49094000  1.0
  O  O53  1  0.94943000  0.46809000  0.39637000  1.0
  O  O54  1  0.29510000  0.42232000  0.46795000  1.0
  O  O55  1  0.71898000  0.53698000  0.53584000  1.0
