# generated using pymatgen
data_Cu3P4H18C16(NO9)2
_symmetry_space_group_name_H-M   'P 1'
_cell_length_a   8.47676000
_cell_length_b   8.92252000
_cell_length_c   9.64120000
_cell_angle_alpha   109.64000000
_cell_angle_beta   99.74240000
_cell_angle_gamma   109.38300000
_symmetry_Int_Tables_number   1
_chemical_formula_structural   Cu3P4H18C16(NO9)2
_chemical_formula_sum   'Cu3 P4 H18 C16 N2 O18'
_cell_volume   614.65304481
_cell_formula_units_Z   1
loop_
 _symmetry_equiv_pos_site_id
 _symmetry_equiv_pos_as_xyz
  1  'x, y, z'
loop_
 _atom_site_type_symbol
 _atom_site_label
 _atom_site_symmetry_multiplicity
 _atom_site_fract_x
 _atom_site_fract_y
 _atom_site_fract_z
 _atom_site_occupancy
  Cu  Cu0  1  0.00059000  0.00048000  0.00010000  1.0
  Cu  Cu1  1  0.27120000  0.24256000  0.52198000  1.0
  Cu  Cu2  1  0.72820000  0.75690000  0.47811000  1.0
  P  P3  1  0.03398000  0.70962000  0.70154000  1.0
  P  P4  1  0.96610000  0.29057000  0.29817000  1.0
  P  P5  1  0.09772000  0.07067000  0.72885000  1.0
  P  P6  1  0.90221000  0.92895000  0.27095000  1.0
  H  H7  1  0.12790000  0.50832000  0.60814000  1.0
  H  H8  1  0.87156000  0.49144000  0.39148000  1.0
  H  H9  1  0.49449000  0.28484000  0.06671000  1.0
  H  H10  1  0.50600000  0.71539000  0.93364000  1.0
  H  H11  1  0.71954000  0.57099000  0.10676000  1.0
  H  H12  1  0.28054000  0.42927000  0.89325000  1.0
  H  H13  1  0.78029000  0.35306000  0.67379000  1.0
  H  H14  1  0.21978000  0.64688000  0.32624000  1.0
  H  H15  1  0.56611000  0.05372000  0.62289000  1.0
  H  H16  1  0.43419000  0.94621000  0.37744000  1.0
  H  H17  1  0.14944000  0.89642000  0.47295000  1.0
  H  H18  1  0.85089000  0.10354000  0.52674000  1.0
  H  H19  1  0.34719000  0.97418000  0.92005000  1.0
  H  H20  1  0.65249000  0.02574000  0.07980000  1.0
  H  H21  1  0.41847000  0.86860000  0.76735000  1.0
  H  H22  1  0.58179000  0.13148000  0.23289000  1.0
  H  H23  1  0.83953000  0.59153000  0.90679000  1.0
  H  H24  1  0.16025000  0.40867000  0.09320000  1.0
  C  C25  1  0.55407000  0.29212000  0.97632000  1.0
  C  C26  1  0.44624000  0.70803000  0.02391000  1.0
  C  C27  1  0.67832000  0.45306000  0.00079000  1.0
  C  C28  1  0.32181000  0.54713000  0.99927000  1.0
  C  C29  1  0.71384000  0.32927000  0.75652000  1.0
  C  C30  1  0.28626000  0.67078000  0.24354000  1.0
  C  C31  1  0.59299000  0.16538000  0.72922000  1.0
  C  C32  1  0.40726000  0.83466000  0.27098000  1.0
  C  C33  1  0.18920000  0.90376000  0.68728000  1.0
  C  C34  1  0.81120000  0.09620000  0.31239000  1.0
  C  C35  1  0.48296000  0.44014000  0.41522000  1.0
  C  C36  1  0.51569000  0.55901000  0.58446000  1.0
  C  C37  1  0.50668000  0.14447000  0.83834000  1.0
  C  C38  1  0.49359000  0.85565000  0.16189000  1.0
  C  C39  1  0.37011000  0.97007000  0.81043000  1.0
  C  C40  1  0.63011000  0.03001000  0.18966000  1.0
  N  N41  1  0.75280000  0.46845000  0.89052000  1.0
  N  N42  1  0.24716000  0.53169000  0.10944000  1.0
  O  O43  1  0.54889000  0.51379000  0.33423000  1.0
  O  O44  1  0.44992000  0.48536000  0.66551000  1.0
  O  O45  1  0.90445000  0.99105000  0.62519000  1.0
  O  O46  1  0.09531000  0.00869000  0.37568000  1.0
  O  O47  1  0.87633000  0.60873000  0.55387000  1.0
  O  O48  1  0.12354000  0.39166000  0.44596000  1.0
  O  O49  1  0.21377000  0.22391000  0.70137000  1.0
  O  O50  1  0.78594000  0.77629000  0.29879000  1.0
  O  O51  1  0.11846000  0.13836000  0.90341000  1.0
  O  O52  1  0.88308000  0.86204000  0.09684000  1.0
  O  O53  1  0.99258000  0.77318000  0.85457000  1.0
  O  O54  1  0.00801000  0.22779000  0.14528000  1.0
  O  O55  1  0.13423000  0.59173000  0.71506000  1.0
  O  O56  1  0.86531000  0.40803000  0.28463000  1.0
  O  O57  1  0.39271000  0.27700000  0.36726000  1.0
  O  O58  1  0.60598000  0.72216000  0.63243000  1.0
  O  O59  1  0.21051000  0.85265000  0.53745000  1.0
  O  O60  1  0.79025000  0.14767000  0.46245000  1.0
