# generated using pymatgen
data_Ag5H16C25N9
_symmetry_space_group_name_H-M   'P 1'
_cell_length_a   8.59572000
_cell_length_b   8.89249000
_cell_length_c   9.22463000
_cell_angle_alpha   73.15790000
_cell_angle_beta   76.25160000
_cell_angle_gamma   80.51700000
_symmetry_Int_Tables_number   1
_chemical_formula_structural   Ag5H16C25N9
_chemical_formula_sum   'Ag5 H16 C25 N9'
_cell_volume   652.02972286
_cell_formula_units_Z   1
loop_
 _symmetry_equiv_pos_site_id
 _symmetry_equiv_pos_as_xyz
  1  'x, y, z'
loop_
 _atom_site_type_symbol
 _atom_site_label
 _atom_site_symmetry_multiplicity
 _atom_site_fract_x
 _atom_site_fract_y
 _atom_site_fract_z
 _atom_site_occupancy
  Ag  Ag0  1  0.32370000  0.23140000  0.31608000  1.0
  Ag  Ag1  1  0.97552000  0.23177000  0.52577000  1.0
  Ag  Ag2  1  0.22885000  0.62752000  0.67315000  1.0
  Ag  Ag3  1  0.87913000  0.61301000  0.89368000  1.0
  Ag  Ag4  1  0.60125000  0.42175000  0.10385000  1.0
  H  H5  1  0.14132000  0.33317000  0.03429000  1.0
  H  H6  1  0.09603000  0.22351000  0.83016000  1.0
  H  H7  1  0.20708000  0.94309000  0.83033000  1.0
  H  H8  1  0.36535000  0.79016000  0.02890000  1.0
  H  H9  1  0.43003000  0.66060000  0.23597000  1.0
  H  H10  1  0.60548000  0.53524000  0.42638000  1.0
  H  H11  1  0.70797000  0.70577000  0.54976000  1.0
  H  H12  1  0.62849000  0.99952000  0.47295000  1.0
  H  H13  1  0.05677000  0.50907000  0.17852000  1.0
  H  H14  1  0.10951000  0.62210000  0.37767000  1.0
  H  H15  1  0.00557000  0.90552000  0.37153000  1.0
  H  H16  1  0.84798000  0.05771000  0.17328000  1.0
  H  H17  1  0.77519000  0.18515000  0.97156000  1.0
  H  H18  1  0.60247000  0.31056000  0.77904000  1.0
  H  H19  1  0.50396000  0.14097000  0.65211000  1.0
  H  H20  1  0.58395000  0.84717000  0.72844000  1.0
  C  C21  1  0.30264000  0.36186000  0.46764000  1.0
  C  C22  1  0.75788000  0.32849000  0.24788000  1.0
  C  C23  1  0.44629000  0.50930000  0.95736000  1.0
  C  C24  1  0.12658000  0.85652000  0.61550000  1.0
  C  C25  1  0.89986000  0.48065000  0.74472000  1.0
  C  C26  1  0.18943000  0.21296000  0.03004000  1.0
  C  C27  1  0.16341000  0.15086000  0.91654000  1.0
  C  C28  1  0.22576000  0.99591000  0.91691000  1.0
  C  C29  1  0.31343000  0.91039000  0.02859000  1.0
  C  C30  1  0.33799000  0.98112000  0.13743000  1.0
  C  C31  1  0.43730000  0.89712000  0.25372000  1.0
  C  C32  1  0.47684000  0.73330000  0.28934000  1.0
  C  C33  1  0.57361000  0.66249000  0.39760000  1.0
  C  C34  1  0.62881000  0.75694000  0.46755000  1.0
  C  C35  1  0.58411000  0.91937000  0.42586000  1.0
  C  C36  1  0.01269000  0.63082000  0.18003000  1.0
  C  C37  1  0.04263000  0.69452000  0.29076000  1.0
  C  C38  1  0.98432000  0.85103000  0.28724000  1.0
  C  C39  1  0.89670000  0.93639000  0.17547000  1.0
  C  C40  1  0.86853000  0.86431000  0.06922000  1.0
  C  C41  1  0.77023000  0.94872000  0.95211000  1.0
  C  C42  1  0.73027000  0.11245000  0.91681000  1.0
  C  C43  1  0.63504000  0.18347000  0.80726000  1.0
  C  C44  1  0.58167000  0.08949000  0.73558000  1.0
  C  C45  1  0.62656000  0.92714000  0.77707000  1.0
  N  N46  1  0.29724000  0.43481000  0.55668000  1.0
  N  N47  1  0.84912000  0.27927000  0.33095000  1.0
  N  N48  1  0.36022000  0.54867000  0.86893000  1.0
  N  N49  1  0.07439000  0.99004000  0.59144000  1.0
  N  N50  1  0.90996000  0.40951000  0.65320000  1.0
  N  N51  1  0.27448000  0.13113000  0.13805000  1.0
  N  N52  1  0.49036000  0.98770000  0.32296000  1.0
  N  N53  1  0.92826000  0.71280000  0.07160000  1.0
  N  N54  1  0.71846000  0.85862000  0.88150000  1.0
