# generated using pymatgen
data_ZnH15C12BrN5ClO
_symmetry_space_group_name_H-M   'P 1'
_cell_length_a   7.20898000
_cell_length_b   9.34534000
_cell_length_c   22.68500000
_cell_angle_alpha   90.00000000
_cell_angle_beta   90.00000000
_cell_angle_gamma   94.90680000
_symmetry_Int_Tables_number   1
_chemical_formula_structural   ZnH15C12BrN5ClO
_chemical_formula_sum   'Zn4 H60 C48 Br4 N20 Cl4 O4'
_cell_volume   1522.69584821
_cell_formula_units_Z   4
loop_
 _symmetry_equiv_pos_site_id
 _symmetry_equiv_pos_as_xyz
  1  'x, y, z'
loop_
 _atom_site_type_symbol
 _atom_site_label
 _atom_site_symmetry_multiplicity
 _atom_site_fract_x
 _atom_site_fract_y
 _atom_site_fract_z
 _atom_site_occupancy
  Zn  Zn0  1  0.18388000  0.31602000  0.25867000  1.0
  Zn  Zn1  1  0.31612000  0.68398000  0.75867000  1.0
  Zn  Zn2  1  0.81612000  0.68398000  0.74133000  1.0
  Zn  Zn3  1  0.68388000  0.31602000  0.24133000  1.0
  H  H4  1  0.18398000  0.62471000  0.00330000  1.0
  H  H5  1  0.31602000  0.37528000  0.50330000  1.0
  H  H6  1  0.81602000  0.37529000  0.99670000  1.0
  H  H7  1  0.68397000  0.62471000  0.49670000  1.0
  H  H8  1  0.12714000  0.84337000  0.16835000  1.0
  H  H9  1  0.37286000  0.15663000  0.66835000  1.0
  H  H10  1  0.87286000  0.15663000  0.83165000  1.0
  H  H11  1  0.62715000  0.84337000  0.33165000  1.0
  H  H12  1  0.15909000  0.74156000  0.25503000  1.0
  H  H13  1  0.34091000  0.25844000  0.75503000  1.0
  H  H14  1  0.84091000  0.25844000  0.74497000  1.0
  H  H15  1  0.65909000  0.74156000  0.24497000  1.0
  H  H16  1  0.03612000  0.59161000  0.34905000  1.0
  H  H17  1  0.46388000  0.40838000  0.84905000  1.0
  H  H18  1  0.96389000  0.40839000  0.65095000  1.0
  H  H19  1  0.53611000  0.59161000  0.15095000  1.0
  H  H20  1  0.27309000  0.65979000  0.35023000  1.0
  H  H21  1  0.22691000  0.34021000  0.85023000  1.0
  H  H22  1  0.72691000  0.34020000  0.64977000  1.0
  H  H23  1  0.77309000  0.65980000  0.14977000  1.0
  H  H24  1  0.37579000  0.42548000  0.37436000  1.0
  H  H25  1  0.12421000  0.57452000  0.87436000  1.0
  H  H26  1  0.62421000  0.57451000  0.62564000  1.0
  H  H27  1  0.87579000  0.42549000  0.12564000  1.0
  H  H28  1  0.18921000  0.45722000  0.42252000  1.0
  H  H29  1  0.31079000  0.54278000  0.92252000  1.0
  H  H30  1  0.81078000  0.54278000  0.57748000  1.0
  H  H31  1  0.68921000  0.45722000  0.07748000  1.0
  H  H32  1  0.15641000  0.20086000  0.43621000  1.0
  H  H33  1  0.34359000  0.79913000  0.93621000  1.0
  H  H34  1  0.84359000  0.79914000  0.56379000  1.0
  H  H35  1  0.65641000  0.20087000  0.06379000  1.0
  H  H36  1  0.32604000  0.16598000  0.38288000  1.0
  H  H37  1  0.17396000  0.83402000  0.88288000  1.0
  H  H38  1  0.67396000  0.83402000  0.61712000  1.0
  H  H39  1  0.82604000  0.16598000  0.11713000  1.0
  H  H40  1  0.07960000  0.01506000  0.32599000  1.0
  H  H41  1  0.42040000  0.98493000  0.82599000  1.0
  H  H42  1  0.92039000  0.98493000  0.67401000  1.0
  H  H43  1  0.57961000  0.01507000  0.17401000  1.0
  H  H44  1  0.91105000  0.05812000  0.37813000  1.0
  H  H45  1  0.58895000  0.94188000  0.87813000  1.0
  H  H46  1  0.08895000  0.94188000  0.62187000  1.0
  H  H47  1  0.41105000  0.05812000  0.12187000  1.0
  H  H48  1  0.25606000  0.89484000  0.40442000  1.0
  H  H49  1  0.24394000  0.10515000  0.90442000  1.0
  H  H50  1  0.74394000  0.10516000  0.59558000  1.0
  H  H51  1  0.75606000  0.89485000  0.09558000  1.0
  H  H52  1  0.02271000  0.81711000  0.39939000  1.0
  H  H53  1  0.47729000  0.18289000  0.89939000  1.0
  H  H54  1  0.97729000  0.18289000  0.60061000  1.0
  H  H55  1  0.52271000  0.81711000  0.10061000  1.0
  H  H56  1  0.08886000  0.93697000  0.45773000  1.0
  H  H57  1  0.41114000  0.06303000  0.95773000  1.0
  H  H58  1  0.91113000  0.06304000  0.54228000  1.0
  H  H59  1  0.58886000  0.93697000  0.04227000  1.0
  H  H60  1  0.98724000  0.30997000  0.35538000  1.0
  H  H61  1  0.51276000  0.69003000  0.85538000  1.0
  H  H62  1  0.01276000  0.69003000  0.64462000  1.0
  H  H63  1  0.48724000  0.30997000  0.14462000  1.0
  C  C64  1  0.17989000  0.61986000  0.17524000  1.0
  C  C65  1  0.32011000  0.38014000  0.67524000  1.0
  C  C66  1  0.82012000  0.38014000  0.82476000  1.0
  C  C67  1  0.67989000  0.61986000  0.32476000  1.0
  C  C68  1  0.21183000  0.48861000  0.14478000  1.0
  C  C69  1  0.28817000  0.51139000  0.64478000  1.0
  C  C70  1  0.78817000  0.51139000  0.85522000  1.0
  C  C71  1  0.71183000  0.48861000  0.35522000  1.0
  C  C72  1  0.21403000  0.49892000  0.08163000  1.0
  C  C73  1  0.28598000  0.50107000  0.58163000  1.0
  C  C74  1  0.78598000  0.50108000  0.91837000  1.0
  C  C75  1  0.71402000  0.49892000  0.41837000  1.0
  C  C76  1  0.18389000  0.62327000  0.05125000  1.0
  C  C77  1  0.31611000  0.37672000  0.55125000  1.0
  C  C78  1  0.81611000  0.37673000  0.94875000  1.0
  C  C79  1  0.68388000  0.62327000  0.44875000  1.0
  C  C80  1  0.15292000  0.74825000  0.08285000  1.0
  C  C81  1  0.34709000  0.25175000  0.58285000  1.0
  C  C82  1  0.84709000  0.25175000  0.91715000  1.0
  C  C83  1  0.65291000  0.74825000  0.41715000  1.0
  C  C84  1  0.15194000  0.74673000  0.14372000  1.0
  C  C85  1  0.34807000  0.25327000  0.64372000  1.0
  C  C86  1  0.84807000  0.25327000  0.85628000  1.0
  C  C87  1  0.65194000  0.74673000  0.35628000  1.0
  C  C88  1  0.17625000  0.63268000  0.23858000  1.0
  C  C89  1  0.32375000  0.36732000  0.73858000  1.0
  C  C90  1  0.82376000  0.36732000  0.76142000  1.0
  C  C91  1  0.67625000  0.63268000  0.26142000  1.0
  C  C92  1  0.17857000  0.56510000  0.33912000  1.0
  C  C93  1  0.32143000  0.43490000  0.83912000  1.0
  C  C94  1  0.82144000  0.43490000  0.66088000  1.0
  C  C95  1  0.67856000  0.56511000  0.16088000  1.0
  C  C96  1  0.22570000  0.43746000  0.37616000  1.0
  C  C97  1  0.27430000  0.56254000  0.87616000  1.0
  C  C98  1  0.77430000  0.56254000  0.62384000  1.0
  C  C99  1  0.72570000  0.43746000  0.12384000  1.0
  C  C100  1  0.17668000  0.17856000  0.38886000  1.0
  C  C101  1  0.32332000  0.82144000  0.88886000  1.0
  C  C102  1  0.82332000  0.82144000  0.61114000  1.0
  C  C103  1  0.67668000  0.17856000  0.11114000  1.0
  C  C104  1  0.05942000  0.04103000  0.37267000  1.0
  C  C105  1  0.44058000  0.95896000  0.87267000  1.0
  C  C106  1  0.94058000  0.95897000  0.62733000  1.0
  C  C107  1  0.55942000  0.04104000  0.12733000  1.0
  C  C108  1  0.10956000  0.91526000  0.41066000  1.0
  C  C109  1  0.39044000  0.08474000  0.91066000  1.0
  C  C110  1  0.89043000  0.08474000  0.58935000  1.0
  C  C111  1  0.60956000  0.91526000  0.08934000  1.0
  Br  Br112  1  0.25736000  0.33096000  0.03781000  1.0
  Br  Br113  1  0.24264000  0.66903000  0.53780000  1.0
  Br  Br114  1  0.74264000  0.66903000  0.96220000  1.0
  Br  Br115  1  0.75735000  0.33096000  0.46220000  1.0
  N  N116  1  0.19096000  0.53048000  0.27641000  1.0
  N  N117  1  0.30904000  0.46951000  0.77641000  1.0
  N  N118  1  0.80905000  0.46952000  0.72359000  1.0
  N  N119  1  0.69095000  0.53049000  0.22359000  1.0
  N  N120  1  0.12947000  0.30314000  0.35374000  1.0
  N  N121  1  0.37053000  0.69685000  0.85374000  1.0
  N  N122  1  0.87053000  0.69685000  0.64626000  1.0
  N  N123  1  0.62947000  0.30315000  0.14626000  1.0
  N  N124  1  0.42372000  0.20654000  0.26165000  1.0
  N  N125  1  0.07629000  0.79346000  0.76165000  1.0
  N  N126  1  0.57628000  0.79345000  0.73835000  1.0
  N  N127  1  0.92371000  0.20654000  0.23835000  1.0
  N  N128  1  0.41340000  0.07757000  0.26947000  1.0
  N  N129  1  0.08660000  0.92244000  0.76947000  1.0
  N  N130  1  0.58660000  0.92244000  0.73053000  1.0
  N  N131  1  0.91340000  0.07757000  0.23053000  1.0
  N  N132  1  0.40430000  0.95410000  0.27644000  1.0
  N  N133  1  0.09571000  0.04590000  0.77644000  1.0
  N  N134  1  0.59571000  0.04590000  0.72356000  1.0
  N  N135  1  0.90429000  0.95410000  0.22356000  1.0
  Cl  Cl136  1  0.12158000  0.90525000  0.04485000  1.0
  Cl  Cl137  1  0.37843000  0.09474000  0.54485000  1.0
  Cl  Cl138  1  0.87842000  0.09475000  0.95515000  1.0
  Cl  Cl139  1  0.62157000  0.90525000  0.45515000  1.0
  O  O140  1  0.24138000  0.36906000  0.17086000  1.0
  O  O141  1  0.25862000  0.63094000  0.67086000  1.0
  O  O142  1  0.75863000  0.63094000  0.82914000  1.0
  O  O143  1  0.74138000  0.36906000  0.32914000  1.0
