# generated using pymatgen
data_CdH18C23N8O5
_symmetry_space_group_name_H-M   'P 1'
_cell_length_a   12.56020000
_cell_length_b   14.99410000
_cell_length_c   15.02950000
_cell_angle_alpha   67.37600000
_cell_angle_beta   76.50830000
_cell_angle_gamma   77.36150000
_symmetry_Int_Tables_number   1
_chemical_formula_structural   CdH18C23N8O5
_chemical_formula_sum   'Cd4 H72 C92 N32 O20'
_cell_volume   2514.18399773
_cell_formula_units_Z   4
loop_
 _symmetry_equiv_pos_site_id
 _symmetry_equiv_pos_as_xyz
  1  'x, y, z'
loop_
 _atom_site_type_symbol
 _atom_site_label
 _atom_site_symmetry_multiplicity
 _atom_site_fract_x
 _atom_site_fract_y
 _atom_site_fract_z
 _atom_site_occupancy
  Cd  Cd0  1  0.15127000  0.67305000  0.93185000  1.0
  Cd  Cd1  1  0.84872000  0.32695000  0.06815000  1.0
  Cd  Cd2  1  0.56869000  0.92787000  0.37091000  1.0
  Cd  Cd3  1  0.43130000  0.07213000  0.62908000  1.0
  H  H4  1  0.00286000  0.06593000  0.16312000  1.0
  H  H5  1  0.99715000  0.93406000  0.83688000  1.0
  H  H6  1  0.04392000  0.00359000  0.07599000  1.0
  H  H7  1  0.95608000  0.99640000  0.92402000  1.0
  H  H8  1  0.08913000  0.77410000  0.09836000  1.0
  H  H9  1  0.91087000  0.22590000  0.90164000  1.0
  H  H10  1  0.82184000  0.01301000  0.29857000  1.0
  H  H11  1  0.17816000  0.98699000  0.70143000  1.0
  H  H12  1  0.67268000  0.71559000  0.41395000  1.0
  H  H13  1  0.32732000  0.28441000  0.58605000  1.0
  H  H14  1  0.89901000  0.92641000  0.71298000  1.0
  H  H15  1  0.10099000  0.07359000  0.28702000  1.0
  H  H16  1  0.92184000  0.62945000  0.73227000  1.0
  H  H17  1  0.07816000  0.37055000  0.26773000  1.0
  H  H18  1  0.72200000  0.51356000  0.21266000  1.0
  H  H19  1  0.27800000  0.48644000  0.78734000  1.0
  H  H20  1  0.84844000  0.43067000  0.22954000  1.0
  H  H21  1  0.15156000  0.56934000  0.77046000  1.0
  H  H22  1  0.43045000  0.90928000  0.90758000  1.0
  H  H23  1  0.56954000  0.09072000  0.09242000  1.0
  H  H24  1  0.37883000  0.44506000  0.18686000  1.0
  H  H25  1  0.62117000  0.55494000  0.81314000  1.0
  H  H26  1  0.80136000  0.68561000  0.60390000  1.0
  H  H27  1  0.19863000  0.31440000  0.39609000  1.0
  H  H28  1  0.72139000  0.86202000  0.15492000  1.0
  H  H29  1  0.27861000  0.13799000  0.84509000  1.0
  H  H30  1  0.01647000  0.49329000  0.12026000  1.0
  H  H31  1  0.98353000  0.50671000  0.87974000  1.0
  H  H32  1  0.78284000  0.98202000  0.58229000  1.0
  H  H33  1  0.21716000  0.01799000  0.41771000  1.0
  H  H34  1  0.45864000  0.27564000  0.28630000  1.0
  H  H35  1  0.54135000  0.72437000  0.71369000  1.0
  H  H36  1  0.42539000  0.71932000  0.20292000  1.0
  H  H37  1  0.57462000  0.28068000  0.79708000  1.0
  H  H38  1  0.31910000  0.70654000  0.41425000  1.0
  H  H39  1  0.68090000  0.29345000  0.58575000  1.0
  H  H40  1  0.34781000  0.15837000  0.11046000  1.0
  H  H41  1  0.65220000  0.84163000  0.88954000  1.0
  H  H42  1  0.27030000  0.32739000  0.01003000  1.0
  H  H43  1  0.72970000  0.67260000  0.98997000  1.0
  H  H44  1  0.05043000  0.91201000  0.49192000  1.0
  H  H45  1  0.94957000  0.08799000  0.50808000  1.0
  H  H46  1  0.89610000  0.79413000  0.03379000  1.0
  H  H47  1  0.10389000  0.20587000  0.96621000  1.0
  H  H48  1  0.42703000  0.86468000  0.24665000  1.0
  H  H49  1  0.57297000  0.13532000  0.75336000  1.0
  H  H50  1  0.35486000  0.92681000  0.07246000  1.0
  H  H51  1  0.64513000  0.07318000  0.92754000  1.0
  H  H52  1  0.02393000  0.32616000  0.49522000  1.0
  H  H53  1  0.97608000  0.67384000  0.50477000  1.0
  H  H54  1  0.37167000  0.66120000  0.57841000  1.0
  H  H55  1  0.62833000  0.33879000  0.42160000  1.0
  H  H56  1  0.33035000  0.81899000  0.85039000  1.0
  H  H57  1  0.66965000  0.18102000  0.14961000  1.0
  H  H58  1  0.11396000  0.85837000  0.65275000  1.0
  H  H59  1  0.88604000  0.14163000  0.34725000  1.0
  H  H60  1  0.77553000  0.49593000  0.64058000  1.0
  H  H61  1  0.22448000  0.50407000  0.35942000  1.0
  H  H62  1  0.86473000  0.41027000  0.78914000  1.0
  H  H63  1  0.13527000  0.58973000  0.21086000  1.0
  H  H64  1  0.55881000  0.56835000  0.26414000  1.0
  H  H65  1  0.44120000  0.43164000  0.73587000  1.0
  H  H66  1  0.10719000  0.25083000  0.64721000  1.0
  H  H67  1  0.89282000  0.74917000  0.35279000  1.0
  H  H68  1  0.47095000  0.87471000  0.56830000  1.0
  H  H69  1  0.52905000  0.12530000  0.43170000  1.0
  H  H70  1  0.37859000  0.94539000  0.51383000  1.0
  H  H71  1  0.62141000  0.05462000  0.48617000  1.0
  H  H72  1  0.35939000  0.65885000  0.80596000  1.0
  H  H73  1  0.64061000  0.34115000  0.19404000  1.0
  H  H74  1  0.27886000  0.72716000  0.72683000  1.0
  H  H75  1  0.72114000  0.27284000  0.27318000  1.0
  C  C76  1  0.99428000  0.74196000  0.80379000  1.0
  C  C77  1  0.00571000  0.25804000  0.19621000  1.0
  C  C78  1  0.71935000  0.87025000  0.50480000  1.0
  C  C79  1  0.28065000  0.12977000  0.49520000  1.0
  C  C80  1  0.71636000  0.55173000  0.38164000  1.0
  C  C81  1  0.28365000  0.44827000  0.61836000  1.0
  C  C82  1  0.78767000  0.83716000  0.58389000  1.0
  C  C83  1  0.21233000  0.16285000  0.41611000  1.0
  C  C84  1  0.21523000  0.85354000  0.09581000  1.0
  C  C85  1  0.78477000  0.14646000  0.90419000  1.0
  C  C86  1  0.32110000  0.39619000  0.09212000  1.0
  C  C87  1  0.67890000  0.60381000  0.90787000  1.0
  C  C88  1  0.00919000  0.99627000  0.15205000  1.0
  C  C89  1  0.99081000  0.00373000  0.84795000  1.0
  C  C90  1  0.16409000  0.80582000  0.05723000  1.0
  C  C91  1  0.83590000  0.19418000  0.94277000  1.0
  C  C92  1  0.91742000  0.77442000  0.73111000  1.0
  C  C93  1  0.08257000  0.22558000  0.26889000  1.0
  C  C94  1  0.15472000  0.84594000  0.34155000  1.0
  C  C95  1  0.84529000  0.15405000  0.65846000  1.0
  C  C96  1  0.40945000  0.20716000  0.20302000  1.0
  C  C97  1  0.59055000  0.79285000  0.79698000  1.0
  C  C98  1  0.81800000  0.97858000  0.24798000  1.0
  C  C99  1  0.18200000  0.02142000  0.75202000  1.0
  C  C100  1  0.62045000  0.71407000  0.36605000  1.0
  C  C101  1  0.37955000  0.28593000  0.63395000  1.0
  C  C102  1  0.87734000  0.87367000  0.68926000  1.0
  C  C103  1  0.12265000  0.12634000  0.31074000  1.0
  C  C104  1  0.89246000  0.41763000  0.55583000  1.0
  C  C105  1  0.10755000  0.58237000  0.44417000  1.0
  C  C106  1  0.83697000  0.46348000  0.47027000  1.0
  C  C107  1  0.16304000  0.53652000  0.52973000  1.0
  C  C108  1  0.18141000  0.81402000  0.43963000  1.0
  C  C109  1  0.81859000  0.18598000  0.56038000  1.0
  C  C110  1  0.89005000  0.70642000  0.70020000  1.0
  C  C111  1  0.10994000  0.29359000  0.29979000  1.0
  C  C112  1  0.80325000  0.50085000  0.23337000  1.0
  C  C113  1  0.19675000  0.49915000  0.76663000  1.0
  C  C114  1  0.62942000  0.63078000  0.34225000  1.0
  C  C115  1  0.37059000  0.36922000  0.65775000  1.0
  C  C116  1  0.17233000  0.86068000  0.19275000  1.0
  C  C117  1  0.82767000  0.13931000  0.80726000  1.0
  C  C118  1  0.35568000  0.88006000  0.95264000  1.0
  C  C119  1  0.64432000  0.11994000  0.04736000  1.0
  C  C120  1  0.37467000  0.38162000  0.16979000  1.0
  C  C121  1  0.62533000  0.61839000  0.83021000  1.0
  C  C122  1  0.82480000  0.73755000  0.62781000  1.0
  C  C123  1  0.17520000  0.26246000  0.37218000  1.0
  C  C124  1  0.76969000  0.90188000  0.17392000  1.0
  C  C125  1  0.23031000  0.09812000  0.82608000  1.0
  C  C126  1  0.96820000  0.56459000  0.11314000  1.0
  C  C127  1  0.03179000  0.43541000  0.88686000  1.0
  C  C128  1  0.81355000  0.90497000  0.61577000  1.0
  C  C129  1  0.18644000  0.09504000  0.38423000  1.0
  C  C130  1  0.41876000  0.28803000  0.22462000  1.0
  C  C131  1  0.58124000  0.71197000  0.77538000  1.0
  C  C132  1  0.26848000  0.49662000  0.03635000  1.0
  C  C133  1  0.73153000  0.50339000  0.96364000  1.0
  C  C134  1  0.48392000  0.71625000  0.24751000  1.0
  C  C135  1  0.51609000  0.28374000  0.75249000  1.0
  C  C136  1  0.27202000  0.74160000  0.46549000  1.0
  C  C137  1  0.72799000  0.25839000  0.53452000  1.0
  C  C138  1  0.35587000  0.22195000  0.12543000  1.0
  C  C139  1  0.64413000  0.77806000  0.87457000  1.0
  C  C140  1  0.31265000  0.31557000  0.07000000  1.0
  C  C141  1  0.68735000  0.68443000  0.92999000  1.0
  C  C142  1  0.12212000  0.85629000  0.50830000  1.0
  C  C143  1  0.87789000  0.14370000  0.49170000  1.0
  C  C144  1  0.90226000  0.71567000  0.07034000  1.0
  C  C145  1  0.09774000  0.28433000  0.92965000  1.0
  C  C146  1  0.48298000  0.79693000  0.27247000  1.0
  C  C147  1  0.51703000  0.20307000  0.72753000  1.0
  C  C148  1  0.31340000  0.89036000  0.04274000  1.0
  C  C149  1  0.68660000  0.10964000  0.95726000  1.0
  C  C150  1  0.98736000  0.34779000  0.55839000  1.0
  C  C151  1  0.01264000  0.65221000  0.44161000  1.0
  C  C152  1  0.30037000  0.71618000  0.55684000  1.0
  C  C153  1  0.69963000  0.28381000  0.44316000  1.0
  C  C154  1  0.29990000  0.83108000  0.91958000  1.0
  C  C155  1  0.70010000  0.16892000  0.08042000  1.0
  C  C156  1  0.15707000  0.82623000  0.59791000  1.0
  C  C157  1  0.84293000  0.17376000  0.40210000  1.0
  C  C158  1  0.84902000  0.44176000  0.63981000  1.0
  C  C159  1  0.15099000  0.55824000  0.36019000  1.0
  C  C160  1  0.89982000  0.39421000  0.72218000  1.0
  C  C161  1  0.10018000  0.60579000  0.27782000  1.0
  C  C162  1  0.55814000  0.63213000  0.28246000  1.0
  C  C163  1  0.44187000  0.36787000  0.71754000  1.0
  C  C164  1  0.03292000  0.30530000  0.64404000  1.0
  C  C165  1  0.96708000  0.69471000  0.35596000  1.0
  C  C166  1  0.45661000  0.10597000  0.26115000  1.0
  C  C167  1  0.54339000  0.89404000  0.73885000  1.0
  N  N168  1  0.79222000  0.49869000  0.33246000  1.0
  N  N169  1  0.20779000  0.50131000  0.66754000  1.0
  N  N170  1  0.20655000  0.79416000  0.97110000  1.0
  N  N171  1  0.79345000  0.20585000  0.02889000  1.0
  N  N172  1  0.99402000  0.65211000  0.05370000  1.0
  N  N173  1  0.00598000  0.34789000  0.94630000  1.0
  N  N174  1  0.74275000  0.52993000  0.46911000  1.0
  N  N175  1  0.25726000  0.47007000  0.53089000  1.0
  N  N176  1  0.89945000  0.96968000  0.17418000  1.0
  N  N177  1  0.10056000  0.03032000  0.82582000  1.0
  N  N178  1  0.08164000  0.92231000  0.21522000  1.0
  N  N179  1  0.91836000  0.07768000  0.78478000  1.0
  N  N180  1  0.86547000  0.57639000  0.16294000  1.0
  N  N181  1  0.13453000  0.42361000  0.83706000  1.0
  N  N182  1  0.22021000  0.81210000  0.27114000  1.0
  N  N183  1  0.77979000  0.18788000  0.72886000  1.0
  N  N184  1  0.99043000  0.32633000  0.72575000  1.0
  N  N185  1  0.00957000  0.67367000  0.27425000  1.0
  N  N186  1  0.87041000  0.44306000  0.38787000  1.0
  N  N187  1  0.12959000  0.55693000  0.61213000  1.0
  N  N188  1  0.73437000  0.93642000  0.24944000  1.0
  N  N189  1  0.26563000  0.06359000  0.75056000  1.0
  N  N190  1  0.54982000  0.79509000  0.33140000  1.0
  N  N191  1  0.45018000  0.20490000  0.66861000  1.0
  N  N192  1  0.06932000  0.91356000  0.31022000  1.0
  N  N193  1  0.93069000  0.08644000  0.68978000  1.0
  N  N194  1  0.82138000  0.67266000  0.13638000  1.0
  N  N195  1  0.17862000  0.32734000  0.86362000  1.0
  N  N196  1  0.24419000  0.75714000  0.62249000  1.0
  N  N197  1  0.75581000  0.24286000  0.37751000  1.0
  N  N198  1  0.87021000  0.92028000  0.12601000  1.0
  N  N199  1  0.12979000  0.07972000  0.87400000  1.0
  O  O200  1  0.02409000  0.80545000  0.82675000  1.0
  O  O201  1  0.97590000  0.19454000  0.17325000  1.0
  O  O202  1  0.23259000  0.50875000  0.95846000  1.0
  O  O203  1  0.76741000  0.49126000  0.04153000  1.0
  O  O204  1  0.69975000  0.96194000  0.45589000  1.0
  O  O205  1  0.30025000  0.03808000  0.54411000  1.0
  O  O206  1  0.03187000  0.65127000  0.83814000  1.0
  O  O207  1  0.96812000  0.34873000  0.16186000  1.0
  O  O208  1  0.25874000  0.56506000  0.06898000  1.0
  O  O209  1  0.74126000  0.43495000  0.93101000  1.0
  O  O210  1  0.68311000  0.80650000  0.48809000  1.0
  O  O211  1  0.31689000  0.19352000  0.51190000  1.0
  O  O212  1  0.45242000  0.03445000  0.23711000  1.0
  O  O213  1  0.54759000  0.96555000  0.76290000  1.0
  O  O214  1  0.50400000  0.09479000  0.33274000  1.0
  O  O215  1  0.49600000  0.90522000  0.66726000  1.0
  O  O216  1  0.43625000  0.88848000  0.51084000  1.0
  O  O217  1  0.56375000  0.11153000  0.48916000  1.0
  O  O218  1  0.29653000  0.71051000  0.79607000  1.0
  O  O219  1  0.70347000  0.28949000  0.20393000  1.0
