# generated using pymatgen
data_CdH4C6(N3O2)2
_symmetry_space_group_name_H-M   'P 1'
_cell_length_a   10.02810000
_cell_length_b   13.71631925
_cell_length_c   13.78638635
_cell_angle_alpha   82.52216684
_cell_angle_beta   68.67274534
_cell_angle_gamma   69.03267354
_symmetry_Int_Tables_number   1
_chemical_formula_structural   CdH4C6(N3O2)2
_chemical_formula_sum   'Cd6 H24 C36 N36 O24'
_cell_volume   1649.47149822
_cell_formula_units_Z   6
loop_
 _symmetry_equiv_pos_site_id
 _symmetry_equiv_pos_as_xyz
  1  'x, y, z'
loop_
 _atom_site_type_symbol
 _atom_site_label
 _atom_site_symmetry_multiplicity
 _atom_site_fract_x
 _atom_site_fract_y
 _atom_site_fract_z
 _atom_site_occupancy
  Cd  Cd0  1  0.99940000  0.99969000  0.00065000  1.0
  Cd  Cd1  1  0.75016000  0.49957000  0.49932000  1.0
  Cd  Cd2  1  0.87453000  0.88796000  0.61299000  1.0
  Cd  Cd3  1  0.37497000  0.11364000  0.38743000  1.0
  Cd  Cd4  1  0.23746000  0.38808000  0.88702000  1.0
  Cd  Cd5  1  0.51226000  0.61375000  0.11264000  1.0
  H  H6  1  0.25807000  0.78917000  0.83801000  1.0
  H  H7  1  0.88622000  0.21146000  0.16228000  1.0
  H  H8  1  0.95157000  0.16175000  0.78909000  1.0
  H  H9  1  0.90382000  0.83751000  0.21122000  1.0
  H  H10  1  0.49056000  0.66173000  0.71092000  1.0
  H  H11  1  0.86531000  0.33730000  0.28881000  1.0
  H  H12  1  0.79869000  0.71137000  0.33771000  1.0
  H  H13  1  0.84613000  0.28905000  0.66189000  1.0
  H  H14  1  0.20026000  0.73132000  0.67464000  1.0
  H  H15  1  0.60698000  0.26965000  0.32479000  1.0
  H  H16  1  0.06915000  0.32487000  0.73081000  1.0
  H  H17  1  0.12430000  0.67499000  0.26922000  1.0
  H  H18  1  0.54998000  0.82480000  0.76920000  1.0
  H  H19  1  0.14380000  0.17479000  0.23083000  1.0
  H  H20  1  0.68185000  0.76969000  0.17526000  1.0
  H  H21  1  0.62493000  0.23134000  0.82539000  1.0
  H  H22  1  0.17923000  0.78744000  0.38151000  1.0
  H  H23  1  0.35008000  0.21178000  0.61869000  1.0
  H  H24  1  0.03189000  0.61872000  0.78779000  1.0
  H  H25  1  0.43868000  0.38131000  0.21162000  1.0
  H  H26  1  0.56982000  0.11860000  0.71221000  1.0
  H  H27  1  0.40023000  0.88132000  0.28845000  1.0
  H  H28  1  0.71859000  0.71191000  0.88138000  1.0
  H  H29  1  0.31071000  0.28747000  0.11853000  1.0
  C  C30  1  0.93438000  0.91612000  0.81926000  1.0
  C  C31  1  0.66960000  0.08345000  0.18096000  1.0
  C  C32  1  0.14902000  0.18092000  0.91627000  1.0
  C  C33  1  0.24666000  0.81929000  0.08352000  1.0
  C  C34  1  0.81528000  0.68077000  0.58377000  1.0
  C  C35  1  0.08042000  0.31918000  0.41649000  1.0
  C  C36  1  0.60076000  0.58339000  0.31898000  1.0
  C  C37  1  0.50364000  0.41609000  0.68077000  1.0
  C  C38  1  0.15786000  0.82081000  0.81538000  1.0
  C  C39  1  0.79469000  0.17952000  0.18498000  1.0
  C  C40  1  0.02052000  0.18448000  0.82079000  1.0
  C  C41  1  0.02667000  0.81503000  0.17937000  1.0
  C  C42  1  0.59122000  0.68445000  0.67918000  1.0
  C  C43  1  0.95634000  0.31482000  0.32065000  1.0
  C  C44  1  0.72979000  0.67948000  0.31504000  1.0
  C  C45  1  0.72328000  0.32071000  0.68452000  1.0
  C  C46  1  0.12790000  0.79093000  0.73402000  1.0
  C  C47  1  0.65348000  0.20966000  0.26567000  1.0
  C  C48  1  0.08141000  0.26566000  0.79062000  1.0
  C  C49  1  0.13752000  0.73427000  0.20941000  1.0
  C  C50  1  0.62200000  0.76561000  0.70936000  1.0
  C  C51  1  0.09721000  0.23408000  0.29064000  1.0
  C  C52  1  0.66920000  0.70970000  0.23438000  1.0
  C  C53  1  0.61197000  0.29088000  0.76595000  1.0
  C  C54  1  0.13310000  0.99216000  0.49176000  1.0
  C  C55  1  0.61710000  0.00832000  0.50784000  1.0
  C  C56  1  0.87481000  0.50836000  0.99213000  1.0
  C  C57  1  0.37511000  0.49207000  0.00819000  1.0
  C  C58  1  0.18778000  0.85717000  0.40397000  1.0
  C  C59  1  0.45018000  0.14257000  0.59613000  1.0
  C  C60  1  0.95406000  0.59632000  0.85732000  1.0
  C  C61  1  0.40774000  0.40379000  0.14238000  1.0
  C  C62  1  0.56161000  0.09625000  0.64263000  1.0
  C  C63  1  0.30003000  0.90379000  0.35766000  1.0
  C  C64  1  0.79614000  0.64266000  0.90386000  1.0
  C  C65  1  0.34182000  0.35715000  0.09606000  1.0
  N  N66  1  0.03463000  0.90086000  0.86813000  1.0
  N  N67  1  0.80379000  0.09879000  0.13260000  1.0
  N  N68  1  0.06318000  0.13209000  0.90115000  1.0
  N  N69  1  0.09767000  0.86762000  0.09881000  1.0
  N  N70  1  0.71425000  0.63200000  0.59888000  1.0
  N  N71  1  0.94673000  0.36748000  0.40118000  1.0
  N  N72  1  0.68659000  0.59870000  0.36735000  1.0
  N  N73  1  0.65276000  0.40078000  0.63182000  1.0
  N  N74  1  0.98519000  0.85173000  0.73788000  1.0
  N  N75  1  0.57486000  0.14841000  0.26169000  1.0
  N  N76  1  0.16358000  0.26198000  0.85149000  1.0
  N  N77  1  0.27664000  0.73838000  0.14830000  1.0
  N  N78  1  0.76510000  0.76186000  0.64852000  1.0
  N  N79  1  0.17518000  0.23826000  0.35174000  1.0
  N  N80  1  0.58664000  0.64843000  0.23831000  1.0
  N  N81  1  0.47311000  0.35171000  0.76215000  1.0
  N  N82  1  0.08256000  0.91387000  0.48874000  1.0
  N  N83  1  0.48637000  0.08614000  0.51089000  1.0
  N  N84  1  0.00271000  0.51144000  0.91397000  1.0
  N  N85  1  0.42850000  0.48911000  0.08597000  1.0
  N  N86  1  0.66689000  0.01137000  0.58598000  1.0
  N  N87  1  0.26432000  0.98914000  0.41403000  1.0
  N  N88  1  0.74711000  0.58621000  0.98912000  1.0
  N  N89  1  0.32147000  0.41382000  0.01125000  1.0
  N  N90  1  0.79048000  0.99577000  0.84756000  1.0
  N  N91  1  0.63335000  0.00334000  0.15242000  1.0
  N  N92  1  0.21359000  0.15250000  0.99586000  1.0
  N  N93  1  0.36270000  0.84764000  0.00364000  1.0
  N  N94  1  0.95939000  0.65236000  0.50413000  1.0
  N  N95  1  0.11647000  0.34764000  0.49638000  1.0
  N  N96  1  0.53579000  0.50338000  0.34753000  1.0
  N  N97  1  0.38803000  0.49578000  0.65255000  1.0
  N  N98  1  0.05589000  0.06983000  0.56920000  1.0
  N  N99  1  0.69447000  0.93078000  0.43022000  1.0
  N  N100  1  0.87461000  0.43075000  0.06971000  1.0
  N  N101  1  0.37529000  0.56974000  0.93076000  1.0
  O  O102  1  0.76327000  0.06472000  0.91021000  1.0
  O  O103  1  0.73767000  0.93421000  0.09056000  1.0
  O  O104  1  0.17066000  0.09043000  0.06506000  1.0
  O  O105  1  0.32781000  0.90964000  0.93457000  1.0
  O  O106  1  0.98562000  0.59030000  0.43493000  1.0
  O  O107  1  0.01244000  0.40967000  0.56540000  1.0
  O  O108  1  0.57820000  0.43417000  0.40935000  1.0
  O  O109  1  0.42351000  0.56473000  0.58993000  1.0
  O  O110  1  0.69777000  0.99453000  0.80710000  1.0
  O  O111  1  0.49900000  0.00443000  0.19176000  1.0
  O  O112  1  0.30900000  0.19217000  0.99423000  1.0
  O  O113  1  0.49555000  0.80783000  0.00493000  1.0
  O  O114  1  0.05319000  0.69203000  0.50571000  1.0
  O  O115  1  0.25058000  0.30790000  0.49515000  1.0
  O  O116  1  0.44064000  0.50464000  0.30825000  1.0
  O  O117  1  0.25482000  0.49459000  0.69305000  1.0
  O  O118  1  0.11371000  0.13756000  0.56856000  1.0
  O  O119  1  0.81815000  0.86353000  0.43122000  1.0
  O  O120  1  0.74984000  0.43149000  0.13726000  1.0
  O  O121  1  0.31824000  0.56861000  0.86360000  1.0
  O  O122  1  0.63714000  0.93155000  0.36272000  1.0
  O  O123  1  0.93168000  0.06871000  0.63635000  1.0
  O  O124  1  0.99931000  0.36342000  0.06861000  1.0
  O  O125  1  0.43243000  0.63749000  0.93139000  1.0
