# generated using pymatgen
data_CdH20C26(NO2)4
_symmetry_space_group_name_H-M   'P 1'
_cell_length_a   10.39720000
_cell_length_b   11.34820000
_cell_length_c   11.55240000
_cell_angle_alpha   97.84150000
_cell_angle_beta   108.74100000
_cell_angle_gamma   103.30600000
_symmetry_Int_Tables_number   1
_chemical_formula_structural   CdH20C26(NO2)4
_chemical_formula_sum   'Cd2 H40 C52 N8 O16'
_cell_volume   1222.97214963
_cell_formula_units_Z   2
loop_
 _symmetry_equiv_pos_site_id
 _symmetry_equiv_pos_as_xyz
  1  'x, y, z'
loop_
 _atom_site_type_symbol
 _atom_site_label
 _atom_site_symmetry_multiplicity
 _atom_site_fract_x
 _atom_site_fract_y
 _atom_site_fract_z
 _atom_site_occupancy
  Cd  Cd0  1  0.64353000  0.31210000  0.20593000  1.0
  Cd  Cd1  1  0.35647000  0.68790000  0.79407000  1.0
  H  H2  1  0.04653000  0.01185000  0.60802000  1.0
  H  H3  1  0.95347000  0.98815000  0.39198000  1.0
  H  H4  1  0.13884000  0.66465000  0.45615000  1.0
  H  H5  1  0.86116000  0.33534000  0.54385000  1.0
  H  H6  1  0.33091000  0.62165000  0.08921000  1.0
  H  H7  1  0.66909000  0.37835000  0.91080000  1.0
  H  H8  1  0.32182000  0.13010000  0.39256000  1.0
  H  H9  1  0.67819000  0.86990000  0.60744000  1.0
  H  H10  1  0.41025000  0.04811000  0.75887000  1.0
  H  H11  1  0.58974000  0.95189000  0.24112000  1.0
  H  H12  1  0.75388000  0.18940000  0.63459000  1.0
  H  H13  1  0.24612000  0.81060000  0.36541000  1.0
  H  H14  1  0.76083000  0.02736000  0.95352000  1.0
  H  H15  1  0.23917000  0.97264000  0.04648000  1.0
  H  H16  1  0.57484000  0.97618000  0.86713000  1.0
  H  H17  1  0.42516000  0.02381000  0.13287000  1.0
  H  H18  1  0.90292000  0.18843000  0.19069000  1.0
  H  H19  1  0.09708000  0.81157000  0.80931000  1.0
  H  H20  1  0.14450000  0.16523000  0.21992000  1.0
  H  H21  1  0.85550000  0.83477000  0.78008000  1.0
  H  H22  1  0.35992000  0.33913000  0.33368000  1.0
  H  H23  1  0.64008000  0.66087000  0.66632000  1.0
  H  H24  1  0.34646000  0.54732000  0.42649000  1.0
  H  H25  1  0.65354000  0.45268000  0.57351000  1.0
  H  H26  1  0.87068000  0.67185000  0.46495000  1.0
  H  H27  1  0.12933000  0.32815000  0.53506000  1.0
  H  H28  1  0.85488000  0.70189000  0.31370000  1.0
  H  H29  1  0.14512000  0.29811000  0.68630000  1.0
  H  H30  1  0.64372000  0.67576000  0.19777000  1.0
  H  H31  1  0.35628000  0.32424000  0.80224000  1.0
  H  H32  1  0.56187000  0.67068000  0.31159000  1.0
  H  H33  1  0.43813000  0.32931000  0.68841000  1.0
  H  H34  1  0.04700000  0.45617000  0.92800000  1.0
  H  H35  1  0.95300000  0.54383000  0.07201000  1.0
  H  H36  1  0.93158000  0.23117000  0.82153000  1.0
  H  H37  1  0.06842000  0.76883000  0.17847000  1.0
  H  H38  1  0.06806000  0.07954000  0.84363000  1.0
  H  H39  1  0.93194000  0.92046000  0.15636000  1.0
  H  H40  1  0.32526000  0.14355000  0.98081000  1.0
  H  H41  1  0.67474000  0.85645000  0.01919000  1.0
  C  C42  1  0.54408000  0.16955000  0.50479000  1.0
  C  C43  1  0.45593000  0.83046000  0.49521000  1.0
  C  C44  1  0.39876000  0.13001000  0.48205000  1.0
  C  C45  1  0.60123000  0.86999000  0.51795000  1.0
  C  C46  1  0.35289000  0.08785000  0.57412000  1.0
  C  C47  1  0.64711000  0.91216000  0.42588000  1.0
  C  C48  1  0.44979000  0.08358000  0.68995000  1.0
  C  C49  1  0.55021000  0.91641000  0.31004000  1.0
  C  C50  1  0.59475000  0.11963000  0.70972000  1.0
  C  C51  1  0.40525000  0.88037000  0.29028000  1.0
  C  C52  1  0.64093000  0.16436000  0.61823000  1.0
  C  C53  1  0.35907000  0.83564000  0.38177000  1.0
  C  C54  1  0.59513000  0.21122000  0.40560000  1.0
  C  C55  1  0.40487000  0.78878000  0.59440000  1.0
  C  C56  1  0.19753000  0.04465000  0.54297000  1.0
  C  C57  1  0.80247000  0.95535000  0.45702000  1.0
  C  C58  1  0.66888000  0.05822000  0.90651000  1.0
  C  C59  1  0.33112000  0.94178000  0.09349000  1.0
  C  C60  1  0.65024000  0.14970000  0.00436000  1.0
  C  C61  1  0.34977000  0.85030000  0.99564000  1.0
  C  C62  1  0.99039000  0.38341000  0.28716000  1.0
  C  C63  1  0.00961000  0.61659000  0.71284000  1.0
  C  C64  1  0.99852000  0.26650000  0.23872000  1.0
  C  C65  1  0.00148000  0.73350000  0.76128000  1.0
  C  C66  1  0.13353000  0.25439000  0.25722000  1.0
  C  C67  1  0.86646000  0.74561000  0.74278000  1.0
  C  C68  1  0.25745000  0.35443000  0.32316000  1.0
  C  C69  1  0.74255000  0.64557000  0.67684000  1.0
  C  C70  1  0.25080000  0.47043000  0.37412000  1.0
  C  C71  1  0.74920000  0.52956000  0.62588000  1.0
  C  C72  1  0.11535000  0.48296000  0.35493000  1.0
  C  C73  1  0.88465000  0.51704000  0.64507000  1.0
  C  C74  1  0.92556000  0.54370000  0.34744000  1.0
  C  C75  1  0.07444000  0.45630000  0.65257000  1.0
  C  C76  1  0.83782000  0.62762000  0.36456000  1.0
  C  C77  1  0.16218000  0.37238000  0.63544000  1.0
  C  C78  1  0.59498000  0.61360000  0.24777000  1.0
  C  C79  1  0.40502000  0.38640000  0.75223000  1.0
  C  C80  1  0.46843000  0.51378000  0.15551000  1.0
  C  C81  1  0.53157000  0.48622000  0.84449000  1.0
  C  C82  1  0.24906000  0.42240000  0.02006000  1.0
  C  C83  1  0.75094000  0.57760000  0.97994000  1.0
  C  C84  1  0.10656000  0.38845000  0.94110000  1.0
  C  C85  1  0.89344000  0.61155000  0.05890000  1.0
  C  C86  1  0.04378000  0.26320000  0.88045000  1.0
  C  C87  1  0.95622000  0.73680000  0.11955000  1.0
  C  C88  1  0.12138000  0.17589000  0.89497000  1.0
  C  C89  1  0.87862000  0.82411000  0.10503000  1.0
  C  C90  1  0.26436000  0.21032000  0.97206000  1.0
  C  C91  1  0.73564000  0.78968000  0.02794000  1.0
  C  C92  1  0.32733000  0.33480000  0.03671000  1.0
  C  C93  1  0.67267000  0.66520000  0.96328000  1.0
  N  N94  1  0.87364000  0.42548000  0.28362000  1.0
  N  N95  1  0.12636000  0.57452000  0.71638000  1.0
  N  N96  1  0.06965000  0.58225000  0.39198000  1.0
  N  N97  1  0.93035000  0.41775000  0.60803000  1.0
  N  N98  1  0.46442000  0.39583000  0.12184000  1.0
  N  N99  1  0.53558000  0.60418000  0.87816000  1.0
  N  N100  1  0.34197000  0.53441000  0.09766000  1.0
  N  N101  1  0.65803000  0.46558000  0.90234000  1.0
  O  O102  1  0.72696000  0.23850000  0.42379000  1.0
  O  O103  1  0.27304000  0.76150000  0.57621000  1.0
  O  O104  1  0.50197000  0.21807000  0.30480000  1.0
  O  O105  1  0.49804000  0.78193000  0.69520000  1.0
  O  O106  1  0.11338000  0.01895000  0.43140000  1.0
  O  O107  1  0.88662000  0.98107000  0.56860000  1.0
  O  O108  1  0.15671000  0.03818000  0.63942000  1.0
  O  O109  1  0.84329000  0.96182000  0.36057000  1.0
  O  O110  1  0.70167000  0.11111000  0.81090000  1.0
  O  O111  1  0.29833000  0.88889000  0.18910000  1.0
  O  O112  1  0.64691000  0.25763000  0.98822000  1.0
  O  O113  1  0.35308000  0.74237000  0.01178000  1.0
  O  O114  1  0.64215000  0.11330000  0.10187000  1.0
  O  O115  1  0.35785000  0.88670000  0.89813000  1.0
  O  O116  1  0.69271000  0.55507000  0.31560000  1.0
  O  O117  1  0.30729000  0.44492000  0.68440000  1.0
