# generated using pymatgen
data_Cd2H45C64N3O13
_symmetry_space_group_name_H-M   'P 1'
_cell_length_a   14.30640000
_cell_length_b   14.74190000
_cell_length_c   16.78850000
_cell_angle_alpha   113.40200000
_cell_angle_beta   102.97200000
_cell_angle_gamma   100.29600000
_symmetry_Int_Tables_number   1
_chemical_formula_structural   Cd2H45C64N3O13
_chemical_formula_sum   'Cd4 H90 C128 N6 O26'
_cell_volume   3021.16314972
_cell_formula_units_Z   2
loop_
 _symmetry_equiv_pos_site_id
 _symmetry_equiv_pos_as_xyz
  1  'x, y, z'
loop_
 _atom_site_type_symbol
 _atom_site_label
 _atom_site_symmetry_multiplicity
 _atom_site_fract_x
 _atom_site_fract_y
 _atom_site_fract_z
 _atom_site_occupancy
  Cd  Cd0  1  0.35622000  0.44723000  0.58636000  1.0
  Cd  Cd1  1  0.64378000  0.55277000  0.41365000  1.0
  Cd  Cd2  1  0.06409000  0.11086000  0.11646000  1.0
  Cd  Cd3  1  0.93592000  0.88915000  0.88355000  1.0
  H  H4  1  0.12639000  0.48331000  0.13582000  1.0
  H  H5  1  0.89367000  0.14576000  0.33754000  1.0
  H  H6  1  0.15203000  0.35194000  0.18607000  1.0
  H  H7  1  0.74279000  0.99012000  0.67488000  1.0
  H  H8  1  0.69359000  0.29971000  0.91300000  1.0
  H  H9  1  0.09728000  0.05930000  0.39995000  1.0
  H  H10  1  0.89568000  0.42519000  0.93244000  1.0
  H  H11  1  0.52872000  0.87932000  0.19836000  1.0
  H  H12  1  0.90217000  0.76148000  0.32407000  1.0
  H  H13  1  0.55728000  0.58586000  0.62300000  1.0
  H  H14  1  0.28949000  0.23763000  0.06339000  1.0
  H  H15  1  0.88654000  0.13454000  0.98754000  1.0
  H  H16  1  0.50826000  0.99729000  0.40912000  1.0
  H  H17  1  0.85092000  0.25771000  0.92671000  1.0
  H  H18  1  0.57468000  0.72647000  0.16579000  1.0
  H  H19  1  0.71052000  0.76237000  0.93662000  1.0
  H  H20  1  0.42937000  0.00084000  0.22782000  1.0
  H  H21  1  0.47115000  0.13308000  0.37866000  1.0
  H  H22  1  0.47757000  0.50620000  0.86086000  1.0
  H  H23  1  0.35169000  0.17278000  0.71119000  1.0
  H  H24  1  0.47130000  0.12067000  0.80164000  1.0
  H  H25  1  0.24153000  0.61528000  0.49983000  1.0
  H  H26  1  0.52886000  0.86693000  0.62135000  1.0
  H  H27  1  0.72510000  0.97401000  0.44210000  1.0
  H  H28  1  0.12198000  0.93128000  0.82371000  1.0
  H  H29  1  0.22148000  0.48330000  0.88749000  1.0
  H  H30  1  0.00395000  0.06319000  0.59993000  1.0
  H  H31  1  0.21617000  0.21588000  0.41781000  1.0
  H  H32  1  0.78837000  0.60947000  0.31980000  1.0
  H  H33  1  0.84879000  0.13470000  0.46801000  1.0
  H  H34  1  0.84799000  0.64807000  0.81392000  1.0
  H  H35  1  0.64935000  0.56011000  0.87130000  1.0
  H  H36  1  0.19546000  0.78315000  0.43453000  1.0
  H  H37  1  0.44273000  0.41414000  0.37701000  1.0
  H  H38  1  0.50124000  0.83667000  0.34937000  1.0
  H  H39  1  0.71493000  0.29971000  0.16803000  1.0
  H  H40  1  0.70937000  0.01068000  0.89893000  1.0
  H  H41  1  0.28931000  0.84887000  0.40832000  1.0
  H  H42  1  0.30641000  0.70028000  0.08701000  1.0
  H  H43  1  0.90290000  0.48419000  0.21992000  1.0
  H  H44  1  0.49873000  0.16332000  0.65063000  1.0
  H  H45  1  0.52242000  0.49380000  0.13913000  1.0
  H  H46  1  0.25721000  0.00987000  0.32511000  1.0
  H  H47  1  0.33912000  0.43223000  0.26939000  1.0
  H  H48  1  0.43300000  0.30086000  0.42809000  1.0
  H  H49  1  0.11347000  0.86547000  0.01246000  1.0
  H  H50  1  0.75847000  0.38472000  0.50017000  1.0
  H  H51  1  0.66089000  0.56778000  0.73061000  1.0
  H  H52  1  0.87362000  0.51669000  0.86418000  1.0
  H  H53  1  0.64832000  0.82722000  0.28881000  1.0
  H  H54  1  0.17706000  0.31950000  0.90053000  1.0
  H  H55  1  0.07037000  0.60991000  0.31161000  1.0
  H  H56  1  0.09710000  0.51580000  0.78008000  1.0
  H  H57  1  0.87801000  0.06871000  0.17628000  1.0
  H  H58  1  0.80453000  0.21685000  0.56548000  1.0
  H  H59  1  0.14907000  0.74229000  0.07329000  1.0
  H  H60  1  0.27490000  0.02600000  0.55789000  1.0
  H  H61  1  0.56702000  0.69915000  0.57192000  1.0
  H  H62  1  0.92963000  0.39008000  0.68839000  1.0
  H  H63  1  0.25103000  0.85020000  0.94134000  1.0
  H  H64  1  0.34787000  0.53292000  0.03490000  1.0
  H  H65  1  0.35064000  0.43990000  0.12871000  1.0
  H  H66  1  0.28507000  0.70030000  0.83197000  1.0
  H  H67  1  0.10432000  0.57482000  0.06757000  1.0
  H  H68  1  0.49171000  0.00270000  0.59088000  1.0
  H  H69  1  0.48749000  0.36289000  0.29599000  1.0
  H  H70  1  0.42532000  0.27352000  0.83421000  1.0
  H  H71  1  0.77851000  0.51668000  0.11251000  1.0
  H  H72  1  0.65213000  0.46708000  0.96510000  1.0
  H  H73  1  0.29063000  0.98932000  0.10109000  1.0
  H  H74  1  0.38695000  0.34761000  0.92492000  1.0
  H  H75  1  0.45815000  0.32947000  0.68800000  1.0
  H  H76  1  0.78384000  0.78413000  0.58220000  1.0
  H  H77  1  0.10633000  0.85423000  0.66245000  1.0
  H  H78  1  0.61305000  0.65239000  0.07507000  1.0
  H  H79  1  0.57064000  0.99916000  0.77219000  1.0
  H  H80  1  0.51250000  0.63711000  0.70401000  1.0
  H  H81  1  0.73193000  0.22655000  0.76948000  1.0
  H  H82  1  0.94256000  0.84812000  0.14677000  1.0
  H  H83  1  0.71068000  0.15113000  0.59168000  1.0
  H  H84  1  0.54185000  0.67053000  0.31201000  1.0
  H  H85  1  0.90272000  0.94070000  0.60004000  1.0
  H  H86  1  0.15120000  0.86531000  0.53198000  1.0
  H  H87  1  0.21161000  0.39053000  0.68019000  1.0
  H  H88  1  0.26806000  0.77346000  0.23052000  1.0
  H  H89  1  0.99604000  0.93681000  0.40005000  1.0
  H  H90  1  0.82293000  0.68048000  0.09947000  1.0
  H  H91  1  0.74898000  0.14981000  0.05867000  1.0
  H  H92  1  0.09782000  0.23852000  0.67593000  1.0
  H  H93  1  0.05744000  0.15187000  0.85322000  1.0
  C  C94  1  0.90807000  0.09544000  0.75872000  1.0
  C  C95  1  0.31526000  0.50195000  0.29003000  1.0
  C  C96  1  0.70710000  0.46032000  0.62909000  1.0
  C  C97  1  0.83869000  0.07667000  0.32676000  1.0
  C  C98  1  0.97959000  0.95238000  0.46392000  1.0
  C  C99  1  0.18634000  0.92946000  0.60078000  1.0
  C  C100  1  0.98227000  0.37436000  0.73542000  1.0
  C  C101  1  0.69970000  0.89716000  0.29750000  1.0
  C  C102  1  0.46472000  0.62953000  0.94604000  1.0
  C  C103  1  0.08675000  0.13524000  0.53726000  1.0
  C  C104  1  0.12065000  0.13082000  0.46362000  1.0
  C  C105  1  0.04690000  0.71942000  0.25809000  1.0
  C  C106  1  0.87703000  0.66402000  0.14507000  1.0
  C  C107  1  0.16551000  0.88466000  0.30053000  1.0
  C  C108  1  0.08568000  0.33372000  0.12901000  1.0
  C  C109  1  0.06245000  0.78734000  0.98189000  1.0
  C  C110  1  0.51749000  0.81087000  0.40203000  1.0
  C  C111  1  0.83449000  0.11533000  0.69947000  1.0
  C  C112  1  0.71669000  0.30081000  0.79189000  1.0
  C  C113  1  0.85646000  0.20598000  0.68987000  1.0
  C  C114  1  0.46812000  0.87167000  0.14149000  1.0
  C  C115  1  0.25649000  0.02038000  0.61579000  1.0
  C  C116  1  0.27759000  0.09958000  0.77997000  1.0
  C  C117  1  0.14762000  0.42640000  0.84759000  1.0
  C  C118  1  0.30549000  0.65832000  0.12763000  1.0
  C  C119  1  0.25968000  0.63046000  0.39699000  1.0
  C  C120  1  0.82583000  0.91819000  0.00316000  1.0
  C  C121  1  0.46853000  0.17359000  0.44798000  1.0
  C  C122  1  0.29291000  0.53969000  0.37091000  1.0
  C  C123  1  0.53148000  0.82642000  0.55202000  1.0
  C  C124  1  0.88192000  0.99922000  0.76918000  1.0
  C  C125  1  0.17698000  0.00122000  0.83671000  1.0
  C  C126  1  0.21460000  0.08436000  0.92404000  1.0
  C  C127  1  0.82302000  0.99877000  0.16328000  1.0
  C  C128  1  0.11808000  0.00077000  0.23082000  1.0
  C  C129  1  0.02040000  0.04762000  0.53607000  1.0
  C  C130  1  0.59149000  0.72338000  0.10429000  1.0
  C  C131  1  0.48250000  0.18913000  0.59798000  1.0
  C  C132  1  0.87915000  0.76931000  0.38337000  1.0
  C  C133  1  0.30914000  0.55218000  0.23394000  1.0
  C  C134  1  0.55377000  0.21047000  0.94805000  1.0
  C  C135  1  0.22259000  0.78079000  0.37776000  1.0
  C  C136  1  0.92350000  0.55509000  0.21313000  1.0
  C  C137  1  0.00202000  0.16786000  0.80852000  1.0
  C  C138  1  0.07649000  0.44490000  0.78686000  1.0
  C  C139  1  0.01772000  0.62563000  0.26458000  1.0
  C  C140  1  0.61054000  0.37301000  0.12820000  1.0
  C  C141  1  0.44714000  0.26736000  0.47506000  1.0
  C  C142  1  0.12296000  0.33597000  0.85492000  1.0
  C  C143  1  0.31097000  0.85645000  0.99831000  1.0
  C  C144  1  0.96776000  0.45313000  0.98672000  1.0
  C  C145  1  0.72241000  0.90041000  0.22002000  1.0
  C  C146  1  0.40852000  0.27662000  0.89571000  1.0
  C  C147  1  0.53905000  0.71755000  0.38007000  1.0
  C  C148  1  0.79491000  0.99309000  0.23655000  1.0
  C  C149  1  0.95309000  0.28057000  0.74191000  1.0
  C  C150  1  0.74033000  0.36954000  0.60302000  1.0
  C  C151  1  0.69361000  0.51061000  0.56810000  1.0
  C  C152  1  0.99798000  0.83214000  0.19148000  1.0
  C  C153  1  0.74548000  0.31625000  0.65594000  1.0
  C  C154  1  0.17418000  0.08182000  0.99685000  1.0
  C  C155  1  0.28848000  0.17576000  0.94065000  1.0
  C  C156  1  0.51584000  0.86976000  0.49114000  1.0
  C  C157  1  0.37126000  0.54990000  0.77551000  1.0
  C  C158  1  0.77741000  0.21921000  0.62225000  1.0
  C  C159  1  0.91433000  0.66628000  0.87099000  1.0
  C  C160  1  0.74351000  0.97963000  0.38421000  1.0
  C  C161  1  0.48415000  0.13023000  0.50887000  1.0
  C  C162  1  0.81489000  0.68468000  0.38012000  1.0
  C  C163  1  0.50199000  0.28643000  0.96640000  1.0
  C  C164  1  0.30639000  0.48939000  0.43190000  1.0
  C  C165  1  0.87935000  0.86918000  0.53638000  1.0
  C  C166  1  0.53189000  0.12832000  0.85852000  1.0
  C  C167  1  0.71153000  0.82423000  0.05935000  1.0
  C  C168  1  0.28154000  0.64659000  0.26310000  1.0
  C  C169  1  0.66703000  0.06651000  0.91378000  1.0
  C  C170  1  0.53528000  0.37047000  0.05396000  1.0
  C  C171  1  0.78540000  0.91564000  0.07596000  1.0
  C  C172  1  0.98645000  0.38213000  0.02444000  1.0
  C  C173  1  0.69451000  0.34169000  0.87237000  1.0
  C  C174  1  0.33103000  0.51202000  0.15057000  1.0
  C  C175  1  0.12083000  0.23070000  0.61662000  1.0
  C  C176  1  0.49937000  0.02852000  0.47697000  1.0
  C  C177  1  0.08162000  0.71783000  0.01524000  1.0
  C  C178  1  0.28331000  0.69919000  0.20811000  1.0
  C  C179  1  0.49801000  0.71356000  0.03359000  1.0
  C  C180  1  0.34128000  0.70271000  0.88933000  1.0
  C  C181  1  0.92889000  0.59291000  0.90027000  1.0
  C  C182  1  0.32867000  0.56344000  0.09764000  1.0
  C  C183  1  0.18511000  0.31533000  0.61988000  1.0
  C  C184  1  0.07112000  0.40710000  0.09973000  1.0
  C  C185  1  0.97340000  0.73847000  0.19711000  1.0
  C  C186  1  0.58770000  0.05975000  0.84188000  1.0
  C  C187  1  0.41231000  0.94025000  0.15813000  1.0
  C  C188  1  0.81330000  0.78161000  0.52697000  1.0
  C  C189  1  0.44623000  0.78953000  0.05195000  1.0
  C  C190  1  0.63507000  0.21738000  0.02095000  1.0
  C  C191  1  0.25452000  0.68375000  0.34407000  1.0
  C  C192  1  0.01355000  0.61788000  0.97556000  1.0
  C  C193  1  0.55288000  0.73265000  0.52495000  1.0
  C  C194  1  0.09192000  0.90454000  0.24127000  1.0
  C  C195  1  0.91839000  0.28219000  0.98477000  1.0
  C  C196  1  0.65873000  0.29730000  0.11067000  1.0
  C  C197  1  0.02659000  0.26153000  0.80289000  1.0
  C  C198  1  0.20509000  0.00690000  0.76345000  1.0
  C  C199  1  0.16131000  0.92333000  0.67323000  1.0
  C  C200  1  0.93755000  0.21267000  0.01810000  1.0
  C  C201  1  0.91324000  0.86476000  0.46272000  1.0
  C  C202  1  0.69086000  0.44783000  0.76607000  1.0
  C  C203  1  0.68904000  0.14355000  0.00170000  1.0
  C  C204  1  0.68475000  0.49805000  0.70998000  1.0
  C  C205  1  0.32278000  0.18246000  0.87078000  1.0
  C  C206  1  0.33297000  0.93350000  0.08622000  1.0
  C  C207  1  0.85238000  0.57360000  0.15242000  1.0
  C  C208  1  0.81365000  0.07054000  0.39922000  1.0
  C  C209  1  0.46094000  0.28245000  0.61993000  1.0
  C  C210  1  0.30031000  0.10284000  0.70251000  1.0
  C  C211  1  0.66896000  0.48798000  0.84944000  1.0
  C  C212  1  0.03224000  0.54688000  0.01329000  1.0
  C  C213  1  0.62873000  0.45011000  0.22449000  1.0
  C  C214  1  0.14353000  0.79401000  0.31012000  1.0
  C  C215  1  0.18670000  0.21840000  0.47303000  1.0
  C  C216  1  0.50059000  0.97147000  0.52302000  1.0
  C  C217  1  0.71846000  0.35342000  0.73691000  1.0
  C  C218  1  0.67133000  0.43657000  0.90236000  1.0
  C  C219  1  0.36493000  0.78263000  0.97906000  1.0
  C  C220  1  0.38946000  0.62699000  0.87180000  1.0
  C  C221  1  0.67722000  0.81753000  0.12921000  1.0
  N  N222  1  0.21870000  0.30961000  0.54995000  1.0
  N  N223  1  0.02041000  0.23711000  0.08892000  1.0
  N  N224  1  0.55828000  0.67911000  0.44074000  1.0
  N  N225  1  0.78130000  0.69040000  0.45005000  1.0
  N  N226  1  0.44173000  0.32089000  0.55926000  1.0
  N  N227  1  0.97960000  0.76289000  0.91107000  1.0
  O  O228  1  0.35241000  0.42092000  0.41909000  1.0
  O  O229  1  0.79204000  0.83839000  0.92315000  1.0
  O  O230  1  0.50606000  0.40514000  0.36188000  1.0
  O  O231  1  0.10294000  0.00421000  0.98247000  1.0
  O  O232  1  0.41666000  0.47949000  0.76135000  1.0
  O  O233  1  0.31546000  0.55781000  0.70945000  1.0
  O  O234  1  0.25818000  0.95457000  0.34718000  1.0
  O  O235  1  0.49394000  0.59486000  0.63812000  1.0
  O  O236  1  0.72749000  0.48121000  0.50011000  1.0
  O  O237  1  0.49367000  0.44809000  0.06966000  1.0
  O  O238  1  0.74182000  0.04542000  0.65281000  1.0
  O  O239  1  0.23320000  0.66592000  0.47356000  1.0
  O  O240  1  0.58333000  0.52051000  0.23864000  1.0
  O  O241  1  0.79293000  0.93840000  0.73190000  1.0
  O  O242  1  0.64759000  0.57907000  0.58091000  1.0
  O  O243  1  0.20797000  0.16161000  0.07685000  1.0
  O  O244  1  0.76680000  0.33408000  0.52645000  1.0
  O  O245  1  0.68453000  0.44220000  0.29054000  1.0
  O  O246  1  0.32572000  0.25790000  0.02513000  1.0
  O  O247  1  0.67430000  0.74209000  0.97486000  1.0
  O  O248  1  0.27251000  0.51878000  0.49989000  1.0
  O  O249  1  0.50632000  0.55190000  0.93033000  1.0
  O  O250  1  0.04450000  0.01555000  0.18179000  1.0
  O  O251  1  0.20706000  0.06159000  0.26810000  1.0
  O  O252  1  0.89707000  0.99579000  0.01753000  1.0
  O  O253  1  0.95549000  0.98444000  0.81819000  1.0
