# generated using pymatgen
data_CdH16C25(NO3)2
_symmetry_space_group_name_H-M   'P 1'
_cell_length_a   10.13130000
_cell_length_b   10.71110000
_cell_length_c   11.61720000
_cell_angle_alpha   75.97880000
_cell_angle_beta   74.07300000
_cell_angle_gamma   61.86700000
_symmetry_Int_Tables_number   1
_chemical_formula_structural   CdH16C25(NO3)2
_chemical_formula_sum   'Cd2 H32 C50 N4 O12'
_cell_volume   1059.53476015
_cell_formula_units_Z   2
loop_
 _symmetry_equiv_pos_site_id
 _symmetry_equiv_pos_as_xyz
  1  'x, y, z'
loop_
 _atom_site_type_symbol
 _atom_site_label
 _atom_site_symmetry_multiplicity
 _atom_site_fract_x
 _atom_site_fract_y
 _atom_site_fract_z
 _atom_site_occupancy
  Cd  Cd0  1  0.94896000  0.04753000  0.34883000  1.0
  Cd  Cd1  1  0.05105000  0.95247000  0.65117000  1.0
  H  H2  1  0.97334000  0.65724000  0.47136000  1.0
  H  H3  1  0.02666000  0.34277000  0.52864000  1.0
  H  H4  1  0.85335000  0.53484000  0.40587000  1.0
  H  H5  1  0.14665000  0.46516000  0.59413000  1.0
  H  H6  1  0.57123000  0.61794000  0.46110000  1.0
  H  H7  1  0.42877000  0.38206000  0.53890000  1.0
  H  H8  1  0.53053000  0.94443000  0.63894000  1.0
  H  H9  1  0.46947000  0.05558000  0.36106000  1.0
  H  H10  1  0.27943000  0.78367000  0.37272000  1.0
  H  H11  1  0.72057000  0.21633000  0.62728000  1.0
  H  H12  1  0.44980000  0.54517000  0.30419000  1.0
  H  H13  1  0.55021000  0.45482000  0.69581000  1.0
  H  H14  1  0.95384000  0.85299000  0.18229000  1.0
  H  H15  1  0.04616000  0.14701000  0.81771000  1.0
  H  H16  1  0.11138000  0.61827000  0.10395000  1.0
  H  H17  1  0.88862000  0.38172000  0.89605000  1.0
  H  H18  1  0.61164000  0.40705000  0.15600000  1.0
  H  H19  1  0.38836000  0.59295000  0.84400000  1.0
  H  H20  1  0.75338000  0.15766000  0.11851000  1.0
  H  H21  1  0.24662000  0.84234000  0.88149000  1.0
  H  H22  1  0.19491000  0.38434000  0.15199000  1.0
  H  H23  1  0.80509000  0.61566000  0.84800000  1.0
  H  H24  1  0.35486000  0.13506000  0.10935000  1.0
  H  H25  1  0.64514000  0.86494000  0.89065000  1.0
  H  H26  1  0.81984000  0.02408000  0.95403000  1.0
  H  H27  1  0.18017000  0.97592000  0.04597000  1.0
  H  H28  1  0.48228000  0.92854000  0.23130000  1.0
  H  H29  1  0.51772000  0.07146000  0.76870000  1.0
  H  H30  1  0.64108000  0.66884000  0.21169000  1.0
  H  H31  1  0.35892000  0.33115000  0.78831000  1.0
  H  H32  1  0.88269000  0.58901000  0.06304000  1.0
  H  H33  1  0.11731000  0.41099000  0.93696000  1.0
  C  C34  1  0.83005000  0.87850000  0.60499000  1.0
  C  C35  1  0.16995000  0.12150000  0.39501000  1.0
  C  C36  1  0.76035000  0.80638000  0.56182000  1.0
  C  C37  1  0.23965000  0.19363000  0.43818000  1.0
  C  C38  1  0.85055000  0.69213000  0.49425000  1.0
  C  C39  1  0.14945000  0.30787000  0.50575000  1.0
  C  C40  1  0.78313000  0.62421000  0.45787000  1.0
  C  C41  1  0.21687000  0.37579000  0.54213000  1.0
  C  C42  1  0.62556000  0.67048000  0.48795000  1.0
  C  C43  1  0.37443000  0.32952000  0.51205000  1.0
  C  C44  1  0.60274000  0.85298000  0.59017000  1.0
  C  C45  1  0.39726000  0.14702000  0.40983000  1.0
  C  C46  1  0.53418000  0.78601000  0.55407000  1.0
  C  C47  1  0.46581000  0.21399000  0.44593000  1.0
  C  C48  1  0.36468000  0.83819000  0.58730000  1.0
  C  C49  1  0.63532000  0.16182000  0.41271000  1.0
  C  C50  1  0.24804000  0.74474000  0.31069000  1.0
  C  C51  1  0.75196000  0.25526000  0.68931000  1.0
  C  C52  1  0.34298000  0.61189000  0.27166000  1.0
  C  C53  1  0.65702000  0.38811000  0.72834000  1.0
  C  C54  1  0.06541000  0.78207000  0.20573000  1.0
  C  C55  1  0.93459000  0.21793000  0.79427000  1.0
  C  C56  1  0.15309000  0.65064000  0.16322000  1.0
  C  C57  1  0.84691000  0.34936000  0.83678000  1.0
  C  C58  1  0.29545000  0.56239000  0.19660000  1.0
  C  C59  1  0.70455000  0.43761000  0.80340000  1.0
  C  C60  1  0.38835000  0.41907000  0.15929000  1.0
  C  C61  1  0.61165000  0.58092000  0.84071000  1.0
  C  C62  1  0.54805000  0.35334000  0.14539000  1.0
  C  C63  1  0.45195000  0.64666000  0.85461000  1.0
  C  C64  1  0.63046000  0.21348000  0.12241000  1.0
  C  C65  1  0.36954000  0.78652000  0.87759000  1.0
  C  C66  1  0.31806000  0.34067000  0.14246000  1.0
  C  C67  1  0.68194000  0.65932000  0.85754000  1.0
  C  C68  1  0.40440000  0.20151000  0.11877000  1.0
  C  C69  1  0.59561000  0.79849000  0.88123000  1.0
  C  C70  1  0.64409000  0.98994000  0.09553000  1.0
  C  C71  1  0.35592000  0.01006000  0.90447000  1.0
  C  C72  1  0.77964000  0.94746000  0.01154000  1.0
  C  C73  1  0.22037000  0.05254000  0.98846000  1.0
  C  C74  1  0.59007000  0.89207000  0.16702000  1.0
  C  C75  1  0.40993000  0.10793000  0.83297000  1.0
  C  C76  1  0.67881000  0.74758000  0.15500000  1.0
  C  C77  1  0.32119000  0.25242000  0.84500000  1.0
  C  C78  1  0.81580000  0.70246000  0.07178000  1.0
  C  C79  1  0.18420000  0.29754000  0.92822000  1.0
  C  C80  1  0.86558000  0.80258000  0.99829000  1.0
  C  C81  1  0.13442000  0.19742000  0.00171000  1.0
  C  C82  1  0.00983000  0.75781000  0.90260000  1.0
  C  C83  1  0.99017000  0.24219000  0.09740000  1.0
  N  N84  1  0.11178000  0.82838000  0.27789000  1.0
  N  N85  1  0.88822000  0.17162000  0.72211000  1.0
  N  N86  1  0.55783000  0.13925000  0.11065000  1.0
  N  N87  1  0.44217000  0.86074000  0.88935000  1.0
  O  O88  1  0.96024000  0.87235000  0.54254000  1.0
  O  O89  1  0.03976000  0.12765000  0.45746000  1.0
  O  O90  1  0.76404000  0.93945000  0.69825000  1.0
  O  O91  1  0.23596000  0.06056000  0.30175000  1.0
  O  O92  1  0.28814000  0.94442000  0.64783000  1.0
  O  O93  1  0.71186000  0.05558000  0.35217000  1.0
  O  O94  1  0.30280000  0.77604000  0.55523000  1.0
  O  O95  1  0.69720000  0.22396000  0.44476000  1.0
  O  O96  1  0.07885000  0.63018000  0.88338000  1.0
  O  O97  1  0.92115000  0.36982000  0.11662000  1.0
  O  O98  1  0.04996000  0.85865000  0.84995000  1.0
  O  O99  1  0.95004000  0.14135000  0.15005000  1.0
