# generated using pymatgen
data_AlH7C12SO8
_symmetry_space_group_name_H-M   'P 1'
_cell_length_a   6.64051000
_cell_length_b   11.03734231
_cell_length_c   12.78204621
_cell_angle_alpha   89.50694606
_cell_angle_beta   82.19535222
_cell_angle_gamma   75.10702493
_symmetry_Int_Tables_number   1
_chemical_formula_structural   AlH7C12SO8
_chemical_formula_sum   'Al2 H14 C24 S2 O16'
_cell_volume   896.64620756
_cell_formula_units_Z   2
loop_
 _symmetry_equiv_pos_site_id
 _symmetry_equiv_pos_as_xyz
  1  'x, y, z'
loop_
 _atom_site_type_symbol
 _atom_site_label
 _atom_site_symmetry_multiplicity
 _atom_site_fract_x
 _atom_site_fract_y
 _atom_site_fract_z
 _atom_site_occupancy
  Al  Al0  1  0.49142000  0.50890000  0.50099000  1.0
  Al  Al1  1  0.99670000  0.50263000  0.50126000  1.0
  H  H2  1  0.25346000  0.40762000  0.61593000  1.0
  H  H3  1  0.71312000  0.63938000  0.42190000  1.0
  H  H4  1  0.78801000  0.77925000  0.65706000  1.0
  H  H5  1  0.54130000  0.23648000  0.62287000  1.0
  H  H6  1  0.21253000  0.12554000  0.41084000  1.0
  H  H7  1  0.33169000  0.89229000  0.41906000  1.0
  H  H8  1  0.30162000  0.54472000  0.81914000  1.0
  H  H9  1  0.97098000  0.42291000  0.82022000  1.0
  H  H10  1  0.91754000  0.39136000  0.01344000  1.0
  H  H11  1  0.67587000  0.42290000  0.18397000  1.0
  H  H12  1  0.00886000  0.56364000  0.18435000  1.0
  H  H13  1  0.06150000  0.57548000  0.98801000  1.0
  H  H14  1  0.38978000  0.69308000  0.69203000  1.0
  H  H15  1  0.23441000  0.07153000  0.89131000  1.0
  C  C16  1  0.67652000  0.50932000  0.69416000  1.0
  C  C17  1  0.85569000  0.27995000  0.49730000  1.0
  C  C18  1  0.30889000  0.49163000  0.31198000  1.0
  C  C19  1  0.12855000  0.73434000  0.51147000  1.0
  C  C20  1  0.05522000  0.87442000  0.51757000  1.0
  C  C21  1  0.85646000  0.93936000  0.57526000  1.0
  C  C22  1  0.17942000  0.94267000  0.46093000  1.0
  C  C23  1  0.73089000  0.87904000  0.64556000  1.0
  C  C24  1  0.54167000  0.94299000  0.70230000  1.0
  C  C25  1  0.91546000  0.13965000  0.50481000  1.0
  C  C26  1  0.11129000  0.07381000  0.45512000  1.0
  C  C27  1  0.78576000  0.07279000  0.56704000  1.0
  C  C28  1  0.59336000  0.13571000  0.62730000  1.0
  C  C29  1  0.47070000  0.07501000  0.69233000  1.0
  C  C30  1  0.43596000  0.51275000  0.86192000  1.0
  C  C31  1  0.81375000  0.44303000  0.86417000  1.0
  C  C32  1  0.78318000  0.42662000  0.97118000  1.0
  C  C33  1  0.57762000  0.45911000  0.02882000  1.0
  C  C34  1  0.54275000  0.45429000  0.14010000  1.0
  C  C35  1  0.16539000  0.53428000  0.13914000  1.0
  C  C36  1  0.19516000  0.54035000  0.03080000  1.0
  C  C37  1  0.40044000  0.50321000  0.97278000  1.0
  C  C38  1  0.63932000  0.48656000  0.80853000  1.0
  C  C39  1  0.34088000  0.49166000  0.19462000  1.0
  S  S40  1  0.41986000  0.84738000  0.79081000  1.0
  S  S41  1  0.23267000  0.17851000  0.75556000  1.0
  O  O42  1  0.51092000  0.55382000  0.64739000  1.0
  O  O43  1  0.00748000  0.33094000  0.47663000  1.0
  O  O44  1  0.12033000  0.51260000  0.35856000  1.0
  O  O45  1  0.32541000  0.68297000  0.49085000  1.0
  O  O46  1  0.47171000  0.47361000  0.35876000  1.0
  O  O47  1  0.98491000  0.67594000  0.52411000  1.0
  O  O48  1  0.86302000  0.48665000  0.64653000  1.0
  O  O49  1  0.66208000  0.33990000  0.51358000  1.0
  O  O50  1  0.25387000  0.45640000  0.55163000  1.0
  O  O51  1  0.73337000  0.55964000  0.45652000  1.0
  O  O52  1  0.30296000  0.78072000  0.71954000  1.0
  O  O53  1  0.25386000  0.92608000  0.86488000  1.0
  O  O54  1  0.58659000  0.75715000  0.83119000  1.0
  O  O55  1  0.24211000  0.16088000  0.87757000  1.0
  O  O56  1  0.05605000  0.14145000  0.72507000  1.0
  O  O57  1  0.25217000  0.30454000  0.73661000  1.0
