# generated using pymatgen
data_CdH13C14Br3N4
_symmetry_space_group_name_H-M   'P 1'
_cell_length_a   7.40634000
_cell_length_b   14.14750000
_cell_length_c   16.02570000
_cell_angle_alpha   89.99980000
_cell_angle_beta   94.09460000
_cell_angle_gamma   90.00000000
_symmetry_Int_Tables_number   1
_chemical_formula_structural   CdH13C14Br3N4
_chemical_formula_sum   'Cd4 H52 C56 Br12 N16'
_cell_volume   1674.90589003
_cell_formula_units_Z   4
loop_
 _symmetry_equiv_pos_site_id
 _symmetry_equiv_pos_as_xyz
  1  'x, y, z'
loop_
 _atom_site_type_symbol
 _atom_site_label
 _atom_site_symmetry_multiplicity
 _atom_site_fract_x
 _atom_site_fract_y
 _atom_site_fract_z
 _atom_site_occupancy
  Cd  Cd0  1  0.74476000  0.49612000  0.44322000  1.0
  Cd  Cd1  1  0.25524000  0.99612000  0.05678000  1.0
  Cd  Cd2  1  0.25524000  0.50387000  0.55678000  1.0
  Cd  Cd3  1  0.74476000  0.00388000  0.94322000  1.0
  H  H4  1  0.29687000  0.26836000  0.03626000  1.0
  H  H5  1  0.70313000  0.76836000  0.46374000  1.0
  H  H6  1  0.70312000  0.73164000  0.96373000  1.0
  H  H7  1  0.29687000  0.23164000  0.53626000  1.0
  H  H8  1  0.28072000  0.52136000  0.88561000  1.0
  H  H9  1  0.71929000  0.02136000  0.61438000  1.0
  H  H10  1  0.71930000  0.47864000  0.11438000  1.0
  H  H11  1  0.28071000  0.97864000  0.38562000  1.0
  H  H12  1  0.19696000  0.53837000  0.14878000  1.0
  H  H13  1  0.80305000  0.03837000  0.35122000  1.0
  H  H14  1  0.80305000  0.46163000  0.85122000  1.0
  H  H15  1  0.19695000  0.96163000  0.64878000  1.0
  H  H16  1  0.13556000  0.38345000  0.22175000  1.0
  H  H17  1  0.86444000  0.88345000  0.27825000  1.0
  H  H18  1  0.86444000  0.61655000  0.77825000  1.0
  H  H19  1  0.13556000  0.11655000  0.72175000  1.0
  H  H20  1  0.20048000  0.27566000  0.17522000  1.0
  H  H21  1  0.79953000  0.77566000  0.32478000  1.0
  H  H22  1  0.79952000  0.72434000  0.82478000  1.0
  H  H23  1  0.20048000  0.22435000  0.67522000  1.0
  H  H24  1  0.58660000  0.27711000  0.15863000  1.0
  H  H25  1  0.41340000  0.77711000  0.34137000  1.0
  H  H26  1  0.41340000  0.72289000  0.84137000  1.0
  H  H27  1  0.58660000  0.22289000  0.65863000  1.0
  H  H28  1  0.84222000  0.33143000  0.28637000  1.0
  H  H29  1  0.15778000  0.83143000  0.21363000  1.0
  H  H30  1  0.15777000  0.66857000  0.71363000  1.0
  H  H31  1  0.84222000  0.16857000  0.78637000  1.0
  H  H32  1  0.33229000  0.43797000  0.34063000  1.0
  H  H33  1  0.66771000  0.93798000  0.15936000  1.0
  H  H34  1  0.66771000  0.56202000  0.65936000  1.0
  H  H35  1  0.33229000  0.06203000  0.84064000  1.0
  H  H36  1  0.30174000  0.25345000  0.89331000  1.0
  H  H37  1  0.69825000  0.75345000  0.60669000  1.0
  H  H38  1  0.69826000  0.74655000  0.10669000  1.0
  H  H39  1  0.30174000  0.24655000  0.39331000  1.0
  H  H40  1  0.48013000  0.32985000  0.86947000  1.0
  H  H41  1  0.51987000  0.82985000  0.63052000  1.0
  H  H42  1  0.51988000  0.67015000  0.13052000  1.0
  H  H43  1  0.48013000  0.17015000  0.36947000  1.0
  H  H44  1  0.96358000  0.31875000  0.82751000  1.0
  H  H45  1  0.03641000  0.81874000  0.67249000  1.0
  H  H46  1  0.03642000  0.68125000  0.17249000  1.0
  H  H47  1  0.96358000  0.18125000  0.32751000  1.0
  H  H48  1  0.89348000  0.39022000  0.66468000  1.0
  H  H49  1  0.10650000  0.89022000  0.83533000  1.0
  H  H50  1  0.10651000  0.60978000  0.33533000  1.0
  H  H51  1  0.89348000  0.10977000  0.16468000  1.0
  H  H52  1  0.45350000  0.40726000  0.73198000  1.0
  H  H53  1  0.54649000  0.90726000  0.76801000  1.0
  H  H54  1  0.54650000  0.59274000  0.26801000  1.0
  H  H55  1  0.45350000  0.09274000  0.23199000  1.0
  C  C56  1  0.24897000  0.39844000  0.10157000  1.0
  C  C57  1  0.75104000  0.89844000  0.39843000  1.0
  C  C58  1  0.75103000  0.60156000  0.89842000  1.0
  C  C59  1  0.24897000  0.10156000  0.60158000  1.0
  C  C60  1  0.28254000  0.34498000  0.03120000  1.0
  C  C61  1  0.71747000  0.84498000  0.46880000  1.0
  C  C62  1  0.71747000  0.65502000  0.96880000  1.0
  C  C63  1  0.28253000  0.15503000  0.53120000  1.0
  C  C64  1  0.29462000  0.38838000  0.95349000  1.0
  C  C65  1  0.70539000  0.88839000  0.54651000  1.0
  C  C66  1  0.70538000  0.61162000  0.04651000  1.0
  C  C67  1  0.29461000  0.11162000  0.45349000  1.0
  C  C68  1  0.27256000  0.48629000  0.94584000  1.0
  C  C69  1  0.72745000  0.98630000  0.55415000  1.0
  C  C70  1  0.72745000  0.51371000  0.05416000  1.0
  C  C71  1  0.27255000  0.01371000  0.44585000  1.0
  C  C72  1  0.23904000  0.53903000  0.01663000  1.0
  C  C73  1  0.76097000  0.03903000  0.48337000  1.0
  C  C74  1  0.76097000  0.46097000  0.98337000  1.0
  C  C75  1  0.23903000  0.96097000  0.51663000  1.0
  C  C76  1  0.22715000  0.49639000  0.09448000  1.0
  C  C77  1  0.77286000  0.99639000  0.40552000  1.0
  C  C78  1  0.77285000  0.50361000  0.90552000  1.0
  C  C79  1  0.22715000  0.00361000  0.59448000  1.0
  C  C80  1  0.23761000  0.35012000  0.18492000  1.0
  C  C81  1  0.76240000  0.85012000  0.31508000  1.0
  C  C82  1  0.76240000  0.64988000  0.81507000  1.0
  C  C83  1  0.23761000  0.14988000  0.68493000  1.0
  C  C84  1  0.57399000  0.31833000  0.21509000  1.0
  C  C85  1  0.42602000  0.81833000  0.28491000  1.0
  C  C86  1  0.42602000  0.68167000  0.78491000  1.0
  C  C87  1  0.57399000  0.18167000  0.71509000  1.0
  C  C88  1  0.69813000  0.34547000  0.27858000  1.0
  C  C89  1  0.30187000  0.84547000  0.22143000  1.0
  C  C90  1  0.30187000  0.65453000  0.72142000  1.0
  C  C91  1  0.69813000  0.15453000  0.77858000  1.0
  C  C92  1  0.43881000  0.40282000  0.30918000  1.0
  C  C93  1  0.56117000  0.90282000  0.19082000  1.0
  C  C94  1  0.56118000  0.59718000  0.69082000  1.0
  C  C95  1  0.43881000  0.09718000  0.80918000  1.0
  C  C96  1  0.33499000  0.32730000  0.87985000  1.0
  C  C97  1  0.66500000  0.82730000  0.62015000  1.0
  C  C98  1  0.66501000  0.67270000  0.12015000  1.0
  C  C99  1  0.33499000  0.17270000  0.37985000  1.0
  C  C100  1  0.05140000  0.34846000  0.78296000  1.0
  C  C101  1  0.94859000  0.84845000  0.71704000  1.0
  C  C102  1  0.94860000  0.65154000  0.21704000  1.0
  C  C103  1  0.05140000  0.15154000  0.28296000  1.0
  C  C104  1  0.01985000  0.38417000  0.70318000  1.0
  C  C105  1  0.98014000  0.88417000  0.79682000  1.0
  C  C106  1  0.98014000  0.61583000  0.29682000  1.0
  C  C107  1  0.01986000  0.11582000  0.20318000  1.0
  C  C108  1  0.30966000  0.39444000  0.73480000  1.0
  C  C109  1  0.69032000  0.89445000  0.76520000  1.0
  C  C110  1  0.69032000  0.60555000  0.26520000  1.0
  C  C111  1  0.30967000  0.10555000  0.23480000  1.0
  Br  Br112  1  0.42269000  0.61017000  0.43838000  1.0
  Br  Br113  1  0.57732000  0.11017000  0.06163000  1.0
  Br  Br114  1  0.57732000  0.38983000  0.56163000  1.0
  Br  Br115  1  0.42268000  0.88982000  0.93838000  1.0
  Br  Br116  1  0.06206000  0.38692000  0.44286000  1.0
  Br  Br117  1  0.93794000  0.88693000  0.05713000  1.0
  Br  Br118  1  0.93795000  0.61307000  0.55712000  1.0
  Br  Br119  1  0.06206000  0.11308000  0.94286000  1.0
  Br  Br120  1  0.20821000  0.67247000  0.00714000  1.0
  Br  Br121  1  0.79180000  0.17248000  0.49285000  1.0
  Br  Br122  1  0.79179000  0.32752000  0.99285000  1.0
  Br  Br123  1  0.20821000  0.82753000  0.50715000  1.0
  N  N124  1  0.61214000  0.39779000  0.33671000  1.0
  N  N125  1  0.38786000  0.89780000  0.16329000  1.0
  N  N126  1  0.38786000  0.60220000  0.66329000  1.0
  N  N127  1  0.61214000  0.10221000  0.83671000  1.0
  N  N128  1  0.41001000  0.35526000  0.23573000  1.0
  N  N129  1  0.58999000  0.85527000  0.26426000  1.0
  N  N130  1  0.59000000  0.64473000  0.76426000  1.0
  N  N131  1  0.41001000  0.14474000  0.73574000  1.0
  N  N132  1  0.18245000  0.41242000  0.67403000  1.0
  N  N133  1  0.81753000  0.91242000  0.82597000  1.0
  N  N134  1  0.81753000  0.58758000  0.32597000  1.0
  N  N135  1  0.18246000  0.08758000  0.17403000  1.0
  N  N136  1  0.23616000  0.35554000  0.80188000  1.0
  N  N137  1  0.76383000  0.85554000  0.69812000  1.0
  N  N138  1  0.76384000  0.64446000  0.19812000  1.0
  N  N139  1  0.23616000  0.14445000  0.30188000  1.0
