# generated using pymatgen
data_H14PbC12(BrN)2
_symmetry_space_group_name_H-M   'P 1'
_cell_length_a   4.27652000
_cell_length_b   9.54570000
_cell_length_c   10.12420000
_cell_angle_alpha   64.32610000
_cell_angle_beta   88.68090000
_cell_angle_gamma   89.73700000
_symmetry_Int_Tables_number   1
_chemical_formula_structural   H14PbC12(BrN)2
_chemical_formula_sum   'H14 Pb1 C12 Br2 N2'
_cell_volume   372.38588948
_cell_formula_units_Z   1
loop_
 _symmetry_equiv_pos_site_id
 _symmetry_equiv_pos_as_xyz
  1  'x, y, z'
loop_
 _atom_site_type_symbol
 _atom_site_label
 _atom_site_symmetry_multiplicity
 _atom_site_fract_x
 _atom_site_fract_y
 _atom_site_fract_z
 _atom_site_occupancy
  H  H0  1  0.69639000  0.70847000  0.31759000  1.0
  H  H1  1  0.30362000  0.29153000  0.68241000  1.0
  H  H2  1  0.66767000  0.42099000  0.47590000  1.0
  H  H3  1  0.33234000  0.57901000  0.52410000  1.0
  H  H4  1  0.25905000  0.35771000  0.15640000  1.0
  H  H5  1  0.74096000  0.64228000  0.84360000  1.0
  H  H6  1  0.27093000  0.64832000  0.01223000  1.0
  H  H7  1  0.72907000  0.35167000  0.98777000  1.0
  H  H8  1  0.11759000  0.13286000  0.38060000  1.0
  H  H9  1  0.88240000  0.86713000  0.61940000  1.0
  H  H10  1  0.98196000  0.16163000  0.53576000  1.0
  H  H11  1  0.01803000  0.83837000  0.46424000  1.0
  H  H12  1  0.71317000  0.14809000  0.41180000  1.0
  H  H13  1  0.28681000  0.85191000  0.58821000  1.0
  Pb  Pb14  1  0.00004000  0.00001000  0.99998000  1.0
  C  C15  1  0.81910000  0.62611000  0.28644000  1.0
  C  C16  1  0.18089000  0.37390000  0.71354000  1.0
  C  C17  1  0.80253000  0.46682000  0.37319000  1.0
  C  C18  1  0.19747000  0.53317000  0.62682000  1.0
  C  C19  1  0.96094000  0.36494000  0.32881000  1.0
  C  C20  1  0.03907000  0.63506000  0.67119000  1.0
  C  C21  1  0.13115000  0.43181000  0.19592000  1.0
  C  C22  1  0.86885000  0.56819000  0.80408000  1.0
  C  C23  1  0.13788000  0.59267000  0.11561000  1.0
  C  C24  1  0.86212000  0.40733000  0.88438000  1.0
  C  C25  1  0.94559000  0.19299000  0.41924000  1.0
  C  C26  1  0.05440000  0.80702000  0.58076000  1.0
  Br  Br27  1  0.49098000  0.03250000  0.19704000  1.0
  Br  Br28  1  0.50900000  0.96751000  0.80296000  1.0
  N  N29  1  0.98490000  0.68901000  0.15945000  1.0
  N  N30  1  0.01512000  0.31099000  0.84055000  1.0
