# generated using pymatgen
data_LaH11C12O7
_symmetry_space_group_name_H-M   'P 1'
_cell_length_a   8.29356000
_cell_length_b   8.72263085
_cell_length_c   9.56191000
_cell_angle_alpha   84.48192414
_cell_angle_beta   78.26900000
_cell_angle_gamma   61.63910366
_symmetry_Int_Tables_number   1
_chemical_formula_structural   LaH11C12O7
_chemical_formula_sum   'La2 H22 C24 O14'
_cell_volume   595.98484038
_cell_formula_units_Z   2
loop_
 _symmetry_equiv_pos_site_id
 _symmetry_equiv_pos_as_xyz
  1  'x, y, z'
loop_
 _atom_site_type_symbol
 _atom_site_label
 _atom_site_symmetry_multiplicity
 _atom_site_fract_x
 _atom_site_fract_y
 _atom_site_fract_z
 _atom_site_occupancy
  La  La0  1  0.29735000  0.40519000  0.00007000  1.0
  La  La1  1  0.70265000  0.59481000  0.99993000  1.0
  H  H2  1  0.19834000  0.80129000  0.99820000  1.0
  H  H3  1  0.00034000  0.80131000  0.00174000  1.0
  H  H4  1  0.80166000  0.19871000  0.00180000  1.0
  H  H5  1  0.99967000  0.19868000  0.99826000  1.0
  H  H6  1  0.92497000  0.27934000  0.30965000  1.0
  H  H7  1  0.79632000  0.27896000  0.69013000  1.0
  H  H8  1  0.07502000  0.72066000  0.69036000  1.0
  H  H9  1  0.20368000  0.72103000  0.30987000  1.0
  H  H10  1  0.60413000  0.00037000  0.39235000  1.0
  H  H11  1  0.39587000  0.99962000  0.60765000  1.0
  H  H12  1  0.47887000  0.32793000  0.47634000  1.0
  H  H13  1  0.19393000  0.32735000  0.52356000  1.0
  H  H14  1  0.52114000  0.67204000  0.52365000  1.0
  H  H15  1  0.80607000  0.67264000  0.47645000  1.0
  H  H16  1  0.60876000  0.43486000  0.38536000  1.0
  H  H17  1  0.95706000  0.43429000  0.61417000  1.0
  H  H18  1  0.39124000  0.56513000  0.61463000  1.0
  H  H19  1  0.04294000  0.56570000  0.38584000  1.0
  H  H20  1  0.26453000  0.11678000  0.29533000  1.0
  H  H21  1  0.61878000  0.11697000  0.70474000  1.0
  H  H22  1  0.73547000  0.88321000  0.70468000  1.0
  H  H23  1  0.38123000  0.88302000  0.29526000  1.0
  C  C24  1  0.74546000  0.15866000  0.35411000  1.0
  C  C25  1  0.09639000  0.15813000  0.64574000  1.0
  C  C26  1  0.25454000  0.84134000  0.64588000  1.0
  C  C27  1  0.90361000  0.84186000  0.35426000  1.0
  C  C28  1  0.91846000  0.15680000  0.32160000  1.0
  C  C29  1  0.92522000  0.15635000  0.67824000  1.0
  C  C30  1  0.08154000  0.84319000  0.67840000  1.0
  C  C31  1  0.07479000  0.84363000  0.32176000  1.0
  C  C32  1  0.08398000  0.00014000  0.30410000  1.0
  C  C33  1  0.91601000  0.99986000  0.69590000  1.0
  C  C34  1  0.73864000  0.00029000  0.36854000  1.0
  C  C35  1  0.26137000  0.99969000  0.63146000  1.0
  C  C36  1  0.57055000  0.33234000  0.37702000  1.0
  C  C37  1  0.09766000  0.33186000  0.62280000  1.0
  C  C38  1  0.42946000  0.66764000  0.62298000  1.0
  C  C39  1  0.90234000  0.66813000  0.37721000  1.0
  C  C40  1  0.46264000  0.37978000  0.25592000  1.0
  C  C41  1  0.15769000  0.37969000  0.74403000  1.0
  C  C42  1  0.53737000  0.62021000  0.74407000  1.0
  C  C43  1  0.84232000  0.62030000  0.25597000  1.0
  C  C44  1  0.26933000  0.99994000  0.25755000  1.0
  C  C45  1  0.73067000  0.00006000  0.74245000  1.0
  C  C46  1  0.30405000  0.99997000  0.09518000  1.0
  C  C47  1  0.69596000  0.00003000  0.90482000  1.0
  O  O48  1  0.33929000  0.33154000  0.26054000  1.0
  O  O49  1  0.32921000  0.33142000  0.73961000  1.0
  O  O50  1  0.66071000  0.66845000  0.73946000  1.0
  O  O51  1  0.67079000  0.66857000  0.26040000  1.0
  O  O52  1  0.49611000  0.46808000  0.14823000  1.0
  O  O53  1  0.03575000  0.46826000  0.85158000  1.0
  O  O54  1  0.50391000  0.53190000  0.85176000  1.0
  O  O55  1  0.96425000  0.53174000  0.14842000  1.0
  O  O56  1  0.38412000  0.85403000  0.02974000  1.0
  O  O57  1  0.76210000  0.85402000  0.97005000  1.0
  O  O58  1  0.61588000  0.14597000  0.97026000  1.0
  O  O59  1  0.23790000  0.14598000  0.02996000  1.0
  O  O60  1  0.13479000  0.73017000  0.00038000  1.0
  O  O61  1  0.86522000  0.26983000  0.99962000  1.0
