# generated using pymatgen
data_ZnH18C22N6O7
_symmetry_space_group_name_H-M   'P 1'
_cell_length_a   8.63255000
_cell_length_b   9.99294000
_cell_length_c   12.86860000
_cell_angle_alpha   94.69710000
_cell_angle_beta   101.51100000
_cell_angle_gamma   92.51710000
_symmetry_Int_Tables_number   1
_chemical_formula_structural   ZnH18C22N6O7
_chemical_formula_sum   'Zn2 H36 C44 N12 O14'
_cell_volume   1082.05687335
_cell_formula_units_Z   2
loop_
 _symmetry_equiv_pos_site_id
 _symmetry_equiv_pos_as_xyz
  1  'x, y, z'
loop_
 _atom_site_type_symbol
 _atom_site_label
 _atom_site_symmetry_multiplicity
 _atom_site_fract_x
 _atom_site_fract_y
 _atom_site_fract_z
 _atom_site_occupancy
  Zn  Zn0  1  0.38032000  0.24041000  0.37832000  1.0
  Zn  Zn1  1  0.61968000  0.75959000  0.62168000  1.0
  H  H2  1  0.19266000  0.59525000  0.54513000  1.0
  H  H3  1  0.80734000  0.40475000  0.45486000  1.0
  H  H4  1  0.06236000  0.72054000  0.67890000  1.0
  H  H5  1  0.93764000  0.27946000  0.32109000  1.0
  H  H6  1  0.02936000  0.35957000  0.83533000  1.0
  H  H7  1  0.97064000  0.64043000  0.16468000  1.0
  H  H8  1  0.16464000  0.23768000  0.70477000  1.0
  H  H9  1  0.83536000  0.76232000  0.29523000  1.0
  H  H10  1  0.89049000  0.69827000  0.81136000  1.0
  H  H11  1  0.10951000  0.30173000  0.18864000  1.0
  H  H12  1  0.89749000  0.55226000  0.88478000  1.0
  H  H13  1  0.10251000  0.44774000  0.11522000  1.0
  H  H14  1  0.78864000  0.73148000  0.95297000  1.0
  H  H15  1  0.21136000  0.26852000  0.04703000  1.0
  H  H16  1  0.93199000  0.03814000  0.21226000  1.0
  H  H17  1  0.06801000  0.96186000  0.78774000  1.0
  H  H18  1  0.28667000  0.84176000  0.07302000  1.0
  H  H19  1  0.71333000  0.15824000  0.92698000  1.0
  H  H20  1  0.55560000  0.25634000  0.15860000  1.0
  H  H21  1  0.44440000  0.74366000  0.84140000  1.0
  H  H22  1  0.59586000  0.22323000  0.61842000  1.0
  H  H23  1  0.40414000  0.77677000  0.38158000  1.0
  H  H24  1  0.63664000  0.40550000  0.02582000  1.0
  H  H25  1  0.36336000  0.59450000  0.97418000  1.0
  H  H26  1  0.64763000  0.58258000  0.06460000  1.0
  H  H27  1  0.35237000  0.41742000  0.93540000  1.0
  H  H28  1  0.67452000  0.07593000  0.31857000  1.0
  H  H29  1  0.32548000  0.92408000  0.68143000  1.0
  H  H30  1  0.05411000  0.12695000  0.45491000  1.0
  H  H31  1  0.94589000  0.87305000  0.54509000  1.0
  H  H32  1  0.94040000  0.98580000  0.37890000  1.0
  H  H33  1  0.05960000  0.01420000  0.62110000  1.0
  H  H34  1  0.34223000  0.54466000  0.33155000  1.0
  H  H35  1  0.65777000  0.45534000  0.66845000  1.0
  H  H36  1  0.53108000  0.99110000  0.16281000  1.0
  H  H37  1  0.46892000  0.00890000  0.83719000  1.0
  C  C38  1  0.26490000  0.33198000  0.54106000  1.0
  C  C39  1  0.73510000  0.66802000  0.45894000  1.0
  C  C40  1  0.18850000  0.40998000  0.61886000  1.0
  C  C41  1  0.81150000  0.59002000  0.38114000  1.0
  C  C42  1  0.15909000  0.54602000  0.61052000  1.0
  C  C43  1  0.84091000  0.45398000  0.38947000  1.0
  C  C44  1  0.08699000  0.61495000  0.68466000  1.0
  C  C45  1  0.91301000  0.38505000  0.31534000  1.0
  C  C46  1  0.04192000  0.54858000  0.76683000  1.0
  C  C47  1  0.95808000  0.45142000  0.23317000  1.0
  C  C48  1  0.06787000  0.41207000  0.77307000  1.0
  C  C49  1  0.93213000  0.58793000  0.22693000  1.0
  C  C50  1  0.14194000  0.34347000  0.70022000  1.0
  C  C51  1  0.85806000  0.65653000  0.29978000  1.0
  C  C52  1  0.96734000  0.62268000  0.84790000  1.0
  C  C53  1  0.03266000  0.37732000  0.15210000  1.0
  C  C54  1  0.04327000  0.77611000  0.00400000  1.0
  C  C55  1  0.95673000  0.22389000  0.99600000  1.0
  C  C56  1  0.88408000  0.78966000  0.00829000  1.0
  C  C57  1  0.11592000  0.21033000  0.99171000  1.0
  C  C58  1  0.67297000  0.89412000  0.08680000  1.0
  C  C59  1  0.32703000  0.10588000  0.91320000  1.0
  C  C60  1  0.84389000  0.88285000  0.08459000  1.0
  C  C61  1  0.15612000  0.11715000  0.91541000  1.0
  C  C62  1  0.96210000  0.96221000  0.15555000  1.0
  C  C63  1  0.03790000  0.03778000  0.84445000  1.0
  C  C64  1  0.12170000  0.94716000  0.15189000  1.0
  C  C65  1  0.87830000  0.05284000  0.84811000  1.0
  C  C66  1  0.16287000  0.85331000  0.07715000  1.0
  C  C67  1  0.83714000  0.14669000  0.92285000  1.0
  C  C68  1  0.24733000  0.03811000  0.22468000  1.0
  C  C69  1  0.75267000  0.96189000  0.77533000  1.0
  C  C70  1  0.50995000  0.34842000  0.18754000  1.0
  C  C71  1  0.49005000  0.65158000  0.81246000  1.0
  C  C72  1  0.65434000  0.18404000  0.55625000  1.0
  C  C73  1  0.34566000  0.81596000  0.44375000  1.0
  C  C74  1  0.56918000  0.49080000  0.04584000  1.0
  C  C75  1  0.43082000  0.50920000  0.95416000  1.0
  C  C76  1  0.68881000  0.10914000  0.40240000  1.0
  C  C77  1  0.31119000  0.89086000  0.59760000  1.0
  C  C78  1  0.96709000  0.04439000  0.45667000  1.0
  C  C79  1  0.03291000  0.95561000  0.54334000  1.0
  C  C80  1  0.40139000  0.49857000  0.27216000  1.0
  C  C81  1  0.59861000  0.50143000  0.72784000  1.0
  N  N82  1  0.44123000  0.36731000  0.27154000  1.0
  N  N83  1  0.55877000  0.63269000  0.72846000  1.0
  N  N84  1  0.44100000  0.56090000  0.19346000  1.0
  N  N85  1  0.55900000  0.43910000  0.80654000  1.0
  N  N86  1  0.51056000  0.46383000  0.14078000  1.0
  N  N87  1  0.48944000  0.53617000  0.85922000  1.0
  N  N88  1  0.80108000  0.14447000  0.57430000  1.0
  N  N89  1  0.19892000  0.85553000  0.42570000  1.0
  N  N90  1  0.58119000  0.16541000  0.45090000  1.0
  N  N91  1  0.41881000  0.83459000  0.54910000  1.0
  N  N92  1  0.82004000  0.09724000  0.47549000  1.0
  N  N93  1  0.17996000  0.90276000  0.52451000  1.0
  O  O94  1  0.29138000  0.21013000  0.55178000  1.0
  O  O95  1  0.70862000  0.78987000  0.44822000  1.0
  O  O96  1  0.29944000  0.39240000  0.46260000  1.0
  O  O97  1  0.70056000  0.60760000  0.53740000  1.0
  O  O98  1  0.09237000  0.69126000  0.92987000  1.0
  O  O99  1  0.90763000  0.30874000  0.07013000  1.0
  O  O100  1  0.56577000  0.81998000  0.03007000  1.0
  O  O101  1  0.43423000  0.18002000  0.96993000  1.0
  O  O102  1  0.64705000  0.99220000  0.15743000  1.0
  O  O103  1  0.35295000  0.00780000  0.84257000  1.0
  O  O104  1  0.39114000  0.03271000  0.21899000  1.0
  O  O105  1  0.60886000  0.96728000  0.78101000  1.0
  O  O106  1  0.20021000  0.12323000  0.29097000  1.0
  O  O107  1  0.79979000  0.87677000  0.70903000  1.0
