# generated using pymatgen
data_Cd2H14C9(NO)6
_symmetry_space_group_name_H-M   'P 1'
_cell_length_a   8.05804000
_cell_length_b   10.73200000
_cell_length_c   12.55787612
_cell_angle_alpha   114.80021310
_cell_angle_beta   108.11780336
_cell_angle_gamma   91.34610000
_symmetry_Int_Tables_number   1
_chemical_formula_structural   Cd2H14C9(NO)6
_chemical_formula_sum   'Cd4 H28 C18 N12 O12'
_cell_volume   921.92482667
_cell_formula_units_Z   2
loop_
 _symmetry_equiv_pos_site_id
 _symmetry_equiv_pos_as_xyz
  1  'x, y, z'
loop_
 _atom_site_type_symbol
 _atom_site_label
 _atom_site_symmetry_multiplicity
 _atom_site_fract_x
 _atom_site_fract_y
 _atom_site_fract_z
 _atom_site_occupancy
  Cd  Cd0  1  0.27278000  0.48894000  0.23488000  1.0
  Cd  Cd1  1  0.53812000  0.25466000  0.76515000  1.0
  Cd  Cd2  1  0.94577000  0.31453000  0.33133000  1.0
  Cd  Cd3  1  0.11508000  0.98324000  0.66877000  1.0
  H  H4  1  0.62406000  0.36590000  0.37522000  1.0
  H  H5  1  0.74978000  0.99107000  0.62478000  1.0
  H  H6  1  0.74554000  0.36407000  0.50362000  1.0
  H  H7  1  0.74253000  0.86041000  0.49650000  1.0
  H  H8  1  0.97609000  0.06065000  0.16018000  1.0
  H  H9  1  0.31693000  0.90053000  0.83937000  1.0
  H  H10  1  0.77526000  0.01493000  0.07702000  1.0
  H  H11  1  0.19926000  0.93709000  0.92253000  1.0
  H  H12  1  0.35177000  0.80874000  0.48918000  1.0
  H  H13  1  0.36221000  0.32018000  0.51115000  1.0
  H  H14  1  0.97160000  0.63213000  0.57568000  1.0
  H  H15  1  0.89627000  0.05582000  0.42404000  1.0
  H  H16  1  0.92207000  0.48907000  0.99567000  1.0
  H  H17  1  0.42601000  0.49356000  0.00431000  1.0
  H  H18  1  0.61231000  0.20010000  0.03155000  1.0
  H  H19  1  0.08162000  0.16799000  0.96848000  1.0
  H  H20  1  0.53489000  0.16408000  0.37400000  1.0
  H  H21  1  0.66254000  0.79096000  0.62627000  1.0
  H  H22  1  0.55492000  0.09916000  0.22697000  1.0
  H  H23  1  0.82923000  0.87275000  0.77352000  1.0
  H  H24  1  0.27776000  0.96783000  0.29002000  1.0
  H  H25  1  0.48809000  0.67905000  0.70994000  1.0
  H  H26  1  0.30959000  0.89444000  0.14481000  1.0
  H  H27  1  0.66523000  0.75024000  0.85515000  1.0
  H  H28  1  0.60612000  0.97368000  0.39844000  1.0
  H  H29  1  0.70722000  0.57548000  0.60136000  1.0
  H  H30  1  0.62496000  0.88398000  0.25037000  1.0
  H  H31  1  0.87457000  0.63381000  0.74929000  1.0
  C  C32  1  0.26157000  0.73481000  0.49228000  1.0
  C  C33  1  0.26910000  0.24287000  0.50791000  1.0
  C  C34  1  0.06906000  0.64533000  0.53642000  1.0
  C  C35  1  0.03286000  0.10864000  0.46346000  1.0
  C  C36  1  0.87419000  0.42715000  0.03321000  1.0
  C  C37  1  0.34083000  0.39398000  0.96676000  1.0
  C  C38  1  0.71740000  0.28049000  0.05147000  1.0
  C  C39  1  0.16645000  0.22872000  0.94854000  1.0
  C  C40  1  0.33509000  0.20125000  0.24114000  1.0
  C  C41  1  0.59526000  0.96089000  0.75886000  1.0
  C  C42  1  0.45671000  0.10642000  0.27316000  1.0
  C  C43  1  0.68478000  0.83404000  0.72706000  1.0
  C  C44  1  0.37771000  0.96123000  0.24572000  1.0
  C  C45  1  0.63245000  0.71630000  0.75427000  1.0
  C  C46  1  0.53060000  0.89879000  0.30059000  1.0
  C  C47  1  0.72994000  0.59864000  0.69931000  1.0
  C  C48  1  0.48253000  0.76033000  0.29914000  1.0
  C  C49  1  0.68305000  0.46187000  0.70107000  1.0
  N  N50  1  0.11451000  0.53955000  0.45341000  1.0
  N  N51  1  0.16152000  0.08600000  0.54651000  1.0
  N  N52  1  0.23919000  0.59738000  0.42556000  1.0
  N  N53  1  0.31379000  0.17207000  0.57455000  1.0
  N  N54  1  0.15829000  0.76972000  0.56360000  1.0
  N  N55  1  0.09453000  0.20615000  0.43644000  1.0
  N  N56  1  0.85623000  0.34238000  0.15837000  1.0
  N  N57  1  0.19807000  0.18405000  0.84157000  1.0
  N  N58  1  0.95820000  0.43703000  0.14689000  1.0
  N  N59  1  0.31111000  0.29042000  0.85303000  1.0
  N  N60  1  0.72395000  0.33043000  0.97015000  1.0
  N  N61  1  0.25412000  0.35998000  0.02990000  1.0
  O  O62  1  0.17163000  0.16020000  0.17860000  1.0
  O  O63  1  0.49371000  0.98217000  0.82093000  1.0
  O  O64  1  0.41499000  0.32787000  0.28384000  1.0
  O  O65  1  0.63304000  0.04507000  0.71658000  1.0
  O  O66  1  0.33937000  0.67967000  0.21355000  1.0
  O  O67  1  0.62579000  0.46709000  0.78690000  1.0
  O  O68  1  0.58511000  0.73071000  0.38198000  1.0
  O  O69  1  0.70255000  0.34929000  0.61837000  1.0
  O  O70  1  0.75091000  0.38186000  0.43129000  1.0
  O  O71  1  0.82028000  0.95061000  0.56860000  1.0
  O  O72  1  0.85576000  0.04340000  0.16245000  1.0
  O  O73  1  0.19434000  0.88077000  0.83702000  1.0
