# generated using pymatgen
data_ZnP2H10(C2O3)2
_symmetry_space_group_name_H-M   'P 1'
_cell_length_a   5.28639000
_cell_length_b   9.26158000
_cell_length_c   10.07818147
_cell_angle_alpha   65.97592437
_cell_angle_beta   74.80666926
_cell_angle_gamma   89.99760000
_symmetry_Int_Tables_number   1
_chemical_formula_structural   ZnP2H10(C2O3)2
_chemical_formula_sum   'Zn2 P4 H20 C8 O12'
_cell_volume   431.73877918
_cell_formula_units_Z   2
loop_
 _symmetry_equiv_pos_site_id
 _symmetry_equiv_pos_as_xyz
  1  'x, y, z'
loop_
 _atom_site_type_symbol
 _atom_site_label
 _atom_site_symmetry_multiplicity
 _atom_site_fract_x
 _atom_site_fract_y
 _atom_site_fract_z
 _atom_site_occupancy
  Zn  Zn0  1  0.01295000  0.25006000  0.99993000  1.0
  Zn  Zn1  1  0.98706000  0.74994000  0.00007000  1.0
  P  P2  1  0.38457000  0.09510000  0.80892000  1.0
  P  P3  1  0.19343000  0.40492000  0.19108000  1.0
  P  P4  1  0.61543000  0.90488000  0.19108000  1.0
  P  P5  1  0.80659000  0.59511000  0.80891000  1.0
  H  H6  1  0.72350000  0.09131000  0.89373000  1.0
  H  H7  1  0.61702000  0.40857000  0.10663000  1.0
  H  H8  1  0.27651000  0.90869000  0.10626000  1.0
  H  H9  1  0.38298000  0.59143000  0.89337000  1.0
  H  H10  1  0.73627000  0.02636000  0.55293000  1.0
  H  H11  1  0.28915000  0.47363000  0.44699000  1.0
  H  H12  1  0.26371000  0.97363000  0.44707000  1.0
  H  H13  1  0.71087000  0.52637000  0.55301000  1.0
  H  H14  1  0.47463000  0.87152000  0.65985000  1.0
  H  H15  1  0.13432000  0.62852000  0.34018000  1.0
  H  H16  1  0.52533000  0.12847000  0.34016000  1.0
  H  H17  1  0.86569000  0.37147000  0.65982000  1.0
  H  H18  1  0.15124000  0.07808000  0.64782000  1.0
  H  H19  1  0.79890000  0.42210000  0.35205000  1.0
  H  H20  1  0.84875000  0.92193000  0.35218000  1.0
  H  H21  1  0.20113000  0.57791000  0.64794000  1.0
  H  H22  1  0.42109000  0.23057000  0.54864000  1.0
  H  H23  1  0.96944000  0.26951000  0.45130000  1.0
  H  H24  1  0.57889000  0.76943000  0.45136000  1.0
  H  H25  1  0.03057000  0.73048000  0.54871000  1.0
  C  C26  1  0.52430000  0.99484000  0.57318000  1.0
  C  C27  1  0.09741000  0.50518000  0.42680000  1.0
  C  C28  1  0.47568000  0.00516000  0.42682000  1.0
  C  C29  1  0.90260000  0.49482000  0.57320000  1.0
  C  C30  1  0.36351000  0.10524000  0.63078000  1.0
  C  C31  1  0.99410000  0.39483000  0.36916000  1.0
  C  C32  1  0.63647000  0.89477000  0.36922000  1.0
  C  C33  1  0.00592000  0.60516000  0.63083000  1.0
  O  O34  1  0.26966000  0.23861000  0.82988000  1.0
  O  O35  1  0.09942000  0.26144000  0.17012000  1.0
  O  O36  1  0.73032000  0.76141000  0.17012000  1.0
  O  O37  1  0.90057000  0.73853000  0.82989000  1.0
  O  O38  1  0.25223000  0.93366000  0.94106000  1.0
  O  O39  1  0.19362000  0.56636000  0.05884000  1.0
  O  O40  1  0.74779000  0.06637000  0.05893000  1.0
  O  O41  1  0.80639000  0.43363000  0.94117000  1.0
  O  O42  1  0.69139000  0.10548000  0.79443000  1.0
  O  O43  1  0.48561000  0.39435000  0.20588000  1.0
  O  O44  1  0.30862000  0.89454000  0.20556000  1.0
  O  O45  1  0.51440000  0.60564000  0.79412000  1.0
