# generated using pymatgen
data_CdH6C9IN7
_symmetry_space_group_name_H-M   'P 1'
_cell_length_a   8.10134000
_cell_length_b   10.75020000
_cell_length_c   15.06850000
_cell_angle_alpha   90.00000000
_cell_angle_beta   90.00000000
_cell_angle_gamma   110.66300000
_symmetry_Int_Tables_number   1
_chemical_formula_structural   CdH6C9IN7
_chemical_formula_sum   'Cd4 H24 C36 I4 N28'
_cell_volume   1227.91160938
_cell_formula_units_Z   4
loop_
 _symmetry_equiv_pos_site_id
 _symmetry_equiv_pos_as_xyz
  1  'x, y, z'
loop_
 _atom_site_type_symbol
 _atom_site_label
 _atom_site_symmetry_multiplicity
 _atom_site_fract_x
 _atom_site_fract_y
 _atom_site_fract_z
 _atom_site_occupancy
  Cd  Cd0  1  0.99847000  0.17395000  0.87544000  1.0
  Cd  Cd1  1  0.00153000  0.32605000  0.37544000  1.0
  Cd  Cd2  1  0.00153000  0.82605000  0.12456000  1.0
  Cd  Cd3  1  0.99847000  0.67395000  0.62456000  1.0
  H  H4  1  0.58793000  0.60424000  0.84525000  1.0
  H  H5  1  0.41207000  0.89576000  0.34525000  1.0
  H  H6  1  0.41207000  0.39576000  0.15475000  1.0
  H  H7  1  0.58793000  0.10424000  0.65475000  1.0
  H  H8  1  0.35981000  0.15756000  0.97781000  1.0
  H  H9  1  0.64019000  0.34244000  0.47781000  1.0
  H  H10  1  0.64019000  0.84244000  0.02219000  1.0
  H  H11  1  0.35981000  0.65755000  0.52219000  1.0
  H  H12  1  0.67913000  0.29729000  0.00059000  1.0
  H  H13  1  0.32087000  0.20271000  0.50059000  1.0
  H  H14  1  0.32087000  0.70272000  0.99942000  1.0
  H  H15  1  0.67913000  0.79728000  0.49941000  1.0
  H  H16  1  0.79344000  0.52724000  0.93267000  1.0
  H  H17  1  0.20656000  0.97276000  0.43266000  1.0
  H  H18  1  0.20656000  0.47276000  0.06734000  1.0
  H  H19  1  0.79344000  0.02724000  0.56733000  1.0
  H  H20  1  0.49740000  0.46055000  0.62510000  1.0
  H  H21  1  0.50260000  0.03945000  0.12510000  1.0
  H  H22  1  0.50260000  0.53945000  0.37490000  1.0
  H  H23  1  0.49740000  0.96055000  0.87490000  1.0
  H  H24  1  0.41809000  0.22661000  0.70984000  1.0
  H  H25  1  0.58191000  0.27339000  0.20984000  1.0
  H  H26  1  0.58191000  0.77339000  0.29016000  1.0
  H  H27  1  0.41809000  0.72661000  0.79016000  1.0
  C  C28  1  0.80812000  0.40992000  0.73216000  1.0
  C  C29  1  0.19188000  0.09008000  0.23216000  1.0
  C  C30  1  0.19188000  0.59008000  0.26784000  1.0
  C  C31  1  0.80812000  0.90993000  0.76784000  1.0
  C  C32  1  0.36411000  0.42379000  0.86886000  1.0
  C  C33  1  0.63589000  0.07622000  0.36886000  1.0
  C  C34  1  0.63589000  0.57622000  0.13114000  1.0
  C  C35  1  0.36411000  0.92378000  0.63114000  1.0
  C  C36  1  0.54087000  0.50734000  0.87710000  1.0
  C  C37  1  0.45913000  0.99266000  0.37709000  1.0
  C  C38  1  0.45913000  0.49266000  0.12290000  1.0
  C  C39  1  0.54087000  0.00734000  0.62290000  1.0
  C  C40  1  0.41611000  0.25825000  0.95087000  1.0
  C  C41  1  0.58389000  0.24175000  0.45086000  1.0
  C  C42  1  0.58389000  0.74175000  0.04914000  1.0
  C  C43  1  0.41611000  0.75825000  0.54913000  1.0
  C  C44  1  0.23212000  0.46200000  0.82095000  1.0
  C  C45  1  0.76789000  0.03800000  0.32095000  1.0
  C  C46  1  0.76788000  0.53800000  0.17905000  1.0
  C  C47  1  0.23212000  0.96200000  0.67905000  1.0
  C  C48  1  0.98753000  0.44917000  0.76357000  1.0
  C  C49  1  0.01248000  0.05083000  0.26357000  1.0
  C  C50  1  0.01247000  0.55082000  0.23643000  1.0
  C  C51  1  0.98753000  0.94917000  0.73643000  1.0
  C  C52  1  0.59266000  0.33630000  0.96327000  1.0
  C  C53  1  0.40733000  0.16370000  0.46327000  1.0
  C  C54  1  0.40733000  0.66370000  0.03673000  1.0
  C  C55  1  0.59267000  0.83630000  0.53673000  1.0
  C  C56  1  0.65572000  0.46280000  0.92513000  1.0
  C  C57  1  0.34428000  0.03720000  0.42513000  1.0
  C  C58  1  0.34428000  0.53720000  0.07487000  1.0
  C  C59  1  0.65572000  0.96280000  0.57487000  1.0
  C  C60  1  0.58684000  0.42766000  0.66435000  1.0
  C  C61  1  0.41316000  0.07234000  0.16435000  1.0
  C  C62  1  0.41316000  0.57234000  0.33565000  1.0
  C  C63  1  0.58684000  0.92766000  0.83565000  1.0
  I  I64  1  0.89203000  0.15043000  0.05284000  1.0
  I  I65  1  0.10797000  0.34957000  0.55284000  1.0
  I  I66  1  0.10797000  0.84957000  0.94716000  1.0
  I  I67  1  0.89203000  0.65043000  0.44716000  1.0
  N  N68  1  0.75783000  0.49435000  0.67962000  1.0
  N  N69  1  0.24217000  0.00565000  0.17962000  1.0
  N  N70  1  0.24217000  0.50565000  0.32038000  1.0
  N  N71  1  0.75783000  0.99435000  0.82038000  1.0
  N  N72  1  0.26060000  0.57771000  0.77827000  1.0
  N  N73  1  0.73940000  0.92229000  0.27827000  1.0
  N  N74  1  0.73940000  0.42229000  0.22173000  1.0
  N  N75  1  0.26060000  0.07771000  0.72173000  1.0
  N  N76  1  0.06122000  0.37888000  0.81357000  1.0
  N  N77  1  0.93878000  0.12112000  0.31357000  1.0
  N  N78  1  0.93878000  0.62112000  0.18643000  1.0
  N  N79  1  0.06122000  0.87888000  0.68643000  1.0
  N  N80  1  0.67819000  0.29595000  0.74961000  1.0
  N  N81  1  0.32181000  0.20405000  0.24961000  1.0
  N  N82  1  0.32180000  0.70405000  0.25039000  1.0
  N  N83  1  0.67820000  0.79595000  0.75039000  1.0
  N  N84  1  0.30449000  0.30067000  0.90484000  1.0
  N  N85  1  0.69551000  0.19933000  0.40483000  1.0
  N  N86  1  0.69551000  0.69933000  0.09517000  1.0
  N  N87  1  0.30449000  0.80067000  0.59517000  1.0
  N  N88  1  0.10418000  0.56900000  0.74158000  1.0
  N  N89  1  0.89581000  0.93100000  0.24158000  1.0
  N  N90  1  0.89581000  0.43100000  0.25842000  1.0
  N  N91  1  0.10419000  0.06900000  0.75842000  1.0
  N  N92  1  0.53903000  0.30984000  0.70623000  1.0
  N  N93  1  0.46097000  0.19016000  0.20623000  1.0
  N  N94  1  0.46097000  0.69016000  0.29377000  1.0
  N  N95  1  0.53903000  0.80984000  0.79377000  1.0
