# generated using pymatgen
data_CuH5C9(NO)4
_symmetry_space_group_name_H-M   'P 1'
_cell_length_a   10.12220000
_cell_length_b   10.25190000
_cell_length_c   12.60397636
_cell_angle_alpha   66.00207794
_cell_angle_beta   67.37814183
_cell_angle_gamma   90.00340000
_symmetry_Int_Tables_number   1
_chemical_formula_structural   CuH5C9(NO)4
_chemical_formula_sum   'Cu4 H20 C36 N16 O16'
_cell_volume   1083.78984191
_cell_formula_units_Z   4
loop_
 _symmetry_equiv_pos_site_id
 _symmetry_equiv_pos_as_xyz
  1  'x, y, z'
loop_
 _atom_site_type_symbol
 _atom_site_label
 _atom_site_symmetry_multiplicity
 _atom_site_fract_x
 _atom_site_fract_y
 _atom_site_fract_z
 _atom_site_occupancy
  Cu  Cu0  1  0.33955000  0.55294000  0.68984000  1.0
  Cu  Cu1  1  0.16047000  0.24277000  0.31002000  1.0
  Cu  Cu2  1  0.66043000  0.44705000  0.31017000  1.0
  Cu  Cu3  1  0.83953000  0.75723000  0.68998000  1.0
  H  H4  1  0.67602000  0.04149000  0.34504000  1.0
  H  H5  1  0.82422000  0.38624000  0.65497000  1.0
  H  H6  1  0.32397000  0.95853000  0.65496000  1.0
  H  H7  1  0.17579000  0.61379000  0.34502000  1.0
  H  H8  1  0.27760000  0.29786000  0.64829000  1.0
  H  H9  1  0.22311000  0.94631000  0.35177000  1.0
  H  H10  1  0.72233000  0.70215000  0.35171000  1.0
  H  H11  1  0.77692000  0.05370000  0.64822000  1.0
  H  H12  1  0.12813000  0.05063000  0.78058000  1.0
  H  H13  1  0.37276000  0.83141000  0.21957000  1.0
  H  H14  1  0.87179000  0.94939000  0.21943000  1.0
  H  H15  1  0.62726000  0.16858000  0.78044000  1.0
  H  H16  1  0.99053000  0.15065000  0.10621000  1.0
  H  H17  1  0.50796000  0.25655000  0.89334000  1.0
  H  H18  1  0.00955000  0.84931000  0.89381000  1.0
  H  H19  1  0.49203000  0.74344000  0.10664000  1.0
  H  H20  1  0.14190000  0.39044000  0.96101000  1.0
  H  H21  1  0.35679000  0.35118000  0.03862000  1.0
  H  H22  1  0.85812000  0.60954000  0.03900000  1.0
  H  H23  1  0.64322000  0.64882000  0.96136000  1.0
  C  C24  1  0.60201000  0.71074000  0.63268000  1.0
  C  C25  1  0.89796000  0.34325000  0.36729000  1.0
  C  C26  1  0.39798000  0.28927000  0.36733000  1.0
  C  C27  1  0.10204000  0.65675000  0.63271000  1.0
  C  C28  1  0.56897000  0.57178000  0.75410000  1.0
  C  C29  1  0.93086000  0.32548000  0.24598000  1.0
  C  C30  1  0.43102000  0.42822000  0.24591000  1.0
  C  C31  1  0.06913000  0.67452000  0.75403000  1.0
  C  C32  1  0.53058000  0.84735000  0.47039000  1.0
  C  C33  1  0.96981000  0.31807000  0.52928000  1.0
  C  C34  1  0.46941000  0.15266000  0.52962000  1.0
  C  C35  1  0.03019000  0.68194000  0.47071000  1.0
  C  C36  1  0.75512000  0.93315000  0.47908000  1.0
  C  C37  1  0.74488000  0.41189000  0.52107000  1.0
  C  C38  1  0.24485000  0.06686000  0.52093000  1.0
  C  C39  1  0.25512000  0.58812000  0.47894000  1.0
  C  C40  1  0.21333000  0.25844000  0.75084000  1.0
  C  C41  1  0.28707000  0.00936000  0.24915000  1.0
  C  C42  1  0.78663000  0.74156000  0.24917000  1.0
  C  C43  1  0.71296000  0.99065000  0.75083000  1.0
  C  C44  1  0.12926000  0.11984000  0.82658000  1.0
  C  C45  1  0.37120000  0.94651000  0.17346000  1.0
  C  C46  1  0.87073000  0.88015000  0.17343000  1.0
  C  C47  1  0.62882000  0.05348000  0.82654000  1.0
  C  C48  1  0.04538000  0.07369000  0.95815000  1.0
  C  C49  1  0.45451000  0.03183000  0.04178000  1.0
  C  C50  1  0.95464000  0.92630000  0.04186000  1.0
  C  C51  1  0.54549000  0.96815000  0.95821000  1.0
  C  C52  1  0.05099000  0.17439000  0.00615000  1.0
  C  C53  1  0.44810000  0.18037000  0.99354000  1.0
  C  C54  1  0.94903000  0.82559000  0.99386000  1.0
  C  C55  1  0.55190000  0.81962000  0.00645000  1.0
  C  C56  1  0.13715000  0.31141000  0.92487000  1.0
  C  C57  1  0.36199000  0.23611000  0.07482000  1.0
  C  C58  1  0.86288000  0.68857000  0.07514000  1.0
  C  C59  1  0.63802000  0.76388000  0.92516000  1.0
  N  N60  1  0.50530000  0.72419000  0.58258000  1.0
  N  N61  1  0.99488000  0.30694000  0.41719000  1.0
  N  N62  1  0.49469000  0.27582000  0.41742000  1.0
  N  N63  1  0.00512000  0.69307000  0.58281000  1.0
  N  N64  1  0.65712000  0.94665000  0.42403000  1.0
  N  N65  1  0.84300000  0.37042000  0.57600000  1.0
  N  N66  1  0.34286000  0.05336000  0.57598000  1.0
  N  N67  1  0.15700000  0.62960000  0.42400000  1.0
  N  N68  1  0.72128000  0.80480000  0.58895000  1.0
  N  N69  1  0.77864000  0.39344000  0.41117000  1.0
  N  N70  1  0.27871000  0.19519000  0.41106000  1.0
  N  N71  1  0.22135000  0.60656000  0.58883000  1.0
  N  N72  1  0.21753000  0.35272000  0.79923000  1.0
  N  N73  1  0.28231000  0.15189000  0.20061000  1.0
  N  N74  1  0.78244000  0.64728000  0.20078000  1.0
  N  N75  1  0.71772000  0.84812000  0.79936000  1.0
  O  O76  1  0.44246000  0.49466000  0.80313000  1.0
  O  O77  1  0.05739000  0.29753000  0.19686000  1.0
  O  O78  1  0.55754000  0.50533000  0.19687000  1.0
  O  O79  1  0.94260000  0.70247000  0.80315000  1.0
  O  O80  1  0.66279000  0.54339000  0.79780000  1.0
  O  O81  1  0.83690000  0.34050000  0.20243000  1.0
  O  O82  1  0.33721000  0.45661000  0.20220000  1.0
  O  O83  1  0.16308000  0.65948000  0.79759000  1.0
  O  O84  1  0.45130000  0.87186000  0.41373000  1.0
  O  O85  1  0.04951000  0.28648000  0.58555000  1.0
  O  O86  1  0.54868000  0.12815000  0.58628000  1.0
  O  O87  1  0.95048000  0.71354000  0.41444000  1.0
  O  O88  1  0.86216000  0.02789000  0.43299000  1.0
  O  O89  1  0.63780000  0.46035000  0.56732000  1.0
  O  O90  1  0.13782000  0.97212000  0.56702000  1.0
  O  O91  1  0.36221000  0.53966000  0.43267000  1.0
