# generated using pymatgen
data_CdH18C20N4O7
_symmetry_space_group_name_H-M   'P 1'
_cell_length_a   7.92649000
_cell_length_b   11.26400000
_cell_length_c   15.31090000
_cell_angle_alpha   107.10800000
_cell_angle_beta   96.34190000
_cell_angle_gamma   109.43600000
_symmetry_Int_Tables_number   1
_chemical_formula_structural   CdH18C20N4O7
_chemical_formula_sum   'Cd2 H36 C40 N8 O14'
_cell_volume   1198.70388393
_cell_formula_units_Z   2
loop_
 _symmetry_equiv_pos_site_id
 _symmetry_equiv_pos_as_xyz
  1  'x, y, z'
loop_
 _atom_site_type_symbol
 _atom_site_label
 _atom_site_symmetry_multiplicity
 _atom_site_fract_x
 _atom_site_fract_y
 _atom_site_fract_z
 _atom_site_occupancy
  Cd  Cd0  1  0.74391000  0.59121000  0.15485000  1.0
  Cd  Cd1  1  0.25609000  0.40879000  0.84516000  1.0
  H  H2  1  0.41030000  0.76241000  0.69824000  1.0
  H  H3  1  0.58971000  0.23758000  0.30175000  1.0
  H  H4  1  0.92467000  0.31954000  0.67772000  1.0
  H  H5  1  0.07535000  0.68049000  0.32228000  1.0
  H  H6  1  0.67425000  0.27414000  0.10886000  1.0
  H  H7  1  0.32577000  0.72585000  0.89115000  1.0
  H  H8  1  0.56113000  0.06740000  0.96534000  1.0
  H  H9  1  0.43890000  0.93259000  0.03465000  1.0
  H  H10  1  0.71381000  0.32522000  0.80343000  1.0
  H  H11  1  0.28620000  0.67477000  0.19657000  1.0
  H  H12  1  0.82087000  0.52122000  0.95242000  1.0
  H  H13  1  0.17914000  0.47877000  0.04758000  1.0
  H  H14  1  0.56125000  0.08953000  0.71851000  1.0
  H  H15  1  0.43873000  0.91047000  0.28149000  1.0
  H  H16  1  0.91644000  0.90970000  0.26677000  1.0
  H  H17  1  0.08355000  0.09031000  0.73323000  1.0
  H  H18  1  0.92447000  0.08382000  0.41571000  1.0
  H  H19  1  0.07551000  0.91618000  0.58429000  1.0
  H  H20  1  0.50473000  0.76771000  0.46595000  1.0
  H  H21  1  0.49527000  0.23231000  0.53406000  1.0
  H  H22  1  0.50849000  0.60857000  0.31310000  1.0
  H  H23  1  0.49152000  0.39145000  0.68691000  1.0
  H  H24  1  0.62726000  0.99234000  0.58617000  1.0
  H  H25  1  0.37271000  0.00768000  0.41383000  1.0
  H  H26  1  0.16916000  0.98925000  0.14186000  1.0
  H  H27  1  0.83085000  0.01073000  0.85813000  1.0
  H  H28  1  0.69460000  0.82066000  0.91216000  1.0
  H  H29  1  0.30540000  0.17932000  0.08784000  1.0
  H  H30  1  0.66053000  0.43030000  0.45976000  1.0
  H  H31  1  0.33947000  0.56969000  0.54024000  1.0
  H  H32  1  0.17852000  0.53629000  0.37988000  1.0
  H  H33  1  0.82147000  0.46371000  0.62012000  1.0
  H  H34  1  0.50266000  0.40042000  0.19574000  1.0
  H  H35  1  0.49736000  0.59959000  0.80426000  1.0
  H  H36  1  0.39700000  0.38467000  0.09249000  1.0
  H  H37  1  0.60301000  0.61532000  0.90751000  1.0
  C  C38  1  0.68111000  0.28128000  0.03967000  1.0
  C  C39  1  0.31888000  0.71871000  0.96033000  1.0
  C  C40  1  0.61763000  0.16643000  0.95989000  1.0
  C  C41  1  0.38238000  0.83356000  0.04010000  1.0
  C  C42  1  0.62350000  0.17915000  0.87155000  1.0
  C  C43  1  0.37649000  0.82083000  0.12844000  1.0
  C  C44  1  0.70158000  0.30968000  0.86966000  1.0
  C  C45  1  0.29841000  0.69032000  0.13033000  1.0
  C  C46  1  0.76260000  0.41923000  0.95268000  1.0
  C  C47  1  0.23739000  0.58076000  0.04731000  1.0
  C  C48  1  0.55598000  0.06634000  0.78300000  1.0
  C  C49  1  0.44401000  0.93365000  0.21700000  1.0
  C  C50  1  0.82657000  0.88368000  0.31295000  1.0
  C  C51  1  0.17343000  0.11632000  0.68706000  1.0
  C  C52  1  0.83207000  0.97911000  0.39574000  1.0
  C  C53  1  0.16793000  0.02091000  0.60426000  1.0
  C  C54  1  0.71810000  0.93912000  0.45451000  1.0
  C  C55  1  0.28189000  0.06090000  0.54549000  1.0
  C  C56  1  0.59912000  0.80312000  0.42405000  1.0
  C  C57  1  0.40089000  0.19692000  0.57597000  1.0
  C  C58  1  0.60069000  0.71432000  0.33943000  1.0
  C  C59  1  0.39930000  0.28570000  0.66058000  1.0
  C  C60  1  0.72012000  0.03157000  0.54428000  1.0
  C  C61  1  0.27989000  0.96844000  0.45573000  1.0
  C  C62  1  0.85024000  0.77667000  0.06320000  1.0
  C  C63  1  0.14974000  0.22332000  0.93680000  1.0
  C  C64  1  0.92484000  0.89185000  0.03021000  1.0
  C  C65  1  0.07516000  0.10814000  0.96978000  1.0
  C  C66  1  0.09573000  0.99475000  0.07986000  1.0
  C  C67  1  0.90426000  0.00523000  0.92014000  1.0
  C  C68  1  0.82893000  0.89838000  0.95034000  1.0
  C  C69  1  0.17106000  0.10159000  0.04965000  1.0
  C  C70  1  0.81116000  0.46504000  0.31523000  1.0
  C  C71  1  0.18886000  0.53497000  0.68478000  1.0
  C  C72  1  0.90952000  0.48138000  0.41006000  1.0
  C  C73  1  0.09047000  0.51862000  0.58994000  1.0
  C  C74  1  0.80928000  0.46033000  0.47786000  1.0
  C  C75  1  0.19072000  0.53968000  0.52214000  1.0
  C  C76  1  0.10100000  0.52101000  0.43287000  1.0
  C  C77  1  0.89900000  0.47898000  0.56713000  1.0
  N  N78  1  0.75016000  0.40681000  0.03683000  1.0
  N  N79  1  0.24983000  0.59317000  0.96317000  1.0
  N  N80  1  0.49836000  0.94353000  0.78056000  1.0
  N  N81  1  0.50162000  0.05646000  0.21943000  1.0
  N  N82  1  0.71344000  0.75274000  0.28462000  1.0
  N  N83  1  0.28657000  0.24726000  0.71539000  1.0
  N  N84  1  0.83399000  0.15560000  0.57373000  1.0
  N  N85  1  0.16602000  0.84443000  0.42628000  1.0
  O  O86  1  0.44593000  0.85235000  0.68982000  1.0
  O  O87  1  0.55407000  0.14765000  0.31017000  1.0
  O  O88  1  0.82036000  0.22912000  0.65991000  1.0
  O  O89  1  0.17963000  0.77091000  0.34008000  1.0
  O  O90  1  0.95020000  0.77393000  0.13348000  1.0
  O  O91  1  0.04977000  0.22606000  0.86652000  1.0
  O  O92  1  0.69073000  0.68482000  0.02212000  1.0
  O  O93  1  0.30926000  0.31518000  0.97787000  1.0
  O  O94  1  0.89841000  0.53993000  0.27288000  1.0
  O  O95  1  0.10161000  0.46008000  0.72712000  1.0
  O  O96  1  0.64607000  0.38004000  0.28196000  1.0
  O  O97  1  0.35396000  0.61996000  0.71803000  1.0
  O  O98  1  0.45634000  0.44750000  0.15912000  1.0
  O  O99  1  0.54367000  0.55251000  0.84088000  1.0
