# generated using pymatgen
data_ZnH8C10(NCl)2
_symmetry_space_group_name_H-M   'P 1'
_cell_length_a   4.51688000
_cell_length_b   12.50210000
_cell_length_c   18.59660000
_cell_angle_alpha   90.00060000
_cell_angle_beta   90.00090000
_cell_angle_gamma   89.99970000
_symmetry_Int_Tables_number   1
_chemical_formula_structural   ZnH8C10(NCl)2
_chemical_formula_sum   'Zn4 H32 C40 N8 Cl8'
_cell_volume   1050.15902948
_cell_formula_units_Z   4
loop_
 _symmetry_equiv_pos_site_id
 _symmetry_equiv_pos_as_xyz
  1  'x, y, z'
loop_
 _atom_site_type_symbol
 _atom_site_label
 _atom_site_symmetry_multiplicity
 _atom_site_fract_x
 _atom_site_fract_y
 _atom_site_fract_z
 _atom_site_occupancy
  Zn  Zn0  1  0.05575000  0.25000000  0.60854000  1.0
  Zn  Zn1  1  0.55573000  0.75001000  0.89146000  1.0
  Zn  Zn2  1  0.44424000  0.25000000  0.10854000  1.0
  Zn  Zn3  1  0.94424000  0.75001000  0.39146000  1.0
  H  H4  1  0.29272000  0.41507000  0.70953000  1.0
  H  H5  1  0.79273000  0.58493000  0.79047000  1.0
  H  H6  1  0.20728000  0.08493000  0.20953000  1.0
  H  H7  1  0.70728000  0.91507000  0.29046000  1.0
  H  H8  1  0.70728000  0.58493000  0.29047000  1.0
  H  H9  1  0.20728000  0.41508000  0.20953000  1.0
  H  H10  1  0.79271000  0.91508000  0.79047000  1.0
  H  H11  1  0.29272000  0.08492000  0.70953000  1.0
  H  H12  1  0.59616000  0.42346000  0.81987000  1.0
  H  H13  1  0.09615000  0.57654000  0.68013000  1.0
  H  H14  1  0.90386000  0.07655000  0.31987000  1.0
  H  H15  1  0.40384000  0.92345000  0.18012000  1.0
  H  H16  1  0.40384000  0.57654000  0.18013000  1.0
  H  H17  1  0.90386000  0.42345000  0.31987000  1.0
  H  H18  1  0.09614000  0.92344000  0.68013000  1.0
  H  H19  1  0.59616000  0.07655000  0.81987000  1.0
  H  H20  1  0.87990000  0.07627000  0.90186000  1.0
  H  H21  1  0.37987000  0.92374000  0.59814000  1.0
  H  H22  1  0.62013000  0.42374000  0.40186000  1.0
  H  H23  1  0.12009000  0.57626000  0.09814000  1.0
  H  H24  1  0.12013000  0.92373000  0.09814000  1.0
  H  H25  1  0.62015000  0.07626000  0.40187000  1.0
  H  H26  1  0.37990000  0.57626000  0.59814000  1.0
  H  H27  1  0.87987000  0.42375000  0.90186000  1.0
  H  H28  1  0.20857000  0.08442000  0.00753000  1.0
  H  H29  1  0.70854000  0.91558000  0.49247000  1.0
  H  H30  1  0.29146000  0.41558000  0.50753000  1.0
  H  H31  1  0.79143000  0.58442000  0.99247000  1.0
  H  H32  1  0.79148000  0.91558000  0.99247000  1.0
  H  H33  1  0.29147000  0.08442000  0.50753000  1.0
  H  H34  1  0.70857000  0.58442000  0.49247000  1.0
  H  H35  1  0.20854000  0.41559000  0.00754000  1.0
  C  C36  1  0.37116000  0.34238000  0.73547000  1.0
  C  C37  1  0.87113000  0.65762000  0.76453000  1.0
  C  C38  1  0.12889000  0.15762000  0.23547000  1.0
  C  C39  1  0.62886000  0.84237000  0.26452000  1.0
  C  C40  1  0.62886000  0.65761000  0.26453000  1.0
  C  C41  1  0.12887000  0.34238000  0.23547000  1.0
  C  C42  1  0.87112000  0.84238000  0.76453000  1.0
  C  C43  1  0.37114000  0.15762000  0.73547000  1.0
  C  C44  1  0.54464000  0.34564000  0.79694000  1.0
  C  C45  1  0.04463000  0.65436000  0.70306000  1.0
  C  C46  1  0.95538000  0.15437000  0.29694000  1.0
  C  C47  1  0.45538000  0.84563000  0.20306000  1.0
  C  C48  1  0.45535000  0.65435000  0.20306000  1.0
  C  C49  1  0.95538000  0.34563000  0.29694000  1.0
  C  C50  1  0.04461000  0.84562000  0.70306000  1.0
  C  C51  1  0.54462000  0.15437000  0.79694000  1.0
  C  C52  1  0.64249000  0.25000000  0.82859000  1.0
  C  C53  1  0.14248000  0.74999000  0.67141000  1.0
  C  C54  1  0.85750000  0.25000000  0.32859000  1.0
  C  C55  1  0.35748000  0.75000000  0.17141000  1.0
  C  C56  1  0.83966000  0.25001000  0.89220000  1.0
  C  C57  1  0.33962000  0.74999000  0.60780000  1.0
  C  C58  1  0.66036000  0.25000000  0.39219000  1.0
  C  C59  1  0.16033000  0.74999000  0.10780000  1.0
  C  C60  1  0.94075000  0.15426000  0.92313000  1.0
  C  C61  1  0.44072000  0.84575000  0.57687000  1.0
  C  C62  1  0.55928000  0.34575000  0.42313000  1.0
  C  C63  1  0.05920000  0.65424000  0.07687000  1.0
  C  C64  1  0.05926000  0.84575000  0.07687000  1.0
  C  C65  1  0.55927000  0.15426000  0.42313000  1.0
  C  C66  1  0.44075000  0.65425000  0.57687000  1.0
  C  C67  1  0.94075000  0.34576000  0.92313000  1.0
  C  C68  1  0.12409000  0.15737000  0.98295000  1.0
  C  C69  1  0.62409000  0.84263000  0.51706000  1.0
  C  C70  1  0.37593000  0.34263000  0.48294000  1.0
  C  C71  1  0.87588000  0.65737000  0.01705000  1.0
  C  C72  1  0.87591000  0.84263000  0.01705000  1.0
  C  C73  1  0.37591000  0.15737000  0.48295000  1.0
  C  C74  1  0.62409000  0.65737000  0.51705000  1.0
  C  C75  1  0.12409000  0.34263000  0.98295000  1.0
  N  N76  1  0.28843000  0.25000000  0.70420000  1.0
  N  N77  1  0.78839000  0.75000000  0.79581000  1.0
  N  N78  1  0.21163000  0.25000000  0.20419000  1.0
  N  N79  1  0.71158000  0.75000000  0.29580000  1.0
  N  N80  1  0.21131000  0.25000000  0.01332000  1.0
  N  N81  1  0.71131000  0.75000000  0.48668000  1.0
  N  N82  1  0.28871000  0.25000000  0.51333000  1.0
  N  N83  1  0.78869000  0.75000000  0.98667000  1.0
  Cl  Cl84  1  0.84470000  0.41345000  0.60952000  1.0
  Cl  Cl85  1  0.34467000  0.58656000  0.89047000  1.0
  Cl  Cl86  1  0.65533000  0.08655000  0.10953000  1.0
  Cl  Cl87  1  0.15532000  0.91345000  0.39047000  1.0
  Cl  Cl88  1  0.15532000  0.58656000  0.39047000  1.0
  Cl  Cl89  1  0.65532000  0.41345000  0.10953000  1.0
  Cl  Cl90  1  0.34467000  0.91346000  0.89047000  1.0
  Cl  Cl91  1  0.84468000  0.08655000  0.60953000  1.0
