# generated using pymatgen
data_ZnH23C30N6O5
_symmetry_space_group_name_H-M   'P 1'
_cell_length_a   10.17270000
_cell_length_b   12.46280000
_cell_length_c   12.85600000
_cell_angle_alpha   114.56500000
_cell_angle_beta   100.73400000
_cell_angle_gamma   92.36860000
_symmetry_Int_Tables_number   1
_chemical_formula_structural   ZnH23C30N6O5
_chemical_formula_sum   'Zn2 H46 C60 N12 O10'
_cell_volume   1443.50985906
_cell_formula_units_Z   2
loop_
 _symmetry_equiv_pos_site_id
 _symmetry_equiv_pos_as_xyz
  1  'x, y, z'
loop_
 _atom_site_type_symbol
 _atom_site_label
 _atom_site_symmetry_multiplicity
 _atom_site_fract_x
 _atom_site_fract_y
 _atom_site_fract_z
 _atom_site_occupancy
  Zn  Zn0  1  0.51624000  0.73111000  0.16238000  1.0
  Zn  Zn1  1  0.48376000  0.26889000  0.83762000  1.0
  H  H2  1  0.01929000  0.76305000  0.17713000  1.0
  H  H3  1  0.98071000  0.23695000  0.82287000  1.0
  H  H4  1  0.78721000  0.44895000  0.14396000  1.0
  H  H5  1  0.21279000  0.55105000  0.85604000  1.0
  H  H6  1  0.20801000  0.44956000  0.13039000  1.0
  H  H7  1  0.79199000  0.55044000  0.86961000  1.0
  H  H8  1  0.17540000  0.28242000  0.15947000  1.0
  H  H9  1  0.82460000  0.71758000  0.84053000  1.0
  H  H10  1  0.12064000  0.26617000  0.01224000  1.0
  H  H11  1  0.87936000  0.73383000  0.98776000  1.0
  H  H12  1  0.65553000  0.16183000  0.01835000  1.0
  H  H13  1  0.34447000  0.83817000  0.98165000  1.0
  H  H14  1  0.43147000  0.45208000  0.08641000  1.0
  H  H15  1  0.56853000  0.54792000  0.91359000  1.0
  H  H16  1  0.52530000  0.55271000  0.31186000  1.0
  H  H17  1  0.47470000  0.44729000  0.68814000  1.0
  H  H18  1  0.63468000  0.47573000  0.37352000  1.0
  H  H19  1  0.36532000  0.52427000  0.62648000  1.0
  H  H20  1  0.31107000  0.56956000  0.35955000  1.0
  H  H21  1  0.68893000  0.43045000  0.64045000  1.0
  H  H22  1  0.76618000  0.92923000  0.35122000  1.0
  H  H23  1  0.23383000  0.07077000  0.64878000  1.0
  H  H24  1  0.35047000  0.95113000  0.29157000  1.0
  H  H25  1  0.64953000  0.04887000  0.70842000  1.0
  H  H26  1  0.78361000  0.12713000  0.60278000  1.0
  H  H27  1  0.21639000  0.87287000  0.39722000  1.0
  H  H28  1  0.68681000  0.23126000  0.57571000  1.0
  H  H29  1  0.31319000  0.76874000  0.42429000  1.0
  H  H30  1  0.01241000  0.15531000  0.60973000  1.0
  H  H31  1  0.98759000  0.84469000  0.39027000  1.0
  H  H32  1  0.20548000  0.23482000  0.55864000  1.0
  H  H33  1  0.79452000  0.76518000  0.44136000  1.0
  H  H34  1  0.92836000  0.32913000  0.32221000  1.0
  H  H35  1  0.07164000  0.67087000  0.67779000  1.0
  H  H36  1  0.73707000  0.25323000  0.37502000  1.0
  H  H37  1  0.26293000  0.74677000  0.62498000  1.0
  H  H38  1  0.31241000  0.19227000  0.40260000  1.0
  H  H39  1  0.68759000  0.80773000  0.59740000  1.0
  H  H40  1  0.50508000  0.26631000  0.34986000  1.0
  H  H41  1  0.49492000  0.73369000  0.65014000  1.0
  H  H42  1  0.11535000  0.49502000  0.41138000  1.0
  H  H43  1  0.88465000  0.50498000  0.58862000  1.0
  H  H44  1  0.86212000  0.12232000  0.92237000  1.0
  H  H45  1  0.13788000  0.87768000  0.07763000  1.0
  H  H46  1  0.21181000  0.09555000  0.15231000  1.0
  H  H47  1  0.78818000  0.90444000  0.84769000  1.0
  C  C48  1  0.25729000  0.67700000  0.16190000  1.0
  C  C49  1  0.74271000  0.32300000  0.83810000  1.0
  C  C50  1  0.12705000  0.61269000  0.15628000  1.0
  C  C51  1  0.87295000  0.38731000  0.84372000  1.0
  C  C52  1  0.01356000  0.67174000  0.16690000  1.0
  C  C53  1  0.98644000  0.32826000  0.83310000  1.0
  C  C54  1  0.89123000  0.61328000  0.16341000  1.0
  C  C55  1  0.10877000  0.38672000  0.83659000  1.0
  C  C56  1  0.77140000  0.67969000  0.17220000  1.0
  C  C57  1  0.22861000  0.32031000  0.82780000  1.0
  C  C58  1  0.88236000  0.49538000  0.14819000  1.0
  C  C59  1  0.11764000  0.50462000  0.85181000  1.0
  C  C60  1  0.99582000  0.43487000  0.13440000  1.0
  C  C61  1  0.00418000  0.56513000  0.86560000  1.0
  C  C62  1  0.11847000  0.49403000  0.13960000  1.0
  C  C63  1  0.88153000  0.50597000  0.86041000  1.0
  C  C64  1  0.08905000  0.25147000  0.08347000  1.0
  C  C65  1  0.91095000  0.74853000  0.91653000  1.0
  C  C66  1  0.04144000  0.12220000  0.04216000  1.0
  C  C67  1  0.95856000  0.87780000  0.95784000  1.0
  C  C68  1  0.60661000  0.23824000  0.06314000  1.0
  C  C69  1  0.39339000  0.76176000  0.93686000  1.0
  C  C70  1  0.49226000  0.38479000  0.09392000  1.0
  C  C71  1  0.50774000  0.61521000  0.90608000  1.0
  C  C72  1  0.53786000  0.46675000  0.31414000  1.0
  C  C73  1  0.46214000  0.53325000  0.68586000  1.0
  C  C74  1  0.42127000  0.42337000  0.35056000  1.0
  C  C75  1  0.57873000  0.57664000  0.64944000  1.0
  C  C76  1  0.31106000  0.48677000  0.36931000  1.0
  C  C77  1  0.68894000  0.51323000  0.63069000  1.0
  C  C78  1  0.66882000  0.95964000  0.36078000  1.0
  C  C79  1  0.33118000  0.04036000  0.63922000  1.0
  C  C80  1  0.45756000  0.97464000  0.33164000  1.0
  C  C81  1  0.54244000  0.02536000  0.66836000  1.0
  C  C82  1  0.74584000  0.15906000  0.53641000  1.0
  C  C83  1  0.25416000  0.84093000  0.46359000  1.0
  C  C84  1  0.86148000  0.19983000  0.49752000  1.0
  C  C85  1  0.13852000  0.80017000  0.50248000  1.0
  C  C86  1  0.99396000  0.19256000  0.54588000  1.0
  C  C87  1  0.00604000  0.80744000  0.45412000  1.0
  C  C88  1  0.10255000  0.23694000  0.51683000  1.0
  C  C89  1  0.89745000  0.76306000  0.48317000  1.0
  C  C90  1  0.08140000  0.28905000  0.43798000  1.0
  C  C91  1  0.91860000  0.71095000  0.56202000  1.0
  C  C92  1  0.94778000  0.29336000  0.38720000  1.0
  C  C93  1  0.05222000  0.70664000  0.61281000  1.0
  C  C94  1  0.83942000  0.24932000  0.41673000  1.0
  C  C95  1  0.16058000  0.75068000  0.58327000  1.0
  C  C96  1  0.19789000  0.33686000  0.40913000  1.0
  C  C97  1  0.80211000  0.66315000  0.59087000  1.0
  C  C98  1  0.31077000  0.27526000  0.39334000  1.0
  C  C99  1  0.68923000  0.72475000  0.60665000  1.0
  C  C100  1  0.42033000  0.31742000  0.36403000  1.0
  C  C101  1  0.57967000  0.68258000  0.63597000  1.0
  C  C102  1  0.20022000  0.44408000  0.39756000  1.0
  C  C103  1  0.79978000  0.55592000  0.60244000  1.0
  C  C104  1  0.92173000  0.06848000  0.95666000  1.0
  C  C105  1  0.07827000  0.93152000  0.04334000  1.0
  C  C106  1  0.11902000  0.05304000  0.08499000  1.0
  C  C107  1  0.88098000  0.94696000  0.91501000  1.0
  N  N108  1  0.52681000  0.29292000  0.00718000  1.0
  N  N109  1  0.47319000  0.70708000  0.99282000  1.0
  N  N110  1  0.62207000  0.29094000  0.17882000  1.0
  N  N111  1  0.37793000  0.70906000  0.82118000  1.0
  N  N112  1  0.54915000  0.38405000  0.19633000  1.0
  N  N113  1  0.45085000  0.61595000  0.80367000  1.0
  N  N114  1  0.54970000  0.89964000  0.29102000  1.0
  N  N115  1  0.45030000  0.10036000  0.70898000  1.0
  N  N116  1  0.51335000  0.07647000  0.42238000  1.0
  N  N117  1  0.48666000  0.92353000  0.57761000  1.0
  N  N118  1  0.64745000  0.06499000  0.43968000  1.0
  N  N119  1  0.35255000  0.93501000  0.56032000  1.0
  O  O120  1  0.36573000  0.62711000  0.17310000  1.0
  O  O121  1  0.63427000  0.37289000  0.82690000  1.0
  O  O122  1  0.25984000  0.77582000  0.15738000  1.0
  O  O123  1  0.74016000  0.22418000  0.84262000  1.0
  O  O124  1  0.78266000  0.78319000  0.17851000  1.0
  O  O125  1  0.21733000  0.21681000  0.82149000  1.0
  O  O126  1  0.65846000  0.62602000  0.17133000  1.0
  O  O127  1  0.34154000  0.37398000  0.82867000  1.0
  O  O128  1  0.97868000  0.31862000  0.11573000  1.0
  O  O129  1  0.02131000  0.68138000  0.88426000  1.0
