# generated using pymatgen
data_FeNiH15C15N11O2
_symmetry_space_group_name_H-M   'P 1'
_cell_length_a   9.63213000
_cell_length_b   10.54560000
_cell_length_c   10.54560000
_cell_angle_alpha   67.85930000
_cell_angle_beta   86.57720000
_cell_angle_gamma   86.57740000
_symmetry_Int_Tables_number   1
_chemical_formula_structural   FeNiH15C15N11O2
_chemical_formula_sum   'Fe2 Ni2 H30 C30 N22 O4'
_cell_volume   989.62623524
_cell_formula_units_Z   2
loop_
 _symmetry_equiv_pos_site_id
 _symmetry_equiv_pos_as_xyz
  1  'x, y, z'
loop_
 _atom_site_type_symbol
 _atom_site_label
 _atom_site_symmetry_multiplicity
 _atom_site_fract_x
 _atom_site_fract_y
 _atom_site_fract_z
 _atom_site_occupancy
  Fe  Fe0  1  0.25000000  0.74545000  0.25455000  1.0
  Fe  Fe1  1  0.75000000  0.25455000  0.74545000  1.0
  Ni  Ni2  1  0.50000000  0.50001000  0.00000000  1.0
  Ni  Ni3  1  0.00000000  0.00000000  0.49999000  1.0
  H  H4  1  0.25000000  0.25340000  0.74660000  1.0
  H  H5  1  0.75000000  0.74660000  0.25340000  1.0
  H  H6  1  0.39835000  0.23293000  0.93996000  1.0
  H  H7  1  0.10165000  0.06004000  0.76706000  1.0
  H  H8  1  0.60165000  0.76707000  0.06004000  1.0
  H  H9  1  0.89835000  0.93996000  0.23294000  1.0
  H  H10  1  0.43486000  0.21453000  0.15842000  1.0
  H  H11  1  0.06514000  0.84158000  0.78547000  1.0
  H  H12  1  0.56514000  0.78547000  0.84158000  1.0
  H  H13  1  0.93486000  0.15842000  0.21453000  1.0
  H  H14  1  0.59336000  0.12561000  0.14683000  1.0
  H  H15  1  0.90663000  0.85317000  0.87439000  1.0
  H  H16  1  0.40663000  0.87439000  0.85318000  1.0
  H  H17  1  0.09337000  0.14682000  0.12562000  1.0
  H  H18  1  0.50842000  0.09456000  0.30945000  1.0
  H  H19  1  0.99157000  0.69054000  0.90545000  1.0
  H  H20  1  0.49156000  0.90545000  0.69055000  1.0
  H  H21  1  0.00843000  0.30945000  0.09456000  1.0
  H  H22  1  0.55478000  0.88774000  0.40787000  1.0
  H  H23  1  0.94522000  0.59213000  0.11226000  1.0
  H  H24  1  0.44521000  0.11227000  0.59214000  1.0
  H  H25  1  0.05479000  0.40786000  0.88773000  1.0
  H  H26  1  0.63169000  0.70697000  0.57484000  1.0
  H  H27  1  0.86830000  0.42516000  0.29304000  1.0
  H  H28  1  0.36830000  0.29303000  0.42517000  1.0
  H  H29  1  0.13170000  0.57483000  0.70697000  1.0
  H  H30  1  0.56690000  0.54428000  0.61739000  1.0
  H  H31  1  0.93310000  0.38261000  0.45573000  1.0
  H  H32  1  0.43310000  0.45573000  0.38261000  1.0
  H  H33  1  0.06690000  0.61739000  0.54428000  1.0
  C  C34  1  0.42312000  0.59040000  0.10627000  1.0
  C  C35  1  0.07687000  0.89373000  0.40960000  1.0
  C  C36  1  0.57687000  0.40961000  0.89372000  1.0
  C  C37  1  0.92313000  0.10627000  0.59039000  1.0
  C  C38  1  0.67698000  0.50789000  0.05348000  1.0
  C  C39  1  0.82302000  0.94652000  0.49210000  1.0
  C  C40  1  0.32301000  0.49212000  0.94652000  1.0
  C  C41  1  0.17699000  0.05347000  0.50788000  1.0
  C  C42  1  0.25000000  0.16074000  0.83925000  1.0
  C  C43  1  0.75000000  0.83925000  0.16074000  1.0
  C  C44  1  0.33223000  0.15031000  0.94745000  1.0
  C  C45  1  0.16777000  0.05255000  0.84968000  1.0
  C  C46  1  0.66777000  0.84969000  0.05255000  1.0
  C  C47  1  0.83223000  0.94745000  0.15032000  1.0
  C  C48  1  0.32945000  0.03008000  0.06539000  1.0
  C  C49  1  0.17055000  0.93460000  0.96992000  1.0
  C  C50  1  0.67055000  0.96992000  0.93461000  1.0
  C  C51  1  0.82945000  0.06539000  0.03008000  1.0
  C  C52  1  0.41122000  0.00515000  0.18607000  1.0
  C  C53  1  0.08878000  0.81393000  0.99485000  1.0
  C  C54  1  0.58878000  0.99485000  0.81393000  1.0
  C  C55  1  0.91122000  0.18607000  0.00515000  1.0
  C  C56  1  0.49132000  0.11499000  0.20157000  1.0
  C  C57  1  0.00867000  0.79842000  0.88501000  1.0
  C  C58  1  0.50867000  0.88501000  0.79843000  1.0
  C  C59  1  0.99133000  0.20157000  0.11499000  1.0
  C  C60  1  0.46398000  0.69681000  0.47064000  1.0
  C  C61  1  0.03602000  0.52937000  0.30319000  1.0
  C  C62  1  0.53603000  0.30319000  0.52937000  1.0
  C  C63  1  0.96398000  0.47063000  0.69681000  1.0
  N  N64  1  0.36721000  0.65087000  0.16952000  1.0
  N  N65  1  0.13278000  0.83048000  0.34913000  1.0
  N  N66  1  0.63279000  0.34913000  0.83048000  1.0
  N  N67  1  0.86722000  0.16952000  0.65087000  1.0
  N  N68  1  0.79069000  0.51365000  0.08495000  1.0
  N  N69  1  0.70931000  0.91506000  0.48635000  1.0
  N  N70  1  0.20933000  0.48634000  0.91503000  1.0
  N  N71  1  0.29068000  0.08496000  0.51365000  1.0
  N  N72  1  0.25000000  0.92587000  0.07413000  1.0
  N  N73  1  0.75000000  0.07412000  0.92588000  1.0
  N  N74  1  0.40480000  0.87961000  0.27427000  1.0
  N  N75  1  0.09520000  0.72573000  0.12039000  1.0
  N  N76  1  0.59521000  0.12039000  0.72573000  1.0
  N  N77  1  0.90480000  0.27426000  0.87961000  1.0
  N  N78  1  0.47656000  0.83410000  0.38874000  1.0
  N  N79  1  0.02344000  0.61126000  0.16590000  1.0
  N  N80  1  0.52344000  0.16590000  0.61126000  1.0
  N  N81  1  0.97656000  0.38874000  0.83410000  1.0
  N  N82  1  0.55189000  0.64791000  0.57431000  1.0
  N  N83  1  0.94811000  0.42569000  0.35209000  1.0
  N  N84  1  0.44811000  0.35209000  0.42570000  1.0
  N  N85  1  0.05189000  0.57430000  0.64791000  1.0
  O  O86  1  0.37444000  0.62721000  0.44779000  1.0
  O  O87  1  0.12556000  0.55222000  0.37279000  1.0
  O  O88  1  0.62556000  0.37279000  0.55221000  1.0
  O  O89  1  0.87445000  0.44778000  0.62721000  1.0
