# generated using pymatgen
data_CuH6C2(N5Cl)2
_symmetry_space_group_name_H-M   'P 1'
_cell_length_a   3.71197000
_cell_length_b   6.75519000
_cell_length_c   18.42390000
_cell_angle_alpha   88.12870000
_cell_angle_beta   89.99760000
_cell_angle_gamma   89.99950000
_symmetry_Int_Tables_number   1
_chemical_formula_structural   CuH6C2(N5Cl)2
_chemical_formula_sum   'Cu2 H12 C4 N20 Cl4'
_cell_volume   461.73407091
_cell_formula_units_Z   2
loop_
 _symmetry_equiv_pos_site_id
 _symmetry_equiv_pos_as_xyz
  1  'x, y, z'
loop_
 _atom_site_type_symbol
 _atom_site_label
 _atom_site_symmetry_multiplicity
 _atom_site_fract_x
 _atom_site_fract_y
 _atom_site_fract_z
 _atom_site_occupancy
  Cu  Cu0  1  0.00000000  0.00000000  0.00000000  1.0
  Cu  Cu1  1  0.50001000  0.00000000  0.50000000  1.0
  H  H2  1  0.28068000  0.56578000  0.94156000  1.0
  H  H3  1  0.78068000  0.43424000  0.55846000  1.0
  H  H4  1  0.71933000  0.43423000  0.05844000  1.0
  H  H5  1  0.21936000  0.56575000  0.44155000  1.0
  H  H6  1  0.06146000  0.86169000  0.69817000  1.0
  H  H7  1  0.56147000  0.13829000  0.80184000  1.0
  H  H8  1  0.93853000  0.13832000  0.30183000  1.0
  H  H9  1  0.43852000  0.86171000  0.19816000  1.0
  H  H10  1  0.82026000  0.64718000  0.70760000  1.0
  H  H11  1  0.32024000  0.35278000  0.79242000  1.0
  H  H12  1  0.17972000  0.35282000  0.29240000  1.0
  H  H13  1  0.67975000  0.64722000  0.20758000  1.0
  C  C14  1  0.15765000  0.65747000  0.89904000  1.0
  C  C15  1  0.65767000  0.34252000  0.60097000  1.0
  C  C16  1  0.84234000  0.34254000  0.10095000  1.0
  C  C17  1  0.34235000  0.65748000  0.39904000  1.0
  N  N18  1  0.13936000  0.60941000  0.82956000  1.0
  N  N19  1  0.63937000  0.39056000  0.67045000  1.0
  N  N20  1  0.86065000  0.39059000  0.17043000  1.0
  N  N21  1  0.36064000  0.60943000  0.32956000  1.0
  N  N22  1  0.96445000  0.76497000  0.79917000  1.0
  N  N23  1  0.46446000  0.23501000  0.70084000  1.0
  N  N24  1  0.03555000  0.23504000  0.20082000  1.0
  N  N25  1  0.53555000  0.76499000  0.29916000  1.0
  N  N26  1  0.87602000  0.90171000  0.84553000  1.0
  N  N27  1  0.37601000  0.09827000  0.65448000  1.0
  N  N28  1  0.12398000  0.09829000  0.15447000  1.0
  N  N29  1  0.62399000  0.90172000  0.34552000  1.0
  N  N30  1  0.00547000  0.83676000  0.90911000  1.0
  N  N31  1  0.50548000  0.16322000  0.59090000  1.0
  N  N32  1  0.99453000  0.16324000  0.09089000  1.0
  N  N33  1  0.49454000  0.83678000  0.40910000  1.0
  N  N34  1  0.86720000  0.78525000  0.72774000  1.0
  N  N35  1  0.36721000  0.21472000  0.77228000  1.0
  N  N36  1  0.13279000  0.21476000  0.27226000  1.0
  N  N37  1  0.63278000  0.78527000  0.22773000  1.0
  Cl  Cl38  1  0.39430000  0.77755000  0.05401000  1.0
  Cl  Cl39  1  0.89431000  0.22244000  0.44599000  1.0
  Cl  Cl40  1  0.60568000  0.22244000  0.94599000  1.0
  Cl  Cl41  1  0.10567000  0.77757000  0.55401000  1.0
