# generated using pymatgen
data_ZnH8C8Cl2O
_symmetry_space_group_name_H-M   'P 1'
_cell_length_a   6.35470000
_cell_length_b   7.16311000
_cell_length_c   20.84360000
_cell_angle_alpha   89.99980000
_cell_angle_beta   89.99980000
_cell_angle_gamma   89.99920000
_symmetry_Int_Tables_number   1
_chemical_formula_structural   ZnH8C8Cl2O
_chemical_formula_sum   'Zn4 H32 C32 Cl8 O4'
_cell_volume   948.78848083
_cell_formula_units_Z   4
loop_
 _symmetry_equiv_pos_site_id
 _symmetry_equiv_pos_as_xyz
  1  'x, y, z'
loop_
 _atom_site_type_symbol
 _atom_site_label
 _atom_site_symmetry_multiplicity
 _atom_site_fract_x
 _atom_site_fract_y
 _atom_site_fract_z
 _atom_site_occupancy
  Zn  Zn0  1  0.66764000  0.37262000  0.25721000  1.0
  Zn  Zn1  1  0.16763000  0.62739000  0.74279000  1.0
  Zn  Zn2  1  0.66762000  0.87261000  0.24279000  1.0
  Zn  Zn3  1  0.16762000  0.12738000  0.75721000  1.0
  H  H4  1  0.20386000  0.38528000  0.47423000  1.0
  H  H5  1  0.70388000  0.61475000  0.52576000  1.0
  H  H6  1  0.20385000  0.88523000  0.02578000  1.0
  H  H7  1  0.70387000  0.11472000  0.97424000  1.0
  H  H8  1  0.18503000  0.28317000  0.58826000  1.0
  H  H9  1  0.68501000  0.71687000  0.41173000  1.0
  H  H10  1  0.18506000  0.78313000  0.91174000  1.0
  H  H11  1  0.68504000  0.21686000  0.08827000  1.0
  H  H12  1  0.86076000  0.13429000  0.62983000  1.0
  H  H13  1  0.36074000  0.86576000  0.37017000  1.0
  H  H14  1  0.86078000  0.63421000  0.87017000  1.0
  H  H15  1  0.36075000  0.36571000  0.12984000  1.0
  H  H16  1  0.55334000  0.08533000  0.55861000  1.0
  H  H17  1  0.05335000  0.91473000  0.44140000  1.0
  H  H18  1  0.55338000  0.58525000  0.94140000  1.0
  H  H19  1  0.05333000  0.41466000  0.05861000  1.0
  H  H20  1  0.57097000  0.18545000  0.44375000  1.0
  H  H21  1  0.07096000  0.81457000  0.55625000  1.0
  H  H22  1  0.57097000  0.68541000  0.05626000  1.0
  H  H23  1  0.07094000  0.31450000  0.94376000  1.0
  H  H24  1  0.22056000  0.29420000  0.36348000  1.0
  H  H25  1  0.72056000  0.70581000  0.63652000  1.0
  H  H26  1  0.22056000  0.79418000  0.13653000  1.0
  H  H27  1  0.72053000  0.20581000  0.86348000  1.0
  H  H28  1  0.15343000  0.53195000  0.37417000  1.0
  H  H29  1  0.65344000  0.46807000  0.62584000  1.0
  H  H30  1  0.15340000  0.03191000  0.12584000  1.0
  H  H31  1  0.65344000  0.96807000  0.87416000  1.0
  H  H32  1  0.08215000  0.41750000  0.30171000  1.0
  H  H33  1  0.58215000  0.58256000  0.69830000  1.0
  H  H34  1  0.08217000  0.91745000  0.19829000  1.0
  H  H35  1  0.58214000  0.08255000  0.80170000  1.0
  C  C36  1  0.89520000  0.34594000  0.38339000  1.0
  C  C37  1  0.39520000  0.65408000  0.61661000  1.0
  C  C38  1  0.89520000  0.84594000  0.11661000  1.0
  C  C39  1  0.39519000  0.15403000  0.88339000  1.0
  C  C40  1  0.88716000  0.29196000  0.45153000  1.0
  C  C41  1  0.38718000  0.70804000  0.54847000  1.0
  C  C42  1  0.88714000  0.79199000  0.04846000  1.0
  C  C43  1  0.38715000  0.20802000  0.95153000  1.0
  C  C44  1  0.06097000  0.31974000  0.49239000  1.0
  C  C45  1  0.56099000  0.68028000  0.50760000  1.0
  C  C46  1  0.06097000  0.81973000  0.00760000  1.0
  C  C47  1  0.56098000  0.18027000  0.99240000  1.0
  C  C48  1  0.05084000  0.26412000  0.55636000  1.0
  C  C49  1  0.55088000  0.73596000  0.44364000  1.0
  C  C50  1  0.05089000  0.76404000  0.94364000  1.0
  C  C51  1  0.55083000  0.23590000  0.05636000  1.0
  C  C52  1  0.86835000  0.17911000  0.57989000  1.0
  C  C53  1  0.36837000  0.82091000  0.42011000  1.0
  C  C54  1  0.86837000  0.67909000  0.92011000  1.0
  C  C55  1  0.36835000  0.32089000  0.07989000  1.0
  C  C56  1  0.69472000  0.15132000  0.53965000  1.0
  C  C57  1  0.19471000  0.84871000  0.46034000  1.0
  C  C58  1  0.69472000  0.65130000  0.96034000  1.0
  C  C59  1  0.19473000  0.34866000  0.03966000  1.0
  C  C60  1  0.70348000  0.20816000  0.47594000  1.0
  C  C61  1  0.20348000  0.79182000  0.52406000  1.0
  C  C62  1  0.70345000  0.70821000  0.02406000  1.0
  C  C63  1  0.20345000  0.29181000  0.97595000  1.0
  C  C64  1  0.09885000  0.39906000  0.35351000  1.0
  C  C65  1  0.59883000  0.60097000  0.64649000  1.0
  C  C66  1  0.09885000  0.89902000  0.14649000  1.0
  C  C67  1  0.59883000  0.10096000  0.85351000  1.0
  Cl  Cl68  1  0.92230000  0.38123000  0.18617000  1.0
  Cl  Cl69  1  0.42229000  0.61872000  0.81383000  1.0
  Cl  Cl70  1  0.92231000  0.88127000  0.31383000  1.0
  Cl  Cl71  1  0.42230000  0.11872000  0.68617000  1.0
  Cl  Cl72  1  0.44001000  0.62255000  0.25238000  1.0
  Cl  Cl73  1  0.94001000  0.37745000  0.74762000  1.0
  Cl  Cl74  1  0.44002000  0.12257000  0.24762000  1.0
  Cl  Cl75  1  0.94000000  0.87744000  0.75238000  1.0
  O  O76  1  0.72583000  0.34685000  0.35213000  1.0
  O  O77  1  0.22582000  0.65316000  0.64787000  1.0
  O  O78  1  0.72581000  0.84685000  0.14787000  1.0
  O  O79  1  0.22581000  0.15318000  0.85213000  1.0
