# generated using pymatgen
data_Zn2H11C22N8F11
_symmetry_space_group_name_H-M   'P 1'
_cell_length_a   12.99210000
_cell_length_b   13.05090000
_cell_length_c   14.57545926
_cell_angle_alpha   64.69671665
_cell_angle_beta   64.67055001
_cell_angle_gamma   74.95400000
_symmetry_Int_Tables_number   1
_chemical_formula_structural   Zn2H11C22N8F11
_chemical_formula_sum   'Zn4 H22 C44 N16 F22'
_cell_volume   2010.56121634
_cell_formula_units_Z   2
loop_
 _symmetry_equiv_pos_site_id
 _symmetry_equiv_pos_as_xyz
  1  'x, y, z'
loop_
 _atom_site_type_symbol
 _atom_site_label
 _atom_site_symmetry_multiplicity
 _atom_site_fract_x
 _atom_site_fract_y
 _atom_site_fract_z
 _atom_site_occupancy
  Zn  Zn0  1  0.36455000  0.63670000  0.99877000  1.0
  Zn  Zn1  1  0.65606000  0.33927000  0.00538000  1.0
  Zn  Zn2  1  0.49654000  0.46905000  0.85243000  1.0
  Zn  Zn3  1  0.52500000  0.50544000  0.14906000  1.0
  H  H4  1  0.96315000  0.77124000  0.57866000  1.0
  H  H5  1  0.54999000  0.89886000  0.52196000  1.0
  H  H6  1  0.07205000  0.46849000  0.44302000  1.0
  H  H7  1  0.19781000  0.09650000  0.46500000  1.0
  H  H8  1  0.02043000  0.45228000  0.66373000  1.0
  H  H9  1  0.24726000  0.00539000  0.66047000  1.0
  H  H10  1  0.18613000  0.64029000  0.52032000  1.0
  H  H11  1  0.47528000  0.13823000  0.46061000  1.0
  H  H12  1  0.99947000  0.78068000  0.35064000  1.0
  H  H13  1  0.46588000  0.96434000  0.31171000  1.0
  H  H14  1  0.98744000  0.65361000  0.34132000  1.0
  H  H15  1  0.31518000  0.98490000  0.35028000  1.0
  H  H16  1  0.83021333  0.61738000  0.50312000  1.0
  H  H17  1  0.30767000  0.81856000  0.50212000  1.0
  H  H18  1  0.51312000  0.12542000  0.15762000  1.0
  H  H19  1  0.14195000  0.72361000  0.17824000  1.0
  H  H20  1  0.55400000  0.03025000  0.82384000  1.0
  H  H21  1  0.07089000  0.29559000  0.05848000  1.0
  H  H22  1  0.35843000  0.55656000  0.36896000  1.0
  H  H23  1  0.34297000  0.33784000  0.35205000  1.0
  H  H24  1  0.45698000  0.64452000  0.62139000  1.0
  H  H25  1  0.66212000  0.65535000  0.65561000  1.0
  C  C26  1  0.20082000  0.45844000  0.10928000  1.0
  C  C27  1  0.67601000  0.15492000  0.91834000  1.0
  C  C28  1  0.74608000  0.41982000  0.20241000  1.0
  C  C29  1  0.66067000  0.70488000  0.98341000  1.0
  C  C30  1  0.63625000  0.81489000  0.91407000  1.0
  C  C31  1  0.85409000  0.36199000  0.16548000  1.0
  C  C32  1  0.81631000  0.58476000  0.70473000  1.0
  C  C33  1  0.36230000  0.79071000  0.67673000  1.0
  C  C34  1  0.08763000  0.50794000  0.48865000  1.0
  C  C35  1  0.26911000  0.08759000  0.49047000  1.0
  C  C36  1  0.98786000  0.49377000  0.59676000  1.0
  C  C37  1  0.25980000  0.97990000  0.59346000  1.0
  C  C38  1  0.11598000  0.68690000  0.49078000  1.0
  C  C39  1  0.47971000  0.06498000  0.44011000  1.0
  C  C40  1  0.99478000  0.68848000  0.39454000  1.0
  C  C41  1  0.38556000  0.97517000  0.37702000  1.0
  C  C42  1  0.10545000  0.63496000  0.41858000  1.0
  C  C43  1  0.38370000  0.08276000  0.39702000  1.0
  C  C44  1  0.92044000  0.60939000  0.60157000  1.0
  C  C45  1  0.36645000  0.89404000  0.57591000  1.0
  C  C46  1  0.00414000  0.68408000  0.58908000  1.0
  C  C47  1  0.47167000  0.95610000  0.53986000  1.0
  C  C48  1  0.47772000  0.19315000  0.19015000  1.0
  C  C49  1  0.21017000  0.68197000  0.20979000  1.0
  C  C50  1  0.88823000  0.66845000  0.49927000  1.0
  C  C51  1  0.37849000  0.86675000  0.47851000  1.0
  C  C52  1  0.67239000  0.92186000  0.89086000  1.0
  C  C53  1  0.96020000  0.36809000  0.17144000  1.0
  C  C54  1  0.61998000  0.02626000  0.85299000  1.0
  C  C55  1  0.06652000  0.33995000  0.10886000  1.0
  C  C56  1  0.57581000  0.23835000  0.81608000  1.0
  C  C57  1  0.28016000  0.35317000  0.01217000  1.0
  C  C58  1  0.32057000  0.59667000  0.30686000  1.0
  C  C59  1  0.39157000  0.30175000  0.28924000  1.0
  C  C60  1  0.17310000  0.37587000  0.08745000  1.0
  C  C61  1  0.63079000  0.13047000  0.85831000  1.0
  C  C62  1  0.40534000  0.18857000  0.29574000  1.0
  C  C63  1  0.20801000  0.64346000  0.31613000  1.0
  C  C64  1  0.54688000  0.79550000  0.89504000  1.0
  C  C65  1  0.83416000  0.31651000  0.10337000  1.0
  C  C66  1  0.81151000  0.50879000  0.80919000  1.0
  C  C67  1  0.32474000  0.78483000  0.78410000  1.0
  C  C68  1  0.41464000  0.67998000  0.68506000  1.0
  C  C69  1  0.70084000  0.60187000  0.71567000  1.0
  N  N70  1  0.30952000  0.48235000  0.05296000  1.0
  N  N71  1  0.65120000  0.26269000  0.91201000  1.0
  N  N72  1  0.50580000  0.30053000  0.12657000  1.0
  N  N73  1  0.31507000  0.65800000  0.14261000  1.0
  N  N74  1  0.58636000  0.31695000  0.84622000  1.0
  N  N75  1  0.36047000  0.41486000  0.99075000  1.0
  N  N76  1  0.38402000  0.60509000  0.20331000  1.0
  N  N77  1  0.45274000  0.36719000  0.18760000  1.0
  N  N78  1  0.52083000  0.68821000  0.94675000  1.0
  N  N79  1  0.72857000  0.34372000  0.10281000  1.0
  N  N80  1  0.70537000  0.48175000  0.87575000  1.0
  N  N81  1  0.35112000  0.68266000  0.85085000  1.0
  N  N82  1  0.40784000  0.61601000  0.78807000  1.0
  N  N83  1  0.63583000  0.53988000  0.81735000  1.0
  N  N84  1  0.67187000  0.41054000  0.16624000  1.0
  N  N85  1  0.59285000  0.63005000  0.00397000  1.0
  F  F86  1  0.13198000  0.51551000  0.17480000  1.0
  F  F87  1  0.73490000  0.08498000  0.98194000  1.0
  F  F88  1  0.91380000  0.42085000  0.61173000  1.0
  F  F89  1  0.16201000  0.92704000  0.62377000  1.0
  F  F90  1  0.03021000  0.64271000  0.68398000  1.0
  F  F91  1  0.46472000  0.98363000  0.62625000  1.0
  F  F92  1  0.82454000  0.77475000  0.50041000  1.0
  F  F93  1  0.48046000  0.79317000  0.45290000  1.0
  F  F94  1  0.14362000  0.80078000  0.42924000  1.0
  F  F95  1  0.58751000  0.05900000  0.35773000  1.0
  F  F96  1  0.75966000  0.90874000  0.92487000  1.0
  F  F97  1  0.94472000  0.42087000  0.24047000  1.0
  F  F98  1  0.51513000  0.26650000  0.75240000  1.0
  F  F99  1  0.30461000  0.28018000  0.96122000  1.0
  F  F100  1  0.48791000  0.87251000  0.83453000  1.0
  F  F101  1  0.90852000  0.25209000  0.04732000  1.0
  F  F102  1  0.89802000  0.45944000  0.84594000  1.0
  F  F103  1  0.26742000  0.86622000  0.82593000  1.0
  F  F104  1  0.71238000  0.48226000  0.26490000  1.0
  F  F105  1  0.73864000  0.67111000  0.03036000  1.0
  F  F106  1  0.18724000  0.44815000  0.51080000  1.0
  F  F107  1  0.25555000  0.18344000  0.51785000  1.0
