# generated using pymatgen
data_CuH16C24(NO2)2
_symmetry_space_group_name_H-M   'P 1'
_cell_length_a   9.12732000
_cell_length_b   10.41530000
_cell_length_c   10.43360000
_cell_angle_alpha   89.99980000
_cell_angle_beta   101.17400000
_cell_angle_gamma   90.00000000
_symmetry_Int_Tables_number   1
_chemical_formula_structural   CuH16C24(NO2)2
_chemical_formula_sum   'Cu2 H32 C48 N4 O8'
_cell_volume   973.05496575
_cell_formula_units_Z   2
loop_
 _symmetry_equiv_pos_site_id
 _symmetry_equiv_pos_as_xyz
  1  'x, y, z'
loop_
 _atom_site_type_symbol
 _atom_site_label
 _atom_site_symmetry_multiplicity
 _atom_site_fract_x
 _atom_site_fract_y
 _atom_site_fract_z
 _atom_site_occupancy
  Cu  Cu0  1  0.50000000  0.00000000  0.00000000  1.0
  Cu  Cu1  1  0.50000000  0.50000000  0.50000000  1.0
  H  H2  1  0.95041000  0.16299000  0.00204000  1.0
  H  H3  1  0.04959000  0.66299000  0.49796000  1.0
  H  H4  1  0.04959000  0.83701000  0.99796000  1.0
  H  H5  1  0.95041000  0.33701000  0.50204000  1.0
  H  H6  1  0.17792000  0.48244000  0.21450000  1.0
  H  H7  1  0.82208000  0.98244000  0.28551000  1.0
  H  H8  1  0.82208000  0.51756000  0.78551000  1.0
  H  H9  1  0.17792000  0.01755000  0.71450000  1.0
  H  H10  1  0.97541000  0.49946000  0.34205000  1.0
  H  H11  1  0.02459000  0.99946000  0.15795000  1.0
  H  H12  1  0.02459000  0.50054000  0.65795000  1.0
  H  H13  1  0.97541000  0.00054000  0.84205000  1.0
  H  H14  1  0.76464000  0.34212000  0.30562000  1.0
  H  H15  1  0.23536000  0.84212000  0.19438000  1.0
  H  H16  1  0.23536000  0.65788000  0.69438000  1.0
  H  H17  1  0.76464000  0.15788000  0.80562000  1.0
  H  H18  1  0.23316000  0.10084000  0.07178000  1.0
  H  H19  1  0.76684000  0.60084000  0.42822000  1.0
  H  H20  1  0.76685000  0.89916000  0.92822000  1.0
  H  H21  1  0.23316000  0.39916000  0.57178000  1.0
  H  H22  1  0.52717000  0.24597000  0.84985000  1.0
  H  H23  1  0.47283000  0.74596000  0.65015000  1.0
  H  H24  1  0.47283000  0.75404000  0.15014000  1.0
  H  H25  1  0.52717000  0.25404000  0.34985000  1.0
  H  H26  1  0.42012000  0.46399000  0.85037000  1.0
  H  H27  1  0.57987000  0.96399000  0.64964000  1.0
  H  H28  1  0.57987000  0.53601000  0.14963000  1.0
  H  H29  1  0.42013000  0.03601000  0.35036000  1.0
  H  H30  1  0.21448000  0.50425000  0.97586000  1.0
  H  H31  1  0.78551000  0.00424000  0.52414000  1.0
  H  H32  1  0.78552000  0.49576000  0.02414000  1.0
  H  H33  1  0.21449000  0.99576000  0.47586000  1.0
  C  C34  1  0.84363000  0.24412000  0.15006000  1.0
  C  C35  1  0.15637000  0.74412000  0.34994000  1.0
  C  C36  1  0.15637000  0.75588000  0.84994000  1.0
  C  C37  1  0.84363000  0.25587000  0.65006000  1.0
  C  C38  1  0.95809000  0.23501000  0.07857000  1.0
  C  C39  1  0.04191000  0.73501000  0.42143000  1.0
  C  C40  1  0.04191000  0.76499000  0.92143000  1.0
  C  C41  1  0.95809000  0.26499000  0.57857000  1.0
  C  C42  1  0.08001000  0.31914000  0.10256000  1.0
  C  C43  1  0.91998000  0.81913000  0.39745000  1.0
  C  C44  1  0.91999000  0.68087000  0.89745000  1.0
  C  C45  1  0.08002000  0.18086000  0.60255000  1.0
  C  C46  1  0.08380000  0.41613000  0.19646000  1.0
  C  C47  1  0.91620000  0.91613000  0.30354000  1.0
  C  C48  1  0.91620000  0.58387000  0.80354000  1.0
  C  C49  1  0.08380000  0.08386000  0.69646000  1.0
  C  C50  1  0.97039000  0.42440000  0.26853000  1.0
  C  C51  1  0.02961000  0.92440000  0.23147000  1.0
  C  C52  1  0.02961000  0.57560000  0.73147000  1.0
  C  C53  1  0.97039000  0.07560000  0.76854000  1.0
  C  C54  1  0.85165000  0.33778000  0.24738000  1.0
  C  C55  1  0.14834000  0.83778000  0.25262000  1.0
  C  C56  1  0.14835000  0.66222000  0.75262000  1.0
  C  C57  1  0.85165000  0.16222000  0.74737000  1.0
  C  C58  1  0.71237000  0.15484000  0.12395000  1.0
  C  C59  1  0.28764000  0.65484000  0.37605000  1.0
  C  C60  1  0.28763000  0.84516000  0.87605000  1.0
  C  C61  1  0.71237000  0.34516000  0.62395000  1.0
  C  C62  1  0.20398000  0.30478000  0.03117000  1.0
  C  C63  1  0.79602000  0.80478000  0.46883000  1.0
  C  C64  1  0.79602000  0.69522000  0.96883000  1.0
  C  C65  1  0.20398000  0.19522000  0.53117000  1.0
  C  C66  1  0.27033000  0.18457000  0.02424000  1.0
  C  C67  1  0.72967000  0.68456000  0.47576000  1.0
  C  C68  1  0.72967000  0.81543000  0.97575000  1.0
  C  C69  1  0.27033000  0.31543000  0.52425000  1.0
  C  C70  1  0.43549000  0.26431000  0.90028000  1.0
  C  C71  1  0.56450000  0.76430000  0.59972000  1.0
  C  C72  1  0.56451000  0.73570000  0.09972000  1.0
  C  C73  1  0.43550000  0.23570000  0.40028000  1.0
  C  C74  1  0.37550000  0.38702000  0.90218000  1.0
  C  C75  1  0.62450000  0.88702000  0.59782000  1.0
  C  C76  1  0.62450000  0.61298000  0.09781000  1.0
  C  C77  1  0.37550000  0.11298000  0.40218000  1.0
  C  C78  1  0.26126000  0.40853000  0.97082000  1.0
  C  C79  1  0.73873000  0.90852000  0.52918000  1.0
  C  C80  1  0.73874000  0.59148000  0.02919000  1.0
  C  C81  1  0.26126000  0.09148000  0.47082000  1.0
  N  N82  1  0.38511000  0.16545000  0.96300000  1.0
  N  N83  1  0.61489000  0.66544000  0.53700000  1.0
  N  N84  1  0.61489000  0.83456000  0.03700000  1.0
  N  N85  1  0.38511000  0.33456000  0.46300000  1.0
  O  O86  1  0.68988000  0.09616000  0.01171000  1.0
  O  O87  1  0.31013000  0.59615000  0.48829000  1.0
  O  O88  1  0.31012000  0.90385000  0.98829000  1.0
  O  O89  1  0.68988000  0.40384000  0.51171000  1.0
  O  O90  1  0.63137000  0.13995000  0.20703000  1.0
  O  O91  1  0.36862000  0.63995000  0.29296000  1.0
  O  O92  1  0.36863000  0.86005000  0.79296000  1.0
  O  O93  1  0.63137000  0.36004000  0.70703000  1.0
