# generated using pymatgen
data_HgH6C5S5Br2
_symmetry_space_group_name_H-M   'P 1'
_cell_length_a   4.06778000
_cell_length_b   13.21590849
_cell_length_c   24.69695551
_cell_angle_alpha   75.57902896
_cell_angle_beta   85.30077633
_cell_angle_gamma   81.25254378
_symmetry_Int_Tables_number   1
_chemical_formula_structural   HgH6C5S5Br2
_chemical_formula_sum   'Hg4 H24 C20 S20 Br8'
_cell_volume   1269.55761058
_cell_formula_units_Z   4
loop_
 _symmetry_equiv_pos_site_id
 _symmetry_equiv_pos_as_xyz
  1  'x, y, z'
loop_
 _atom_site_type_symbol
 _atom_site_label
 _atom_site_symmetry_multiplicity
 _atom_site_fract_x
 _atom_site_fract_y
 _atom_site_fract_z
 _atom_site_occupancy
  Hg  Hg0  1  0.74629000  0.33405000  0.91057000  1.0
  Hg  Hg1  1  0.98702000  0.16554000  0.58960000  1.0
  Hg  Hg2  1  0.25365000  0.66595000  0.08943000  1.0
  Hg  Hg3  1  0.01318000  0.83443000  0.41040000  1.0
  H  H4  1  0.09388000  0.36632000  0.16118000  1.0
  H  H5  1  0.62073000  0.13348000  0.33881000  1.0
  H  H6  1  0.90610000  0.63367000  0.83883000  1.0
  H  H7  1  0.37930000  0.86653000  0.66119000  1.0
  H  H8  1  0.46244000  0.42083000  0.12760000  1.0
  H  H9  1  0.00999000  0.07903000  0.37227000  1.0
  H  H10  1  0.53751000  0.57918000  0.87240000  1.0
  H  H11  1  0.99004000  0.92097000  0.62773000  1.0
  H  H12  1  0.35706000  0.41731000  0.19981000  1.0
  H  H13  1  0.97252000  0.08281000  0.30005000  1.0
  H  H14  1  0.64289000  0.58270000  0.80019000  1.0
  H  H15  1  0.02750000  0.91720000  0.69995000  1.0
  H  H16  1  0.06015000  0.92777000  0.15328000  1.0
  H  H17  1  0.14321000  0.57225000  0.34691000  1.0
  H  H18  1  0.93982000  0.07224000  0.84672000  1.0
  H  H19  1  0.85676000  0.42774000  0.65309000  1.0
  H  H20  1  0.12433000  0.86272000  0.22488000  1.0
  H  H21  1  0.21424000  0.63733000  0.27531000  1.0
  H  H22  1  0.87570000  0.13729000  0.77511000  1.0
  H  H23  1  0.78573000  0.36266000  0.72469000  1.0
  H  H24  1  0.46532000  0.85909000  0.17464000  1.0
  H  H25  1  0.50155000  0.64105000  0.32557000  1.0
  H  H26  1  0.53466000  0.14092000  0.82536000  1.0
  H  H27  1  0.49841000  0.35894000  0.67443000  1.0
  C  C28  1  0.72760000  0.14479000  0.03803000  1.0
  C  C29  1  0.91022000  0.35515000  0.46209000  1.0
  C  C30  1  0.27235000  0.85523000  0.96197000  1.0
  C  C31  1  0.08976000  0.64485000  0.53792000  1.0
  C  C32  1  0.59094000  0.19136000  0.13435000  1.0
  C  C33  1  0.91627000  0.30875000  0.36567000  1.0
  C  C34  1  0.40903000  0.80865000  0.86565000  1.0
  C  C35  1  0.08379000  0.69125000  0.63433000  1.0
  C  C36  1  0.49340000  0.09334000  0.14108000  1.0
  C  C37  1  0.72820000  0.40674000  0.35899000  1.0
  C  C38  1  0.50658000  0.90669000  0.85892000  1.0
  C  C39  1  0.27181000  0.59328000  0.64101000  1.0
  C  C40  1  0.35098000  0.37624000  0.16647000  1.0
  C  C41  1  0.89285000  0.12372000  0.33347000  1.0
  C  C42  1  0.64899000  0.62377000  0.83353000  1.0
  C  C43  1  0.10718000  0.87629000  0.66654000  1.0
  C  C44  1  0.23966000  0.90739000  0.18640000  1.0
  C  C45  1  0.33557000  0.59267000  0.31379000  1.0
  C  C46  1  0.76033000  0.09262000  0.81360000  1.0
  C  C47  1  0.66440000  0.40732000  0.68621000  1.0
  S  S48  1  0.85295000  0.13818000  0.97232000  1.0
  S  S49  1  0.96333000  0.36153000  0.52783000  1.0
  S  S50  1  0.14703000  0.86184000  0.02768000  1.0
  S  S51  1  0.03663000  0.63845000  0.47218000  1.0
  S  S52  1  0.76332000  0.24509000  0.06847000  1.0
  S  S53  1  0.07608000  0.25500000  0.43155000  1.0
  S  S54  1  0.23665000  0.75494000  0.93153000  1.0
  S  S55  1  0.92394000  0.74500000  0.56845000  1.0
  S  S56  1  0.55602000  0.04114000  0.08243000  1.0
  S  S57  1  0.68026000  0.45881000  0.41768000  1.0
  S  S58  1  0.44394000  0.95888000  0.91756000  1.0
  S  S59  1  0.31975000  0.54119000  0.58232000  1.0
  S  S60  1  0.59674000  0.24867000  0.19043000  1.0
  S  S61  1  0.03558000  0.25144000  0.30963000  1.0
  S  S62  1  0.40328000  0.75134000  0.80957000  1.0
  S  S63  1  0.96448000  0.74855000  0.69038000  1.0
  S  S64  1  0.33524000  0.02351000  0.20433000  1.0
  S  S65  1  0.56385000  0.47667000  0.29578000  1.0
  S  S66  1  0.66475000  0.97650000  0.79566000  1.0
  S  S67  1  0.43615000  0.52332000  0.70422000  1.0
  Br  Br68  1  0.12727000  0.32965000  0.82353000  1.0
  Br  Br69  1  0.27883000  0.16988000  0.67651000  1.0
  Br  Br70  1  0.87266000  0.67030000  0.17646000  1.0
  Br  Br71  1  0.72128000  0.83007000  0.32350000  1.0
  Br  Br72  1  0.25611000  0.43104000  0.95813000  1.0
  Br  Br73  1  0.63807000  0.06957000  0.54176000  1.0
  Br  Br74  1  0.74383000  0.56896000  0.04187000  1.0
  Br  Br75  1  0.36204000  0.93041000  0.45826000  1.0
