# generated using pymatgen
data_Co3H58C60N2O21
_symmetry_space_group_name_H-M   'P 1'
_cell_length_a   10.68520000
_cell_length_b   13.15595213
_cell_length_c   34.87590000
_cell_angle_alpha   81.24605579
_cell_angle_beta   90.07010000
_cell_angle_gamma   66.03272899
_symmetry_Int_Tables_number   1
_chemical_formula_structural   Co3H58C60N2O21
_chemical_formula_sum   'Co6 H116 C120 N4 O42'
_cell_volume   4416.93835664
_cell_formula_units_Z   2
loop_
 _symmetry_equiv_pos_site_id
 _symmetry_equiv_pos_as_xyz
  1  'x, y, z'
loop_
 _atom_site_type_symbol
 _atom_site_label
 _atom_site_symmetry_multiplicity
 _atom_site_fract_x
 _atom_site_fract_y
 _atom_site_fract_z
 _atom_site_occupancy
  Co  Co0  1  0.86531000  0.36354000  0.49497000  1.0
  Co  Co1  1  0.22921000  0.63629000  0.00514000  1.0
  Co  Co2  1  0.13468000  0.63646000  0.50503000  1.0
  Co  Co3  1  0.77080000  0.36371000  0.99486000  1.0
  Co  Co4  1  0.49999000  0.50000000  0.50000000  1.0
  Co  Co5  1  0.99999000  0.50000000  0.00000000  1.0
  H  H6  1  0.60936000  0.97645000  0.20639000  1.0
  H  H7  1  0.67187000  0.87717000  0.25092000  1.0
  H  H8  1  0.45259000  0.72136000  0.23928000  1.0
  H  H9  1  0.42877000  0.82954000  0.26807000  1.0
  H  H10  1  0.73461000  0.72624000  0.20712000  1.0
  H  H11  1  0.64881000  0.82837000  0.16459000  1.0
  H  H12  1  0.31001000  0.96146000  0.20785000  1.0
  H  H13  1  0.36318000  0.85825000  0.17606000  1.0
  H  H14  1  0.41038000  0.69641000  0.31130000  1.0
  H  H15  1  0.43575000  0.60551000  0.38027000  1.0
  H  H16  1  0.87079000  0.50422000  0.38227000  1.0
  H  H17  1  0.84835000  0.59894000  0.31303000  1.0
  H  H18  1  0.80886000  0.68621000  0.13833000  1.0
  H  H19  1  0.86573000  0.60059000  0.07813000  1.0
  H  H20  1  0.51156000  0.52435000  0.08491000  1.0
  H  H21  1  0.45168000  0.61065000  0.14568000  1.0
  H  H22  1  0.44389000  0.14543000  0.11259000  1.0
  H  H23  1  0.28054000  0.26374000  0.05532000  1.0
  H  H24  1  0.01228000  0.10118000  0.08722000  1.0
  H  H25  1  0.17061000  0.98395000  0.14468000  1.0
  H  H26  1  0.10786000  0.33738000  0.53818000  1.0
  H  H27  1  0.27172000  0.21986000  0.54726000  1.0
  H  H28  1  0.25480000  0.34711000  0.51739000  1.0
  H  H29  1  0.42684000  0.23286000  0.49342000  1.0
  H  H30  1  0.47859000  0.08457000  0.49625000  1.0
  H  H31  1  0.46480000  0.17239000  0.45071000  1.0
  H  H32  1  0.14236000  0.15227000  0.43661000  1.0
  H  H33  1  0.28622000  0.16198000  0.41270000  1.0
  H  H34  1  0.30946000  0.03956000  0.44728000  1.0
  H  H35  1  0.58539000  0.02291000  0.29385000  1.0
  H  H36  1  0.54916000  0.12248000  0.24943000  1.0
  H  H37  1  0.17372000  0.27835000  0.26067000  1.0
  H  H38  1  0.25819000  0.17041000  0.23182000  1.0
  H  H39  1  0.46103000  0.27280000  0.29313000  1.0
  H  H40  1  0.47700000  0.17071000  0.33561000  1.0
  H  H41  1  0.27106000  0.03820000  0.29194000  1.0
  H  H42  1  0.22084000  0.14138000  0.32375000  1.0
  H  H43  1  0.10681000  0.30401000  0.18857000  1.0
  H  H44  1  0.04186000  0.39475000  0.11958000  1.0
  H  H45  1  0.37626000  0.49521000  0.11805000  1.0
  H  H46  1  0.44795000  0.40053000  0.18731000  1.0
  H  H47  1  0.49516000  0.31303000  0.36194000  1.0
  H  H48  1  0.46611000  0.39915000  0.42207000  1.0
  H  H49  1  0.03555000  0.47609000  0.41479000  1.0
  H  H50  1  0.06218000  0.38946000  0.35404000  1.0
  H  H51  1  0.58890000  0.85428000  0.38731000  1.0
  H  H52  1  0.54422000  0.73591000  0.44458000  1.0
  H  H53  1  0.11303000  0.89938000  0.41279000  1.0
  H  H54  1  0.15388000  0.01630000  0.35527000  1.0
  H  H55  1  0.44500000  0.66232000  0.96189000  1.0
  H  H56  1  0.49100000  0.77996000  0.95270000  1.0
  H  H57  1  0.60190000  0.65280000  0.98256000  1.0
  H  H58  1  0.65962000  0.76726000  0.00643000  1.0
  H  H59  1  0.56314000  0.91550000  0.00386000  1.0
  H  H60  1  0.63796000  0.82708000  0.04928000  1.0
  H  H61  1  0.29511000  0.84769000  0.06336000  1.0
  H  H62  1  0.44900000  0.83752000  0.08732000  1.0
  H  H63  1  0.34979000  0.96021000  0.05282000  1.0
  H  H64  1  0.39066000  0.02354000  0.79360000  1.0
  H  H65  1  0.32814000  0.12282000  0.74908000  1.0
  H  H66  1  0.54741000  0.27864000  0.76072000  1.0
  H  H67  1  0.57123000  0.17046000  0.73193000  1.0
  H  H68  1  0.26541000  0.27375000  0.79289000  1.0
  H  H69  1  0.35121000  0.17162000  0.83542000  1.0
  H  H70  1  0.69000000  0.03853000  0.79215000  1.0
  H  H71  1  0.63682000  0.14174000  0.82394000  1.0
  H  H72  1  0.58961000  0.30360000  0.68870000  1.0
  H  H73  1  0.56424000  0.39448000  0.61973000  1.0
  H  H74  1  0.12919000  0.49574000  0.61773000  1.0
  H  H75  1  0.15165000  0.40102000  0.68697000  1.0
  H  H76  1  0.19113000  0.31380000  0.86166000  1.0
  H  H77  1  0.13424000  0.39942000  0.92186000  1.0
  H  H78  1  0.48841000  0.47567000  0.91509000  1.0
  H  H79  1  0.54833000  0.38935000  0.85432000  1.0
  H  H80  1  0.55610000  0.85456000  0.88740000  1.0
  H  H81  1  0.71947000  0.73625000  0.94468000  1.0
  H  H82  1  0.98771000  0.89883000  0.91278000  1.0
  H  H83  1  0.82938000  0.01605000  0.85532000  1.0
  H  H84  1  0.89216000  0.66263000  0.46182000  1.0
  H  H85  1  0.72829000  0.78014000  0.45274000  1.0
  H  H86  1  0.74522000  0.65289000  0.48261000  1.0
  H  H87  1  0.57317000  0.76713000  0.50658000  1.0
  H  H88  1  0.52142000  0.91542000  0.50375000  1.0
  H  H89  1  0.53522000  0.82760000  0.54929000  1.0
  H  H90  1  0.85764000  0.84775000  0.56338000  1.0
  H  H91  1  0.71379000  0.83803000  0.58730000  1.0
  H  H92  1  0.69055000  0.96045000  0.55271000  1.0
  H  H93  1  0.41462000  0.97709000  0.70615000  1.0
  H  H94  1  0.45086000  0.87752000  0.75057000  1.0
  H  H95  1  0.82629000  0.72165000  0.73933000  1.0
  H  H96  1  0.74181000  0.82959000  0.76818000  1.0
  H  H97  1  0.53897000  0.72720000  0.70687000  1.0
  H  H98  1  0.52302000  0.82928000  0.66439000  1.0
  H  H99  1  0.72895000  0.96179000  0.70807000  1.0
  H  H100  1  0.77916000  0.85863000  0.67625000  1.0
  H  H101  1  0.89319000  0.69600000  0.81144000  1.0
  H  H102  1  0.95814000  0.60525000  0.88042000  1.0
  H  H103  1  0.62373000  0.50479000  0.88195000  1.0
  H  H104  1  0.55206000  0.59946000  0.81268000  1.0
  H  H105  1  0.50484000  0.68698000  0.63807000  1.0
  H  H106  1  0.53388000  0.60086000  0.57793000  1.0
  H  H107  1  0.96444000  0.52392000  0.58521000  1.0
  H  H108  1  0.93783000  0.61055000  0.64596000  1.0
  H  H109  1  0.41110000  0.14573000  0.61270000  1.0
  H  H110  1  0.45578000  0.26409000  0.55542000  1.0
  H  H111  1  0.88696000  0.10062000  0.58721000  1.0
  H  H112  1  0.84611000  0.98370000  0.64473000  1.0
  H  H113  1  0.55501000  0.33769000  0.03811000  1.0
  H  H114  1  0.50901000  0.22005000  0.04731000  1.0
  H  H115  1  0.39811000  0.34721000  0.01744000  1.0
  H  H116  1  0.34038000  0.23277000  0.99356000  1.0
  H  H117  1  0.43685000  0.08453000  0.99614000  1.0
  H  H118  1  0.36204000  0.17294000  0.95072000  1.0
  H  H119  1  0.70490000  0.15231000  0.93664000  1.0
  H  H120  1  0.55101000  0.16248000  0.91268000  1.0
  H  H121  1  0.65021000  0.03980000  0.94719000  1.0
  C  C122  1  0.52778000  0.84764000  0.21502000  1.0
  C  C123  1  0.58078000  0.92704000  0.23054000  1.0
  C  C124  1  0.49897000  0.77435000  0.24949000  1.0
  C  C125  1  0.63539000  0.77438000  0.19020000  1.0
  C  C126  1  0.39261000  0.91586000  0.18993000  1.0
  C  C127  1  0.62868000  0.65417000  0.30801000  1.0
  C  C128  1  0.51187000  0.65512000  0.32654000  1.0
  C  C129  1  0.52602000  0.60321000  0.36527000  1.0
  C  C130  1  0.65517000  0.54879000  0.38564000  1.0
  C  C131  1  0.77105000  0.54660000  0.36628000  1.0
  C  C132  1  0.75886000  0.59882000  0.32800000  1.0
  C  C133  1  0.66977000  0.49734000  0.42754000  1.0
  C  C134  1  0.62583000  0.65356000  0.14545000  1.0
  C  C135  1  0.74238000  0.65204000  0.12666000  1.0
  C  C136  1  0.77480000  0.60377000  0.09298000  1.0
  C  C137  1  0.69250000  0.55660000  0.07826000  1.0
  C  C138  1  0.57600000  0.55893000  0.09742000  1.0
  C  C139  1  0.54266000  0.60674000  0.13073000  1.0
  C  C140  1  0.72602000  0.50179000  0.04344000  1.0
  C  C141  1  0.31945000  0.05583000  0.13149000  1.0
  C  C142  1  0.35028000  0.13498000  0.10622000  1.0
  C  C143  1  0.26034000  0.19980000  0.07456000  1.0
  C  C144  1  0.13863000  0.18744000  0.06700000  1.0
  C  C145  1  0.10766000  0.10970000  0.09278000  1.0
  C  C146  1  0.19676000  0.04403000  0.12508000  1.0
  C  C147  1  0.04437000  0.26077000  0.03277000  1.0
  C  C148  1  0.17209000  0.24649000  0.49099000  1.0
  C  C149  1  0.20340000  0.29049000  0.52545000  1.0
  C  C150  1  0.41870000  0.16795000  0.47868000  1.0
  C  C151  1  0.25205000  0.13164000  0.44007000  1.0
  C  C152  1  0.37514000  0.15189000  0.28502000  1.0
  C  C153  1  0.50768000  0.07251000  0.26961000  1.0
  C  C154  1  0.27316000  0.22544000  0.25050000  1.0
  C  C155  1  0.40970000  0.22486000  0.30996000  1.0
  C  C156  1  0.30798000  0.08375000  0.30994000  1.0
  C  C157  1  0.28320000  0.34572000  0.19211000  1.0
  C  C158  1  0.16732000  0.34501000  0.17342000  1.0
  C  C159  1  0.12989000  0.39686000  0.13468000  1.0
  C  C160  1  0.20488000  0.45103000  0.11441000  1.0
  C  C161  1  0.31860000  0.45301000  0.13392000  1.0
  C  C162  1  0.35833000  0.40080000  0.17223000  1.0
  C  C163  1  0.16789000  0.50248000  0.07251000  1.0
  C  C164  1  0.27937000  0.34605000  0.35457000  1.0
  C  C165  1  0.39442000  0.34745000  0.37349000  1.0
  C  C166  1  0.37840000  0.39599000  0.40712000  1.0
  C  C167  1  0.24879000  0.44349000  0.42167000  1.0
  C  C168  1  0.13465000  0.44122000  0.40239000  1.0
  C  C169  1  0.14922000  0.39325000  0.36912000  1.0
  C  C170  1  0.22734000  0.49860000  0.45643000  1.0
  C  C171  1  0.37477000  0.94395000  0.36843000  1.0
  C  C172  1  0.48489000  0.86472000  0.39370000  1.0
  C  C173  1  0.45997000  0.79997000  0.42535000  1.0
  C  C174  1  0.32587000  0.81261000  0.43294000  1.0
  C  C175  1  0.21697000  0.89054000  0.40718000  1.0
  C  C176  1  0.24021000  0.95608000  0.37487000  1.0
  C  C177  1  0.30526000  0.73937000  0.46721000  1.0
  C  C178  1  0.41878000  0.75338000  0.00902000  1.0
  C  C179  1  0.49375000  0.70933000  0.97455000  1.0
  C  C180  1  0.58690000  0.83194000  0.02131000  1.0
  C  C181  1  0.38429000  0.86814000  0.05995000  1.0
  C  C182  1  0.47223000  0.15235000  0.78498000  1.0
  C  C183  1  0.41924000  0.07295000  0.76946000  1.0
  C  C184  1  0.50104000  0.22564000  0.75051000  1.0
  C  C185  1  0.36462000  0.22561000  0.80981000  1.0
  C  C186  1  0.60739000  0.08414000  0.81007000  1.0
  C  C187  1  0.37131000  0.34582000  0.69199000  1.0
  C  C188  1  0.48813000  0.34488000  0.67346000  1.0
  C  C189  1  0.47396000  0.39678000  0.63473000  1.0
  C  C190  1  0.34481000  0.45120000  0.61436000  1.0
  C  C191  1  0.22894000  0.45337000  0.63373000  1.0
  C  C192  1  0.24114000  0.40116000  0.67200000  1.0
  C  C193  1  0.33020000  0.50265000  0.57246000  1.0
  C  C194  1  0.37418000  0.34644000  0.85455000  1.0
  C  C195  1  0.25762000  0.34796000  0.87334000  1.0
  C  C196  1  0.22518000  0.39624000  0.90701000  1.0
  C  C197  1  0.30746000  0.44342000  0.92174000  1.0
  C  C198  1  0.42398000  0.44108000  0.90258000  1.0
  C  C199  1  0.45733000  0.39327000  0.86927000  1.0
  C  C200  1  0.27395000  0.49822000  0.95656000  1.0
  C  C201  1  0.68055000  0.94416000  0.86850000  1.0
  C  C202  1  0.64972000  0.86500000  0.89378000  1.0
  C  C203  1  0.73967000  0.80018000  0.92544000  1.0
  C  C204  1  0.86137000  0.81256000  0.93300000  1.0
  C  C205  1  0.89234000  0.89030000  0.90722000  1.0
  C  C206  1  0.80324000  0.95596000  0.87492000  1.0
  C  C207  1  0.95562000  0.73923000  0.96724000  1.0
  C  C208  1  0.82790000  0.75353000  0.50901000  1.0
  C  C209  1  0.79662000  0.70951000  0.47455000  1.0
  C  C210  1  0.58131000  0.83204000  0.52132000  1.0
  C  C211  1  0.74796000  0.86837000  0.55993000  1.0
  C  C212  1  0.62486000  0.84811000  0.71498000  1.0
  C  C213  1  0.49233000  0.92749000  0.73039000  1.0
  C  C214  1  0.72685000  0.77455000  0.74949000  1.0
  C  C215  1  0.59030000  0.77514000  0.69004000  1.0
  C  C216  1  0.69202000  0.91625000  0.69006000  1.0
  C  C217  1  0.71680000  0.65428000  0.80789000  1.0
  C  C218  1  0.83269000  0.65498000  0.82658000  1.0
  C  C219  1  0.87011000  0.60314000  0.86532000  1.0
  C  C220  1  0.79512000  0.54896000  0.88559000  1.0
  C  C221  1  0.68140000  0.54698000  0.86608000  1.0
  C  C222  1  0.64168000  0.59919000  0.82777000  1.0
  C  C223  1  0.83212000  0.49751000  0.92749000  1.0
  C  C224  1  0.72065000  0.65395000  0.64543000  1.0
  C  C225  1  0.60559000  0.65255000  0.62651000  1.0
  C  C226  1  0.62159000  0.60402000  0.59289000  1.0
  C  C227  1  0.75119000  0.55652000  0.57833000  1.0
  C  C228  1  0.86535000  0.55879000  0.59761000  1.0
  C  C229  1  0.85078000  0.60676000  0.63088000  1.0
  C  C230  1  0.77266000  0.50140000  0.54358000  1.0
  C  C231  1  0.62522000  0.05606000  0.63157000  1.0
  C  C232  1  0.51509000  0.13529000  0.60631000  1.0
  C  C233  1  0.54002000  0.20004000  0.57465000  1.0
  C  C234  1  0.67412000  0.18739000  0.56706000  1.0
  C  C235  1  0.78302000  0.10947000  0.59282000  1.0
  C  C236  1  0.75977000  0.04393000  0.62514000  1.0
  C  C237  1  0.69475000  0.26062000  0.53279000  1.0
  C  C238  1  0.58123000  0.24662000  0.99099000  1.0
  C  C239  1  0.50626000  0.29068000  0.02545000  1.0
  C  C240  1  0.41310000  0.16808000  0.97869000  1.0
  C  C241  1  0.61571000  0.13186000  0.94005000  1.0
  N  N242  1  0.27672000  0.18555000  0.47106000  1.0
  N  N243  1  0.46257000  0.81435000  0.02893000  1.0
  N  N244  1  0.72330000  0.81445000  0.52894000  1.0
  N  N245  1  0.53743000  0.18567000  0.97107000  1.0
  O  O246  1  0.62769000  0.70484000  0.27067000  1.0
  O  O247  1  0.58277000  0.69900000  0.17826000  1.0
  O  O248  1  0.41682000  0.99452000  0.16124000  1.0
  O  O249  1  0.56081000  0.51144000  0.44447000  1.0
  O  O250  1  0.79362000  0.44251000  0.44300000  1.0
  O  O251  1  0.65589000  0.44800000  0.03437000  1.0
  O  O252  1  0.82084000  0.50604000  0.02217000  1.0
  O  O253  1  0.08412000  0.32427000  0.00962000  1.0
  O  O254  1  0.92795000  0.25481000  0.02888000  1.0
  O  O255  1  0.05063000  0.26255000  0.48087000  1.0
  O  O256  1  0.33247000  0.29503000  0.22951000  1.0
  O  O257  1  0.28174000  0.30046000  0.32179000  1.0
  O  O258  1  0.41081000  0.00504000  0.33868000  1.0
  O  O259  1  0.07311000  0.48819000  0.05553000  1.0
  O  O260  1  0.23661000  0.55751000  0.05710000  1.0
  O  O261  1  0.10337000  0.55269000  0.46535000  1.0
  O  O262  1  0.32633000  0.49435000  0.47781000  1.0
  O  O263  1  0.40881000  0.67574000  0.49030000  1.0
  O  O264  1  0.18286000  0.74554000  0.47118000  1.0
  O  O265  1  0.31347000  0.73733000  0.01916000  1.0
  O  O266  1  0.37231000  0.29514000  0.72933000  1.0
  O  O267  1  0.41725000  0.30099000  0.82174000  1.0
  O  O268  1  0.58319000  0.00547000  0.83876000  1.0
  O  O269  1  0.43916000  0.48854000  0.55553000  1.0
  O  O270  1  0.20636000  0.55747000  0.55700000  1.0
  O  O271  1  0.34407000  0.55202000  0.96562000  1.0
  O  O272  1  0.17915000  0.49396000  0.97783000  1.0
  O  O273  1  0.91587000  0.67573000  0.99038000  1.0
  O  O274  1  0.07204000  0.74520000  0.97113000  1.0
  O  O275  1  0.94938000  0.73748000  0.51913000  1.0
  O  O276  1  0.66754000  0.70496000  0.77049000  1.0
  O  O277  1  0.71826000  0.69954000  0.67821000  1.0
  O  O278  1  0.58919000  0.99497000  0.66132000  1.0
  O  O279  1  0.92690000  0.51180000  0.94447000  1.0
  O  O280  1  0.76339000  0.44249000  0.94290000  1.0
  O  O281  1  0.89662000  0.44731000  0.53465000  1.0
  O  O282  1  0.67366000  0.50565000  0.52219000  1.0
  O  O283  1  0.59119000  0.32427000  0.50970000  1.0
  O  O284  1  0.81716000  0.25444000  0.52882000  1.0
  O  O285  1  0.68656000  0.26265000  0.98085000  1.0
  O  O286  1  0.47236000  0.99991000  0.24996000  1.0
  O  O287  1  0.52765000  0.00009000  0.75004000  1.0
