# generated using pymatgen
data_CuH16C22(NO3)2
_symmetry_space_group_name_H-M   'P 1'
_cell_length_a   8.20232000
_cell_length_b   8.20232000
_cell_length_c   15.14160000
_cell_angle_alpha   76.35630000
_cell_angle_beta   76.35640000
_cell_angle_gamma   74.62470000
_symmetry_Int_Tables_number   1
_chemical_formula_structural   CuH16C22(NO3)2
_chemical_formula_sum   'Cu2 H32 C44 N4 O12'
_cell_volume   938.04524573
_cell_formula_units_Z   2
loop_
 _symmetry_equiv_pos_site_id
 _symmetry_equiv_pos_as_xyz
  1  'x, y, z'
loop_
 _atom_site_type_symbol
 _atom_site_label
 _atom_site_symmetry_multiplicity
 _atom_site_fract_x
 _atom_site_fract_y
 _atom_site_fract_z
 _atom_site_occupancy
  Cu  Cu0  1  0.06779000  0.93221000  0.75000000  1.0
  Cu  Cu1  1  0.93221000  0.06779000  0.25000000  1.0
  H  H2  1  0.20947000  0.16280000  0.83809000  1.0
  H  H3  1  0.83720000  0.79054000  0.66191000  1.0
  H  H4  1  0.79053000  0.83719000  0.16191000  1.0
  H  H5  1  0.16281000  0.20947000  0.33809000  1.0
  H  H6  1  0.33096000  0.74309000  0.47278000  1.0
  H  H7  1  0.25691000  0.66904000  0.02722000  1.0
  H  H8  1  0.66904000  0.25691000  0.52722000  1.0
  H  H9  1  0.74309000  0.33096000  0.97278000  1.0
  H  H10  1  0.47644000  0.64045000  0.54883000  1.0
  H  H11  1  0.35955000  0.52356000  0.95117000  1.0
  H  H12  1  0.52356000  0.35955000  0.45117000  1.0
  H  H13  1  0.64045000  0.47644000  0.04883000  1.0
  H  H14  1  0.04814000  0.79022000  0.49291000  1.0
  H  H15  1  0.20978000  0.95186000  0.00709000  1.0
  H  H16  1  0.95186000  0.20977000  0.50709000  1.0
  H  H17  1  0.79022000  0.04813000  0.99291000  1.0
  H  H18  1  0.20445000  0.23433000  0.55714000  1.0
  H  H19  1  0.76567000  0.79554000  0.94286000  1.0
  H  H20  1  0.79555000  0.76566000  0.44285000  1.0
  H  H21  1  0.23433000  0.20445000  0.05715000  1.0
  H  H22  1  0.09447000  0.46759000  0.86831000  1.0
  H  H23  1  0.53241000  0.90553000  0.63170000  1.0
  H  H24  1  0.90553000  0.53240000  0.13170000  1.0
  H  H25  1  0.46760000  0.09447000  0.36830000  1.0
  H  H26  1  0.80877000  0.62800000  0.83321000  1.0
  H  H27  1  0.37199000  0.19123000  0.66679000  1.0
  H  H28  1  0.19123000  0.37200000  0.16679000  1.0
  H  H29  1  0.62801000  0.80877000  0.33321000  1.0
  H  H30  1  0.53418000  0.62582000  0.77758000  1.0
  H  H31  1  0.37418000  0.46582000  0.72241000  1.0
  H  H32  1  0.46582000  0.37418000  0.22241000  1.0
  H  H33  1  0.62582000  0.53418000  0.27758000  1.0
  C  C34  1  0.24203000  0.79238000  0.61056000  1.0
  C  C35  1  0.20762000  0.75798000  0.88943000  1.0
  C  C36  1  0.75798000  0.20762000  0.38944000  1.0
  C  C37  1  0.79238000  0.24202000  0.11056000  1.0
  C  C38  1  0.08586000  0.23964000  0.82201000  1.0
  C  C39  1  0.76037000  0.91414000  0.67799000  1.0
  C  C40  1  0.91413000  0.76036000  0.17799000  1.0
  C  C41  1  0.23964000  0.08587000  0.32201000  1.0
  C  C42  1  0.14523000  0.51292000  0.52918000  1.0
  C  C43  1  0.48708000  0.85477000  0.97082000  1.0
  C  C44  1  0.85476000  0.48708000  0.47081000  1.0
  C  C45  1  0.51292000  0.14523000  0.02919000  1.0
  C  C46  1  0.33995000  0.67233000  0.54333000  1.0
  C  C47  1  0.32766000  0.66005000  0.95667000  1.0
  C  C48  1  0.66004000  0.32766000  0.45667000  1.0
  C  C49  1  0.67233000  0.33996000  0.04333000  1.0
  C  C50  1  0.02981000  0.66211000  0.49607000  1.0
  C  C51  1  0.33789000  0.97020000  0.00393000  1.0
  C  C52  1  0.97020000  0.33789000  0.50393000  1.0
  C  C53  1  0.66211000  0.02980000  0.99607000  1.0
  C  C54  1  0.11477000  0.35148000  0.53267000  1.0
  C  C55  1  0.64852000  0.88523000  0.96733000  1.0
  C  C56  1  0.88523000  0.64852000  0.46732000  1.0
  C  C57  1  0.35148000  0.11477000  0.03267000  1.0
  C  C58  1  0.84020000  0.24933000  0.76805000  1.0
  C  C59  1  0.75068000  0.15980000  0.73195000  1.0
  C  C60  1  0.15980000  0.75068000  0.23195000  1.0
  C  C61  1  0.24932000  0.84019000  0.26805000  1.0
  C  C62  1  0.76399000  0.41874000  0.78358000  1.0
  C  C63  1  0.58126000  0.23601000  0.71642000  1.0
  C  C64  1  0.23601000  0.58126000  0.21642000  1.0
  C  C65  1  0.41874000  0.76399000  0.28358000  1.0
  C  C66  1  0.02133000  0.40839000  0.83859000  1.0
  C  C67  1  0.59162000  0.97866000  0.66141000  1.0
  C  C68  1  0.97867000  0.59161000  0.16141000  1.0
  C  C69  1  0.40838000  0.02134000  0.33858000  1.0
  C  C70  1  0.86163000  0.49834000  0.81890000  1.0
  C  C71  1  0.50166000  0.13837000  0.68110000  1.0
  C  C72  1  0.13837000  0.50166000  0.18110000  1.0
  C  C73  1  0.49834000  0.86163000  0.31890000  1.0
  C  C74  1  0.59352000  0.49538000  0.76527000  1.0
  C  C75  1  0.50462000  0.40648000  0.73473000  1.0
  C  C76  1  0.40648000  0.50462000  0.23472000  1.0
  C  C77  1  0.49538000  0.59352000  0.26527000  1.0
  N  N78  1  0.99798000  0.16327000  0.78657000  1.0
  N  N79  1  0.83673000  0.00203000  0.71343000  1.0
  N  N80  1  0.00202000  0.83673000  0.21343000  1.0
  N  N81  1  0.16327000  0.99798000  0.28657000  1.0
  O  O82  1  0.14749000  0.73098000  0.68548000  1.0
  O  O83  1  0.26903000  0.85251000  0.81452000  1.0
  O  O84  1  0.85250000  0.26903000  0.31452000  1.0
  O  O85  1  0.73098000  0.14750000  0.18548000  1.0
  O  O86  1  0.29182000  0.51196000  0.55905000  1.0
  O  O87  1  0.48804000  0.70818000  0.94095000  1.0
  O  O88  1  0.70818000  0.48804000  0.44094000  1.0
  O  O89  1  0.51196000  0.29182000  0.05905000  1.0
  O  O90  1  0.26339000  0.94364000  0.59044000  1.0
  O  O91  1  0.05636000  0.73662000  0.90956000  1.0
  O  O92  1  0.73662000  0.05636000  0.40956000  1.0
  O  O93  1  0.94364000  0.26338000  0.09044000  1.0
