# generated using pymatgen
data_AgH23C26S(N3O2)2
_symmetry_space_group_name_H-M   'P 1'
_cell_length_a   7.09613000
_cell_length_b   13.61270000
_cell_length_c   15.45260000
_cell_angle_alpha   110.31400000
_cell_angle_beta   101.75400000
_cell_angle_gamma   98.62920000
_symmetry_Int_Tables_number   1
_chemical_formula_structural   AgH23C26S(N3O2)2
_chemical_formula_sum   'Ag2 H46 C52 S2 N12 O8'
_cell_volume   1330.28499449
_cell_formula_units_Z   2
loop_
 _symmetry_equiv_pos_site_id
 _symmetry_equiv_pos_as_xyz
  1  'x, y, z'
loop_
 _atom_site_type_symbol
 _atom_site_label
 _atom_site_symmetry_multiplicity
 _atom_site_fract_x
 _atom_site_fract_y
 _atom_site_fract_z
 _atom_site_occupancy
  Ag  Ag0  1  0.79036000  0.47156000  0.43033000  1.0
  Ag  Ag1  1  0.20964000  0.52844000  0.56967000  1.0
  H  H2  1  0.85038000  0.35259000  0.23484000  1.0
  H  H3  1  0.14965000  0.64742000  0.76516000  1.0
  H  H4  1  0.82028000  0.37016000  0.07733000  1.0
  H  H5  1  0.17974000  0.62984000  0.92267000  1.0
  H  H6  1  0.74809000  0.69268000  0.21375000  1.0
  H  H7  1  0.25190000  0.30731000  0.78625000  1.0
  H  H8  1  0.77209000  0.65968000  0.36422000  1.0
  H  H9  1  0.22790000  0.34032000  0.63578000  1.0
  H  H10  1  0.87300000  0.71917000  0.09167000  1.0
  H  H11  1  0.12699000  0.28083000  0.90833000  1.0
  H  H12  1  0.61071000  0.67616000  0.05250000  1.0
  H  H13  1  0.38929000  0.32383000  0.94750000  1.0
  H  H14  1  0.74967000  0.65538000  0.96640000  1.0
  H  H15  1  0.25033000  0.34462000  0.03360000  1.0
  H  H16  1  0.68117000  0.27589000  0.87415000  1.0
  H  H17  1  0.31882000  0.72411000  0.12585000  1.0
  H  H18  1  0.80664000  0.24261000  0.78330000  1.0
  H  H19  1  0.19335000  0.75739000  0.21669000  1.0
  H  H20  1  0.54798000  0.22131000  0.74952000  1.0
  H  H21  1  0.45201000  0.77869000  0.25048000  1.0
  H  H22  1  0.66479000  0.56516000  0.76340000  1.0
  H  H23  1  0.33521000  0.43484000  0.23660000  1.0
  H  H24  1  0.67553000  0.58321000  0.60880000  1.0
  H  H25  1  0.32447000  0.41679000  0.39120000  1.0
  H  H26  1  0.74948000  0.27366000  0.48877000  1.0
  H  H27  1  0.25052000  0.72634000  0.51123000  1.0
  H  H28  1  0.72739000  0.23856000  0.63364000  1.0
  H  H29  1  0.27260000  0.76144000  0.36636000  1.0
  H  H30  1  0.46512000  0.25459000  0.37354000  1.0
  H  H31  1  0.53488000  0.74540000  0.62646000  1.0
  H  H32  1  0.87955000  0.17084000  0.18059000  1.0
  H  H33  1  0.12045000  0.82916000  0.81941000  1.0
  H  H34  1  0.39074000  0.18173000  0.07209000  1.0
  H  H35  1  0.60926000  0.81827000  0.92791000  1.0
  H  H36  1  0.61214000  0.23235000  0.23820000  1.0
  H  H37  1  0.38786000  0.76765000  0.76180000  1.0
  H  H38  1  0.44415000  0.06987000  0.95040000  1.0
  H  H39  1  0.55586000  0.93013000  0.04960000  1.0
  H  H40  1  0.22530000  0.99454000  0.78237000  1.0
  H  H41  1  0.77469000  0.00546000  0.21763000  1.0
  H  H42  1  0.74263000  0.99292000  0.67625000  1.0
  H  H43  1  0.25736000  0.00708000  0.32375000  1.0
  H  H44  1  0.96025000  0.07096000  0.84507000  1.0
  H  H45  1  0.03975000  0.92904000  0.15493000  1.0
  H  H46  1  0.21647000  0.92367000  0.62225000  1.0
  H  H47  1  0.78352000  0.07633000  0.37776000  1.0
  C  C48  1  0.82315000  0.42556000  0.22588000  1.0
  C  C49  1  0.17688000  0.57444000  0.77412000  1.0
  C  C50  1  0.80763000  0.43611000  0.13880000  1.0
  C  C51  1  0.19239000  0.56389000  0.86120000  1.0
  C  C52  1  0.77744000  0.53270000  0.13079000  1.0
  C  C53  1  0.22257000  0.46730000  0.86921000  1.0
  C  C54  1  0.76887000  0.61520000  0.21419000  1.0
  C  C55  1  0.23113000  0.38480000  0.78581000  1.0
  C  C56  1  0.78221000  0.59800000  0.29874000  1.0
  C  C57  1  0.21779000  0.40200000  0.70126000  1.0
  C  C58  1  0.75763000  0.54740000  0.03897000  1.0
  C  C59  1  0.24237000  0.45260000  0.96103000  1.0
  C  C60  1  0.74780000  0.65559000  0.03696000  1.0
  C  C61  1  0.25219000  0.34441000  0.96304000  1.0
  C  C62  1  0.70695000  0.38750000  0.80491000  1.0
  C  C63  1  0.29305000  0.61250000  0.19510000  1.0
  C  C64  1  0.68340000  0.27636000  0.80388000  1.0
  C  C65  1  0.31659000  0.72364000  0.19611000  1.0
  C  C66  1  0.70236000  0.40119000  0.71376000  1.0
  C  C67  1  0.29765000  0.59882000  0.28623000  1.0
  C  C68  1  0.68367000  0.49853000  0.70431000  1.0
  C  C69  1  0.31632000  0.50148000  0.29569000  1.0
  C  C70  1  0.68960000  0.50926000  0.61888000  1.0
  C  C71  1  0.31040000  0.49074000  0.38112000  1.0
  C  C72  1  0.72865000  0.33551000  0.55087000  1.0
  C  C73  1  0.27135000  0.66449000  0.44913000  1.0
  C  C74  1  0.71812000  0.31744000  0.63310000  1.0
  C  C75  1  0.28188000  0.68257000  0.36691000  1.0
  C  C76  1  0.37089000  0.23361000  0.30168000  1.0
  C  C77  1  0.62911000  0.76638000  0.69832000  1.0
  C  C78  1  0.16520000  0.21733000  0.28570000  1.0
  C  C79  1  0.83480000  0.78267000  0.71430000  1.0
  C  C80  1  0.03998000  0.18649000  0.19395000  1.0
  C  C81  1  0.96002000  0.81350000  0.80605000  1.0
  C  C82  1  0.12251000  0.17302000  0.11632000  1.0
  C  C83  1  0.87749000  0.82698000  0.88368000  1.0
  C  C84  1  0.32947000  0.19226000  0.13295000  1.0
  C  C85  1  0.67053000  0.80774000  0.86704000  1.0
  C  C86  1  0.45233000  0.22142000  0.22484000  1.0
  C  C87  1  0.54768000  0.77857000  0.77516000  1.0
  C  C88  1  0.71581000  0.07849000  0.90855000  1.0
  C  C89  1  0.28419000  0.92151000  0.09145000  1.0
  C  C90  1  0.50804000  0.05599000  0.88999000  1.0
  C  C91  1  0.49196000  0.94400000  0.11001000  1.0
  C  C92  1  0.38617000  0.01366000  0.79670000  1.0
  C  C93  1  0.61382000  0.98634000  0.20330000  1.0
  C  C94  1  0.47083000  0.99146000  0.71902000  1.0
  C  C95  1  0.52916000  0.00854000  0.28098000  1.0
  C  C96  1  0.67960000  0.01356000  0.73715000  1.0
  C  C97  1  0.32040000  0.98644000  0.26285000  1.0
  C  C98  1  0.79947000  0.05596000  0.83022000  1.0
  C  C99  1  0.20052000  0.94404000  0.16978000  1.0
  S  S100  1  0.06360000  0.23427000  0.38540000  1.0
  S  S101  1  0.93640000  0.76572000  0.61459000  1.0
  N  N102  1  0.80684000  0.50405000  0.30467000  1.0
  N  N103  1  0.19317000  0.49595000  0.69533000  1.0
  N  N104  1  0.74924000  0.46137000  0.96494000  1.0
  N  N105  1  0.25077000  0.53863000  0.03506000  1.0
  N  N106  1  0.73666000  0.47604000  0.88039000  1.0
  N  N107  1  0.26335000  0.52396000  0.11961000  1.0
  N  N108  1  0.71831000  0.43067000  0.54411000  1.0
  N  N109  1  0.28169000  0.56934000  0.45589000  1.0
  N  N110  1  0.01250000  0.13766000  0.01950000  1.0
  N  N111  1  0.98750000  0.86234000  0.98050000  1.0
  N  N112  1  0.82494000  0.11912000  0.00494000  1.0
  N  N113  1  0.17506000  0.88088000  0.99506000  1.0
  O  O114  1  0.88725000  0.27575000  0.36360000  1.0
  O  O115  1  0.11275000  0.72424000  0.63640000  1.0
  O  O116  1  0.21957000  0.30993000  0.47121000  1.0
  O  O117  1  0.78043000  0.69007000  0.52879000  1.0
  O  O118  1  0.01205000  0.12539000  0.38700000  1.0
  O  O119  1  0.98795000  0.87460000  0.61299000  1.0
  O  O120  1  0.36139000  0.94796000  0.62693000  1.0
  O  O121  1  0.63861000  0.05204000  0.37307000  1.0
