# generated using pymatgen
data_Cu3H32Au3C22(S2N3)2
_symmetry_space_group_name_H-M   'P 1'
_cell_length_a   11.10770000
_cell_length_b   11.20700000
_cell_length_c   15.11600000
_cell_angle_alpha   73.25300000
_cell_angle_beta   89.66250000
_cell_angle_gamma   66.04370000
_symmetry_Int_Tables_number   1
_chemical_formula_structural   Cu3H32Au3C22(S2N3)2
_chemical_formula_sum   'Cu6 H64 Au6 C44 S8 N12'
_cell_volume   1633.34076917
_cell_formula_units_Z   2
loop_
 _symmetry_equiv_pos_site_id
 _symmetry_equiv_pos_as_xyz
  1  'x, y, z'
loop_
 _atom_site_type_symbol
 _atom_site_label
 _atom_site_symmetry_multiplicity
 _atom_site_fract_x
 _atom_site_fract_y
 _atom_site_fract_z
 _atom_site_occupancy
  Cu  Cu0  1  0.88387000  0.05633000  0.17891000  1.0
  Cu  Cu1  1  0.11613000  0.94367000  0.82109000  1.0
  Cu  Cu2  1  0.96960000  0.26819000  0.91831000  1.0
  Cu  Cu3  1  0.03040000  0.73181000  0.08169000  1.0
  Cu  Cu4  1  0.43651000  0.26864000  0.56486000  1.0
  Cu  Cu5  1  0.56349000  0.73136000  0.43514000  1.0
  H  H6  1  0.01777000  0.27036000  0.16513000  1.0
  H  H7  1  0.98223000  0.72965000  0.83487000  1.0
  H  H8  1  0.98186000  0.39729000  0.05363000  1.0
  H  H9  1  0.01814000  0.60271000  0.94637000  1.0
  H  H10  1  0.84091000  0.52675000  0.14738000  1.0
  H  H11  1  0.15909000  0.47325000  0.85262000  1.0
  H  H12  1  0.79900000  0.38955000  0.20658000  1.0
  H  H13  1  0.20099000  0.61045000  0.79342000  1.0
  H  H14  1  0.71344000  0.57124000  0.00213000  1.0
  H  H15  1  0.28656000  0.42876000  0.99787000  1.0
  H  H16  1  0.60730000  0.55076000  0.08751000  1.0
  H  H17  1  0.39270000  0.44924000  0.91249000  1.0
  H  H18  1  0.66571000  0.40339000  0.96323000  1.0
  H  H19  1  0.33429000  0.59661000  0.03677000  1.0
  H  H20  1  0.64557000  0.32502000  0.08018000  1.0
  H  H21  1  0.35442000  0.67497000  0.91982000  1.0
  H  H22  1  0.82412000  0.99407000  0.86555000  1.0
  H  H23  1  0.17588000  0.00593000  0.13445000  1.0
  H  H24  1  0.79441000  0.08923000  0.94594000  1.0
  H  H25  1  0.20559000  0.91077000  0.05406000  1.0
  H  H26  1  0.60193000  0.17576000  0.80484000  1.0
  H  H27  1  0.39808000  0.82423000  0.19517000  1.0
  H  H28  1  0.64699000  0.30265000  0.82406000  1.0
  H  H29  1  0.35301000  0.69735000  0.17595000  1.0
  H  H30  1  0.75516000  0.14040000  0.68654000  1.0
  H  H31  1  0.24485000  0.85959000  0.31346000  1.0
  H  H32  1  0.65918000  0.32019000  0.65531000  1.0
  H  H33  1  0.34082000  0.67981000  0.34469000  1.0
  H  H34  1  0.84053000  0.35515000  0.71859000  1.0
  H  H35  1  0.15947000  0.64485000  0.28141000  1.0
  H  H36  1  0.92852000  0.21922000  0.67053000  1.0
  H  H37  1  0.07148000  0.78077000  0.32947000  1.0
  H  H38  1  0.38061000  0.17641000  0.76245000  1.0
  H  H39  1  0.61939000  0.82359000  0.23755000  1.0
  H  H40  1  0.29272000  0.30535000  0.81490000  1.0
  H  H41  1  0.70728000  0.69465000  0.18510000  1.0
  H  H42  1  0.12032000  0.24993000  0.76561000  1.0
  H  H43  1  0.87968000  0.75007000  0.23439000  1.0
  H  H44  1  0.18594000  0.23494000  0.65965000  1.0
  H  H45  1  0.81406000  0.76506000  0.34035000  1.0
  H  H46  1  0.04595000  0.49882000  0.71297000  1.0
  H  H47  1  0.95405000  0.50118000  0.28703000  1.0
  H  H48  1  0.99736000  0.46479000  0.61540000  1.0
  H  H49  1  0.00264000  0.53521000  0.38460000  1.0
  H  H50  1  0.14406000  0.61421000  0.59976000  1.0
  H  H51  1  0.85593000  0.38579000  0.40024000  1.0
  H  H52  1  0.17127000  0.49986000  0.53273000  1.0
  H  H53  1  0.82873000  0.50014000  0.46727000  1.0
  H  H54  1  0.39279000  0.36946000  0.35367000  1.0
  H  H55  1  0.60721000  0.63054000  0.64633000  1.0
  H  H56  1  0.47286000  0.48069000  0.30689000  1.0
  H  H57  1  0.52714000  0.51932000  0.69311000  1.0
  H  H58  1  0.53017000  0.25516000  0.25154000  1.0
  H  H59  1  0.46983000  0.74484000  0.74846000  1.0
  H  H60  1  0.65994000  0.30023000  0.27555000  1.0
  H  H61  1  0.34006000  0.69977000  0.72445000  1.0
  H  H62  1  0.73326000  0.05575000  0.36659000  1.0
  H  H63  1  0.26674000  0.94425000  0.63341000  1.0
  H  H64  1  0.57914000  0.09178000  0.41262000  1.0
  H  H65  1  0.42086000  0.90822000  0.58738000  1.0
  H  H66  1  0.79151000  0.18875000  0.44804000  1.0
  H  H67  1  0.20849000  0.81125000  0.55196000  1.0
  H  H68  1  0.71994000  0.09832000  0.53303000  1.0
  H  H69  1  0.28006000  0.90168000  0.46697000  1.0
  Au  Au70  1  0.10860000  0.17688000  0.39763000  1.0
  Au  Au71  1  0.89140000  0.82312000  0.60236000  1.0
  Au  Au72  1  0.43600000  0.11980000  0.06147000  1.0
  Au  Au73  1  0.56400000  0.88021000  0.93853000  1.0
  Au  Au74  1  0.70858000  0.77905000  0.76455000  1.0
  Au  Au75  1  0.29142000  0.22095000  0.23545000  1.0
  C  C76  1  0.21805000  0.23629000  0.46138000  1.0
  C  C77  1  0.78195000  0.76371000  0.53862000  1.0
  C  C78  1  0.00453000  0.11419000  0.33267000  1.0
  C  C79  1  0.99547000  0.88581000  0.66734000  1.0
  C  C80  1  0.61291000  0.07614000  0.11943000  1.0
  C  C81  1  0.38709000  0.92386000  0.88057000  1.0
  C  C82  1  0.25817000  0.17499000  0.99945000  1.0
  C  C83  1  0.74183000  0.82501000  0.00055000  1.0
  C  C84  1  0.80926000  0.57994000  0.82314000  1.0
  C  C85  1  0.19074000  0.42006000  0.17686000  1.0
  C  C86  1  0.60393000  0.97493000  0.69615000  1.0
  C  C87  1  0.39607000  0.02507000  0.30385000  1.0
  C  C88  1  0.93915000  0.34389000  0.10801000  1.0
  C  C89  1  0.06085000  0.65611000  0.89199000  1.0
  C  C90  1  0.81956000  0.44293000  0.13904000  1.0
  C  C91  1  0.18044000  0.55707000  0.86096000  1.0
  C  C92  1  0.70220000  0.49716000  0.06359000  1.0
  C  C93  1  0.29780000  0.50284000  0.93641000  1.0
  C  C94  1  0.70177000  0.37532000  0.03699000  1.0
  C  C95  1  0.29823000  0.62468000  0.96301000  1.0
  C  C96  1  0.80232000  0.09528000  0.87260000  1.0
  C  C97  1  0.19768000  0.90472000  0.12740000  1.0
  C  C98  1  0.68319000  0.20790000  0.80429000  1.0
  C  C99  1  0.31681000  0.79210000  0.19572000  1.0
  C  C100  1  0.73323000  0.23111000  0.70904000  1.0
  C  C101  1  0.26677000  0.76889000  0.29096000  1.0
  C  C102  1  0.85995000  0.25019000  0.72054000  1.0
  C  C103  1  0.14005000  0.74981000  0.27946000  1.0
  C  C104  1  0.30047000  0.27931000  0.74989000  1.0
  C  C105  1  0.69953000  0.72069000  0.25011000  1.0
  C  C106  1  0.16844000  0.29302000  0.70946000  1.0
  C  C107  1  0.83156000  0.70698000  0.29054000  1.0
  C  C108  1  0.08421000  0.44637000  0.66083000  1.0
  C  C109  1  0.91579000  0.55363000  0.33917000  1.0
  C  C110  1  0.17219000  0.50678000  0.60356000  1.0
  C  C111  1  0.82781000  0.49322000  0.39643000  1.0
  C  C112  1  0.48854000  0.37586000  0.34694000  1.0
  C  C113  1  0.51147000  0.62414000  0.65306000  1.0
  C  C114  1  0.58395000  0.26764000  0.30662000  1.0
  C  C115  1  0.41605000  0.73236000  0.69338000  1.0
  C  C116  1  0.65108000  0.13417000  0.38725000  1.0
  C  C117  1  0.34892000  0.86583000  0.61275000  1.0
  C  C118  1  0.70126000  0.17305000  0.46349000  1.0
  C  C119  1  0.29874000  0.82695000  0.53651000  1.0
  S  S120  1  0.87590000  0.24677000  0.05791000  1.0
  S  S121  1  0.12410000  0.75323000  0.94209000  1.0
  S  S122  1  0.94364000  0.13604000  0.83851000  1.0
  S  S123  1  0.05636000  0.86396000  0.16150000  1.0
  S  S124  1  0.34353000  0.40219000  0.66196000  1.0
  S  S125  1  0.65647000  0.59781000  0.33804000  1.0
  S  S126  1  0.56795000  0.33703000  0.46478000  1.0
  S  S127  1  0.43205000  0.66297000  0.53522000  1.0
  N  N128  1  0.29076000  0.26574000  0.49701000  1.0
  N  N129  1  0.70924000  0.73426000  0.50299000  1.0
  N  N130  1  0.94811000  0.07927000  0.28714000  1.0
  N  N131  1  0.05189000  0.92073000  0.71287000  1.0
  N  N132  1  0.71699000  0.05736000  0.15206000  1.0
  N  N133  1  0.28301000  0.94264000  0.84795000  1.0
  N  N134  1  0.15070000  0.21219000  0.96313000  1.0
  N  N135  1  0.84931000  0.78782000  0.03687000  1.0
  N  N136  1  0.87040000  0.46057000  0.85403000  1.0
  N  N137  1  0.12960000  0.53942000  0.14597000  1.0
  N  N138  1  0.54075000  0.08844000  0.64937000  1.0
  N  N139  1  0.45925000  0.91156000  0.35063000  1.0
