# generated using pymatgen
data_PrZnH16C26N2ClO11
_symmetry_space_group_name_H-M   'P 1'
_cell_length_a   8.47935000
_cell_length_b   12.73990000
_cell_length_c   13.33480000
_cell_angle_alpha   107.62200000
_cell_angle_beta   104.92800000
_cell_angle_gamma   93.36690000
_symmetry_Int_Tables_number   1
_chemical_formula_structural   PrZnH16C26N2ClO11
_chemical_formula_sum   'Pr2 Zn2 H32 C52 N4 Cl2 O22'
_cell_volume   1311.87421134
_cell_formula_units_Z   2
loop_
 _symmetry_equiv_pos_site_id
 _symmetry_equiv_pos_as_xyz
  1  'x, y, z'
loop_
 _atom_site_type_symbol
 _atom_site_label
 _atom_site_symmetry_multiplicity
 _atom_site_fract_x
 _atom_site_fract_y
 _atom_site_fract_z
 _atom_site_occupancy
  Pr  Pr0  1  0.24482000  0.49114000  0.98759000  1.0
  Pr  Pr1  1  0.75518000  0.50886000  0.01241000  1.0
  Zn  Zn2  1  0.32081000  0.21491000  0.16148000  1.0
  Zn  Zn3  1  0.67919000  0.78509000  0.83852000  1.0
  H  H4  1  0.13150000  0.58837000  0.78902000  1.0
  H  H5  1  0.86850000  0.41164000  0.21098000  1.0
  H  H6  1  0.99575000  0.58587000  0.85369000  1.0
  H  H7  1  0.00425000  0.41414000  0.14631000  1.0
  H  H8  1  0.67872000  0.18492000  0.67671000  1.0
  H  H9  1  0.32128000  0.81508000  0.32329000  1.0
  H  H10  1  0.76563000  0.03863000  0.53697000  1.0
  H  H11  1  0.23436000  0.96137000  0.46303000  1.0
  H  H12  1  0.04251000  0.97757000  0.59180000  1.0
  H  H13  1  0.95749000  0.02243000  0.40820000  1.0
  H  H14  1  0.51400000  0.95929000  0.78200000  1.0
  H  H15  1  0.48600000  0.04071000  0.21800000  1.0
  H  H16  1  0.07403000  0.97667000  0.89026000  1.0
  H  H17  1  0.92597000  0.02333000  0.10974000  1.0
  H  H18  1  0.16011000  0.83131000  0.97404000  1.0
  H  H19  1  0.83988000  0.16869000  0.02596000  1.0
  H  H20  1  0.42149000  0.75388000  0.95665000  1.0
  H  H21  1  0.57851000  0.24612000  0.04335000  1.0
  H  H22  1  0.73005000  0.78553000  0.35981000  1.0
  H  H23  1  0.26995000  0.21447000  0.64019000  1.0
  H  H24  1  0.63607000  0.86191000  0.52891000  1.0
  H  H25  1  0.36393000  0.13809000  0.47109000  1.0
  H  H26  1  0.42019000  0.75021000  0.56179000  1.0
  H  H27  1  0.57981000  0.24979000  0.43821000  1.0
  H  H28  1  0.29166000  0.50704000  0.60855000  1.0
  H  H29  1  0.70834000  0.49296000  0.39145000  1.0
  H  H30  1  0.04547000  0.68885000  0.40480000  1.0
  H  H31  1  0.95453000  0.31115000  0.59520000  1.0
  H  H32  1  0.90356000  0.76957000  0.55121000  1.0
  H  H33  1  0.09643000  0.23042000  0.44878000  1.0
  H  H34  1  0.96790000  0.71575000  0.71852000  1.0
  H  H35  1  0.03209000  0.28424000  0.28148000  1.0
  C  C36  1  0.10530000  0.09145000  0.75648000  1.0
  C  C37  1  0.89469000  0.90855000  0.24352000  1.0
  C  C38  1  0.06128000  0.17605000  0.83441000  1.0
  C  C39  1  0.93872000  0.82395000  0.16559000  1.0
  C  C40  1  0.90561000  0.20920000  0.80362000  1.0
  C  C41  1  0.09439000  0.79080000  0.19638000  1.0
  C  C42  1  0.79881000  0.15806000  0.69769000  1.0
  C  C43  1  0.20119000  0.84194000  0.30231000  1.0
  C  C44  1  0.84778000  0.07645000  0.62027000  1.0
  C  C45  1  0.15222000  0.92355000  0.37974000  1.0
  C  C46  1  0.00152000  0.04261000  0.64970000  1.0
  C  C47  1  0.99848000  0.95739000  0.35030000  1.0
  C  C48  1  0.17786000  0.22309000  0.94938000  1.0
  C  C49  1  0.82214000  0.77691000  0.05062000  1.0
  C  C50  1  0.85642000  0.30502000  0.87954000  1.0
  C  C51  1  0.14359000  0.69498000  0.12046000  1.0
  C  C52  1  0.43215000  0.93243000  0.82354000  1.0
  C  C53  1  0.56785000  0.06758000  0.17647000  1.0
  C  C54  1  0.28889000  0.97904000  0.83008000  1.0
  C  C55  1  0.71111000  0.02096000  0.16992000  1.0
  C  C56  1  0.18770000  0.94310000  0.88463000  1.0
  C  C57  1  0.81230000  0.05690000  0.11537000  1.0
  C  C58  1  0.23627000  0.86169000  0.93136000  1.0
  C  C59  1  0.76372000  0.13831000  0.06864000  1.0
  C  C60  1  0.38002000  0.81773000  0.92158000  1.0
  C  C61  1  0.61998000  0.18227000  0.07842000  1.0
  C  C62  1  0.38335000  0.61443000  0.41018000  1.0
  C  C63  1  0.61665000  0.38557000  0.58981000  1.0
  C  C64  1  0.43335000  0.57073000  0.31522000  1.0
  C  C65  1  0.56665000  0.42927000  0.68478000  1.0
  C  C66  1  0.56103000  0.63325000  0.29929000  1.0
  C  C67  1  0.43897000  0.36675000  0.70071000  1.0
  C  C68  1  0.63248000  0.73882000  0.37525000  1.0
  C  C69  1  0.36752000  0.26118000  0.62474000  1.0
  C  C70  1  0.57943000  0.78115000  0.46787000  1.0
  C  C71  1  0.42057000  0.21885000  0.53213000  1.0
  C  C72  1  0.45655000  0.71858000  0.48688000  1.0
  C  C73  1  0.54346000  0.28141000  0.51312000  1.0
  C  C74  1  0.34722000  0.45792000  0.23594000  1.0
  C  C75  1  0.65278000  0.54208000  0.76406000  1.0
  C  C76  1  0.62766000  0.58997000  0.20426000  1.0
  C  C77  1  0.37234000  0.41003000  0.79574000  1.0
  C  C78  1  0.20760000  0.56602000  0.59482000  1.0
  C  C79  1  0.79240000  0.43398000  0.40519000  1.0
  C  C80  1  0.18185000  0.59558000  0.50011000  1.0
  C  C81  1  0.81815000  0.40442000  0.49989000  1.0
  C  C82  1  0.07097000  0.66888000  0.48087000  1.0
  C  C83  1  0.92903000  0.33111000  0.51912000  1.0
  C  C84  1  0.99296000  0.71295000  0.56098000  1.0
  C  C85  1  0.00704000  0.28704000  0.43902000  1.0
  C  C86  1  0.02705000  0.68133000  0.65472000  1.0
  C  C87  1  0.97295000  0.31866000  0.34528000  1.0
  N  N88  1  0.47557000  0.85285000  0.86786000  1.0
  N  N89  1  0.52443000  0.14715000  0.13214000  1.0
  N  N90  1  0.13079000  0.60856000  0.67107000  1.0
  N  N91  1  0.86921000  0.39144000  0.32893000  1.0
  Cl  Cl92  1  0.22664000  0.12210000  0.25595000  1.0
  Cl  Cl93  1  0.77335000  0.87789000  0.74405000  1.0
  O  O94  1  0.26201000  0.06026000  0.78173000  1.0
  O  O95  1  0.73799000  0.93974000  0.21827000  1.0
  O  O96  1  0.14637000  0.17899000  0.01758000  1.0
  O  O97  1  0.85363000  0.82101000  0.98242000  1.0
  O  O98  1  0.29880000  0.29751000  0.97182000  1.0
  O  O99  1  0.70120000  0.70249000  0.02818000  1.0
  O  O100  1  0.97058000  0.38773000  0.94244000  1.0
  O  O101  1  0.02942000  0.61227000  0.05756000  1.0
  O  O102  1  0.70835000  0.30808000  0.88043000  1.0
  O  O103  1  0.29165000  0.69193000  0.11957000  1.0
  O  O104  1  0.26272000  0.54643000  0.42356000  1.0
  O  O105  1  0.73729000  0.45357000  0.57644000  1.0
  O  O106  1  0.40646000  0.37384000  0.25357000  1.0
  O  O107  1  0.59355000  0.62616000  0.74643000  1.0
  O  O108  1  0.21958000  0.45507000  0.15934000  1.0
  O  O109  1  0.78043000  0.54493000  0.84066000  1.0
  O  O110  1  0.53285000  0.51849000  0.11255000  1.0
  O  O111  1  0.46715000  0.48151000  0.88745000  1.0
  O  O112  1  0.77566000  0.62135000  0.21334000  1.0
  O  O113  1  0.22434000  0.37865000  0.78666000  1.0
  O  O114  1  0.11559000  0.59113000  0.86316000  1.0
  O  O115  1  0.88442000  0.40887000  0.13684000  1.0
