# generated using pymatgen
data_CoH16C16(NO)4
_symmetry_space_group_name_H-M   'P 1'
_cell_length_a   7.58118000
_cell_length_b   8.65007000
_cell_length_c   13.29620000
_cell_angle_alpha   81.48130000
_cell_angle_beta   77.38430000
_cell_angle_gamma   72.83290000
_symmetry_Int_Tables_number   1
_chemical_formula_structural   CoH16C16(NO)4
_chemical_formula_sum   'Co2 H32 C32 N8 O8'
_cell_volume   809.69526290
_cell_formula_units_Z   2
loop_
 _symmetry_equiv_pos_site_id
 _symmetry_equiv_pos_as_xyz
  1  'x, y, z'
loop_
 _atom_site_type_symbol
 _atom_site_label
 _atom_site_symmetry_multiplicity
 _atom_site_fract_x
 _atom_site_fract_y
 _atom_site_fract_z
 _atom_site_occupancy
  Co  Co0  1  0.20264000  0.79384000  0.78159000  1.0
  Co  Co1  1  0.79736000  0.20617000  0.21841000  1.0
  H  H2  1  0.53939000  0.10444000  0.81458000  1.0
  H  H3  1  0.46060000  0.89556000  0.18541000  1.0
  H  H4  1  0.78292000  0.86309000  0.07839000  1.0
  H  H5  1  0.21706000  0.13693000  0.92160000  1.0
  H  H6  1  0.83610000  0.56866000  0.67719000  1.0
  H  H7  1  0.16392000  0.43133000  0.32282000  1.0
  H  H8  1  0.32133000  0.53496000  0.43527000  1.0
  H  H9  1  0.67869000  0.46503000  0.56473000  1.0
  H  H10  1  0.51023000  0.74901000  0.92875000  1.0
  H  H11  1  0.48976000  0.25100000  0.07127000  1.0
  H  H12  1  0.76259000  0.28238000  0.81998000  1.0
  H  H13  1  0.23739000  0.71762000  0.18003000  1.0
  H  H14  1  0.42824000  0.42204000  0.74850000  1.0
  H  H15  1  0.57173000  0.57797000  0.25152000  1.0
  H  H16  1  0.89558000  0.36770000  0.96705000  1.0
  H  H17  1  0.10440000  0.63231000  0.03296000  1.0
  H  H18  1  0.95101000  0.53509000  0.87983000  1.0
  H  H19  1  0.04898000  0.46492000  0.12018000  1.0
  H  H20  1  0.79700000  0.57074000  0.00178000  1.0
  H  H21  1  0.20298000  0.42927000  0.99823000  1.0
  H  H22  1  0.61040000  0.78583000  0.67467000  1.0
  H  H23  1  0.38961000  0.21417000  0.32534000  1.0
  H  H24  1  0.43616000  0.28381000  0.57253000  1.0
  H  H25  1  0.56385000  0.71618000  0.42745000  1.0
  H  H26  1  0.12571000  0.18362000  0.68980000  1.0
  H  H27  1  0.87431000  0.81637000  0.31020000  1.0
  H  H28  1  0.76986000  0.14437000  0.51707000  1.0
  H  H29  1  0.23015000  0.85561000  0.48292000  1.0
  H  H30  1  0.85625000  0.00844000  0.62264000  1.0
  H  H31  1  0.14377000  0.99154000  0.37735000  1.0
  H  H32  1  0.82600000  0.93031000  0.51118000  1.0
  H  H33  1  0.17401000  0.06967000  0.48882000  1.0
  C  C34  1  0.87091000  0.95715000  0.87261000  1.0
  C  C35  1  0.12908000  0.04288000  0.12737000  1.0
  C  C36  1  0.68053000  0.98180000  0.93983000  1.0
  C  C37  1  0.31946000  0.01821000  0.06016000  1.0
  C  C38  1  0.52069000  0.05990000  0.89604000  1.0
  C  C39  1  0.47930000  0.94010000  0.10395000  1.0
  C  C40  1  0.65846000  0.92204000  0.04448000  1.0
  C  C41  1  0.34153000  0.07796000  0.95551000  1.0
  C  C42  1  0.17827000  0.62970000  0.62742000  1.0
  C  C43  1  0.82175000  0.37028000  0.37259000  1.0
  C  C44  1  0.08623000  0.56095000  0.56254000  1.0
  C  C45  1  0.91380000  0.43902000  0.43747000  1.0
  C  C46  1  0.90647000  0.53897000  0.59914000  1.0
  C  C47  1  0.09355000  0.46102000  0.40087000  1.0
  C  C48  1  0.17989000  0.52112000  0.46258000  1.0
  C  C49  1  0.82012000  0.47887000  0.53743000  1.0
  C  C50  1  0.53046000  0.64268000  0.88898000  1.0
  C  C51  1  0.46952000  0.35733000  0.11103000  1.0
  C  C52  1  0.65975000  0.39901000  0.83228000  1.0
  C  C53  1  0.34023000  0.60100000  0.16773000  1.0
  C  C54  1  0.49366000  0.46884000  0.79748000  1.0
  C  C55  1  0.50631000  0.53117000  0.20254000  1.0
  C  C56  1  0.84204000  0.49434000  0.93717000  1.0
  C  C57  1  0.15795000  0.50567000  0.06284000  1.0
  C  C58  1  0.51877000  0.90737000  0.66547000  1.0
  C  C59  1  0.48124000  0.09262000  0.33453000  1.0
  C  C60  1  0.42331000  0.16843000  0.61379000  1.0
  C  C61  1  0.57670000  0.83156000  0.38621000  1.0
  C  C62  1  0.27247000  0.11736000  0.67088000  1.0
  C  C63  1  0.72754000  0.88264000  0.32911000  1.0
  C  C64  1  0.77086000  0.02835000  0.56271000  1.0
  C  C65  1  0.22915000  0.97163000  0.43728000  1.0
  N  N66  1  0.41449000  0.62138000  0.83272000  1.0
  N  N67  1  0.58550000  0.37862000  0.16728000  1.0
  N  N68  1  0.68042000  0.51038000  0.89016000  1.0
  N  N69  1  0.31957000  0.48963000  0.10985000  1.0
  N  N70  1  0.33424000  0.95374000  0.70278000  1.0
  N  N71  1  0.66577000  0.04626000  0.29722000  1.0
  N  N72  1  0.57729000  0.03364000  0.61129000  1.0
  N  N73  1  0.42273000  0.96636000  0.38870000  1.0
  O  O74  1  0.00957000  0.85013000  0.90736000  1.0
  O  O75  1  0.99042000  0.14989000  0.09262000  1.0
  O  O76  1  0.89095000  0.03365000  0.78456000  1.0
  O  O77  1  0.10902000  0.96639000  0.21543000  1.0
  O  O78  1  0.07522000  0.68223000  0.71398000  1.0
  O  O79  1  0.92479000  0.31775000  0.28602000  1.0
  O  O80  1  0.34401000  0.63863000  0.59652000  1.0
  O  O81  1  0.65601000  0.36137000  0.40348000  1.0
