# generated using pymatgen
data_Al2H12(C4O3)5
_symmetry_space_group_name_H-M   'P 1'
_cell_length_a   6.62409000
_cell_length_b   10.99916360
_cell_length_c   11.01409324
_cell_angle_alpha   73.05207892
_cell_angle_beta   73.46602973
_cell_angle_gamma   74.20863011
_symmetry_Int_Tables_number   1
_chemical_formula_structural   Al2H12(C4O3)5
_chemical_formula_sum   'Al2 H12 C20 O15'
_cell_volume   720.05906850
_cell_formula_units_Z   1
loop_
 _symmetry_equiv_pos_site_id
 _symmetry_equiv_pos_as_xyz
  1  'x, y, z'
loop_
 _atom_site_type_symbol
 _atom_site_label
 _atom_site_symmetry_multiplicity
 _atom_site_fract_x
 _atom_site_fract_y
 _atom_site_fract_z
 _atom_site_occupancy
  Al  Al0  1  0.50800000  0.51002000  0.48088000  1.0
  Al  Al1  1  0.00651000  0.50605000  0.48723000  1.0
  H  H2  1  0.20873000  0.67247000  0.40272000  1.0
  H  H3  1  0.78360000  0.34464000  0.57055000  1.0
  H  H4  1  0.77857000  0.46332000  0.86606000  1.0
  H  H5  1  0.38333000  0.54030000  0.86492000  1.0
  H  H6  1  0.64463000  0.47544000  0.10013000  1.0
  H  H7  1  0.83066000  0.74147000  0.68390000  1.0
  H  H8  1  0.54365000  0.20408000  0.69466000  1.0
  H  H9  1  0.20358000  0.56130000  0.19538000  1.0
  H  H10  1  0.13459000  0.23080000  0.39160000  1.0
  H  H11  1  0.40132000  0.80868000  0.37708000  1.0
  H  H12  1  0.98907000  0.73209000  0.84727000  1.0
  H  H13  1  0.71819000  0.16054000  0.85682000  1.0
  C  C14  1  0.66081000  0.73492000  0.49302000  1.0
  C  C15  1  0.85266000  0.52073000  0.25163000  1.0
  C  C16  1  0.35017000  0.27631000  0.49779000  1.0
  C  C17  1  0.16796000  0.49357000  0.71360000  1.0
  C  C18  1  0.93748000  0.51368000  0.11419000  1.0
  C  C19  1  0.08913000  0.49920000  0.85329000  1.0
  C  C20  1  0.14871000  0.53257000  0.04765000  1.0
  C  C21  1  0.87976000  0.48115000  0.91880000  1.0
  C  C22  1  0.22245000  0.52487000  0.91676000  1.0
  C  C23  1  0.80666000  0.48787000  0.04807000  1.0
  C  C24  1  0.57064000  0.86787000  0.51104000  1.0
  C  C25  1  0.63846000  0.92110000  0.59516000  1.0
  C  C26  1  0.41184000  0.94448000  0.44259000  1.0
  C  C27  1  0.77068000  0.84414000  0.68221000  1.0
  C  C28  1  0.82314000  0.89406000  0.76830000  1.0
  C  C29  1  0.41175000  0.13468000  0.51548000  1.0
  C  C30  1  0.33004000  0.07807000  0.44605000  1.0
  C  C31  1  0.55782000  0.05555000  0.59715000  1.0
  C  C32  1  0.61220000  0.10404000  0.68690000  1.0
  C  C33  1  0.74133000  0.02687000  0.77099000  1.0
  O  O34  1  0.54725000  0.68309000  0.45051000  1.0
  O  O35  1  0.97818000  0.54618000  0.30815000  1.0
  O  O36  1  0.16957000  0.33636000  0.46378000  1.0
  O  O37  1  0.35305000  0.51877000  0.65583000  1.0
  O  O38  1  0.47578000  0.33709000  0.51289000  1.0
  O  O39  1  0.04375000  0.46375000  0.66188000  1.0
  O  O40  1  0.84530000  0.67374000  0.51384000  1.0
  O  O41  1  0.66401000  0.50193000  0.30715000  1.0
  O  O42  1  0.25231000  0.57841000  0.42043000  1.0
  O  O43  1  0.75953000  0.43877000  0.54452000  1.0
  O  O44  1  0.28336000  0.55789000  0.10396000  1.0
  O  O45  1  0.18275000  0.14233000  0.37428000  1.0
  O  O46  1  0.33259000  0.90299000  0.36565000  1.0
  O  O47  1  0.94703000  0.82245000  0.85476000  1.0
  O  O48  1  0.79303000  0.07047000  0.86031000  1.0
