# generated using pymatgen
data_ZnH15C21SN3O4
_symmetry_space_group_name_H-M   'P 1'
_cell_length_a   5.11276000
_cell_length_b   12.27790000
_cell_length_c   15.26080000
_cell_angle_alpha   89.99990000
_cell_angle_beta   89.99990000
_cell_angle_gamma   84.83450000
_symmetry_Int_Tables_number   1
_chemical_formula_structural   ZnH15C21SN3O4
_chemical_formula_sum   'Zn2 H30 C42 S2 N6 O8'
_cell_volume   954.09022801
_cell_formula_units_Z   2
loop_
 _symmetry_equiv_pos_site_id
 _symmetry_equiv_pos_as_xyz
  1  'x, y, z'
loop_
 _atom_site_type_symbol
 _atom_site_label
 _atom_site_symmetry_multiplicity
 _atom_site_fract_x
 _atom_site_fract_y
 _atom_site_fract_z
 _atom_site_occupancy
  Zn  Zn0  1  0.23529000  0.74445000  0.94905000  1.0
  Zn  Zn1  1  0.76470000  0.25554000  0.44906000  1.0
  H  H2  1  0.94141000  0.53104000  0.97797000  1.0
  H  H3  1  0.05860000  0.46896000  0.47797000  1.0
  H  H4  1  0.85228000  0.36559000  0.88726000  1.0
  H  H5  1  0.14773000  0.63441000  0.38725000  1.0
  H  H6  1  0.11609000  0.32868000  0.74741000  1.0
  H  H7  1  0.88390000  0.67131000  0.24740000  1.0
  H  H8  1  0.45880000  0.44866000  0.70979000  1.0
  H  H9  1  0.54117000  0.55134000  0.20980000  1.0
  H  H10  1  0.78966000  0.55806000  0.70339000  1.0
  H  H11  1  0.21036000  0.44193000  0.20339000  1.0
  H  H12  1  0.85451000  0.90516000  0.73397000  1.0
  H  H13  1  0.14550000  0.09483000  0.23397000  1.0
  H  H14  1  0.58142000  0.05071000  0.75851000  1.0
  H  H15  1  0.41860000  0.94929000  0.25850000  1.0
  H  H16  1  0.31247000  0.20709000  0.82236000  1.0
  H  H17  1  0.68755000  0.79291000  0.32235000  1.0
  H  H18  1  0.99774000  0.17490000  0.94566000  1.0
  H  H19  1  0.00225000  0.82510000  0.44566000  1.0
  H  H20  1  0.98122000  0.98190000  0.00101000  1.0
  H  H21  1  0.01874000  0.01809000  0.50103000  1.0
  H  H22  1  0.12960000  0.89834000  0.64671000  1.0
  H  H23  1  0.87041000  0.10166000  0.14671000  1.0
  H  H24  1  0.48971000  0.88555000  0.54159000  1.0
  H  H25  1  0.51028000  0.11446000  0.04161000  1.0
  H  H26  1  0.65979000  0.70434000  0.47941000  1.0
  H  H27  1  0.34020000  0.29567000  0.97943000  1.0
  H  H28  1  0.45117000  0.53634000  0.52371000  1.0
  H  H29  1  0.54883000  0.46367000  0.02371000  1.0
  H  H30  1  0.08201000  0.54801000  0.62311000  1.0
  H  H31  1  0.91801000  0.45199000  0.12311000  1.0
  C  C32  1  0.04862000  0.50880000  0.91771000  1.0
  C  C33  1  0.95138000  0.49120000  0.41771000  1.0
  C  C34  1  0.00453000  0.41714000  0.86751000  1.0
  C  C35  1  0.99547000  0.58286000  0.36751000  1.0
  C  C36  1  0.15251000  0.39535000  0.79173000  1.0
  C  C37  1  0.84748000  0.60465000  0.29173000  1.0
  C  C38  1  0.34451000  0.46444000  0.76943000  1.0
  C  C39  1  0.65547000  0.53556000  0.26943000  1.0
  C  C40  1  0.36967000  0.55712000  0.82083000  1.0
  C  C41  1  0.63033000  0.44288000  0.32084000  1.0
  C  C42  1  0.53098000  0.64613000  0.79476000  1.0
  C  C43  1  0.46902000  0.35387000  0.29476000  1.0
  C  C44  1  0.73270000  0.63712000  0.73307000  1.0
  C  C45  1  0.26732000  0.36288000  0.23307000  1.0
  C  C46  1  0.85889000  0.73031000  0.70996000  1.0
  C  C47  1  0.14112000  0.26969000  0.20996000  1.0
  C  C48  1  0.76826000  0.82987000  0.74984000  1.0
  C  C49  1  0.23176000  0.17013000  0.24985000  1.0
  C  C50  1  0.56230000  0.83301000  0.80968000  1.0
  C  C51  1  0.43771000  0.16699000  0.30969000  1.0
  C  C52  1  0.43018000  0.93378000  0.84834000  1.0
  C  C53  1  0.56983000  0.06622000  0.34835000  1.0
  C  C54  1  0.45439000  0.03787000  0.81413000  1.0
  C  C55  1  0.54562000  0.96213000  0.31413000  1.0
  C  C56  1  0.29885000  0.12593000  0.84944000  1.0
  C  C57  1  0.70116000  0.87406000  0.34944000  1.0
  C  C58  1  0.12452000  0.10821000  0.91711000  1.0
  C  C59  1  0.87548000  0.89178000  0.41712000  1.0
  C  C60  1  0.11344000  0.00189000  0.94838000  1.0
  C  C61  1  0.88654000  0.99810000  0.44839000  1.0
  C  C62  1  0.07421000  0.72425000  0.64495000  1.0
  C  C63  1  0.92580000  0.27575000  0.14495000  1.0
  C  C64  1  0.19459000  0.81819000  0.61988000  1.0
  C  C65  1  0.80543000  0.18181000  0.11988000  1.0
  C  C66  1  0.40074000  0.81144000  0.55998000  1.0
  C  C67  1  0.59926000  0.18857000  0.05998000  1.0
  C  C68  1  0.49464000  0.71041000  0.52467000  1.0
  C  C69  1  0.50534000  0.28959000  0.02468000  1.0
  C  C70  1  0.37798000  0.61648000  0.54897000  1.0
  C  C71  1  0.62202000  0.38352000  0.04898000  1.0
  C  C72  1  0.16731000  0.62364000  0.60715000  1.0
  C  C73  1  0.83271000  0.37636000  0.10715000  1.0
  S  S74  1  0.74876000  0.73849000  0.06794000  1.0
  S  S75  1  0.25123000  0.26152000  0.56795000  1.0
  N  N76  1  0.22311000  0.57817000  0.89376000  1.0
  N  N77  1  0.77689000  0.42183000  0.39376000  1.0
  N  N78  1  0.45306000  0.74214000  0.83233000  1.0
  N  N79  1  0.54692000  0.25786000  0.33233000  1.0
  N  N80  1  0.26277000  0.91720000  0.91456000  1.0
  N  N81  1  0.73721000  0.08280000  0.41457000  1.0
  O  O82  1  0.46095000  0.72421000  0.05237000  1.0
  O  O83  1  0.53902000  0.27580000  0.55237000  1.0
  O  O84  1  0.77343000  0.82490000  0.13288000  1.0
  O  O85  1  0.22656000  0.17511000  0.63290000  1.0
  O  O86  1  0.85852000  0.77186000  0.97913000  1.0
  O  O87  1  0.14148000  0.22813000  0.47914000  1.0
  O  O88  1  0.88227000  0.63194000  0.09415000  1.0
  O  O89  1  0.11771000  0.36807000  0.59414000  1.0
