# generated using pymatgen
data_NdH16C8Cl3O2
_symmetry_space_group_name_H-M   'P 1'
_cell_length_a   8.16239000
_cell_length_b   8.58839000
_cell_length_c   9.73472000
_cell_angle_alpha   79.17320000
_cell_angle_beta   70.78720000
_cell_angle_gamma   82.31840000
_symmetry_Int_Tables_number   1
_chemical_formula_structural   NdH16C8Cl3O2
_chemical_formula_sum   'Nd2 H32 C16 Cl6 O4'
_cell_volume   631.03928481
_cell_formula_units_Z   2
loop_
 _symmetry_equiv_pos_site_id
 _symmetry_equiv_pos_as_xyz
  1  'x, y, z'
loop_
 _atom_site_type_symbol
 _atom_site_label
 _atom_site_symmetry_multiplicity
 _atom_site_fract_x
 _atom_site_fract_y
 _atom_site_fract_z
 _atom_site_occupancy
  Nd  Nd0  1  0.99585000  0.23529000  0.07820000  1.0
  Nd  Nd1  1  0.00415000  0.76471000  0.92181000  1.0
  H  H2  1  0.23515000  0.16928000  0.76856000  1.0
  H  H3  1  0.76485000  0.83072000  0.23144000  1.0
  H  H4  1  0.43149000  0.07515000  0.79862000  1.0
  H  H5  1  0.56851000  0.92485000  0.20138000  1.0
  H  H6  1  0.37114000  0.41566000  0.64456000  1.0
  H  H7  1  0.62886000  0.58434000  0.35543000  1.0
  H  H8  1  0.54317000  0.27219000  0.57456000  1.0
  H  H9  1  0.45683000  0.72781000  0.42544000  1.0
  H  H10  1  0.58914000  0.49768000  0.72510000  1.0
  H  H11  1  0.41086000  0.50232000  0.27490000  1.0
  H  H12  1  0.68866000  0.30121000  0.74842000  1.0
  H  H13  1  0.31134000  0.69879000  0.25158000  1.0
  H  H14  1  0.51842000  0.27322000  0.99465000  1.0
  H  H15  1  0.48158000  0.72678000  0.00535000  1.0
  H  H16  1  0.38658000  0.45368000  0.96458000  1.0
  H  H17  1  0.61342000  0.54633000  0.03542000  1.0
  H  H18  1  0.86899000  0.16910000  0.52522000  1.0
  H  H19  1  0.13101000  0.83090000  0.47479000  1.0
  H  H20  1  0.88279000  0.35901000  0.41048000  1.0
  H  H21  1  0.11721000  0.64098000  0.58953000  1.0
  H  H22  1  0.04081000  0.29645000  0.62757000  1.0
  H  H23  1  0.95919000  0.70355000  0.37243000  1.0
  H  H24  1  0.14807000  0.40404000  0.45193000  1.0
  H  H25  1  0.85193000  0.59595000  0.54807000  1.0
  H  H26  1  0.19400000  0.04356000  0.55193000  1.0
  H  H27  1  0.80600000  0.95644000  0.44807000  1.0
  H  H28  1  0.36214000  0.17653000  0.47242000  1.0
  H  H29  1  0.63786000  0.82347000  0.52758000  1.0
  H  H30  1  0.32055000  0.22012000  0.23614000  1.0
  H  H31  1  0.67945000  0.77988000  0.76386000  1.0
  H  H32  1  0.27323000  0.01574000  0.29125000  1.0
  H  H33  1  0.72677000  0.98426000  0.70875000  1.0
  C  C34  1  0.35541000  0.19002000  0.78727000  1.0
  C  C35  1  0.64459000  0.80998000  0.21273000  1.0
  C  C36  1  0.45971000  0.31732000  0.67506000  1.0
  C  C37  1  0.54028000  0.68268000  0.32493000  1.0
  C  C38  1  0.56386000  0.37198000  0.76084000  1.0
  C  C39  1  0.43614000  0.62802000  0.23916000  1.0
  C  C40  1  0.44833000  0.34382000  0.92189000  1.0
  C  C41  1  0.55167000  0.65618000  0.07811000  1.0
  C  C42  1  0.95834000  0.25411000  0.44769000  1.0
  C  C43  1  0.04166000  0.74589000  0.55231000  1.0
  C  C44  1  0.09468000  0.29013000  0.50955000  1.0
  C  C45  1  0.90531000  0.70987000  0.49045000  1.0
  C  C46  1  0.23344000  0.15211000  0.47342000  1.0
  C  C47  1  0.76656000  0.84789000  0.52658000  1.0
  C  C48  1  0.23611000  0.13567000  0.32024000  1.0
  C  C49  1  0.76389000  0.86433000  0.67976000  1.0
  Cl  Cl50  1  0.93913000  0.47606000  0.85645000  1.0
  Cl  Cl51  1  0.06087000  0.52394000  0.14355000  1.0
  Cl  Cl52  1  0.67079000  0.24229000  0.25517000  1.0
  Cl  Cl53  1  0.32921000  0.75771000  0.74484000  1.0
  Cl  Cl54  1  0.87807000  0.08517000  0.89407000  1.0
  Cl  Cl55  1  0.12193000  0.91483000  0.10593000  1.0
  O  O56  1  0.30576000  0.25350000  0.92551000  1.0
  O  O57  1  0.69424000  0.74650000  0.07449000  1.0
  O  O58  1  0.05613000  0.17714000  0.31862000  1.0
  O  O59  1  0.94387000  0.82286000  0.68138000  1.0
