# generated using pymatgen
data_NaH6C9SO3
_symmetry_space_group_name_H-M   'P 1'
_cell_length_a   5.78580000
_cell_length_b   8.41280000
_cell_length_c   17.19930000
_cell_angle_alpha   89.99950000
_cell_angle_beta   82.32910000
_cell_angle_gamma   89.99950000
_symmetry_Int_Tables_number   1
_chemical_formula_structural   NaH6C9SO3
_chemical_formula_sum   'Na4 H24 C36 S4 O12'
_cell_volume   829.68036243
_cell_formula_units_Z   4
loop_
 _symmetry_equiv_pos_site_id
 _symmetry_equiv_pos_as_xyz
  1  'x, y, z'
loop_
 _atom_site_type_symbol
 _atom_site_label
 _atom_site_symmetry_multiplicity
 _atom_site_fract_x
 _atom_site_fract_y
 _atom_site_fract_z
 _atom_site_occupancy
  Na  Na0  1  0.87455000  0.81599000  0.98070000  1.0
  Na  Na1  1  0.62545000  0.31600000  0.01931000  1.0
  Na  Na2  1  0.12545000  0.18400000  0.01931000  1.0
  Na  Na3  1  0.37455000  0.68400000  0.98069000  1.0
  H  H4  1  0.48280000  0.85360000  0.61521000  1.0
  H  H5  1  0.01724000  0.35359000  0.38479000  1.0
  H  H6  1  0.51719000  0.14640000  0.38479000  1.0
  H  H7  1  0.98276000  0.64642000  0.61521000  1.0
  H  H8  1  0.79938000  0.16212000  0.60835000  1.0
  H  H9  1  0.70066000  0.66210000  0.39164000  1.0
  H  H10  1  0.20062000  0.83790000  0.39165000  1.0
  H  H11  1  0.29934000  0.33791000  0.60836000  1.0
  H  H12  1  0.34839000  0.83853000  0.51555000  1.0
  H  H13  1  0.15161000  0.33853000  0.48444000  1.0
  H  H14  1  0.65162000  0.16148000  0.48445000  1.0
  H  H15  1  0.84839000  0.66146000  0.51556000  1.0
  H  H16  1  0.89746000  0.14765000  0.71025000  1.0
  H  H17  1  0.60254000  0.64765000  0.28974000  1.0
  H  H18  1  0.10252000  0.85235000  0.28975000  1.0
  H  H19  1  0.39747000  0.35234000  0.71025000  1.0
  H  H20  1  0.62082000  0.85242000  0.74452000  1.0
  H  H21  1  0.87920000  0.35242000  0.25549000  1.0
  H  H22  1  0.37916000  0.14758000  0.25548000  1.0
  H  H23  1  0.12081000  0.64759000  0.74451000  1.0
  H  H24  1  0.03891000  0.14755000  0.83707000  1.0
  H  H25  1  0.46107000  0.64755000  0.16293000  1.0
  H  H26  1  0.96107000  0.85245000  0.16293000  1.0
  H  H27  1  0.53893000  0.35243000  0.83707000  1.0
  C  C28  1  0.17795000  0.00091000  0.65103000  1.0
  C  C29  1  0.32207000  0.50091000  0.34897000  1.0
  C  C30  1  0.82204000  0.99909000  0.34897000  1.0
  C  C31  1  0.67794000  0.49908000  0.65102000  1.0
  C  C32  1  0.08822000  0.00032000  0.57430000  1.0
  C  C33  1  0.41180000  0.50031000  0.42570000  1.0
  C  C34  1  0.91179000  0.99969000  0.42570000  1.0
  C  C35  1  0.58820000  0.49969000  0.57430000  1.0
  C  C36  1  0.38301000  0.91899000  0.66306000  1.0
  C  C37  1  0.11702000  0.41897000  0.33694000  1.0
  C  C38  1  0.61699000  0.08102000  0.33694000  1.0
  C  C39  1  0.88299000  0.58102000  0.66306000  1.0
  C  C40  1  0.89016000  0.08932000  0.56163000  1.0
  C  C41  1  0.60987000  0.58930000  0.43836000  1.0
  C  C42  1  0.10985000  0.91069000  0.43837000  1.0
  C  C43  1  0.39013000  0.41070000  0.56164000  1.0
  C  C44  1  0.19518000  0.91089000  0.51019000  1.0
  C  C45  1  0.30482000  0.41089000  0.48981000  1.0
  C  C46  1  0.80484000  0.08913000  0.48981000  1.0
  C  C47  1  0.69518000  0.58911000  0.51019000  1.0
  C  C48  1  0.05782000  0.08320000  0.71559000  1.0
  C  C49  1  0.44219000  0.58320000  0.28441000  1.0
  C  C50  1  0.94216000  0.91680000  0.28441000  1.0
  C  C51  1  0.55781000  0.41678000  0.71558000  1.0
  C  C52  1  0.46380000  0.91803000  0.73601000  1.0
  C  C53  1  0.03623000  0.41802000  0.26400000  1.0
  C  C54  1  0.53619000  0.08197000  0.26400000  1.0
  C  C55  1  0.96378000  0.58198000  0.73600000  1.0
  C  C56  1  0.13608000  0.08311000  0.78844000  1.0
  C  C57  1  0.36392000  0.58311000  0.21156000  1.0
  C  C58  1  0.86391000  0.91689000  0.21156000  1.0
  C  C59  1  0.63609000  0.41687000  0.78843000  1.0
  C  C60  1  0.33987000  0.00091000  0.79855000  1.0
  C  C61  1  0.16013000  0.50090000  0.20146000  1.0
  C  C62  1  0.66011000  0.99910000  0.20145000  1.0
  C  C63  1  0.83988000  0.49909000  0.79855000  1.0
  S  S64  1  0.42822000  0.99877000  0.89361000  1.0
  S  S65  1  0.07178000  0.49877000  0.10639000  1.0
  S  S66  1  0.57178000  0.00124000  0.10640000  1.0
  S  S67  1  0.92821000  0.50123000  0.89360000  1.0
  O  O68  1  0.47966000  0.16277000  0.91530000  1.0
  O  O69  1  0.02032000  0.66277000  0.08470000  1.0
  O  O70  1  0.52032000  0.83723000  0.08470000  1.0
  O  O71  1  0.97966000  0.33722000  0.91529000  1.0
  O  O72  1  0.22283000  0.94018000  0.94687000  1.0
  O  O73  1  0.27717000  0.44019000  0.05313000  1.0
  O  O74  1  0.77718000  0.05981000  0.05314000  1.0
  O  O75  1  0.72283000  0.55981000  0.94686000  1.0
  O  O76  1  0.62617000  0.88927000  0.88989000  1.0
  O  O77  1  0.87385000  0.38927000  0.11011000  1.0
  O  O78  1  0.37385000  0.11074000  0.11011000  1.0
  O  O79  1  0.12616000  0.61072000  0.88989000  1.0
