# generated using pymatgen
data_PrH3CSO7
_symmetry_space_group_name_H-M   'P 1'
_cell_length_a   6.98620000
_cell_length_b   6.98679000
_cell_length_c   11.67180000
_cell_angle_alpha   89.99990000
_cell_angle_beta   90.00050000
_cell_angle_gamma   89.98790000
_symmetry_Int_Tables_number   1
_chemical_formula_structural   PrH3CSO7
_chemical_formula_sum   'Pr4 H12 C4 S4 O28'
_cell_volume   569.71352779
_cell_formula_units_Z   4
loop_
 _symmetry_equiv_pos_site_id
 _symmetry_equiv_pos_as_xyz
  1  'x, y, z'
loop_
 _atom_site_type_symbol
 _atom_site_label
 _atom_site_symmetry_multiplicity
 _atom_site_fract_x
 _atom_site_fract_y
 _atom_site_fract_z
 _atom_site_occupancy
  Pr  Pr0  1  0.64117000  0.11197000  0.84326000  1.0
  Pr  Pr1  1  0.35882000  0.88802000  0.34326000  1.0
  Pr  Pr2  1  0.11181000  0.35865000  0.59325000  1.0
  Pr  Pr3  1  0.88821000  0.64135000  0.09325000  1.0
  H  H4  1  0.15729000  0.01282000  0.88830000  1.0
  H  H5  1  0.84269000  0.98717000  0.38831000  1.0
  H  H6  1  0.01353000  0.84217000  0.63847000  1.0
  H  H7  1  0.98647000  0.15784000  0.13847000  1.0
  H  H8  1  0.40766000  0.18424000  0.07227000  1.0
  H  H9  1  0.59234000  0.81575000  0.57227000  1.0
  H  H10  1  0.18388000  0.59217000  0.82228000  1.0
  H  H11  1  0.81613000  0.40783000  0.32228000  1.0
  H  H12  1  0.46973000  0.38227000  0.02120000  1.0
  H  H13  1  0.53028000  0.61773000  0.52119000  1.0
  H  H14  1  0.38202000  0.53025000  0.77118000  1.0
  H  H15  1  0.61799000  0.46975000  0.27118000  1.0
  C  C16  1  0.15025000  0.09733000  0.80882000  1.0
  C  C17  1  0.84974000  0.90268000  0.30881000  1.0
  C  C18  1  0.09770000  0.84938000  0.55887000  1.0
  C  C19  1  0.90231000  0.15064000  0.05887000  1.0
  S  S20  1  0.38436000  0.74964000  0.03197000  1.0
  S  S21  1  0.61565000  0.25035000  0.53197000  1.0
  S  S22  1  0.74953000  0.61587000  0.78187000  1.0
  S  S23  1  0.25046000  0.38413000  0.28187000  1.0
  O  O24  1  0.33590000  0.86678000  0.13355000  1.0
  O  O25  1  0.66408000  0.13321000  0.63355000  1.0
  O  O26  1  0.86678000  0.66420000  0.88345000  1.0
  O  O27  1  0.13321000  0.33581000  0.38345000  1.0
  O  O28  1  0.53473000  0.60504000  0.06291000  1.0
  O  O29  1  0.46527000  0.39496000  0.56290000  1.0
  O  O30  1  0.60511000  0.46536000  0.81272000  1.0
  O  O31  1  0.39489000  0.53463000  0.31272000  1.0
  O  O32  1  0.45960000  0.87220000  0.93980000  1.0
  O  O33  1  0.54040000  0.12780000  0.43980000  1.0
  O  O34  1  0.87209000  0.54088000  0.68959000  1.0
  O  O35  1  0.12791000  0.45912000  0.18959000  1.0
  O  O36  1  0.20888000  0.65276000  0.98990000  1.0
  O  O37  1  0.79113000  0.34723000  0.48991000  1.0
  O  O38  1  0.65246000  0.79136000  0.73995000  1.0
  O  O39  1  0.34753000  0.20863000  0.23995000  1.0
  O  O40  1  0.30363000  0.13993000  0.75667000  1.0
  O  O41  1  0.69637000  0.86007000  0.25667000  1.0
  O  O42  1  0.14026000  0.69607000  0.50664000  1.0
  O  O43  1  0.85974000  0.30394000  0.00664000  1.0
  O  O44  1  0.98678000  0.14784000  0.76998000  1.0
  O  O45  1  0.01322000  0.85216000  0.26998000  1.0
  O  O46  1  0.14786000  0.01295000  0.52003000  1.0
  O  O47  1  0.85215000  0.98706000  0.02003000  1.0
  O  O48  1  0.44292000  0.24726000  0.00005000  1.0
  O  O49  1  0.55708000  0.75273000  0.50004000  1.0
  O  O50  1  0.24692000  0.55677000  0.75009000  1.0
  O  O51  1  0.75309000  0.44323000  0.25009000  1.0
