# generated using pymatgen
data_VZnPH8C10(NO3)2
_symmetry_space_group_name_H-M   'P 1'
_cell_length_a   7.81090000
_cell_length_b   9.62633000
_cell_length_c   17.19920000
_cell_angle_alpha   89.99950000
_cell_angle_beta   89.99970000
_cell_angle_gamma   76.24100000
_symmetry_Int_Tables_number   1
_chemical_formula_structural   VZnPH8C10(NO3)2
_chemical_formula_sum   'V4 Zn4 P4 H32 C40 N8 O24'
_cell_volume   1256.10391787
_cell_formula_units_Z   4
loop_
 _symmetry_equiv_pos_site_id
 _symmetry_equiv_pos_as_xyz
  1  'x, y, z'
loop_
 _atom_site_type_symbol
 _atom_site_label
 _atom_site_symmetry_multiplicity
 _atom_site_fract_x
 _atom_site_fract_y
 _atom_site_fract_z
 _atom_site_occupancy
  V  V0  1  0.11695000  0.50641000  0.62242000  1.0
  V  V1  1  0.11695000  0.00642000  0.87758000  1.0
  V  V2  1  0.88305000  0.49359000  0.37758000  1.0
  V  V3  1  0.88304000  0.99360000  0.12242000  1.0
  Zn  Zn4  1  0.46842000  0.27659000  0.55100000  1.0
  Zn  Zn5  1  0.46843000  0.77659000  0.94900000  1.0
  Zn  Zn6  1  0.53158000  0.72341000  0.44900000  1.0
  Zn  Zn7  1  0.53158000  0.22341000  0.05100000  1.0
  P  P8  1  0.23918000  0.52417000  0.45654000  1.0
  P  P9  1  0.23918000  0.02417000  0.04346000  1.0
  P  P10  1  0.76082000  0.47583000  0.54346000  1.0
  P  P11  1  0.76082000  0.97584000  0.95654000  1.0
  H  H12  1  0.92560000  0.81721000  0.48918000  1.0
  H  H13  1  0.92560000  0.31722000  0.01082000  1.0
  H  H14  1  0.07439000  0.18278000  0.51082000  1.0
  H  H15  1  0.07439000  0.68279000  0.98918000  1.0
  H  H16  1  0.56938000  0.26050000  0.37405000  1.0
  H  H17  1  0.56937000  0.76050000  0.12595000  1.0
  H  H18  1  0.43063000  0.73950000  0.62596000  1.0
  H  H19  1  0.43062000  0.23950000  0.87405000  1.0
  H  H20  1  0.78331000  0.08872000  0.28847000  1.0
  H  H21  1  0.78330000  0.58872000  0.21153000  1.0
  H  H22  1  0.21670000  0.91127000  0.71153000  1.0
  H  H23  1  0.21669000  0.41128000  0.78847000  1.0
  H  H24  1  0.96103000  0.86285000  0.34817000  1.0
  H  H25  1  0.96103000  0.36285000  0.15183000  1.0
  H  H26  1  0.03897000  0.13715000  0.65183000  1.0
  H  H27  1  0.03896000  0.63715000  0.84818000  1.0
  H  H28  1  0.89846000  0.80700000  0.60973000  1.0
  H  H29  1  0.89846000  0.30700000  0.89027000  1.0
  H  H30  1  0.10155000  0.19300000  0.39027000  1.0
  H  H31  1  0.10154000  0.69300000  0.10973000  1.0
  H  H32  1  0.82624000  0.79351000  0.74874000  1.0
  H  H33  1  0.82624000  0.29351000  0.75127000  1.0
  H  H34  1  0.17376000  0.20649000  0.25127000  1.0
  H  H35  1  0.17376000  0.70649000  0.24873000  1.0
  H  H36  1  0.57603000  0.98038000  0.80596000  1.0
  H  H37  1  0.57603000  0.48038000  0.69404000  1.0
  H  H38  1  0.42395000  0.01961000  0.19404000  1.0
  H  H39  1  0.42396000  0.51962000  0.30596000  1.0
  H  H40  1  0.41760000  0.18138000  0.71802000  1.0
  H  H41  1  0.41761000  0.68138000  0.78197000  1.0
  H  H42  1  0.58238000  0.81861000  0.28198000  1.0
  H  H43  1  0.58240000  0.31862000  0.21802000  1.0
  C  C44  1  0.85021000  0.91521000  0.46246000  1.0
  C  C45  1  0.85021000  0.41522000  0.03754000  1.0
  C  C46  1  0.14979000  0.08478000  0.53754000  1.0
  C  C47  1  0.14979000  0.58479000  0.96246000  1.0
  C  C48  1  0.65266000  0.16151000  0.39677000  1.0
  C  C49  1  0.65266000  0.66151000  0.10323000  1.0
  C  C50  1  0.34734000  0.83849000  0.60323000  1.0
  C  C51  1  0.34734000  0.33849000  0.89677000  1.0
  C  C52  1  0.77112000  0.06642000  0.35000000  1.0
  C  C53  1  0.77111000  0.56642000  0.15000000  1.0
  C  C54  1  0.22889000  0.93358000  0.65000000  1.0
  C  C55  1  0.22888000  0.43359000  0.85000000  1.0
  C  C56  1  0.87034000  0.94101000  0.38365000  1.0
  C  C57  1  0.87034000  0.44101000  0.11635000  1.0
  C  C58  1  0.12966000  0.05898000  0.61635000  1.0
  C  C59  1  0.12966000  0.55899000  0.88365000  1.0
  C  C60  1  0.72954000  0.01649000  0.50596000  1.0
  C  C61  1  0.72954000  0.51649000  0.99403000  1.0
  C  C62  1  0.27046000  0.98351000  0.49404000  1.0
  C  C63  1  0.27046000  0.48351000  0.00597000  1.0
  C  C64  1  0.69713000  0.00080000  0.59001000  1.0
  C  C65  1  0.69713000  0.50080000  0.90999000  1.0
  C  C66  1  0.30287000  0.99920000  0.41000000  1.0
  C  C67  1  0.30287000  0.49920000  0.09001000  1.0
  C  C68  1  0.79267000  0.88819000  0.63512000  1.0
  C  C69  1  0.79268000  0.38819000  0.86488000  1.0
  C  C70  1  0.20732000  0.11181000  0.36489000  1.0
  C  C71  1  0.20733000  0.61181000  0.13512000  1.0
  C  C72  1  0.75097000  0.88091000  0.71348000  1.0
  C  C73  1  0.75097000  0.38091000  0.78652000  1.0
  C  C74  1  0.24903000  0.11909000  0.28652000  1.0
  C  C75  1  0.24903000  0.61908000  0.21348000  1.0
  C  C76  1  0.61388000  0.98528000  0.74526000  1.0
  C  C77  1  0.61388000  0.48528000  0.75474000  1.0
  C  C78  1  0.38611000  0.01472000  0.25473000  1.0
  C  C79  1  0.38612000  0.51471000  0.24527000  1.0
  C  C80  1  0.52582000  0.09584000  0.69737000  1.0
  C  C81  1  0.52583000  0.59584000  0.80263000  1.0
  C  C82  1  0.47417000  0.90416000  0.30263000  1.0
  C  C83  1  0.47418000  0.40416000  0.19737000  1.0
  N  N84  1  0.56731000  0.10357000  0.62204000  1.0
  N  N85  1  0.56731000  0.60357000  0.87796000  1.0
  N  N86  1  0.43269000  0.89643000  0.37796000  1.0
  N  N87  1  0.43270000  0.39643000  0.12204000  1.0
  N  N88  1  0.63259000  0.13647000  0.47245000  1.0
  N  N89  1  0.63259000  0.63648000  0.02755000  1.0
  N  N90  1  0.36741000  0.86352000  0.52755000  1.0
  N  N91  1  0.36740000  0.36353000  0.97245000  1.0
  O  O92  1  0.28740000  0.36281000  0.47090000  1.0
  O  O93  1  0.28741000  0.86281000  0.02909000  1.0
  O  O94  1  0.71260000  0.63719000  0.52909000  1.0
  O  O95  1  0.71259000  0.13719000  0.97090000  1.0
  O  O96  1  0.28526000  0.36911000  0.64175000  1.0
  O  O97  1  0.28526000  0.86911000  0.85825000  1.0
  O  O98  1  0.71474000  0.63089000  0.35825000  1.0
  O  O99  1  0.71474000  0.13089000  0.14175000  1.0
  O  O100  1  0.38711000  0.58496000  0.42562000  1.0
  O  O101  1  0.38711000  0.08496000  0.07437000  1.0
  O  O102  1  0.61289000  0.41504000  0.57438000  1.0
  O  O103  1  0.61290000  0.91504000  0.92562000  1.0
  O  O104  1  0.16355000  0.60380000  0.53549000  1.0
  O  O105  1  0.16356000  0.10381000  0.96450000  1.0
  O  O106  1  0.83645000  0.39620000  0.46451000  1.0
  O  O107  1  0.83645000  0.89621000  0.03549000  1.0
  O  O108  1  0.08101000  0.56259000  0.39765000  1.0
  O  O109  1  0.08101000  0.06259000  0.10234000  1.0
  O  O110  1  0.91899000  0.43741000  0.60235000  1.0
  O  O111  1  0.91899000  0.93743000  0.89765000  1.0
  O  O112  1  0.08587000  0.61565000  0.69574000  1.0
  O  O113  1  0.08589000  0.11566000  0.80426000  1.0
  O  O114  1  0.91413000  0.38435000  0.30426000  1.0
  O  O115  1  0.91413000  0.88435000  0.19574000  1.0
