# generated using pymatgen
data_CuH14C20N(O4F)2
_symmetry_space_group_name_H-M   'P 1'
_cell_length_a   9.79510000
_cell_length_b   11.24400000
_cell_length_c   11.29730880
_cell_angle_alpha   91.84567015
_cell_angle_beta   112.80020927
_cell_angle_gamma   105.39720000
_symmetry_Int_Tables_number   1
_chemical_formula_structural   CuH14C20N(O4F)2
_chemical_formula_sum   'Cu2 H28 C40 N2 O16 F4'
_cell_volume   1093.00024524
_cell_formula_units_Z   2
loop_
 _symmetry_equiv_pos_site_id
 _symmetry_equiv_pos_as_xyz
  1  'x, y, z'
loop_
 _atom_site_type_symbol
 _atom_site_label
 _atom_site_symmetry_multiplicity
 _atom_site_fract_x
 _atom_site_fract_y
 _atom_site_fract_z
 _atom_site_occupancy
  Cu  Cu0  1  0.12319000  0.99378000  0.48777000  1.0
  Cu  Cu1  1  0.87682000  0.00621000  0.51222000  1.0
  H  H2  1  0.61301000  0.69510000  0.52220000  1.0
  H  H3  1  0.38698000  0.30492000  0.47779000  1.0
  H  H4  1  0.59570000  0.71722000  0.67391000  1.0
  H  H5  1  0.40431000  0.28280000  0.32610000  1.0
  H  H6  1  0.57145000  0.56515000  0.60230000  1.0
  H  H7  1  0.42855000  0.43486000  0.39770000  1.0
  H  H8  1  0.37765000  0.93554000  0.88198000  1.0
  H  H9  1  0.62236000  0.06445000  0.11802000  1.0
  H  H10  1  0.27429000  0.70114000  0.15090000  1.0
  H  H11  1  0.72571000  0.29887000  0.84911000  1.0
  H  H12  1  0.99290000  0.65817000  0.01634000  1.0
  H  H13  1  0.00710000  0.34184000  0.98366000  1.0
  H  H14  1  0.45258000  0.32146000  0.76656000  1.0
  H  H15  1  0.54742000  0.67854000  0.23344000  1.0
  H  H16  1  0.45605000  0.69275000  0.87596000  1.0
  H  H17  1  0.54394000  0.30725000  0.12404000  1.0
  H  H18  1  0.16563000  0.63192000  0.73897000  1.0
  H  H19  1  0.83436000  0.36807000  0.26103000  1.0
  H  H20  1  0.64288000  0.30245000  0.58197000  1.0
  H  H21  1  0.35711000  0.69755000  0.41802000  1.0
  H  H22  1  0.72079000  0.26965000  0.46830000  1.0
  H  H23  1  0.27921000  0.73036000  0.53170000  1.0
  H  H24  1  0.70564000  0.42082000  0.49521000  1.0
  H  H25  1  0.29437000  0.57918000  0.50480000  1.0
  H  H26  1  0.27906000  0.96081000  0.29044000  1.0
  H  H27  1  0.72096000  0.03919000  0.70956000  1.0
  H  H28  1  0.45046000  0.02905000  0.69219000  1.0
  H  H29  1  0.54955000  0.97094000  0.30781000  1.0
  C  C30  1  0.63524000  0.66467000  0.61741000  1.0
  C  C31  1  0.36476000  0.33534000  0.38259000  1.0
  C  C32  1  0.08461000  0.91068000  0.71441000  1.0
  C  C33  1  0.91542000  0.08932000  0.28559000  1.0
  C  C34  1  0.13380000  0.85328000  0.83622000  1.0
  C  C35  1  0.86621000  0.14671000  0.16378000  1.0
  C  C36  1  0.29300000  0.87590000  0.91150000  1.0
  C  C37  1  0.70702000  0.12409000  0.08850000  1.0
  C  C38  1  0.33964000  0.82185000  0.02312000  1.0
  C  C39  1  0.66037000  0.17814000  0.97688000  1.0
  C  C40  1  0.23587000  0.74412000  0.06381000  1.0
  C  C41  1  0.76413000  0.25589000  0.93619000  1.0
  C  C42  1  0.07762000  0.71999000  0.98823000  1.0
  C  C43  1  0.92238000  0.28003000  0.01177000  1.0
  C  C44  1  0.02788000  0.77445000  0.87661000  1.0
  C  C45  1  0.97213000  0.22556000  0.12339000  1.0
  C  C46  1  0.80533000  0.68146000  0.68366000  1.0
  C  C47  1  0.19466000  0.31854000  0.31633000  1.0
  C  C48  1  0.14547000  0.22326000  0.61993000  1.0
  C  C49  1  0.85452000  0.77673000  0.38006000  1.0
  C  C50  1  0.22904000  0.35468000  0.68797000  1.0
  C  C51  1  0.77095000  0.64532000  0.31203000  1.0
  C  C52  1  0.39024000  0.38950000  0.76056000  1.0
  C  C53  1  0.60976000  0.61050000  0.23945000  1.0
  C  C54  1  0.46714000  0.51013000  0.82648000  1.0
  C  C55  1  0.53284000  0.48987000  0.17352000  1.0
  C  C56  1  0.39076000  0.59918000  0.82211000  1.0
  C  C57  1  0.60921000  0.40082000  0.17789000  1.0
  C  C58  1  0.23095000  0.56549000  0.74765000  1.0
  C  C59  1  0.76904000  0.43450000  0.25236000  1.0
  C  C60  1  0.15158000  0.44440000  0.68131000  1.0
  C  C61  1  0.84841000  0.55559000  0.31870000  1.0
  C  C62  1  0.88788000  0.38016000  0.64900000  1.0
  C  C63  1  0.11211000  0.61983000  0.35101000  1.0
  C  C64  1  0.72811000  0.33985000  0.54203000  1.0
  C  C65  1  0.27188000  0.66015000  0.45797000  1.0
  C  C66  1  0.37843000  0.97837000  0.38413000  1.0
  C  C67  1  0.62159000  0.02163000  0.61587000  1.0
  C  C68  1  0.47366000  0.01602000  0.60654000  1.0
  C  C69  1  0.52636000  0.98398000  0.39346000  1.0
  N  N70  1  0.35221000  0.99421000  0.49077000  1.0
  N  N71  1  0.64780000  0.00579000  0.50923000  1.0
  O  O72  1  0.17606000  0.92721000  0.65713000  1.0
  O  O73  1  0.82394000  0.07278000  0.34286000  1.0
  O  O74  1  0.95774000  0.93804000  0.67837000  1.0
  O  O75  1  0.04227000  0.06196000  0.32163000  1.0
  O  O76  1  0.86782000  0.74686000  0.80694000  1.0
  O  O77  1  0.13219000  0.25315000  0.19306000  1.0
  O  O78  1  0.88123000  0.64289000  0.63677000  1.0
  O  O79  1  0.11877000  0.35711000  0.36323000  1.0
  O  O80  1  0.22400000  0.16780000  0.58371000  1.0
  O  O81  1  0.77603000  0.83219000  0.41630000  1.0
  O  O82  1  0.00544000  0.17694000  0.60556000  1.0
  O  O83  1  0.99456000  0.82306000  0.39442000  1.0
  O  O84  1  0.99548000  0.41479000  0.59784000  1.0
  O  O85  1  0.00451000  0.58520000  0.40216000  1.0
  O  O86  1  0.92082000  0.38335000  0.76484000  1.0
  O  O87  1  0.07917000  0.61664000  0.23516000  1.0
  F  F88  1  0.49651000  0.84562000  0.09621000  1.0
  F  F89  1  0.50350000  0.15438000  0.90380000  1.0
  F  F90  1  0.62409000  0.54271000  0.89787000  1.0
  F  F91  1  0.37590000  0.45730000  0.10213000  1.0
