# generated using pymatgen
data_Cd3H54C52S2(N9O10)2
_symmetry_space_group_name_H-M   'P 1'
_cell_length_a   10.21090000
_cell_length_b   13.01670000
_cell_length_c   13.61934138
_cell_angle_alpha   117.27801941
_cell_angle_beta   95.26369334
_cell_angle_gamma   91.91340000
_symmetry_Int_Tables_number   1
_chemical_formula_structural   Cd3H54C52S2(N9O10)2
_chemical_formula_sum   'Cd3 H54 C52 S2 N18 O20'
_cell_volume   1596.25847355
_cell_formula_units_Z   1
loop_
 _symmetry_equiv_pos_site_id
 _symmetry_equiv_pos_as_xyz
  1  'x, y, z'
loop_
 _atom_site_type_symbol
 _atom_site_label
 _atom_site_symmetry_multiplicity
 _atom_site_fract_x
 _atom_site_fract_y
 _atom_site_fract_z
 _atom_site_occupancy
  Cd  Cd0  1  0.51657000  0.45631000  0.14755000  1.0
  Cd  Cd1  1  0.48345000  0.54369000  0.85244000  1.0
  Cd  Cd2  1  0.50000000  0.99999000  0.50001000  1.0
  H  H3  1  0.94157000  0.56812000  0.73864000  1.0
  H  H4  1  0.05839000  0.43188000  0.26136000  1.0
  H  H5  1  0.11535000  0.73192000  0.83734000  1.0
  H  H6  1  0.88461000  0.26809000  0.16268000  1.0
  H  H7  1  0.04677000  0.82387000  0.57089000  1.0
  H  H8  1  0.95323000  0.17609000  0.42909000  1.0
  H  H9  1  0.88152000  0.65983000  0.47215000  1.0
  H  H10  1  0.11849000  0.34012000  0.52782000  1.0
  H  H11  1  0.83507000  0.42229000  0.49072000  1.0
  H  H12  1  0.16492000  0.57769000  0.50927000  1.0
  H  H13  1  0.74924000  0.48770000  0.60870000  1.0
  H  H14  1  0.25074000  0.51228000  0.39129000  1.0
  H  H15  1  0.13649000  0.97659000  0.79604000  1.0
  H  H16  1  0.86347000  0.02340000  0.20394000  1.0
  H  H17  1  0.22905000  0.90357000  0.85744000  1.0
  H  H18  1  0.77090000  0.09643000  0.14256000  1.0
  H  H19  1  0.71485000  0.39432000  0.31116000  1.0
  H  H20  1  0.28515000  0.60566000  0.68883000  1.0
  H  H21  1  0.46579000  0.66502000  0.43485000  1.0
  H  H22  1  0.53419000  0.33495000  0.56513000  1.0
  H  H23  1  0.56233000  0.81984000  0.61701000  1.0
  H  H24  1  0.43764000  0.18011000  0.38300000  1.0
  H  H25  1  0.24560000  0.03210000  0.66874000  1.0
  H  H26  1  0.75441000  0.96789000  0.33127000  1.0
  H  H27  1  0.12047000  0.18868000  0.04745000  1.0
  H  H28  1  0.87951000  0.81135000  0.95256000  1.0
  H  H29  1  0.93247000  0.11077000  0.89885000  1.0
  H  H30  1  0.06750000  0.88925000  0.10115000  1.0
  H  H31  1  0.18784000  0.16083000  0.25489000  1.0
  H  H32  1  0.81216000  0.83918000  0.74511000  1.0
  H  H33  1  0.25599000  0.02464000  0.19685000  1.0
  H  H34  1  0.74400000  0.97537000  0.80315000  1.0
  H  H35  1  0.54203000  0.13783000  0.99480000  1.0
  H  H36  1  0.45796000  0.86216000  0.00518000  1.0
  H  H37  1  0.33265000  0.32723000  0.26476000  1.0
  H  H38  1  0.66737000  0.67278000  0.73524000  1.0
  H  H39  1  0.00925000  0.47002000  0.14307000  1.0
  H  H40  1  0.99078000  0.53002000  0.85692000  1.0
  H  H41  1  0.18820000  0.28475000  0.84244000  1.0
  H  H42  1  0.81182000  0.71526000  0.15756000  1.0
  H  H43  1  0.76530000  0.26408000  0.83404000  1.0
  H  H44  1  0.23472000  0.73594000  0.16596000  1.0
  H  H45  1  0.59227000  0.64954000  0.12733000  1.0
  H  H46  1  0.40776000  0.35047000  0.87268000  1.0
  H  H47  1  0.44172000  0.64836000  0.11213000  1.0
  H  H48  1  0.55831000  0.35166000  0.88788000  1.0
  H  H49  1  0.54690000  0.23682000  0.70474000  1.0
  H  H50  1  0.45312000  0.76318000  0.29527000  1.0
  H  H51  1  0.68049000  0.18122000  0.65577000  1.0
  H  H52  1  0.31952000  0.81877000  0.34423000  1.0
  H  H53  1  0.77064000  0.98072000  0.56012000  1.0
  H  H54  1  0.22938000  0.01928000  0.43989000  1.0
  H  H55  1  0.75970000  0.87423000  0.44261000  1.0
  H  H56  1  0.24029000  0.12577000  0.55742000  1.0
  C  C57  1  0.89857000  0.60336000  0.60031000  1.0
  C  C58  1  0.10141000  0.39662000  0.39968000  1.0
  C  C59  1  0.96700000  0.62394000  0.70212000  1.0
  C  C60  1  0.03297000  0.37605000  0.29787000  1.0
  C  C61  1  0.06400000  0.71625000  0.75731000  1.0
  C  C62  1  0.93597000  0.28375000  0.24270000  1.0
  C  C63  1  0.09179000  0.79106000  0.71264000  1.0
  C  C64  1  0.90818000  0.20892000  0.28735000  1.0
  C  C65  1  0.02525000  0.76884000  0.60930000  1.0
  C  C66  1  0.97473000  0.23113000  0.39069000  1.0
  C  C67  1  0.93021000  0.67510000  0.55290000  1.0
  C  C68  1  0.06978000  0.32487000  0.44708000  1.0
  C  C69  1  0.79328000  0.50298000  0.54532000  1.0
  C  C70  1  0.20671000  0.49699000  0.45467000  1.0
  C  C71  1  0.18689000  0.89771000  0.77781000  1.0
  C  C72  1  0.81309000  0.10229000  0.22219000  1.0
  C  C73  1  0.66434000  0.46743000  0.36524000  1.0
  C  C74  1  0.33566000  0.53255000  0.63475000  1.0
  C  C75  1  0.53919000  0.60525000  0.43142000  1.0
  C  C76  1  0.46080000  0.39472000  0.56857000  1.0
  C  C77  1  0.47215000  0.86007000  0.64427000  1.0
  C  C78  1  0.52782000  0.13989000  0.35573000  1.0
  C  C79  1  0.31463000  0.97049000  0.66950000  1.0
  C  C80  1  0.68537000  0.02951000  0.33051000  1.0
  C  C81  1  0.10690000  0.04434000  0.08486000  1.0
  C  C82  1  0.89309000  0.95567000  0.91514000  1.0
  C  C83  1  0.06825000  0.10563000  0.02692000  1.0
  C  C84  1  0.93173000  0.89439000  0.97309000  1.0
  C  C85  1  0.96196000  0.06185000  0.94304000  1.0
  C  C86  1  0.03803000  0.93817000  0.05697000  1.0
  C  C87  1  0.21941000  0.09296000  0.17815000  1.0
  C  C88  1  0.78058000  0.90705000  0.82185000  1.0
  C  C89  1  0.47334000  0.16032000  0.05624000  1.0
  C  C90  1  0.52666000  0.83968000  0.94375000  1.0
  C  C91  1  0.36901000  0.25896000  0.19325000  1.0
  C  C92  1  0.63100000  0.74104000  0.80674000  1.0
  C  C93  1  0.87510000  0.36779000  0.99488000  1.0
  C  C94  1  0.12492000  0.63224000  0.00513000  1.0
  C  C95  1  0.00036000  0.41024000  0.05461000  1.0
  C  C96  1  0.99966000  0.58980000  0.94540000  1.0
  C  C97  1  0.11320000  0.37941000  0.00024000  1.0
  C  C98  1  0.88683000  0.62062000  0.99975000  1.0
  C  C99  1  0.10055000  0.30858000  0.88499000  1.0
  C  C100  1  0.89947000  0.69144000  0.11501000  1.0
  C  C101  1  0.97572000  0.26868000  0.82516000  1.0
  C  C102  1  0.02430000  0.73133000  0.17484000  1.0
  C  C103  1  0.86307000  0.29710000  0.87967000  1.0
  C  C104  1  0.13695000  0.70293000  0.12034000  1.0
  C  C105  1  0.75364000  0.39850000  0.05269000  1.0
  C  C106  1  0.24639000  0.60155000  0.94732000  1.0
  C  C107  1  0.24795000  0.42109000  0.06381000  1.0
  C  C108  1  0.75207000  0.57892000  0.93619000  1.0
  S  S109  1  0.96073000  0.18320000  0.67744000  1.0
  S  S110  1  0.03930000  0.81681000  0.32256000  1.0
  N  N111  1  0.68989000  0.52242000  0.47640000  1.0
  N  N112  1  0.31009000  0.47755000  0.52358000  1.0
  N  N113  1  0.61112000  0.61141000  0.52074000  1.0
  N  N114  1  0.38886000  0.38855000  0.47924000  1.0
  N  N115  1  0.56894000  0.51784000  0.33409000  1.0
  N  N116  1  0.43105000  0.48214000  0.66589000  1.0
  N  N117  1  0.29600000  0.90211000  0.71748000  1.0
  N  N118  1  0.70398000  0.09789000  0.28253000  1.0
  N  N119  1  0.39469000  0.83042000  0.70180000  1.0
  N  N120  1  0.60527000  0.16956000  0.29821000  1.0
  N  N121  1  0.42672000  0.94605000  0.62249000  1.0
  N  N122  1  0.57328000  0.05391000  0.37751000  1.0
  N  N123  1  0.32758000  0.14607000  0.15005000  1.0
  N  N124  1  0.67242000  0.85393000  0.84994000  1.0
  N  N125  1  0.39290000  0.08121000  0.06182000  1.0
  N  N126  1  0.60709000  0.91878000  0.93816000  1.0
  N  N127  1  0.46163000  0.27100000  0.13547000  1.0
  N  N128  1  0.53838000  0.72899000  0.86452000  1.0
  O  O129  1  0.76298000  0.46915000  0.15517000  1.0
  O  O130  1  0.23703000  0.53094000  0.84484000  1.0
  O  O131  1  0.64175000  0.34952000  0.99457000  1.0
  O  O132  1  0.35829000  0.65050000  0.00545000  1.0
  O  O133  1  0.26286000  0.46945000  0.16877000  1.0
  O  O134  1  0.73716000  0.53056000  0.83123000  1.0
  O  O135  1  0.34577000  0.40248000  0.00573000  1.0
  O  O136  1  0.65425000  0.59753000  0.99427000  1.0
  O  O137  1  0.95622000  0.26381000  0.63067000  1.0
  O  O138  1  0.04383000  0.73619000  0.36933000  1.0
  O  O139  1  0.07411000  0.11228000  0.65294000  1.0
  O  O140  1  0.92591000  0.88773000  0.34707000  1.0
  O  O141  1  0.83233000  0.11251000  0.65303000  1.0
  O  O142  1  0.16769000  0.88752000  0.34697000  1.0
  O  O143  1  0.51574000  0.65152000  0.16816000  1.0
  O  O144  1  0.48429000  0.34849000  0.83185000  1.0
  O  O145  1  0.58693000  0.18969000  0.63599000  1.0
  O  O146  1  0.41308000  0.81029000  0.36402000  1.0
  O  O147  1  0.70965000  0.91229000  0.50605000  1.0
  O  O148  1  0.29036000  0.08771000  0.49398000  1.0
