# generated using pymatgen
data_ZnSiH16C24(N2F3)2
_symmetry_space_group_name_H-M   'P 1'
_cell_length_a   7.77627000
_cell_length_b   13.99980000
_cell_length_c   14.00000000
_cell_angle_alpha   90.00020000
_cell_angle_beta   90.00070000
_cell_angle_gamma   89.99980000
_symmetry_Int_Tables_number   1
_chemical_formula_structural   ZnSiH16C24(N2F3)2
_chemical_formula_sum   'Zn1 Si1 H16 C24 N4 F6'
_cell_volume   1524.12714631
_cell_formula_units_Z   1
loop_
 _symmetry_equiv_pos_site_id
 _symmetry_equiv_pos_as_xyz
  1  'x, y, z'
loop_
 _atom_site_type_symbol
 _atom_site_label
 _atom_site_symmetry_multiplicity
 _atom_site_fract_x
 _atom_site_fract_y
 _atom_site_fract_z
 _atom_site_occupancy
  Zn  Zn0  1  0.50003000  0.49999000  0.50000000  1.0
  Si  Si1  1  0.00002000  0.50000000  0.50000000  1.0
  H  H2  1  0.23276000  0.66225000  0.49996000  1.0
  H  H3  1  0.22146000  0.83944000  0.49999000  1.0
  H  H4  1  0.77851000  0.83946000  0.49999000  1.0
  H  H5  1  0.76724000  0.66226000  0.49995000  1.0
  H  H6  1  0.22148000  0.16057000  0.49996000  1.0
  H  H7  1  0.23282000  0.33776000  0.49998000  1.0
  H  H8  1  0.76730000  0.33771000  0.50019000  1.0
  H  H9  1  0.77854000  0.16051000  0.50015000  1.0
  H  H10  1  0.23277000  0.50005000  0.66225000  1.0
  H  H11  1  0.22146000  0.50001000  0.83944000  1.0
  H  H12  1  0.77852000  0.50001000  0.83947000  1.0
  H  H13  1  0.76725000  0.50006000  0.66228000  1.0
  H  H14  1  0.22147000  0.50005000  0.16057000  1.0
  H  H15  1  0.23282000  0.50002000  0.33775000  1.0
  H  H16  1  0.76728000  0.49981000  0.33771000  1.0
  H  H17  1  0.77852000  0.49986000  0.16052000  1.0
  C  C18  1  0.35091000  0.70398000  0.49995000  1.0
  C  C19  1  0.34523000  0.80310000  0.49998000  1.0
  C  C20  1  0.49998000  0.85536000  0.49998000  1.0
  C  C21  1  0.65475000  0.80310000  0.49997000  1.0
  C  C22  1  0.64909000  0.70398000  0.49995000  1.0
  C  C23  1  0.49998000  0.95643000  0.49998000  1.0
  C  C24  1  0.49998000  0.04356000  0.50000000  1.0
  C  C25  1  0.50001000  0.14463000  0.50004000  1.0
  C  C26  1  0.34526000  0.19691000  0.50002000  1.0
  C  C27  1  0.35095000  0.29603000  0.50004000  1.0
  C  C28  1  0.64915000  0.29600000  0.50017000  1.0
  C  C29  1  0.65478000  0.19688000  0.50013000  1.0
  C  C30  1  0.35091000  0.50005000  0.70398000  1.0
  C  C31  1  0.34523000  0.50003000  0.80310000  1.0
  C  C32  1  0.49998000  0.50002000  0.85537000  1.0
  C  C33  1  0.65476000  0.50003000  0.80311000  1.0
  C  C34  1  0.64910000  0.50006000  0.70399000  1.0
  C  C35  1  0.49997000  0.50000000  0.95644000  1.0
  C  C36  1  0.49997000  0.49999000  0.04356000  1.0
  C  C37  1  0.50000000  0.49996000  0.14463000  1.0
  C  C38  1  0.34525000  0.49999000  0.19691000  1.0
  C  C39  1  0.35094000  0.49997000  0.29602000  1.0
  C  C40  1  0.64913000  0.49983000  0.29600000  1.0
  C  C41  1  0.65477000  0.49988000  0.19688000  1.0
  N  N42  1  0.50000000  0.65472000  0.49995000  1.0
  N  N43  1  0.50006000  0.34527000  0.50011000  1.0
  N  N44  1  0.50001000  0.50006000  0.65473000  1.0
  N  N45  1  0.50005000  0.49990000  0.34527000  1.0
  F  F46  1  0.22663000  0.50000000  0.50000000  1.0
  F  F47  1  0.77341000  0.50000000  0.50000000  1.0
  F  F48  1  0.00002000  0.58589000  0.41409000  1.0
  F  F49  1  0.00002000  0.41411000  0.58591000  1.0
  F  F50  1  0.00002000  0.58591000  0.58589000  1.0
  F  F51  1  0.00003000  0.41409000  0.41411000  1.0
