# generated using pymatgen
data_AgPH19C23IN
_symmetry_space_group_name_H-M   'P 1'
_cell_length_a   9.14226000
_cell_length_b   9.64579000
_cell_length_c   12.96210000
_cell_angle_alpha   105.46200000
_cell_angle_beta   109.31500000
_cell_angle_gamma   92.18760000
_symmetry_Int_Tables_number   1
_chemical_formula_structural   AgPH19C23IN
_chemical_formula_sum   'Ag2 P2 H38 C46 I2 N2'
_cell_volume   1029.59450448
_cell_formula_units_Z   2
loop_
 _symmetry_equiv_pos_site_id
 _symmetry_equiv_pos_as_xyz
  1  'x, y, z'
loop_
 _atom_site_type_symbol
 _atom_site_label
 _atom_site_symmetry_multiplicity
 _atom_site_fract_x
 _atom_site_fract_y
 _atom_site_fract_z
 _atom_site_occupancy
  Ag  Ag0  1  0.04573000  0.98616000  0.89659000  1.0
  Ag  Ag1  1  0.95427000  0.01384000  0.10341000  1.0
  P  P2  1  0.00193000  0.78391000  0.72948000  1.0
  P  P3  1  0.99807000  0.21609000  0.27052000  1.0
  H  H4  1  0.05185000  0.30634000  0.86445000  1.0
  H  H5  1  0.94815000  0.69366000  0.13555000  1.0
  H  H6  1  0.23432000  0.52574000  0.90507000  1.0
  H  H7  1  0.76568000  0.47426000  0.09493000  1.0
  H  H8  1  0.61073000  0.30034000  0.05707000  1.0
  H  H9  1  0.38927000  0.69966000  0.94294000  1.0
  H  H10  1  0.41203000  0.09180000  0.00826000  1.0
  H  H11  1  0.58797000  0.90820000  0.99174000  1.0
  H  H12  1  0.29417000  0.94596000  0.77103000  1.0
  H  H13  1  0.70583000  0.05404000  0.22897000  1.0
  H  H14  1  0.54621000  0.87900000  0.75385000  1.0
  H  H15  1  0.45379000  0.12100000  0.24615000  1.0
  H  H16  1  0.58234000  0.61809000  0.69785000  1.0
  H  H17  1  0.41766000  0.38191000  0.30216000  1.0
  H  H18  1  0.36621000  0.42567000  0.66159000  1.0
  H  H19  1  0.63379000  0.57433000  0.33841000  1.0
  H  H20  1  0.11171000  0.49273000  0.67199000  1.0
  H  H21  1  0.88829000  0.50727000  0.32801000  1.0
  H  H22  1  0.95311000  0.66850000  0.90165000  1.0
  H  H23  1  0.04689000  0.33149000  0.09835000  1.0
  H  H24  1  0.81058000  0.43586000  0.89104000  1.0
  H  H25  1  0.18942000  0.56414000  0.10896000  1.0
  H  H26  1  0.66314000  0.25790000  0.70403000  1.0
  H  H27  1  0.33685000  0.74210000  0.29597000  1.0
  H  H28  1  0.65243000  0.31185000  0.52278000  1.0
  H  H29  1  0.34757000  0.68815000  0.47722000  1.0
  H  H30  1  0.79795000  0.53925000  0.53280000  1.0
  H  H31  1  0.20205000  0.46074000  0.46720000  1.0
  H  H32  1  0.71345000  0.89478000  0.64169000  1.0
  H  H33  1  0.28655000  0.10522000  0.35831000  1.0
  H  H34  1  0.56768000  0.93096000  0.45327000  1.0
  H  H35  1  0.43232000  0.06904000  0.54673000  1.0
  H  H36  1  0.68028000  0.87906000  0.29897000  1.0
  H  H37  1  0.31972000  0.12094000  0.70103000  1.0
  H  H38  1  0.94370000  0.79789000  0.33538000  1.0
  H  H39  1  0.05630000  0.20211000  0.66462000  1.0
  H  H40  1  0.08446000  0.75315000  0.51958000  1.0
  H  H41  1  0.91554000  0.24685000  0.48042000  1.0
  C  C42  1  0.17763000  0.30936000  0.90578000  1.0
  C  C43  1  0.82237000  0.69064000  0.09422000  1.0
  C  C44  1  0.28125000  0.43258000  0.92967000  1.0
  C  C45  1  0.71875000  0.56742000  0.07034000  1.0
  C  C46  1  0.44257000  0.43543000  0.98573000  1.0
  C  C47  1  0.55743000  0.56458000  0.01427000  1.0
  C  C48  1  0.48894000  0.30914000  0.01379000  1.0
  C  C49  1  0.51106000  0.69087000  0.98621000  1.0
  C  C50  1  0.37769000  0.19011000  0.98592000  1.0
  C  C51  1  0.62231000  0.80989000  0.01408000  1.0
  C  C52  1  0.18501000  0.72403000  0.72023000  1.0
  C  C53  1  0.81499000  0.27597000  0.27977000  1.0
  C  C54  1  0.30921000  0.83188000  0.74402000  1.0
  C  C55  1  0.69079000  0.16812000  0.25598000  1.0
  C  C56  1  0.45038000  0.79388000  0.73392000  1.0
  C  C57  1  0.54962000  0.20612000  0.26609000  1.0
  C  C58  1  0.47115000  0.64765000  0.70394000  1.0
  C  C59  1  0.52885000  0.35235000  0.29606000  1.0
  C  C60  1  0.35014000  0.53992000  0.68376000  1.0
  C  C61  1  0.64985000  0.46008000  0.31624000  1.0
  C  C62  1  0.20680000  0.57764000  0.69054000  1.0
  C  C63  1  0.79320000  0.42236000  0.30946000  1.0
  C  C64  1  0.88695000  0.61790000  0.71787000  1.0
  C  C65  1  0.11305000  0.38210000  0.28213000  1.0
  C  C66  1  0.88875000  0.58901000  0.81886000  1.0
  C  C67  1  0.11125000  0.41099000  0.18114000  1.0
  C  C68  1  0.80866000  0.45933000  0.81292000  1.0
  C  C69  1  0.19134000  0.54068000  0.18708000  1.0
  C  C70  1  0.72473000  0.35868000  0.70690000  1.0
  C  C71  1  0.27527000  0.64132000  0.29310000  1.0
  C  C72  1  0.72000000  0.38820000  0.60613000  1.0
  C  C73  1  0.28000000  0.61180000  0.39387000  1.0
  C  C74  1  0.80157000  0.51701000  0.61161000  1.0
  C  C75  1  0.19843000  0.48299000  0.38839000  1.0
  C  C76  1  0.90650000  0.81694000  0.59190000  1.0
  C  C77  1  0.09350000  0.18306000  0.40809000  1.0
  C  C78  1  0.76188000  0.87028000  0.57331000  1.0
  C  C79  1  0.23812000  0.12972000  0.42669000  1.0
  C  C80  1  0.68111000  0.89189000  0.46813000  1.0
  C  C81  1  0.31889000  0.10810000  0.53187000  1.0
  C  C82  1  0.74494000  0.86395000  0.38150000  1.0
  C  C83  1  0.25506000  0.13605000  0.61849000  1.0
  C  C84  1  0.89137000  0.81680000  0.40136000  1.0
  C  C85  1  0.10863000  0.18320000  0.59864000  1.0
  C  C86  1  0.97139000  0.79229000  0.50569000  1.0
  C  C87  1  0.02861000  0.20771000  0.49431000  1.0
  I  I88  1  0.77905000  0.11907000  0.91113000  1.0
  I  I89  1  0.22095000  0.88093000  0.08886000  1.0
  N  N90  1  0.22385000  0.18875000  0.93297000  1.0
  N  N91  1  0.77615000  0.81125000  0.06703000  1.0
