# generated using pymatgen
data_LiH17C24(NO)6
_symmetry_space_group_name_H-M   'P 1'
_cell_length_a   4.95491000
_cell_length_b   16.05460000
_cell_length_c   37.30900000
_cell_angle_alpha   90.00010000
_cell_angle_beta   90.00000000
_cell_angle_gamma   92.62090000
_symmetry_Int_Tables_number   1
_chemical_formula_structural   LiH17C24(NO)6
_chemical_formula_sum   'Li4 H68 C96 N24 O24'
_cell_volume   2964.79274962
_cell_formula_units_Z   4
loop_
 _symmetry_equiv_pos_site_id
 _symmetry_equiv_pos_as_xyz
  1  'x, y, z'
loop_
 _atom_site_type_symbol
 _atom_site_label
 _atom_site_symmetry_multiplicity
 _atom_site_fract_x
 _atom_site_fract_y
 _atom_site_fract_z
 _atom_site_occupancy
  Li  Li0  1  0.19932000  0.48588000  0.52315000  1.0
  Li  Li1  1  0.80068000  0.01412000  0.02315000  1.0
  Li  Li2  1  0.80068000  0.51412000  0.47685000  1.0
  Li  Li3  1  0.19932000  0.98588000  0.97685000  1.0
  H  H4  1  0.09642000  0.30492000  0.68378000  1.0
  H  H5  1  0.40198000  0.27302000  0.57059000  1.0
  H  H6  1  0.51961000  0.21031000  0.62940000  1.0
  H  H7  1  0.16732000  0.39644000  0.64162000  1.0
  H  H8  1  0.04894000  0.45851000  0.58359000  1.0
  H  H9  1  0.23688000  0.08051000  0.67588000  1.0
  H  H10  1  0.13302000  0.78743000  0.75609000  1.0
  H  H11  1  0.81571000  0.95974000  0.80108000  1.0
  H  H12  1  0.17854000  0.05363000  0.77466000  1.0
  H  H13  1  0.90349000  0.98425000  0.66886000  1.0
  H  H14  1  0.54584000  0.89017000  0.69531000  1.0
  H  H15  1  0.99150000  0.24381000  0.79124000  1.0
  H  H16  1  0.60149000  0.13332000  0.98323000  1.0
  H  H17  1  0.89371000  0.22960000  0.91099000  1.0
  H  H18  1  0.02120000  0.26753000  0.84849000  1.0
  H  H19  1  0.45046000  0.07928000  0.80857000  1.0
  H  H20  1  0.31846000  0.04358000  0.87133000  1.0
  H  H21  1  0.90358000  0.19508000  0.18378000  1.0
  H  H22  1  0.59801000  0.22698000  0.07059000  1.0
  H  H23  1  0.48038000  0.28969000  0.12940000  1.0
  H  H24  1  0.83267000  0.10356000  0.14162000  1.0
  H  H25  1  0.95105000  0.04149000  0.08359000  1.0
  H  H26  1  0.76312000  0.41949000  0.17588000  1.0
  H  H27  1  0.86698000  0.71257000  0.25609000  1.0
  H  H28  1  0.18429000  0.54026000  0.30109000  1.0
  H  H29  1  0.82147000  0.44637000  0.27466000  1.0
  H  H30  1  0.09651000  0.51574000  0.16887000  1.0
  H  H31  1  0.45415000  0.60983000  0.19531000  1.0
  H  H32  1  0.00850000  0.25619000  0.29124000  1.0
  H  H33  1  0.39851000  0.36668000  0.48323000  1.0
  H  H34  1  0.10630000  0.27040000  0.41099000  1.0
  H  H35  1  0.97880000  0.23247000  0.34849000  1.0
  H  H36  1  0.54954000  0.42072000  0.30857000  1.0
  H  H37  1  0.68155000  0.45642000  0.37133000  1.0
  H  H38  1  0.90358000  0.69508000  0.31622000  1.0
  H  H39  1  0.59802000  0.72698000  0.42941000  1.0
  H  H40  1  0.48039000  0.78969000  0.37060000  1.0
  H  H41  1  0.83268000  0.60356000  0.35838000  1.0
  H  H42  1  0.95106000  0.54149000  0.41641000  1.0
  H  H43  1  0.76312000  0.91949000  0.32412000  1.0
  H  H44  1  0.86698000  0.21257000  0.24391000  1.0
  H  H45  1  0.18429000  0.04026000  0.19892000  1.0
  H  H46  1  0.82146000  0.94637000  0.22534000  1.0
  H  H47  1  0.09651000  0.01574000  0.33114000  1.0
  H  H48  1  0.45416000  0.10983000  0.30469000  1.0
  H  H49  1  0.00850000  0.75619000  0.20876000  1.0
  H  H50  1  0.39851000  0.86668000  0.01677000  1.0
  H  H51  1  0.10630000  0.77040000  0.08901000  1.0
  H  H52  1  0.97880000  0.73247000  0.15151000  1.0
  H  H53  1  0.54954000  0.92072000  0.19143000  1.0
  H  H54  1  0.68154000  0.95642000  0.12867000  1.0
  H  H55  1  0.09642000  0.80492000  0.81622000  1.0
  H  H56  1  0.40199000  0.77302000  0.92941000  1.0
  H  H57  1  0.51962000  0.71031000  0.87060000  1.0
  H  H58  1  0.16733000  0.89644000  0.85838000  1.0
  H  H59  1  0.04895000  0.95851000  0.91641000  1.0
  H  H60  1  0.23688000  0.58051000  0.82412000  1.0
  H  H61  1  0.13303000  0.28743000  0.74391000  1.0
  H  H62  1  0.81571000  0.45974000  0.69892000  1.0
  H  H63  1  0.17853000  0.55363000  0.72534000  1.0
  H  H64  1  0.90349000  0.48426000  0.83113000  1.0
  H  H65  1  0.54585000  0.39017000  0.80469000  1.0
  H  H66  1  0.99150000  0.74381000  0.70876000  1.0
  H  H67  1  0.60148000  0.63332000  0.51677000  1.0
  H  H68  1  0.89370000  0.72960000  0.58901000  1.0
  H  H69  1  0.02120000  0.76753000  0.65151000  1.0
  H  H70  1  0.45046000  0.57928000  0.69143000  1.0
  H  H71  1  0.31846000  0.54358000  0.62867000  1.0
  C  C72  1  0.79483000  0.22235000  0.69713000  1.0
  C  C73  1  0.46060000  0.13040000  0.71481000  1.0
  C  C74  1  0.73826000  0.18755000  0.75649000  1.0
  C  C75  1  0.65218000  0.40521000  0.53724000  1.0
  C  C76  1  0.71914000  0.36883000  0.57267000  1.0
  C  C77  1  0.57115000  0.29929000  0.58622000  1.0
  C  C78  1  0.63591000  0.26391000  0.61902000  1.0
  C  C79  1  0.85118000  0.29928000  0.63927000  1.0
  C  C80  1  0.99939000  0.36950000  0.62590000  1.0
  C  C81  1  0.93363000  0.40362000  0.59313000  1.0
  C  C82  1  0.43608000  0.86707000  0.76624000  1.0
  C  C83  1  0.65650000  0.91937000  0.75001000  1.0
  C  C84  1  0.83766000  0.96514000  0.77210000  1.0
  C  C85  1  0.04082000  0.01730000  0.75763000  1.0
  C  C86  1  0.06487000  0.02514000  0.72024000  1.0
  C  C87  1  0.88564000  0.97804000  0.69793000  1.0
  C  C88  1  0.68520000  0.92577000  0.71262000  1.0
  C  C89  1  0.51752000  0.11086000  0.93236000  1.0
  C  C90  1  0.59474000  0.13478000  0.89520000  1.0
  C  C91  1  0.79428000  0.19780000  0.88849000  1.0
  C  C92  1  0.86488000  0.21878000  0.85361000  1.0
  C  C93  1  0.73938000  0.17693000  0.82440000  1.0
  C  C94  1  0.54215000  0.11313000  0.83093000  1.0
  C  C95  1  0.47136000  0.09302000  0.86607000  1.0
  C  C96  1  0.20517000  0.27765000  0.19713000  1.0
  C  C97  1  0.53940000  0.36960000  0.21481000  1.0
  C  C98  1  0.26173000  0.31245000  0.25649000  1.0
  C  C99  1  0.34782000  0.09479000  0.03724000  1.0
  C  C100  1  0.28085000  0.13117000  0.07267000  1.0
  C  C101  1  0.42885000  0.20071000  0.08622000  1.0
  C  C102  1  0.36408000  0.23609000  0.11902000  1.0
  C  C103  1  0.14881000  0.20072000  0.13927000  1.0
  C  C104  1  0.00060000  0.13050000  0.12589000  1.0
  C  C105  1  0.06636000  0.09638000  0.09313000  1.0
  C  C106  1  0.56393000  0.63293000  0.26624000  1.0
  C  C107  1  0.34351000  0.58063000  0.25001000  1.0
  C  C108  1  0.16235000  0.53486000  0.27210000  1.0
  C  C109  1  0.95918000  0.48271000  0.25763000  1.0
  C  C110  1  0.93513000  0.47486000  0.22024000  1.0
  C  C111  1  0.11436000  0.52196000  0.19793000  1.0
  C  C112  1  0.31480000  0.57422000  0.21262000  1.0
  C  C113  1  0.48248000  0.38913000  0.43236000  1.0
  C  C114  1  0.40526000  0.36522000  0.39520000  1.0
  C  C115  1  0.20573000  0.30220000  0.38849000  1.0
  C  C116  1  0.13512000  0.28122000  0.35361000  1.0
  C  C117  1  0.26062000  0.32307000  0.32440000  1.0
  C  C118  1  0.45785000  0.38687000  0.33093000  1.0
  C  C119  1  0.52865000  0.40698000  0.36607000  1.0
  C  C120  1  0.20517000  0.77765000  0.30287000  1.0
  C  C121  1  0.53940000  0.86960000  0.28519000  1.0
  C  C122  1  0.26174000  0.81245000  0.24351000  1.0
  C  C123  1  0.34782000  0.59479000  0.46276000  1.0
  C  C124  1  0.28086000  0.63117000  0.42733000  1.0
  C  C125  1  0.42885000  0.70071000  0.41378000  1.0
  C  C126  1  0.36408000  0.73609000  0.38098000  1.0
  C  C127  1  0.14882000  0.70072000  0.36073000  1.0
  C  C128  1  0.00061000  0.63050000  0.37411000  1.0
  C  C129  1  0.06637000  0.59638000  0.40687000  1.0
  C  C130  1  0.56393000  0.13293000  0.23376000  1.0
  C  C131  1  0.34351000  0.08063000  0.24999000  1.0
  C  C132  1  0.16234000  0.03486000  0.22790000  1.0
  C  C133  1  0.95918000  0.98270000  0.24237000  1.0
  C  C134  1  0.93513000  0.97486000  0.27976000  1.0
  C  C135  1  0.11436000  0.02195000  0.30207000  1.0
  C  C136  1  0.31480000  0.07422000  0.28738000  1.0
  C  C137  1  0.48248000  0.88913000  0.06764000  1.0
  C  C138  1  0.40525000  0.86522000  0.10480000  1.0
  C  C139  1  0.20572000  0.80221000  0.11151000  1.0
  C  C140  1  0.13512000  0.78122000  0.14639000  1.0
  C  C141  1  0.26062000  0.82307000  0.17560000  1.0
  C  C142  1  0.45785000  0.88687000  0.16907000  1.0
  C  C143  1  0.52864000  0.90698000  0.13393000  1.0
  C  C144  1  0.79483000  0.72235000  0.80286000  1.0
  C  C145  1  0.46060000  0.63040000  0.78519000  1.0
  C  C146  1  0.73827000  0.68755000  0.74351000  1.0
  C  C147  1  0.65218000  0.90521000  0.96276000  1.0
  C  C148  1  0.71915000  0.86883000  0.92733000  1.0
  C  C149  1  0.57115000  0.79929000  0.91378000  1.0
  C  C150  1  0.63592000  0.76391000  0.88098000  1.0
  C  C151  1  0.85119000  0.79928000  0.86073000  1.0
  C  C152  1  0.99940000  0.86950000  0.87411000  1.0
  C  C153  1  0.93363000  0.90362000  0.90687000  1.0
  C  C154  1  0.43607000  0.36707000  0.73376000  1.0
  C  C155  1  0.65649000  0.41937000  0.74999000  1.0
  C  C156  1  0.83765000  0.46514000  0.72790000  1.0
  C  C157  1  0.04082000  0.51729000  0.74237000  1.0
  C  C158  1  0.06487000  0.52514000  0.77976000  1.0
  C  C159  1  0.88564000  0.47804000  0.80207000  1.0
  C  C160  1  0.68520000  0.42577000  0.78738000  1.0
  C  C161  1  0.51752000  0.61087000  0.56764000  1.0
  C  C162  1  0.59474000  0.63478000  0.60480000  1.0
  C  C163  1  0.79428000  0.69779000  0.61151000  1.0
  C  C164  1  0.86489000  0.71878000  0.64639000  1.0
  C  C165  1  0.73939000  0.67693000  0.67561000  1.0
  C  C166  1  0.54215000  0.61313000  0.66907000  1.0
  C  C167  1  0.47136000  0.59302000  0.63393000  1.0
  N  N168  1  0.58710000  0.17099000  0.68746000  1.0
  N  N169  1  0.51909000  0.13739000  0.74991000  1.0
  N  N170  1  0.88559000  0.22968000  0.73142000  1.0
  N  N171  1  0.93098000  0.27161000  0.67312000  1.0
  N  N172  1  0.25285000  0.07806000  0.70302000  1.0
  N  N173  1  0.83043000  0.20216000  0.79055000  1.0
  N  N174  1  0.41290000  0.32901000  0.18746000  1.0
  N  N175  1  0.48091000  0.36261000  0.24991000  1.0
  N  N176  1  0.11440000  0.27032000  0.23142000  1.0
  N  N177  1  0.06902000  0.22839000  0.17312000  1.0
  N  N178  1  0.74715000  0.42194000  0.20302000  1.0
  N  N179  1  0.16956000  0.29784000  0.29055000  1.0
  N  N180  1  0.41290000  0.82902000  0.31254000  1.0
  N  N181  1  0.48091000  0.86261000  0.25009000  1.0
  N  N182  1  0.11441000  0.77032000  0.26858000  1.0
  N  N183  1  0.06902000  0.72839000  0.32688000  1.0
  N  N184  1  0.74714000  0.92194000  0.29698000  1.0
  N  N185  1  0.16957000  0.79784000  0.20945000  1.0
  N  N186  1  0.58710000  0.67099000  0.81254000  1.0
  N  N187  1  0.51909000  0.63739000  0.75009000  1.0
  N  N188  1  0.88560000  0.72968000  0.76858000  1.0
  N  N189  1  0.93098000  0.77161000  0.82688000  1.0
  N  N190  1  0.25285000  0.57806000  0.79698000  1.0
  N  N191  1  0.83044000  0.70216000  0.70945000  1.0
  O  O192  1  0.82288000  0.45562000  0.52233000  1.0
  O  O193  1  0.42075000  0.38526000  0.52327000  1.0
  O  O194  1  0.28845000  0.82189000  0.74276000  1.0
  O  O195  1  0.39165000  0.86521000  0.79900000  1.0
  O  O196  1  0.34298000  0.05456000  0.93858000  1.0
  O  O197  1  0.64958000  0.15410000  0.95747000  1.0
  O  O198  1  0.17712000  0.04438000  0.02233000  1.0
  O  O199  1  0.57925000  0.11474000  0.02327000  1.0
  O  O200  1  0.71154000  0.67811000  0.24276000  1.0
  O  O201  1  0.60836000  0.63480000  0.29900000  1.0
  O  O202  1  0.65702000  0.44544000  0.43858000  1.0
  O  O203  1  0.35042000  0.34589000  0.45747000  1.0
  O  O204  1  0.17712000  0.54438000  0.47767000  1.0
  O  O205  1  0.57925000  0.61474000  0.47673000  1.0
  O  O206  1  0.71155000  0.17811000  0.25724000  1.0
  O  O207  1  0.60836000  0.13479000  0.20100000  1.0
  O  O208  1  0.65702000  0.94544000  0.06142000  1.0
  O  O209  1  0.35042000  0.84589000  0.04253000  1.0
  O  O210  1  0.82288000  0.95562000  0.97767000  1.0
  O  O211  1  0.42075000  0.88526000  0.97673000  1.0
  O  O212  1  0.28845000  0.32189000  0.75724000  1.0
  O  O213  1  0.39164000  0.36520000  0.70100000  1.0
  O  O214  1  0.34298000  0.55457000  0.56142000  1.0
  O  O215  1  0.64957000  0.65411000  0.54253000  1.0
