# generated using pymatgen
data_NdPH15C21NO11
_symmetry_space_group_name_H-M   'P 1'
_cell_length_a   11.79360000
_cell_length_b   14.59600000
_cell_length_c   17.67660000
_cell_angle_alpha   90.00000000
_cell_angle_beta   89.99990000
_cell_angle_gamma   91.99840000
_symmetry_Int_Tables_number   1
_chemical_formula_structural   NdPH15C21NO11
_chemical_formula_sum   'Nd4 P4 H60 C84 N4 O44'
_cell_volume   3040.98841245
_cell_formula_units_Z   4
loop_
 _symmetry_equiv_pos_site_id
 _symmetry_equiv_pos_as_xyz
  1  'x, y, z'
loop_
 _atom_site_type_symbol
 _atom_site_label
 _atom_site_symmetry_multiplicity
 _atom_site_fract_x
 _atom_site_fract_y
 _atom_site_fract_z
 _atom_site_occupancy
  Nd  Nd0  1  0.07151000  0.59218000  0.92780000  1.0
  Nd  Nd1  1  0.42850000  0.90782000  0.42780000  1.0
  Nd  Nd2  1  0.92850000  0.40782000  0.07220000  1.0
  Nd  Nd3  1  0.57150000  0.09218000  0.57220000  1.0
  P  P4  1  0.33415000  0.75307000  0.91548000  1.0
  P  P5  1  0.16585000  0.74694000  0.41548000  1.0
  P  P6  1  0.66585000  0.24693000  0.08452000  1.0
  P  P7  1  0.83415000  0.25307000  0.58452000  1.0
  H  H8  1  0.11083000  0.13561000  0.17395000  1.0
  H  H9  1  0.38916000  0.36438000  0.67396000  1.0
  H  H10  1  0.88916000  0.86438000  0.82605000  1.0
  H  H11  1  0.61083000  0.63562000  0.32605000  1.0
  H  H12  1  0.17776000  0.48250000  0.77420000  1.0
  H  H13  1  0.32224000  0.01750000  0.27419000  1.0
  H  H14  1  0.82223000  0.51750000  0.22580000  1.0
  H  H15  1  0.67776000  0.98250000  0.72580000  1.0
  H  H16  1  0.23275000  0.48273000  0.85564000  1.0
  H  H17  1  0.26725000  0.01727000  0.35564000  1.0
  H  H18  1  0.76725000  0.51727000  0.14436000  1.0
  H  H19  1  0.73275000  0.98273000  0.64436000  1.0
  H  H20  1  0.56899000  0.79971000  0.86132000  1.0
  H  H21  1  0.93101000  0.70029000  0.36132000  1.0
  H  H22  1  0.43102000  0.20029000  0.13868000  1.0
  H  H23  1  0.06899000  0.29971000  0.63868000  1.0
  H  H24  1  0.75244000  0.73105000  0.89318000  1.0
  H  H25  1  0.74756000  0.76895000  0.39318000  1.0
  H  H26  1  0.24756000  0.26895000  0.10682000  1.0
  H  H27  1  0.25244000  0.23105000  0.60681000  1.0
  H  H28  1  0.58481000  0.54761000  0.05043000  1.0
  H  H29  1  0.91520000  0.95240000  0.55043000  1.0
  H  H30  1  0.41519000  0.45240000  0.94957000  1.0
  H  H31  1  0.08481000  0.04761000  0.44957000  1.0
  H  H32  1  0.39864000  0.61482000  0.01919000  1.0
  H  H33  1  0.10137000  0.88518000  0.51918000  1.0
  H  H34  1  0.60136000  0.38518000  0.98082000  1.0
  H  H35  1  0.89863000  0.11482000  0.48081000  1.0
  H  H36  1  0.46657000  0.84101000  0.03781000  1.0
  H  H37  1  0.03343000  0.65899000  0.53781000  1.0
  H  H38  1  0.53343000  0.15899000  0.96219000  1.0
  H  H39  1  0.96657000  0.34101000  0.46219000  1.0
  H  H40  1  0.41819000  0.96107000  0.13155000  1.0
  H  H41  1  0.08180000  0.53893000  0.63155000  1.0
  H  H42  1  0.58180000  0.03893000  0.86845000  1.0
  H  H43  1  0.91819000  0.46108000  0.36845000  1.0
  H  H44  1  0.09033000  0.98484000  0.02831000  1.0
  H  H45  1  0.40967000  0.51516000  0.52831000  1.0
  H  H46  1  0.90967000  0.01516000  0.97169000  1.0
  H  H47  1  0.59032000  0.48484000  0.47169000  1.0
  H  H48  1  0.13579000  0.86420000  0.93502000  1.0
  H  H49  1  0.36421000  0.63579000  0.43502000  1.0
  H  H50  1  0.86421000  0.13579000  0.06498000  1.0
  H  H51  1  0.63579000  0.36421000  0.56498000  1.0
  H  H52  1  0.28922000  0.66518000  0.77564000  1.0
  H  H53  1  0.21079000  0.83482000  0.27564000  1.0
  H  H54  1  0.71079000  0.33482000  0.22436000  1.0
  H  H55  1  0.78922000  0.16518000  0.72436000  1.0
  H  H56  1  0.33207000  0.71140000  0.64130000  1.0
  H  H57  1  0.16794000  0.78860000  0.14130000  1.0
  H  H58  1  0.66794000  0.28860000  0.35870000  1.0
  H  H59  1  0.83206000  0.21140000  0.85870000  1.0
  H  H60  1  0.44039000  0.98058000  0.71698000  1.0
  H  H61  1  0.05961000  0.51942000  0.21699000  1.0
  H  H62  1  0.55961000  0.01942000  0.28302000  1.0
  H  H63  1  0.94040000  0.48058000  0.78301000  1.0
  H  H64  1  0.40036000  0.93577000  0.85023000  1.0
  H  H65  1  0.09964000  0.56423000  0.35023000  1.0
  H  H66  1  0.59964000  0.06423000  0.14978000  1.0
  H  H67  1  0.90036000  0.43578000  0.64977000  1.0
  C  C68  1  0.47209000  0.71212000  0.93915000  1.0
  C  C69  1  0.02792000  0.78788000  0.43915000  1.0
  C  C70  1  0.52792000  0.28788000  0.06085000  1.0
  C  C71  1  0.97208000  0.21212000  0.56084000  1.0
  C  C72  1  0.57150000  0.74544000  0.90360000  1.0
  C  C73  1  0.92850000  0.75456000  0.40360000  1.0
  C  C74  1  0.42851000  0.25456000  0.09640000  1.0
  C  C75  1  0.07150000  0.24544000  0.59640000  1.0
  C  C76  1  0.67472000  0.70714000  0.92112000  1.0
  C  C77  1  0.82528000  0.79286000  0.42113000  1.0
  C  C78  1  0.32528000  0.29286000  0.07888000  1.0
  C  C79  1  0.17472000  0.20714000  0.57887000  1.0
  C  C80  1  0.67963000  0.63563000  0.97374000  1.0
  C  C81  1  0.82037000  0.86437000  0.47374000  1.0
  C  C82  1  0.32037000  0.36436000  0.02626000  1.0
  C  C83  1  0.17963000  0.13564000  0.52626000  1.0
  C  C84  1  0.58029000  0.60363000  0.00999000  1.0
  C  C85  1  0.91972000  0.89637000  0.50999000  1.0
  C  C86  1  0.41972000  0.39637000  0.99001000  1.0
  C  C87  1  0.08028000  0.10363000  0.49001000  1.0
  C  C88  1  0.47666000  0.64142000  0.99284000  1.0
  C  C89  1  0.02334000  0.85859000  0.49284000  1.0
  C  C90  1  0.52334000  0.35858000  0.00716000  1.0
  C  C91  1  0.97666000  0.14142000  0.50716000  1.0
  C  C92  1  0.79072000  0.59133000  0.98836000  1.0
  C  C93  1  0.70929000  0.90867000  0.48836000  1.0
  C  C94  1  0.20929000  0.40867000  0.01164000  1.0
  C  C95  1  0.29071000  0.09133000  0.51164000  1.0
  C  C96  1  0.30500000  0.84559000  0.97991000  1.0
  C  C97  1  0.19501000  0.65441000  0.47991000  1.0
  C  C98  1  0.69500000  0.15442000  0.02009000  1.0
  C  C99  1  0.80499000  0.34558000  0.52009000  1.0
  C  C100  1  0.38448000  0.87290000  0.03526000  1.0
  C  C101  1  0.11552000  0.62710000  0.53526000  1.0
  C  C102  1  0.61552000  0.12709000  0.96474000  1.0
  C  C103  1  0.88447000  0.37290000  0.46474000  1.0
  C  C104  1  0.35782000  0.93995000  0.08773000  1.0
  C  C105  1  0.14217000  0.56005000  0.58773000  1.0
  C  C106  1  0.64217000  0.06004000  0.91227000  1.0
  C  C107  1  0.85782000  0.43996000  0.41227000  1.0
  C  C108  1  0.25185000  0.98032000  0.08523000  1.0
  C  C109  1  0.24814000  0.51968000  0.58524000  1.0
  C  C110  1  0.74814000  0.01968000  0.91476000  1.0
  C  C111  1  0.75185000  0.48032000  0.41476000  1.0
  C  C112  1  0.17263000  0.95332000  0.02951000  1.0
  C  C113  1  0.32737000  0.54668000  0.52951000  1.0
  C  C114  1  0.82737000  0.04668000  0.97049000  1.0
  C  C115  1  0.67262000  0.45332000  0.47049000  1.0
  C  C116  1  0.19873000  0.88621000  0.97702000  1.0
  C  C117  1  0.30127000  0.61378000  0.47702000  1.0
  C  C118  1  0.80127000  0.11378000  0.02298000  1.0
  C  C119  1  0.69873000  0.38622000  0.52298000  1.0
  C  C120  1  0.22630000  0.05149000  0.14273000  1.0
  C  C121  1  0.27369000  0.44851000  0.64274000  1.0
  C  C122  1  0.77368000  0.94851000  0.85726000  1.0
  C  C123  1  0.72630000  0.55149000  0.35726000  1.0
  C  C124  1  0.34545000  0.79708000  0.82079000  1.0
  C  C125  1  0.15455000  0.70292000  0.32079000  1.0
  C  C126  1  0.65455000  0.20292000  0.17921000  1.0
  C  C127  1  0.84545000  0.29708000  0.67921000  1.0
  C  C128  1  0.32343000  0.73376000  0.76221000  1.0
  C  C129  1  0.17657000  0.76624000  0.26221000  1.0
  C  C130  1  0.67657000  0.26624000  0.23779000  1.0
  C  C131  1  0.82343000  0.23376000  0.73779000  1.0
  C  C132  1  0.34690000  0.75914000  0.68795000  1.0
  C  C133  1  0.15310000  0.74086000  0.18795000  1.0
  C  C134  1  0.65311000  0.24086000  0.31205000  1.0
  C  C135  1  0.84690000  0.25914000  0.81205000  1.0
  C  C136  1  0.39209000  0.84716000  0.67183000  1.0
  C  C137  1  0.10791000  0.65284000  0.17183000  1.0
  C  C138  1  0.60791000  0.15284000  0.32818000  1.0
  C  C139  1  0.89210000  0.34716000  0.82817000  1.0
  C  C140  1  0.40913000  0.91135000  0.72998000  1.0
  C  C141  1  0.09088000  0.58865000  0.22998000  1.0
  C  C142  1  0.59088000  0.08864000  0.27003000  1.0
  C  C143  1  0.90913000  0.41135000  0.77002000  1.0
  C  C144  1  0.38607000  0.88628000  0.80462000  1.0
  C  C145  1  0.11394000  0.61372000  0.30462000  1.0
  C  C146  1  0.61393000  0.11372000  0.19538000  1.0
  C  C147  1  0.88607000  0.38629000  0.69538000  1.0
  C  C148  1  0.42118000  0.86971000  0.59173000  1.0
  C  C149  1  0.07883000  0.63028000  0.09173000  1.0
  C  C150  1  0.57882000  0.13028000  0.40827000  1.0
  C  C151  1  0.92118000  0.36971000  0.90827000  1.0
  N  N152  1  0.97416000  0.72048000  0.81414000  1.0
  N  N153  1  0.52584000  0.77952000  0.31414000  1.0
  N  N154  1  0.02584000  0.27951000  0.18586000  1.0
  N  N155  1  0.47416000  0.22049000  0.68586000  1.0
  O  O156  1  0.24769000  0.67468000  0.91932000  1.0
  O  O157  1  0.25232000  0.82532000  0.41933000  1.0
  O  O158  1  0.75231000  0.32531000  0.08068000  1.0
  O  O159  1  0.74769000  0.17468000  0.58068000  1.0
  O  O160  1  0.78922000  0.52100000  0.03145000  1.0
  O  O161  1  0.71078000  0.97900000  0.53145000  1.0
  O  O162  1  0.21079000  0.47900000  0.96855000  1.0
  O  O163  1  0.28922000  0.02100000  0.46855000  1.0
  O  O164  1  0.87780000  0.62623000  0.95597000  1.0
  O  O165  1  0.62221000  0.87378000  0.45597000  1.0
  O  O166  1  0.12221000  0.37378000  0.04403000  1.0
  O  O167  1  0.37780000  0.12623000  0.54403000  1.0
  O  O168  1  0.12347000  0.08480000  0.13585000  1.0
  O  O169  1  0.37652000  0.41519000  0.63585000  1.0
  O  O170  1  0.87652000  0.91519000  0.86415000  1.0
  O  O171  1  0.62347000  0.58481000  0.36415000  1.0
  O  O172  1  0.29560000  0.07720000  0.19177000  1.0
  O  O173  1  0.20439000  0.42280000  0.69176000  1.0
  O  O174  1  0.70439000  0.92280000  0.80824000  1.0
  O  O175  1  0.79560000  0.57720000  0.30824000  1.0
  O  O176  1  0.46221000  0.95014000  0.57491000  1.0
  O  O177  1  0.03779000  0.54986000  0.07492000  1.0
  O  O178  1  0.53780000  0.04987000  0.42509000  1.0
  O  O179  1  0.96221000  0.45014000  0.92508000  1.0
  O  O180  1  0.40283000  0.80985000  0.54104000  1.0
  O  O181  1  0.09718000  0.69015000  0.04104000  1.0
  O  O182  1  0.59718000  0.19015000  0.45896000  1.0
  O  O183  1  0.90282000  0.30985000  0.95896000  1.0
  O  O184  1  0.98201000  0.63557000  0.79851000  1.0
  O  O185  1  0.51799000  0.86443000  0.29852000  1.0
  O  O186  1  0.01799000  0.36443000  0.20148000  1.0
  O  O187  1  0.48201000  0.13557000  0.70149000  1.0
  O  O188  1  0.02794000  0.75166000  0.87167000  1.0
  O  O189  1  0.47206000  0.74834000  0.37168000  1.0
  O  O190  1  0.97206000  0.24834000  0.12832000  1.0
  O  O191  1  0.52794000  0.25166000  0.62832000  1.0
  O  O192  1  0.91424000  0.77146000  0.77458000  1.0
  O  O193  1  0.58575000  0.72853000  0.27459000  1.0
  O  O194  1  0.08575000  0.22853000  0.22541000  1.0
  O  O195  1  0.41425000  0.27147000  0.72542000  1.0
  O  O196  1  0.18396000  0.51736000  0.82212000  1.0
  O  O197  1  0.31604000  0.98264000  0.32212000  1.0
  O  O198  1  0.81604000  0.48264000  0.17788000  1.0
  O  O199  1  0.68396000  0.01736000  0.67788000  1.0
