# generated using pymatgen
data_Co2H13C15N5O11
_symmetry_space_group_name_H-M   'P 1'
_cell_length_a   9.40708000
_cell_length_b   12.45060000
_cell_length_c   18.69210000
_cell_angle_alpha   89.99920000
_cell_angle_beta   85.79160000
_cell_angle_gamma   89.99690000
_symmetry_Int_Tables_number   1
_chemical_formula_structural   Co2H13C15N5O11
_chemical_formula_sum   'Co8 H52 C60 N20 O44'
_cell_volume   2183.38667883
_cell_formula_units_Z   4
loop_
 _symmetry_equiv_pos_site_id
 _symmetry_equiv_pos_as_xyz
  1  'x, y, z'
loop_
 _atom_site_type_symbol
 _atom_site_label
 _atom_site_symmetry_multiplicity
 _atom_site_fract_x
 _atom_site_fract_y
 _atom_site_fract_z
 _atom_site_occupancy
  Co  Co0  1  0.74948000  0.14485000  0.24169000  1.0
  Co  Co1  1  0.75047000  0.64482000  0.25839000  1.0
  Co  Co2  1  0.25050000  0.85515000  0.75832000  1.0
  Co  Co3  1  0.24948000  0.35515000  0.74164000  1.0
  Co  Co4  1  0.93899000  0.18218000  0.07100000  1.0
  Co  Co5  1  0.56101000  0.68216000  0.42903000  1.0
  Co  Co6  1  0.06101000  0.81783000  0.92899000  1.0
  Co  Co7  1  0.43901000  0.31783000  0.57097000  1.0
  H  H8  1  0.65961000  0.44380000  0.45399000  1.0
  H  H9  1  0.84036000  0.94377000  0.04603000  1.0
  H  H10  1  0.34035000  0.55623000  0.54602000  1.0
  H  H11  1  0.15964000  0.05622000  0.95396000  1.0
  H  H12  1  0.77182000  0.95536000  0.34671000  1.0
  H  H13  1  0.72819000  0.45535000  0.15329000  1.0
  H  H14  1  0.22820000  0.04465000  0.65331000  1.0
  H  H15  1  0.27181000  0.54466000  0.84670000  1.0
  H  H16  1  0.27879000  0.04788000  0.14189000  1.0
  H  H17  1  0.22119000  0.54791000  0.35815000  1.0
  H  H18  1  0.72122000  0.95211000  0.85811000  1.0
  H  H19  1  0.77879000  0.45211000  0.64188000  1.0
  H  H20  1  0.22774000  0.75430000  0.32030000  1.0
  H  H21  1  0.27227000  0.25433000  0.17974000  1.0
  H  H22  1  0.77224000  0.24567000  0.67971000  1.0
  H  H23  1  0.72774000  0.74567000  0.82027000  1.0
  H  H24  1  0.76355000  0.34398000  0.34147000  1.0
  H  H25  1  0.73646000  0.84400000  0.15854000  1.0
  H  H26  1  0.23644000  0.65603000  0.65854000  1.0
  H  H27  1  0.26357000  0.15602000  0.84145000  1.0
  H  H28  1  0.63488000  0.97864000  0.58276000  1.0
  H  H29  1  0.86512000  0.47865000  0.91723000  1.0
  H  H30  1  0.36512000  0.02139000  0.41726000  1.0
  H  H31  1  0.13488000  0.52136000  0.08275000  1.0
  H  H32  1  0.59324000  0.11513000  0.60137000  1.0
  H  H33  1  0.90676000  0.61511000  0.89863000  1.0
  H  H34  1  0.40674000  0.88489000  0.39865000  1.0
  H  H35  1  0.09325000  0.38489000  0.10137000  1.0
  H  H36  1  0.81541000  0.38009000  0.02782000  1.0
  H  H37  1  0.68457000  0.88010000  0.47217000  1.0
  H  H38  1  0.18458000  0.61993000  0.97217000  1.0
  H  H39  1  0.31543000  0.11992000  0.52784000  1.0
  H  H40  1  0.85271000  0.29114000  0.96352000  1.0
  H  H41  1  0.64728000  0.79113000  0.53649000  1.0
  H  H42  1  0.14727000  0.70888000  0.03647000  1.0
  H  H43  1  0.35271000  0.20887000  0.46351000  1.0
  H  H44  1  0.75078000  0.09152000  0.97620000  1.0
  H  H45  1  0.74925000  0.59152000  0.52379000  1.0
  H  H46  1  0.24922000  0.90848000  0.02379000  1.0
  H  H47  1  0.25079000  0.40847000  0.47622000  1.0
  H  H48  1  0.89515000  0.03737000  0.94316000  1.0
  H  H49  1  0.60488000  0.53738000  0.55681000  1.0
  H  H50  1  0.10485000  0.96262000  0.05683000  1.0
  H  H51  1  0.39518000  0.46262000  0.44317000  1.0
  H  H52  1  0.67178000  0.23242000  0.13009000  1.0
  H  H53  1  0.82827000  0.73245000  0.36997000  1.0
  H  H54  1  0.32820000  0.76757000  0.86991000  1.0
  H  H55  1  0.17180000  0.26755000  0.63004000  1.0
  H  H56  1  0.67429000  0.10066000  0.11933000  1.0
  H  H57  1  0.82573000  0.60060000  0.38073000  1.0
  H  H58  1  0.32569000  0.89936000  0.88066000  1.0
  H  H59  1  0.17430000  0.39934000  0.61928000  1.0
  C  C60  1  0.71962000  0.20039000  0.39947000  1.0
  C  C61  1  0.78040000  0.70038000  0.10056000  1.0
  C  C62  1  0.28038000  0.79962000  0.60054000  1.0
  C  C63  1  0.21963000  0.29961000  0.89945000  1.0
  C  C64  1  0.66918000  0.35728000  0.44901000  1.0
  C  C65  1  0.83081000  0.85726000  0.05098000  1.0
  C  C66  1  0.33078000  0.64273000  0.55098000  1.0
  C  C67  1  0.16920000  0.14273000  0.94900000  1.0
  C  C68  1  0.66369000  0.18661000  0.47039000  1.0
  C  C69  1  0.83632000  0.68658000  0.02961000  1.0
  C  C70  1  0.33628000  0.81340000  0.52961000  1.0
  C  C71  1  0.16373000  0.31340000  0.97037000  1.0
  C  C72  1  0.66494000  0.08034000  0.49762000  1.0
  C  C73  1  0.83504000  0.58035000  0.00239000  1.0
  C  C74  1  0.33505000  0.91967000  0.50240000  1.0
  C  C75  1  0.16498000  0.41965000  0.99760000  1.0
  C  C76  1  0.74522000  0.02322000  0.38183000  1.0
  C  C77  1  0.75481000  0.52322000  0.11819000  1.0
  C  C78  1  0.25481000  0.97680000  0.61819000  1.0
  C  C79  1  0.24522000  0.47678000  0.88181000  1.0
  C  C80  1  0.00763000  0.00971000  0.18017000  1.0
  C  C81  1  0.49237000  0.50965000  0.31985000  1.0
  C  C82  1  0.99235000  0.99029000  0.81983000  1.0
  C  C83  1  0.50763000  0.49033000  0.68012000  1.0
  C  C84  1  0.13072000  0.94612000  0.20385000  1.0
  C  C85  1  0.36927000  0.44605000  0.29621000  1.0
  C  C86  1  0.86931000  0.05389000  0.79615000  1.0
  C  C87  1  0.63070000  0.55394000  0.70379000  1.0
  C  C88  1  0.26760000  0.98119000  0.17975000  1.0
  C  C89  1  0.23238000  0.48119000  0.32030000  1.0
  C  C90  1  0.73243000  0.01879000  0.82024000  1.0
  C  C91  1  0.76757000  0.51882000  0.67971000  1.0
  C  C92  1  0.38988000  0.93786000  0.20648000  1.0
  C  C93  1  0.11007000  0.43787000  0.29356000  1.0
  C  C94  1  0.61014000  0.06211000  0.79351000  1.0
  C  C95  1  0.88988000  0.56214000  0.70643000  1.0
  C  C96  1  0.52936000  0.99321000  0.18731000  1.0
  C  C97  1  0.97057000  0.49324000  0.31276000  1.0
  C  C98  1  0.47064000  0.00677000  0.81269000  1.0
  C  C99  1  0.02939000  0.50679000  0.68725000  1.0
  C  C100  1  0.23859000  0.81860000  0.28067000  1.0
  C  C101  1  0.26141000  0.31857000  0.21939000  1.0
  C  C102  1  0.76144000  0.18139000  0.71933000  1.0
  C  C103  1  0.73856000  0.68141000  0.78062000  1.0
  C  C104  1  0.11574000  0.86311000  0.25511000  1.0
  C  C105  1  0.38425000  0.36306000  0.24495000  1.0
  C  C106  1  0.88430000  0.13689000  0.74489000  1.0
  C  C107  1  0.61571000  0.63694000  0.75504000  1.0
  C  C108  1  0.97664000  0.81232000  0.28299000  1.0
  C  C109  1  0.52335000  0.31234000  0.21704000  1.0
  C  C110  1  0.02337000  0.18763000  0.71698000  1.0
  C  C111  1  0.47664000  0.68767000  0.78297000  1.0
  C  C112  1  0.37506000  0.85440000  0.25704000  1.0
  C  C113  1  0.12494000  0.35439000  0.24301000  1.0
  C  C114  1  0.62497000  0.14557000  0.74295000  1.0
  C  C115  1  0.87503000  0.64561000  0.75699000  1.0
  C  C116  1  0.49911000  0.79820000  0.28642000  1.0
  C  C117  1  0.00083000  0.29818000  0.21366000  1.0
  C  C118  1  0.50086000  0.20180000  0.71361000  1.0
  C  C119  1  0.99913000  0.70182000  0.78635000  1.0
  N  N120  1  0.75530000  0.12110000  0.35238000  1.0
  N  N121  1  0.74472000  0.62111000  0.14765000  1.0
  N  N122  1  0.24472000  0.87892000  0.64764000  1.0
  N  N123  1  0.25530000  0.37891000  0.85235000  1.0
  N  N124  1  0.72524000  0.30887000  0.38825000  1.0
  N  N125  1  0.77478000  0.80886000  0.11176000  1.0
  N  N126  1  0.27475000  0.69115000  0.61176000  1.0
  N  N127  1  0.22525000  0.19114000  0.88823000  1.0
  N  N128  1  0.62758000  0.28680000  0.50009000  1.0
  N  N129  1  0.87238000  0.78679000  0.99991000  1.0
  N  N130  1  0.37236000  0.71320000  0.49990000  1.0
  N  N131  1  0.12763000  0.21322000  0.00008000  1.0
  N  N132  1  0.62977000  0.05560000  0.56599000  1.0
  N  N133  1  0.87022000  0.55561000  0.93402000  1.0
  N  N134  1  0.37025000  0.94443000  0.43403000  1.0
  N  N135  1  0.12980000  0.44440000  0.06597000  1.0
  N  N136  1  0.70688000  0.00097000  0.45053000  1.0
  N  N137  1  0.79312000  0.50099000  0.04949000  1.0
  N  N138  1  0.29314000  0.99905000  0.54949000  1.0
  N  N139  1  0.20689000  0.49902000  0.95051000  1.0
  O  O140  1  0.90684000  0.02975000  0.22615000  1.0
  O  O141  1  0.59317000  0.52969000  0.27386000  1.0
  O  O142  1  0.09315000  0.97024000  0.77385000  1.0
  O  O143  1  0.40684000  0.47026000  0.72607000  1.0
  O  O144  1  0.01832000  0.04459000  0.11448000  1.0
  O  O145  1  0.48168000  0.54458000  0.38554000  1.0
  O  O146  1  0.98167000  0.95542000  0.88552000  1.0
  O  O147  1  0.51836000  0.45543000  0.61443000  1.0
  O  O148  1  0.59715000  0.02349000  0.24057000  1.0
  O  O149  1  0.90274000  0.52351000  0.25951000  1.0
  O  O150  1  0.40286000  0.97652000  0.75942000  1.0
  O  O151  1  0.09719000  0.47653000  0.74051000  1.0
  O  O152  1  0.56550000  0.01063000  0.12150000  1.0
  O  O153  1  0.93448000  0.51062000  0.37857000  1.0
  O  O154  1  0.43447000  0.98939000  0.87850000  1.0
  O  O155  1  0.06552000  0.48939000  0.62144000  1.0
  O  O156  1  0.90953000  0.76037000  0.23705000  1.0
  O  O157  1  0.59055000  0.26040000  0.26295000  1.0
  O  O158  1  0.09056000  0.23958000  0.76289000  1.0
  O  O159  1  0.40945000  0.73961000  0.73706000  1.0
  O  O160  1  0.94303000  0.81793000  0.34970000  1.0
  O  O161  1  0.55692000  0.31793000  0.15034000  1.0
  O  O162  1  0.05693000  0.18204000  0.65028000  1.0
  O  O163  1  0.44306000  0.68206000  0.84967000  1.0
  O  O164  1  0.60249000  0.76885000  0.24412000  1.0
  O  O165  1  0.89754000  0.26880000  0.25598000  1.0
  O  O166  1  0.39753000  0.23117000  0.75591000  1.0
  O  O167  1  0.10243000  0.73120000  0.74401000  1.0
  O  O168  1  0.48458000  0.77959000  0.35420000  1.0
  O  O169  1  0.01527000  0.27962000  0.14586000  1.0
  O  O170  1  0.51532000  0.22039000  0.64581000  1.0
  O  O171  1  0.98470000  0.72038000  0.85414000  1.0
  O  O172  1  0.83595000  0.29981000  0.01506000  1.0
  O  O173  1  0.66401000  0.79981000  0.48493000  1.0
  O  O174  1  0.16405000  0.70020000  0.98493000  1.0
  O  O175  1  0.33597000  0.20021000  0.51506000  1.0
  O  O176  1  0.85235000  0.08594000  0.98206000  1.0
  O  O177  1  0.64770000  0.58594000  0.51793000  1.0
  O  O178  1  0.14766000  0.91407000  0.01793000  1.0
  O  O179  1  0.35237000  0.41403000  0.48204000  1.0
  O  O180  1  0.73835000  0.16613000  0.12890000  1.0
  O  O181  1  0.76166000  0.66612000  0.37115000  1.0
  O  O182  1  0.26164000  0.83388000  0.87110000  1.0
  O  O183  1  0.23834000  0.33385000  0.62887000  1.0
