# generated using pymatgen
data_Er2MnH28(C8O9)2
_symmetry_space_group_name_H-M   'P 1'
_cell_length_a   8.86276000
_cell_length_b   9.05956000
_cell_length_c   10.56900000
_cell_angle_alpha   81.67020000
_cell_angle_beta   71.53270000
_cell_angle_gamma   77.32100000
_symmetry_Int_Tables_number   1
_chemical_formula_structural   Er2MnH28(C8O9)2
_chemical_formula_sum   'Er2 Mn1 H28 C16 O18'
_cell_volume   782.67882588
_cell_formula_units_Z   1
loop_
 _symmetry_equiv_pos_site_id
 _symmetry_equiv_pos_as_xyz
  1  'x, y, z'
loop_
 _atom_site_type_symbol
 _atom_site_label
 _atom_site_symmetry_multiplicity
 _atom_site_fract_x
 _atom_site_fract_y
 _atom_site_fract_z
 _atom_site_occupancy
  Er  Er0  1  0.08382000  0.92198000  0.81854000  1.0
  Er  Er1  1  0.91618000  0.07802000  0.18145000  1.0
  Mn  Mn2  1  0.00001000  0.00000000  0.50000000  1.0
  H  H3  1  0.50488000  0.12554000  0.93147000  1.0
  H  H4  1  0.49515000  0.87443000  0.06853000  1.0
  H  H5  1  0.47007000  0.10873000  0.77580000  1.0
  H  H6  1  0.52992000  0.89124000  0.22421000  1.0
  H  H7  1  0.53618000  0.27107000  0.79848000  1.0
  H  H8  1  0.46382000  0.72891000  0.20152000  1.0
  H  H9  1  0.26679000  0.26316000  0.42974000  1.0
  H  H10  1  0.73319000  0.73685000  0.57025000  1.0
  H  H11  1  0.43546000  0.10867000  0.41637000  1.0
  H  H12  1  0.56452000  0.89134000  0.58362000  1.0
  H  H13  1  0.41558000  0.25591000  0.51504000  1.0
  H  H14  1  0.58441000  0.74410000  0.48495000  1.0
  H  H15  1  0.81112000  0.67982000  0.24867000  1.0
  H  H16  1  0.18886000  0.32022000  0.75133000  1.0
  H  H17  1  0.94180000  0.52996000  0.14898000  1.0
  H  H18  1  0.05820000  0.47006000  0.85102000  1.0
  H  H19  1  0.74796000  0.59894000  0.13275000  1.0
  H  H20  1  0.25203000  0.40108000  0.86725000  1.0
  H  H21  1  0.35286000  0.52009000  0.52841000  1.0
  H  H22  1  0.64714000  0.47989000  0.47161000  1.0
  H  H23  1  0.24869000  0.65234000  0.42603000  1.0
  H  H24  1  0.75132000  0.34764000  0.57399000  1.0
  H  H25  1  0.14367000  0.52503000  0.54754000  1.0
  H  H26  1  0.85634000  0.47496000  0.45248000  1.0
  H  H27  1  0.38416000  0.81197000  0.88466000  1.0
  H  H28  1  0.61585000  0.18803000  0.11534000  1.0
  H  H29  1  0.25520000  0.87759000  0.01989000  1.0
  H  H30  1  0.74481000  0.12242000  0.98010000  1.0
  C  C31  1  0.72173000  0.07440000  0.76335000  1.0
  C  C32  1  0.27827000  0.92559000  0.23665000  1.0
  C  C33  1  0.91831000  0.74478000  0.03995000  1.0
  C  C34  1  0.08169000  0.25524000  0.96004000  1.0
  C  C35  1  0.25167000  0.10248000  0.60229000  1.0
  C  C36  1  0.74833000  0.89752000  0.39770000  1.0
  C  C37  1  0.54723000  0.14755000  0.82242000  1.0
  C  C38  1  0.45277000  0.85242000  0.17758000  1.0
  C  C39  1  0.18810000  0.70938000  0.62692000  1.0
  C  C40  1  0.81192000  0.29060000  0.37309000  1.0
  C  C41  1  0.34599000  0.18964000  0.48351000  1.0
  C  C42  1  0.65400000  0.81037000  0.51648000  1.0
  C  C43  1  0.84962000  0.63382000  0.15118000  1.0
  C  C44  1  0.15037000  0.36622000  0.84882000  1.0
  C  C45  1  0.23799000  0.59377000  0.52606000  1.0
  C  C46  1  0.76202000  0.40621000  0.47395000  1.0
  O  O47  1  0.09892000  0.10576000  0.62182000  1.0
  O  O48  1  0.90107000  0.89424000  0.37817000  1.0
  O  O49  1  0.05556000  0.80868000  0.63505000  1.0
  O  O50  1  0.94445000  0.19132000  0.36495000  1.0
  O  O51  1  0.27169000  0.82255000  0.93875000  1.0
  O  O52  1  0.72832000  0.17745000  0.06125000  1.0
  O  O53  1  0.94141000  0.87317000  0.06362000  1.0
  O  O54  1  0.05859000  0.12684000  0.93638000  1.0
  O  O55  1  0.31892000  0.02304000  0.68597000  1.0
  O  O56  1  0.68109000  0.97697000  0.31401000  1.0
  O  O57  1  0.81213000  0.03488000  0.84143000  1.0
  O  O58  1  0.18788000  0.96513000  0.15856000  1.0
  O  O59  1  0.95893000  0.71251000  0.91964000  1.0
  O  O60  1  0.04105000  0.28750000  0.08036000  1.0
  O  O61  1  0.76957000  0.05854000  0.63916000  1.0
  O  O62  1  0.23043000  0.94145000  0.36083000  1.0
  O  O63  1  0.27002000  0.71176000  0.70481000  1.0
  O  O64  1  0.72998000  0.28823000  0.29521000  1.0
