# generated using pymatgen
data_UH6C3SeN2O7
_symmetry_space_group_name_H-M   'P 1'
_cell_length_a   8.88738000
_cell_length_b   10.01560000
_cell_length_c   10.63860000
_cell_angle_alpha   90.00010000
_cell_angle_beta   90.00000000
_cell_angle_gamma   89.61280000
_symmetry_Int_Tables_number   1
_chemical_formula_structural   UH6C3SeN2O7
_chemical_formula_sum   'U4 H24 C12 Se4 N8 O28'
_cell_volume   946.94615381
_cell_formula_units_Z   4
loop_
 _symmetry_equiv_pos_site_id
 _symmetry_equiv_pos_as_xyz
  1  'x, y, z'
loop_
 _atom_site_type_symbol
 _atom_site_label
 _atom_site_symmetry_multiplicity
 _atom_site_fract_x
 _atom_site_fract_y
 _atom_site_fract_z
 _atom_site_occupancy
  U  U0  1  0.88648000  0.81324000  0.79030000  1.0
  U  U1  1  0.61352000  0.68676000  0.29030000  1.0
  U  U2  1  0.11353000  0.18676000  0.20970000  1.0
  U  U3  1  0.38648000  0.31324000  0.70970000  1.0
  H  H4  1  0.27502000  0.51477000  0.97217000  1.0
  H  H5  1  0.22498000  0.98523000  0.47217000  1.0
  H  H6  1  0.72498000  0.48523000  0.02783000  1.0
  H  H7  1  0.77502000  0.01477000  0.52783000  1.0
  H  H8  1  0.31831000  0.52137000  0.13552000  1.0
  H  H9  1  0.18169000  0.97863000  0.63552000  1.0
  H  H10  1  0.68169000  0.47863000  0.86448000  1.0
  H  H11  1  0.81831000  0.02137000  0.36448000  1.0
  H  H12  1  0.60332000  0.99410000  0.81658000  1.0
  H  H13  1  0.89668000  0.50590000  0.31658000  1.0
  H  H14  1  0.39668000  0.00590000  0.18343000  1.0
  H  H15  1  0.10332000  0.49410000  0.68342000  1.0
  H  H16  1  0.41276000  0.00824000  0.85417000  1.0
  H  H17  1  0.08723000  0.49176000  0.35417000  1.0
  H  H18  1  0.58724000  0.99176000  0.14583000  1.0
  H  H19  1  0.91277000  0.50824000  0.64583000  1.0
  H  H20  1  0.33858000  0.67931000  0.83740000  1.0
  H  H21  1  0.16142000  0.82069000  0.33740000  1.0
  H  H22  1  0.66142000  0.32069000  0.16260000  1.0
  H  H23  1  0.83858000  0.17931000  0.66260000  1.0
  H  H24  1  0.27284000  0.82559000  0.91334000  1.0
  H  H25  1  0.22716000  0.67441000  0.41334000  1.0
  H  H26  1  0.72716000  0.17441000  0.08666000  1.0
  H  H27  1  0.77284000  0.32559000  0.58666000  1.0
  C  C28  1  0.51186000  0.82051000  0.87406000  1.0
  C  C29  1  0.98814000  0.67949000  0.37406000  1.0
  C  C30  1  0.48814000  0.17949000  0.12594000  1.0
  C  C31  1  0.01186000  0.32051000  0.62594000  1.0
  C  C32  1  0.36619000  0.75300000  0.91030000  1.0
  C  C33  1  0.13381000  0.74700000  0.41030000  1.0
  C  C34  1  0.63380000  0.24700000  0.08970000  1.0
  C  C35  1  0.86620000  0.25300000  0.58970000  1.0
  C  C36  1  0.37504000  0.68486000  0.03674000  1.0
  C  C37  1  0.12496000  0.81514000  0.53674000  1.0
  C  C38  1  0.62496000  0.31514000  0.96326000  1.0
  C  C39  1  0.87504000  0.18486000  0.46326000  1.0
  Se  Se40  1  0.10833000  0.10471000  0.88600000  1.0
  Se  Se41  1  0.39167000  0.39529000  0.38600000  1.0
  Se  Se42  1  0.89167000  0.89529000  0.11400000  1.0
  Se  Se43  1  0.60834000  0.60471000  0.61400000  1.0
  N  N44  1  0.31422000  0.56553000  0.04878000  1.0
  N  N45  1  0.18578000  0.93447000  0.54878000  1.0
  N  N46  1  0.68578000  0.43447000  0.95122000  1.0
  N  N47  1  0.81422000  0.06553000  0.45122000  1.0
  N  N48  1  0.50792000  0.94926000  0.84810000  1.0
  N  N49  1  0.99208000  0.55074000  0.34810000  1.0
  N  N50  1  0.49208000  0.05074000  0.15190000  1.0
  N  N51  1  0.00792000  0.44926000  0.65190000  1.0
  O  O52  1  0.79247000  0.94232000  0.69509000  1.0
  O  O53  1  0.70753000  0.55768000  0.19510000  1.0
  O  O54  1  0.20753000  0.05768000  0.30490000  1.0
  O  O55  1  0.29247000  0.44232000  0.80491000  1.0
  O  O56  1  0.97111000  0.68904000  0.89370000  1.0
  O  O57  1  0.52889000  0.81096000  0.39370000  1.0
  O  O58  1  0.02889000  0.31096000  0.10630000  1.0
  O  O59  1  0.47111000  0.18904000  0.60630000  1.0
  O  O60  1  0.09785000  0.95465000  0.80749000  1.0
  O  O61  1  0.40215000  0.54535000  0.30749000  1.0
  O  O62  1  0.90215000  0.04535000  0.19251000  1.0
  O  O63  1  0.59786000  0.45465000  0.69251000  1.0
  O  O64  1  0.15547000  0.05193000  0.03684000  1.0
  O  O65  1  0.34454000  0.44807000  0.53684000  1.0
  O  O66  1  0.84453000  0.94807000  0.96316000  1.0
  O  O67  1  0.65547000  0.55193000  0.46316000  1.0
  O  O68  1  0.28574000  0.14848000  0.83623000  1.0
  O  O69  1  0.21427000  0.35152000  0.33623000  1.0
  O  O70  1  0.71426000  0.85152000  0.16376000  1.0
  O  O71  1  0.78574000  0.64848000  0.66377000  1.0
  O  O72  1  0.63128000  0.75034000  0.86542000  1.0
  O  O73  1  0.86872000  0.74966000  0.36541000  1.0
  O  O74  1  0.36872000  0.24966000  0.13458000  1.0
  O  O75  1  0.13128000  0.25034000  0.63458000  1.0
  O  O76  1  0.43488000  0.74571000  0.12875000  1.0
  O  O77  1  0.06512000  0.75429000  0.62875000  1.0
  O  O78  1  0.56512000  0.25429000  0.87125000  1.0
  O  O79  1  0.93488000  0.24571000  0.37125000  1.0
