# generated using pymatgen
data_Zn2H8C27N2(Cl5O4)2
_symmetry_space_group_name_H-M   'P 1'
_cell_length_a   10.08060000
_cell_length_b   10.96830000
_cell_length_c   25.90040000
_cell_angle_alpha   90.60900000
_cell_angle_beta   90.84000000
_cell_angle_gamma   90.37360000
_symmetry_Int_Tables_number   1
_chemical_formula_structural   Zn2H8C27N2(Cl5O4)2
_chemical_formula_sum   'Zn4 H16 C54 N4 Cl20 O16'
_cell_volume   2863.19735212
_cell_formula_units_Z   2
loop_
 _symmetry_equiv_pos_site_id
 _symmetry_equiv_pos_as_xyz
  1  'x, y, z'
loop_
 _atom_site_type_symbol
 _atom_site_label
 _atom_site_symmetry_multiplicity
 _atom_site_fract_x
 _atom_site_fract_y
 _atom_site_fract_z
 _atom_site_occupancy
  Zn  Zn0  1  0.36609000  0.48760000  0.49950000  1.0
  Zn  Zn1  1  0.65256000  0.48326000  0.50182000  1.0
  Zn  Zn2  1  0.62188000  0.47993000  0.08044000  1.0
  Zn  Zn3  1  0.33585000  0.47252000  0.07753000  1.0
  H  H4  1  0.73020000  0.47741000  0.66666667  1.0
  H  H5  1  0.32688000  0.58976000  0.65391000  1.0
  H  H6  1  0.27667000  0.58617000  0.91423000  1.0
  H  H7  1  0.67594000  0.46320000  0.92682000  1.0
  H  H8  1  0.86854000  0.52269000  0.89130000  1.0
  H  H9  1  0.83604000  0.36603000  0.88067000  1.0
  H  H10  1  0.94936000  0.44318000  0.84106000  1.0
  H  H11  1  0.96648000  0.45715000  0.77050000  1.0
  H  H12  1  0.87415000  0.37488000  0.72296000  1.0
  H  H13  1  0.90080000  0.53329000  0.71618000  1.0
  H  H14  1  0.18978000  0.75031000  0.86820000  1.0
  H  H15  1  0.08631000  0.72824000  0.81299000  1.0
  H  H16  1  0.10459000  0.61059000  0.85844000  1.0
  H  H17  1  0.22624000  0.74960000  0.69377000  1.0
  H  H18  1  0.13150000  0.61420000  0.69890000  1.0
  H  H19  1  0.10498000  0.73702000  0.74213000  1.0
  C  C20  1  0.48748000  0.25096000  0.50038000  1.0
  C  C21  1  0.53182000  0.50697000  0.59941000  1.0
  C  C22  1  0.48530000  0.72005000  0.50146000  1.0
  C  C23  1  0.52792000  0.46274000  0.40227000  1.0
  C  C24  1  0.49693000  0.24220000  0.07928000  1.0
  C  C25  1  0.45889000  0.49467000  0.98064000  1.0
  C  C26  1  0.49397000  0.71081000  0.07846000  1.0
  C  C27  1  0.46902000  0.45347000  0.17710000  1.0
  C  C28  1  0.07715000  0.55785000  0.46872000  1.0
  C  C29  1  0.94163000  0.40939000  0.53263000  1.0
  C  C30  1  0.93707000  0.56149000  0.47156000  1.0
  C  C31  1  0.08198000  0.41199000  0.53260000  1.0
  C  C32  1  0.48791000  0.85769000  0.50147000  1.0
  C  C33  1  0.48491000  0.11324000  0.50071000  1.0
  C  C34  1  0.48415000  0.91946000  0.45452000  1.0
  C  C35  1  0.48857000  0.05126000  0.54772000  1.0
  C  C36  1  0.48340000  0.04743000  0.45406000  1.0
  C  C37  1  0.49051000  0.92329000  0.54812000  1.0
  C  C38  1  0.64086000  0.50610000  0.68637000  1.0
  C  C39  1  0.63749000  0.51577000  0.74036000  1.0
  C  C40  1  0.75283000  0.48783000  0.77216000  1.0
  C  C41  1  0.41148000  0.57066000  0.67901000  1.0
  C  C42  1  0.40412000  0.58662000  0.73274000  1.0
  C  C43  1  0.28666000  0.63552000  0.75706000  1.0
  C  C44  1  0.36904000  0.56551000  0.89487000  1.0
  C  C45  1  0.38251000  0.58359000  0.84155000  1.0
  C  C46  1  0.27604000  0.63406000  0.81015000  1.0
  C  C47  1  0.59640000  0.49541000  0.90182000  1.0
  C  C48  1  0.61498000  0.51024000  0.84877000  1.0
  C  C49  1  0.74151000  0.48431000  0.82513000  1.0
  C  C50  1  0.52776000  0.52869000  0.65630000  1.0
  C  C51  1  0.51609000  0.55241000  0.76368000  1.0
  C  C52  1  0.47404000  0.51913000  0.92438000  1.0
  C  C53  1  0.50497000  0.55042000  0.81813000  1.0
  C  C54  1  0.51643000  0.43567000  0.34472000  1.0
  C  C55  1  0.48352000  0.42700000  0.23436000  1.0
  C  C56  1  0.39117000  0.41083000  0.32144000  1.0
  C  C57  1  0.61105000  0.42388000  0.25795000  1.0
  C  C58  1  0.37364000  0.41341000  0.26724000  1.0
  C  C59  1  0.62721000  0.43753000  0.31190000  1.0
  C  C60  1  0.91195000  0.55438000  0.11035000  1.0
  C  C61  1  0.04588000  0.39957000  0.04791000  1.0
  C  C62  1  0.05250000  0.54993000  0.11115000  1.0
  C  C63  1  0.90557000  0.40257000  0.04767000  1.0
  C  C64  1  0.49171000  0.84855000  0.07854000  1.0
  C  C65  1  0.49766000  0.10438000  0.07920000  1.0
  C  C66  1  0.49196000  0.91299000  0.12546000  1.0
  C  C67  1  0.49796000  0.03977000  0.03228000  1.0
  C  C68  1  0.49442000  0.04104000  0.12585000  1.0
  C  C69  1  0.49405000  0.91180000  0.03187000  1.0
  C  C70  1  0.85504000  0.45264000  0.86091000  1.0
  C  C71  1  0.88026000  0.46192000  0.74452000  1.0
  C  C72  1  0.15807000  0.68354000  0.83842000  1.0
  C  C73  1  0.18170000  0.68690000  0.72159000  1.0
  N  N74  1  0.14705000  0.48438000  0.49989000  1.0
  N  N75  1  0.87184000  0.48506000  0.50245000  1.0
  N  N76  1  0.84104000  0.47971000  0.07895000  1.0
  N  N77  1  0.11682000  0.47316000  0.07971000  1.0
  Cl  Cl78  1  0.15670000  0.64581000  0.42576000  1.0
  Cl  Cl79  1  0.86048000  0.31039000  0.57087000  1.0
  Cl  Cl80  1  0.85063000  0.66394000  0.43657000  1.0
  Cl  Cl81  1  0.16894000  0.32456000  0.57438000  1.0
  Cl  Cl82  1  0.47948000  0.83667000  0.39756000  1.0
  Cl  Cl83  1  0.49002000  0.13367000  0.60480000  1.0
  Cl  Cl84  1  0.48306000  0.12431000  0.39658000  1.0
  Cl  Cl85  1  0.49585000  0.84508000  0.60541000  1.0
  Cl  Cl86  1  0.25641000  0.37147000  0.35778000  1.0
  Cl  Cl87  1  0.75127000  0.39625000  0.22272000  1.0
  Cl  Cl88  1  0.21384000  0.39863000  0.24377000  1.0
  Cl  Cl89  1  0.78657000  0.45847000  0.33505000  1.0
  Cl  Cl90  1  0.83304000  0.65457000  0.14893000  1.0
  Cl  Cl91  1  0.12578000  0.30257000  0.00803000  1.0
  Cl  Cl92  1  0.14061000  0.64188000  0.15180000  1.0
  Cl  Cl93  1  0.81766000  0.30882000  0.00747000  1.0
  Cl  Cl94  1  0.49134000  0.83347000  0.18248000  1.0
  Cl  Cl95  1  0.50439000  0.11911000  0.97524000  1.0
  Cl  Cl96  1  0.49213000  0.12103000  0.18331000  1.0
  Cl  Cl97  1  0.49133000  0.83095000  0.97453000  1.0
  O  O98  1  0.37791000  0.30357000  0.49088000  1.0
  O  O99  1  0.59895000  0.29991000  0.50966000  1.0
  O  O100  1  0.64593000  0.50832000  0.57854000  1.0
  O  O101  1  0.42170000  0.48735000  0.57591000  1.0
  O  O102  1  0.59512000  0.66666667  0.49619000  1.0
  O  O103  1  0.37124000  0.67249000  0.50633000  1.0
  O  O104  1  0.42623000  0.50683000  0.42351000  1.0
  O  O105  1  0.63806000  0.44295000  0.42510000  1.0
  O  O106  1  0.60608000  0.29532000  0.09046000  1.0
  O  O107  1  0.38681000  0.29028000  0.06810000  1.0
  O  O108  1  0.34378000  0.50407000  0.00018000  1.0
  O  O109  1  0.56361000  0.46431000  0.00546000  1.0
  O  O110  1  0.38481000  0.65658000  0.08578000  1.0
  O  O111  1  0.60699000  0.66411000  0.07131000  1.0
  O  O112  1  0.56870000  0.50265000  0.15608000  1.0
  O  O113  1  0.35905000  0.43095000  0.15439000  1.0
