# generated using pymatgen
data_CuH14C12NO4
_symmetry_space_group_name_H-M   'P 1'
_cell_length_a   8.95932000
_cell_length_b   12.42590000
_cell_length_c   14.45304739
_cell_angle_alpha   115.44890879
_cell_angle_beta   96.09020561
_cell_angle_gamma   90.01430000
_symmetry_Int_Tables_number   1
_chemical_formula_structural   CuH14C12NO4
_chemical_formula_sum   'Cu4 H56 C48 N4 O16'
_cell_volume   1442.81388894
_cell_formula_units_Z   4
loop_
 _symmetry_equiv_pos_site_id
 _symmetry_equiv_pos_as_xyz
  1  'x, y, z'
loop_
 _atom_site_type_symbol
 _atom_site_label
 _atom_site_symmetry_multiplicity
 _atom_site_fract_x
 _atom_site_fract_y
 _atom_site_fract_z
 _atom_site_occupancy
  Cu  Cu0  1  0.91523000  0.42883000  0.42020000  1.0
  Cu  Cu1  1  0.58463000  0.00855000  0.57978000  1.0
  Cu  Cu2  1  0.08477000  0.57116000  0.57979000  1.0
  Cu  Cu3  1  0.41538000  0.99146000  0.42021000  1.0
  H  H4  1  0.71462000  0.20927000  0.36972000  1.0
  H  H5  1  0.78518000  0.83955000  0.63013000  1.0
  H  H6  1  0.28538000  0.79073000  0.63029000  1.0
  H  H7  1  0.21483000  0.16046000  0.36987000  1.0
  H  H8  1  0.53450000  0.06332000  0.22912000  1.0
  H  H9  1  0.96547000  0.83419000  0.77065000  1.0
  H  H10  1  0.46551000  0.93668000  0.77088000  1.0
  H  H11  1  0.03452000  0.16580000  0.22935000  1.0
  H  H12  1  0.63114000  0.24381000  0.04277000  1.0
  H  H13  1  0.86817000  0.20069000  0.95733000  1.0
  H  H14  1  0.36886000  0.75618000  0.95723000  1.0
  H  H15  1  0.13181000  0.79930000  0.04267000  1.0
  H  H16  1  0.81183000  0.38184000  0.19302000  1.0
  H  H17  1  0.68785000  0.18864000  0.80699000  1.0
  H  H18  1  0.18817000  0.61816000  0.80699000  1.0
  H  H19  1  0.31214000  0.81135000  0.19300000  1.0
  H  H20  1  0.40985000  0.09921000  0.98779000  1.0
  H  H21  1  0.09025000  0.11124000  0.01187000  1.0
  H  H22  1  0.59015000  0.90079000  0.01222000  1.0
  H  H23  1  0.90974000  0.88876000  0.98813000  1.0
  H  H24  1  0.36780000  0.02668000  0.06497000  1.0
  H  H25  1  0.13191000  0.96145000  0.93479000  1.0
  H  H26  1  0.63221000  0.97332000  0.93504000  1.0
  H  H27  1  0.86808000  0.03855000  0.06521000  1.0
  H  H28  1  0.02838000  0.01716000  0.60103000  1.0
  H  H29  1  0.47134000  0.41591000  0.39878000  1.0
  H  H30  1  0.97163000  0.98285000  0.39897000  1.0
  H  H31  1  0.52866000  0.58408000  0.60122000  1.0
  H  H32  1  0.13453000  0.97817000  0.69214000  1.0
  H  H33  1  0.36506000  0.28590000  0.30767000  1.0
  H  H34  1  0.86549000  0.02182000  0.30785000  1.0
  H  H35  1  0.63494000  0.71410000  0.69234000  1.0
  H  H36  1  0.23224000  0.18327000  0.79639000  1.0
  H  H37  1  0.26734000  0.38690000  0.20354000  1.0
  H  H38  1  0.76775000  0.81673000  0.20361000  1.0
  H  H39  1  0.73266000  0.61309000  0.79647000  1.0
  H  H40  1  0.03367000  0.18088000  0.77555000  1.0
  H  H41  1  0.46592000  0.40530000  0.22431000  1.0
  H  H42  1  0.96633000  0.81911000  0.22444000  1.0
  H  H43  1  0.53408000  0.59469000  0.77569000  1.0
  H  H44  1  0.03296000  0.15946000  0.54061000  1.0
  H  H45  1  0.46670000  0.61877000  0.45938000  1.0
  H  H46  1  0.96703000  0.84053000  0.45939000  1.0
  H  H47  1  0.53329000  0.38125000  0.54063000  1.0
  H  H48  1  0.91229000  0.23844000  0.63185000  1.0
  H  H49  1  0.58753000  0.60647000  0.36819000  1.0
  H  H50  1  0.08771000  0.76156000  0.36815000  1.0
  H  H51  1  0.41246000  0.39353000  0.63181000  1.0
  H  H52  1  0.25818000  0.25746000  0.66601000  1.0
  H  H53  1  0.24163000  0.59144000  0.33391000  1.0
  H  H54  1  0.74181000  0.74256000  0.33400000  1.0
  H  H55  1  0.75836000  0.40855000  0.66609000  1.0
  H  H56  1  0.14607000  0.35174000  0.75787000  1.0
  H  H57  1  0.35390000  0.59386000  0.24209000  1.0
  H  H58  1  0.85392000  0.64827000  0.24213000  1.0
  H  H59  1  0.64609000  0.40613000  0.75791000  1.0
  C  C60  1  0.69389000  0.21290000  0.29547000  1.0
  C  C61  1  0.80586000  0.91737000  0.70443000  1.0
  C  C62  1  0.30612000  0.78711000  0.70454000  1.0
  C  C63  1  0.19414000  0.08263000  0.29556000  1.0
  C  C64  1  0.59274000  0.13176000  0.21610000  1.0
  C  C65  1  0.90705000  0.91557000  0.78373000  1.0
  C  C66  1  0.40727000  0.86823000  0.78390000  1.0
  C  C67  1  0.09294000  0.08443000  0.21627000  1.0
  C  C68  1  0.56711000  0.14135000  0.12281000  1.0
  C  C69  1  0.93256000  0.01837000  0.87712000  1.0
  C  C70  1  0.43290000  0.85865000  0.87719000  1.0
  C  C71  1  0.06743000  0.98164000  0.12289000  1.0
  C  C72  1  0.64812000  0.23211000  0.11368000  1.0
  C  C73  1  0.85136000  0.11816000  0.88636000  1.0
  C  C74  1  0.35189000  0.76788000  0.88632000  1.0
  C  C75  1  0.14863000  0.88184000  0.11364000  1.0
  C  C76  1  0.74822000  0.30893000  0.19650000  1.0
  C  C77  1  0.75140000  0.11227000  0.80351000  1.0
  C  C78  1  0.25179000  0.69106000  0.80350000  1.0
  C  C79  1  0.24859000  0.88772000  0.19648000  1.0
  C  C80  1  0.45998000  0.05548000  0.03484000  1.0
  C  C81  1  0.03989000  0.02048000  0.96500000  1.0
  C  C82  1  0.54002000  0.94452000  0.96517000  1.0
  C  C83  1  0.96010000  0.97951000  0.03500000  1.0
  C  C84  1  0.26668000  0.01805000  0.59544000  1.0
  C  C85  1  0.23307000  0.42247000  0.40448000  1.0
  C  C86  1  0.73332000  0.98196000  0.40455000  1.0
  C  C87  1  0.76693000  0.57752000  0.59552000  1.0
  C  C88  1  0.13192000  0.03878000  0.65483000  1.0
  C  C89  1  0.36775000  0.38382000  0.34504000  1.0
  C  C90  1  0.86809000  0.96123000  0.34517000  1.0
  C  C91  1  0.63225000  0.61618000  0.65497000  1.0
  C  C92  1  0.13627000  0.16876000  0.73735000  1.0
  C  C93  1  0.36338000  0.43138000  0.26255000  1.0
  C  C94  1  0.86373000  0.83123000  0.26264000  1.0
  C  C95  1  0.63662000  0.56862000  0.73745000  1.0
  C  C96  1  0.01965000  0.34085000  0.57054000  1.0
  C  C97  1  0.48027000  0.77022000  0.42942000  1.0
  C  C98  1  0.98035000  0.65914000  0.42945000  1.0
  C  C99  1  0.51973000  0.22978000  0.57057000  1.0
  C  C100  1  0.02408000  0.24434000  0.60827000  1.0
  C  C101  1  0.47573000  0.63596000  0.39170000  1.0
  C  C102  1  0.97592000  0.75566000  0.39173000  1.0
  C  C103  1  0.52427000  0.36404000  0.60829000  1.0
  C  C104  1  0.14847000  0.26172000  0.69488000  1.0
  C  C105  1  0.35134000  0.56680000  0.30507000  1.0
  C  C106  1  0.85153000  0.73828000  0.30512000  1.0
  C  C107  1  0.64865000  0.43319000  0.69493000  1.0
  N  N108  1  0.77059000  0.30016000  0.28637000  1.0
  N  N109  1  0.72914000  0.01370000  0.71358000  1.0
  N  N110  1  0.22941000  0.69984000  0.71364000  1.0
  N  N111  1  0.27086000  0.98629000  0.28641000  1.0
  O  O112  1  0.94082000  0.31431000  0.48394000  1.0
  O  O113  1  0.55897000  0.83026000  0.51608000  1.0
  O  O114  1  0.05919000  0.68571000  0.51609000  1.0
  O  O115  1  0.44104000  0.16975000  0.48389000  1.0
  O  O116  1  0.39448000  0.02028000  0.64477000  1.0
  O  O117  1  0.10520000  0.37551000  0.35517000  1.0
  O  O118  1  0.60552000  0.97972000  0.35520000  1.0
  O  O119  1  0.89481000  0.62450000  0.64486000  1.0
  O  O120  1  0.09112000  0.44052000  0.62660000  1.0
  O  O121  1  0.40900000  0.81389000  0.37336000  1.0
  O  O122  1  0.90891000  0.55949000  0.37342000  1.0
  O  O123  1  0.59099000  0.18610000  0.62661000  1.0
  O  O124  1  0.24375000  0.00392000  0.50222000  1.0
  O  O125  1  0.25617000  0.50150000  0.49771000  1.0
  O  O126  1  0.75624000  0.99608000  0.49776000  1.0
  O  O127  1  0.74386000  0.49852000  0.50231000  1.0
