# generated using pymatgen
data_Mn5H134C174(N8O15)2
_symmetry_space_group_name_H-M   'P 1'
_cell_length_a   12.74750000
_cell_length_b   19.62130000
_cell_length_c   20.70475269
_cell_angle_alpha   117.96846752
_cell_angle_beta   98.70512357
_cell_angle_gamma   98.61070000
_symmetry_Int_Tables_number   1
_chemical_formula_structural   Mn5H134C174(N8O15)2
_chemical_formula_sum   'Mn5 H134 C174 N16 O30'
_cell_volume   4374.33825933
_cell_formula_units_Z   1
loop_
 _symmetry_equiv_pos_site_id
 _symmetry_equiv_pos_as_xyz
  1  'x, y, z'
loop_
 _atom_site_type_symbol
 _atom_site_label
 _atom_site_symmetry_multiplicity
 _atom_site_fract_x
 _atom_site_fract_y
 _atom_site_fract_z
 _atom_site_occupancy
  Mn  Mn0  1  0.90897000  0.09314000  0.88991000  1.0
  Mn  Mn1  1  0.67436000  0.19013000  0.89293000  1.0
  Mn  Mn2  1  0.09097000  0.90687000  0.11008000  1.0
  Mn  Mn3  1  0.32561000  0.80984000  0.10708000  1.0
  Mn  Mn4  1  1.00000000  0.00000000  0.99999000  1.0
  H  H5  1  0.31912000  0.11568000  0.63783000  1.0
  H  H6  1  0.12921000  0.30094000  0.02248000  1.0
  H  H7  1  0.33860000  0.33691000  0.26388000  1.0
  H  H8  1  0.54708000  0.59329000  0.42272000  1.0
  H  H9  1  0.95164000  0.22147000  0.07532000  1.0
  H  H10  1  0.17897000  0.51843000  0.25149000  1.0
  H  H11  1  0.25747000  0.20047000  0.15258000  1.0
  H  H12  1  0.88983000  0.45401000  0.16276000  1.0
  H  H13  1  0.20833000  0.43765000  0.13376000  1.0
  H  H14  1  0.47400000  0.45683000  0.31295000  1.0
  H  H15  1  0.24259000  0.38457000  0.74213000  1.0
  H  H16  1  0.05571000  0.07683000  0.65367000  1.0
  H  H17  1  0.10407000  0.87755000  0.45965000  1.0
  H  H18  1  0.74337000  0.89921000  0.75892000  1.0
  H  H19  1  0.07184000  0.20050000  0.79561000  1.0
  H  H20  1  0.65334000  0.75452000  0.69726000  1.0
  H  H21  1  0.33075000  0.44521000  0.67645000  1.0
  H  H22  1  0.16328000  0.25876000  0.72821000  1.0
  H  H23  1  0.52194000  0.64877000  0.59711000  1.0
  H  H24  1  0.86622000  0.00255000  0.62764000  1.0
  H  H25  1  0.55949000  0.69936000  0.36498000  1.0
  H  H26  1  0.16492000  0.55111000  0.51648000  1.0
  H  H27  1  0.05103000  0.25710000  0.20134000  1.0
  H  H28  1  0.75026000  0.90658000  0.62998000  1.0
  H  H29  1  0.40458000  0.51095000  0.52484000  1.0
  H  H30  1  0.31017000  0.62474000  0.49970000  1.0
  H  H31  1  0.74685000  0.77772000  0.39382000  1.0
  H  H32  1  0.11437000  0.82860000  0.81899000  1.0
  H  H33  1  0.25350000  0.65556000  0.36271000  1.0
  H  H34  1  0.18597000  0.67111000  0.58390000  1.0
  H  H35  1  0.02065000  0.37038000  0.51532000  1.0
  H  H36  1  0.07967000  0.52047000  0.38894000  1.0
  H  H37  1  0.93399000  0.30781000  0.57900000  1.0
  H  H38  1  0.98055000  0.48872000  0.29149000  1.0
  H  H39  1  0.56426000  0.82766000  0.60137000  1.0
  H  H40  1  0.19881000  0.75662000  0.71350000  1.0
  H  H41  1  0.22258000  0.56797000  0.69482000  1.0
  H  H42  1  0.88061000  0.34422000  0.69255000  1.0
  H  H43  1  0.34230000  0.70405000  0.76838000  1.0
  H  H44  1  0.27616000  0.90296000  0.60625000  1.0
  H  H45  1  0.78706000  0.28084000  0.75587000  1.0
  H  H46  1  0.91584000  0.80107000  0.43531000  1.0
  H  H47  1  0.99832000  0.95421000  0.71182000  1.0
  H  H48  1  0.09271000  0.88932000  0.61069000  1.0
  H  H49  1  0.40118000  0.85785000  0.52411000  1.0
  H  H50  1  0.44911000  0.95697000  0.82149000  1.0
  H  H51  1  0.35939000  0.81356000  0.76338000  1.0
  H  H52  1  0.59918000  0.46910000  0.14511000  1.0
  H  H53  1  0.68237000  0.42496000  0.18392000  1.0
  H  H54  1  0.50978000  0.37330000  0.19909000  1.0
  H  H55  1  0.43230000  0.37447000  0.12031000  1.0
  H  H56  1  0.68995000  0.03721000  0.10488000  1.0
  H  H57  1  0.57487000  0.97976000  0.02474000  1.0
  H  H58  1  0.09082000  0.27468000  0.30440000  1.0
  H  H59  1  0.76773000  0.42004000  0.84599000  1.0
  H  H60  1  0.72254000  0.48859000  0.92349000  1.0
  H  H61  1  0.57522000  0.08990000  0.99978000  1.0
  H  H62  1  0.63134000  0.14697000  0.09986000  1.0
  H  H63  1  0.18182000  0.30765000  0.43205000  1.0
  H  H64  1  0.53457000  0.44034000  0.85115000  1.0
  H  H65  1  0.59733000  0.41504000  0.77366000  1.0
  H  H66  1  0.76309000  0.95142000  0.99098000  1.0
  H  H67  1  0.69250000  0.37002000  0.04774000  1.0
  H  H68  1  0.76611000  0.17125000  0.02211000  1.0
  H  H69  1  0.47245000  0.28967000  0.76689000  1.0
  H  H70  1  0.74309000  0.36422000  0.93711000  1.0
  H  H71  1  0.44892000  0.23461000  0.07292000  1.0
  H  H72  1  0.68088000  0.88434000  0.36220000  1.0
  H  H73  1  0.87080000  0.69907000  0.97752000  1.0
  H  H74  1  0.66137000  0.66307000  0.73611000  1.0
  H  H75  1  0.45290000  0.40670000  0.57729000  1.0
  H  H76  1  0.04838000  0.77854000  0.92469000  1.0
  H  H77  1  0.82105000  0.48158000  0.74850000  1.0
  H  H78  1  0.74250000  0.79951000  0.84740000  1.0
  H  H79  1  0.11017000  0.54599000  0.83724000  1.0
  H  H80  1  0.79169000  0.56236000  0.86625000  1.0
  H  H81  1  0.52598000  0.54316000  0.68707000  1.0
  H  H82  1  0.75742000  0.61547000  0.25790000  1.0
  H  H83  1  0.94428000  0.92318000  0.34635000  1.0
  H  H84  1  0.89594000  0.12248000  0.54036000  1.0
  H  H85  1  0.25663000  0.10080000  0.24108000  1.0
  H  H86  1  0.92814000  0.79952000  0.20441000  1.0
  H  H87  1  0.34669000  0.24548000  0.30273000  1.0
  H  H88  1  0.66927000  0.55480000  0.32356000  1.0
  H  H89  1  0.83673000  0.74128000  0.27183000  1.0
  H  H90  1  0.47806000  0.35123000  0.40288000  1.0
  H  H91  1  0.13377000  0.99745000  0.37236000  1.0
  H  H92  1  0.44051000  0.30065000  0.63502000  1.0
  H  H93  1  0.83507000  0.44888000  0.48353000  1.0
  H  H94  1  0.94899000  0.74292000  0.79867000  1.0
  H  H95  1  0.24975000  0.09341000  0.37001000  1.0
  H  H96  1  0.59541000  0.48904000  0.47515000  1.0
  H  H97  1  0.68984000  0.37526000  0.50030000  1.0
  H  H98  1  0.25315000  0.22230000  0.60618000  1.0
  H  H99  1  0.88564000  0.17141000  0.18101000  1.0
  H  H100  1  0.74653000  0.34444000  0.63727000  1.0
  H  H101  1  0.81404000  0.32888000  0.41610000  1.0
  H  H102  1  0.97937000  0.62964000  0.48470000  1.0
  H  H103  1  0.92032000  0.47954000  0.61108000  1.0
  H  H104  1  0.06603000  0.69221000  0.42102000  1.0
  H  H105  1  0.01946000  0.51129000  0.70851000  1.0
  H  H106  1  0.43576000  0.17234000  0.39863000  1.0
  H  H107  1  0.80119000  0.24338000  0.28650000  1.0
  H  H108  1  0.77745000  0.43202000  0.30518000  1.0
  H  H109  1  0.11939000  0.65580000  0.30746000  1.0
  H  H110  1  0.65773000  0.29594000  0.23162000  1.0
  H  H111  1  0.72383000  0.09703000  0.39373000  1.0
  H  H112  1  0.21292000  0.71916000  0.24412000  1.0
  H  H113  1  0.08417000  0.19896000  0.56468000  1.0
  H  H114  1  0.00169000  0.04580000  0.28817000  1.0
  H  H115  1  0.90729000  0.11068000  0.38930000  1.0
  H  H116  1  0.59880000  0.14215000  0.47588000  1.0
  H  H117  1  0.55087000  0.04301000  0.17851000  1.0
  H  H118  1  0.64062000  0.18642000  0.23662000  1.0
  H  H119  1  0.40080000  0.53091000  0.85490000  1.0
  H  H120  1  0.31761000  0.57506000  0.81610000  1.0
  H  H121  1  0.49020000  0.62670000  0.80091000  1.0
  H  H122  1  0.56768000  0.62553000  0.87969000  1.0
  H  H123  1  0.31005000  0.96278000  0.89511000  1.0
  H  H124  1  0.42513000  0.02024000  0.97526000  1.0
  H  H125  1  0.90919000  0.72533000  0.69560000  1.0
  H  H126  1  0.23227000  0.57993000  0.15400000  1.0
  H  H127  1  0.27748000  0.51139000  0.07650000  1.0
  H  H128  1  0.42479000  0.91010000  0.00022000  1.0
  H  H129  1  0.36867000  0.85304000  0.90014000  1.0
  H  H130  1  0.81819000  0.69234000  0.56794000  1.0
  H  H131  1  0.46545000  0.55965000  0.14884000  1.0
  H  H132  1  0.40268000  0.58494000  0.22634000  1.0
  H  H133  1  0.23691000  0.04856000  0.00901000  1.0
  H  H134  1  0.30751000  0.63001000  0.95228000  1.0
  H  H135  1  0.23391000  0.82876000  0.97790000  1.0
  H  H136  1  0.52755000  0.71032000  0.23310000  1.0
  H  H137  1  0.25690000  0.63577000  0.06289000  1.0
  H  H138  1  0.55108000  0.76539000  0.92708000  1.0
  C  C139  1  0.12518000  0.16167000  0.01716000  1.0
  C  C140  1  0.60143000  0.93675000  0.79384000  1.0
  C  C141  1  0.18905000  0.24257000  0.08058000  1.0
  C  C142  1  0.08100000  0.34263000  0.66673000  1.0
  C  C143  1  0.02825000  0.30632000  0.70577000  1.0
  C  C144  1  0.36670000  0.73862000  0.50826000  1.0
  C  C145  1  0.17692000  0.30995000  0.07545000  1.0
  C  C146  1  0.07808000  0.39478000  0.33488000  1.0
  C  C147  1  0.18167000  0.41386000  0.59229000  1.0
  C  C148  1  0.32175000  0.47763000  0.27318000  1.0
  C  C149  1  0.92434000  0.23745000  0.78018000  1.0
  C  C150  1  0.29425000  0.32925000  0.21063000  1.0
  C  C151  1  0.54771000  0.75748000  0.48085000  1.0
  C  C152  1  0.46661000  0.57690000  0.38496000  1.0
  C  C153  1  0.87640000  0.89534000  0.52990000  1.0
  C  C154  1  0.87147000  0.20218000  0.82154000  1.0
  C  C155  1  0.95801000  0.28007000  0.12281000  1.0
  C  C156  1  0.27864000  0.39689000  0.20688000  1.0
  C  C157  1  0.22268000  0.79047000  0.60189000  1.0
  C  C158  1  0.91196000  0.33459000  0.11011000  1.0
  C  C159  1  0.40441000  0.63333000  0.39936000  1.0
  C  C160  1  0.26034000  0.53489000  0.28828000  1.0
  C  C161  1  0.24974000  0.25295000  0.14839000  1.0
  C  C162  1  0.00200000  0.94163000  0.83480000  1.0
  C  C163  1  0.09300000  0.98165000  0.55870000  1.0
  C  C164  1  0.92371000  0.41053000  0.17204000  1.0
  C  C165  1  0.22051000  0.38585000  0.13786000  1.0
  C  C166  1  0.15638000  0.82112000  0.65669000  1.0
  C  C167  1  0.02255000  0.37519000  0.25805000  1.0
  C  C168  1  0.42517000  0.50021000  0.32284000  1.0
  C  C169  1  0.76426000  0.84898000  0.51410000  1.0
  C  C170  1  0.18147000  0.43236000  0.48306000  1.0
  C  C171  1  0.19362000  0.38102000  0.69209000  1.0
  C  C172  1  0.78811000  0.06112000  0.99937000  1.0
  C  C173  1  0.02500000  0.01625000  0.60581000  1.0
  C  C174  1  0.05118000  0.90416000  0.49619000  1.0
  C  C175  1  0.65882000  0.87925000  0.75902000  1.0
  C  C176  1  0.03066000  0.23197000  0.77234000  1.0
  C  C177  1  0.20846000  0.02195000  0.57304000  1.0
  C  C178  1  0.60803000  0.79839000  0.72510000  1.0
  C  C179  1  0.24342000  0.41568000  0.65570000  1.0
  C  C180  1  0.84669000  0.31062000  0.03306000  1.0
  C  C181  1  0.08183000  0.26568000  0.73557000  1.0
  C  C182  1  0.45819000  0.63104000  0.61993000  1.0
  C  C183  1  0.91836000  0.97382000  0.59140000  1.0
  C  C184  1  0.65310000  0.02300000  0.82680000  1.0
  C  C185  1  0.30515000  0.52985000  0.60443000  1.0
  C  C186  1  0.05172000  0.89625000  0.77195000  1.0
  C  C187  1  0.60176000  0.74460000  0.42318000  1.0
  C  C188  1  0.15067000  0.49092000  0.46929000  1.0
  C  C189  1  0.49962000  0.77282000  0.72663000  1.0
  C  C190  1  0.01344000  0.30047000  0.19490000  1.0
  C  C191  1  0.70904000  0.86186000  0.57130000  1.0
  C  C192  1  0.39197000  0.55346000  0.57881000  1.0
  C  C193  1  0.30282000  0.68587000  0.52363000  1.0
  C  C194  1  0.70765000  0.78881000  0.43985000  1.0
  C  C195  1  0.10812000  0.84027000  0.77222000  1.0
  C  C196  1  0.30107000  0.61127000  0.35032000  1.0
  C  C197  1  0.23274000  0.71179000  0.57028000  1.0
  C  C198  1  0.06962000  0.37413000  0.56533000  1.0
  C  C199  1  0.44031000  0.68796000  0.68796000  1.0
  C  C200  1  0.10127000  0.47272000  0.39675000  1.0
  C  C201  1  0.02070000  0.33940000  0.60207000  1.0
  C  C202  1  0.97635000  0.42998000  0.24468000  1.0
  C  C203  1  0.60348000  0.81701000  0.55546000  1.0
  C  C204  1  0.15683000  0.80125000  0.71380000  1.0
  C  C205  1  0.28932000  0.58509000  0.67383000  1.0
  C  C206  1  0.92166000  0.31127000  0.71384000  1.0
  C  C207  1  0.35626000  0.66229000  0.71462000  1.0
  C  C208  1  0.28311000  0.84170000  0.58308000  1.0
  C  C209  1  0.86995000  0.27717000  0.75008000  1.0
  C  C210  1  0.94518000  0.86196000  0.48254000  1.0
  C  C211  1  0.04418000  0.91184000  0.71221000  1.0
  C  C212  1  0.09712000  0.87566000  0.65603000  1.0
  C  C213  1  0.35450000  0.81665000  0.53710000  1.0
  C  C214  1  0.49366000  0.91196000  0.79571000  1.0
  C  C215  1  0.44433000  0.83145000  0.76338000  1.0
  C  C216  1  0.61046000  0.41219000  0.13911000  1.0
  C  C217  1  0.50771000  0.36265000  0.14199000  1.0
  C  C218  1  0.65332000  0.02443000  0.04733000  1.0
  C  C219  1  0.10861000  0.33630000  0.34986000  1.0
  C  C220  1  0.60017000  0.30514000  0.84990000  1.0
  C  C221  1  0.70166000  0.42731000  0.87574000  1.0
  C  C222  1  0.64265000  0.10133000  0.04655000  1.0
  C  C223  1  0.15984000  0.35433000  0.42230000  1.0
  C  C224  1  0.58944000  0.40549000  0.82100000  1.0
  C  C225  1  0.57367000  0.28139000  0.04110000  1.0
  C  C226  1  0.87478000  0.83833000  0.98283000  1.0
  C  C227  1  0.39855000  0.06322000  0.20614000  1.0
  C  C228  1  0.81091000  0.75743000  0.91942000  1.0
  C  C229  1  0.91902000  0.65742333  0.33333333  1.0
  C  C230  1  0.97176000  0.69370000  0.29425000  1.0
  C  C231  1  0.63331000  0.26138000  0.49174000  1.0
  C  C232  1  0.82307000  0.69004000  0.92454000  1.0
  C  C233  1  0.92191000  0.60523000  0.66513000  1.0
  C  C234  1  0.81833000  0.58614000  0.40772000  1.0
  C  C235  1  0.67824000  0.52235000  0.72682000  1.0
  C  C236  1  0.07563000  0.76255000  0.21982000  1.0
  C  C237  1  0.70573000  0.67073000  0.78936000  1.0
  C  C238  1  0.45229000  0.24252000  0.51915000  1.0
  C  C239  1  0.53339000  0.42310000  0.61505000  1.0
  C  C240  1  0.12360000  0.10466000  0.47009000  1.0
  C  C241  1  0.12851000  0.79781000  0.17845000  1.0
  C  C242  1  0.04201000  0.71992000  0.87719000  1.0
  C  C243  1  0.72135000  0.60310000  0.79312000  1.0
  C  C244  1  0.77731000  0.20952000  0.39810000  1.0
  C  C245  1  0.08805000  0.66542000  0.88990000  1.0
  C  C246  1  0.59560000  0.36667000  0.60064000  1.0
  C  C247  1  0.73967000  0.46511000  0.71171000  1.0
  C  C248  1  0.75024000  0.74704000  0.85160000  1.0
  C  C249  1  0.99799000  0.05839000  0.16519000  1.0
  C  C250  1  0.90701000  0.01837000  0.44131000  1.0
  C  C251  1  0.07629000  0.58948000  0.82797000  1.0
  C  C252  1  0.77950000  0.61415000  0.86214000  1.0
  C  C253  1  0.84362000  0.17887000  0.34330000  1.0
  C  C254  1  0.97745000  0.62481000  0.74195000  1.0
  C  C255  1  0.57482000  0.49977000  0.67716000  1.0
  C  C256  1  0.23575000  0.15103000  0.48589000  1.0
  C  C257  1  0.81854000  0.56763000  0.51694000  1.0
  C  C258  1  0.80638000  0.61899000  0.30792000  1.0
  C  C259  1  0.21187000  0.93887000  0.00062000  1.0
  C  C260  1  0.97500000  0.98376000  0.39420000  1.0
  C  C261  1  0.94882000  0.09586000  0.50381000  1.0
  C  C262  1  0.34118000  0.12074000  0.24098000  1.0
  C  C263  1  0.96932000  0.76805000  0.22767000  1.0
  C  C264  1  0.79155000  0.97806000  0.42698000  1.0
  C  C265  1  0.39199000  0.20159000  0.27488000  1.0
  C  C266  1  0.75659000  0.58434000  0.34432000  1.0
  C  C267  1  0.15330000  0.68938000  0.96694000  1.0
  C  C268  1  0.91818000  0.73435000  0.26447000  1.0
  C  C269  1  0.54182000  0.36895000  0.38006000  1.0
  C  C270  1  0.08164000  0.02618000  0.40860000  1.0
  C  C271  1  0.34684000  0.97697000  0.17318000  1.0
  C  C272  1  0.69486000  0.47015000  0.39557000  1.0
  C  C273  1  0.94828000  0.10376000  0.22804000  1.0
  C  C274  1  0.39824000  0.25540000  0.57681000  1.0
  C  C275  1  0.84933000  0.50908000  0.53072000  1.0
  C  C276  1  0.50040000  0.22717000  0.27336000  1.0
  C  C277  1  0.98656000  0.69955000  0.80511000  1.0
  C  C278  1  0.29097000  0.13814000  0.42869000  1.0
  C  C279  1  0.60803000  0.44653000  0.42118000  1.0
  C  C280  1  0.69719000  0.31413000  0.47636000  1.0
  C  C281  1  0.29235000  0.21118000  0.56013000  1.0
  C  C282  1  0.89187000  0.15974000  0.22778000  1.0
  C  C283  1  0.69894000  0.38873000  0.64966000  1.0
  C  C284  1  0.76727000  0.28820000  0.42971000  1.0
  C  C285  1  0.93039000  0.62587000  0.43468000  1.0
  C  C286  1  0.55972000  0.31202000  0.31203000  1.0
  C  C287  1  0.89873000  0.52728000  0.60326000  1.0
  C  C288  1  0.97931000  0.66061000  0.39795000  1.0
  C  C289  1  0.02366000  0.57003000  0.75533000  1.0
  C  C290  1  0.39653000  0.18299000  0.44453000  1.0
  C  C291  1  0.84317000  0.19875000  0.28620000  1.0
  C  C292  1  0.71071000  0.41490000  0.32617000  1.0
  C  C293  1  0.07834000  0.68876000  0.28617000  1.0
  C  C294  1  0.64376000  0.33769000  0.28537000  1.0
  C  C295  1  0.71689000  0.15829000  0.41692000  1.0
  C  C296  1  0.13005000  0.72285000  0.24992000  1.0
  C  C297  1  0.05481000  0.13806000  0.51746000  1.0
  C  C298  1  0.95582000  0.08816000  0.28778000  1.0
  C  C299  1  0.90289000  0.12433000  0.34396000  1.0
  C  C300  1  0.64550000  0.18335000  0.46289000  1.0
  C  C301  1  0.50632000  0.08803000  0.20429000  1.0
  C  C302  1  0.55567000  0.16852000  0.23661000  1.0
  C  C303  1  0.38952000  0.58782000  0.86090000  1.0
  C  C304  1  0.49227000  0.63735000  0.85801000  1.0
  C  C305  1  0.34670000  0.97557000  0.95267000  1.0
  C  C306  1  0.89139000  0.66371000  0.65014000  1.0
  C  C307  1  0.39984000  0.69485000  0.15010000  1.0
  C  C308  1  0.29834000  0.57267000  0.12425000  1.0
  C  C309  1  0.35736000  0.89867000  0.95345000  1.0
  C  C310  1  0.84016000  0.64567000  0.57770000  1.0
  C  C311  1  0.41058000  0.59449000  0.17900000  1.0
  C  C312  1  0.42634000  0.71862000  0.95891000  1.0
  N  N313  1  0.72802000  0.99788000  0.99894000  1.0
  N  N314  1  0.62294000  0.35879000  0.06423000  1.0
  N  N315  1  0.74749000  0.12543000  0.03316000  1.0
  N  N316  1  0.55077000  0.32096000  0.79621000  1.0
  N  N317  1  0.68424000  0.36886000  0.90022000  1.0
  N  N318  1  0.23203000  0.45288000  0.55818000  1.0
  N  N319  1  0.44129000  0.71105000  0.46328000  1.0
  N  N320  1  0.51434000  0.28149000  0.09168000  1.0
  N  N321  1  0.27198000  0.00212000  0.00106000  1.0
  N  N322  1  0.37706000  0.64122000  0.93577000  1.0
  N  N323  1  0.25252000  0.87457000  0.96685000  1.0
  N  N324  1  0.44923000  0.67901000  0.20378000  1.0
  N  N325  1  0.31577000  0.63113000  0.09978000  1.0
  N  N326  1  0.76798000  0.54710000  0.44181000  1.0
  N  N327  1  0.55872000  0.28895000  0.53672000  1.0
  N  N328  1  0.48565000  0.71850000  0.90831000  1.0
  O  O329  1  0.87147000  0.05979000  0.97186000  1.0
  O  O330  1  0.92897000  0.16878000  0.84772000  1.0
  O  O331  1  0.13318000  0.10075000  0.02375000  1.0
  O  O332  1  0.06304000  0.15948000  0.96188000  1.0
  O  O333  1  0.81255000  0.23480000  0.98568000  1.0
  O  O334  1  0.01709000  0.93117000  0.89149000  1.0
  O  O335  1  0.77531000  0.20943000  0.82802000  1.0
  O  O336  1  0.94801000  0.98799000  0.82698000  1.0
  O  O337  1  0.58068000  0.22003000  0.98492000  1.0
  O  O338  1  0.75014000  0.04345000  0.82249000  1.0
  O  O339  1  0.82259000  0.36331000  0.01882000  1.0
  O  O340  1  0.24207000  0.09711000  0.63542000  1.0
  O  O341  1  0.27182000  0.99267000  0.53526000  1.0
  O  O342  1  0.59732000  0.07339000  0.85765000  1.0
  O  O343  1  0.56932000  0.24153000  0.85028000  1.0
  O  O344  1  0.12851000  0.94021000  0.02812000  1.0
  O  O345  1  0.07101000  0.83122000  0.15226000  1.0
  O  O346  1  0.86683000  0.89924000  0.97623000  1.0
  O  O347  1  0.93690000  0.84052000  0.03813000  1.0
  O  O348  1  0.18746000  0.76521000  0.01432000  1.0
  O  O349  1  0.98289000  0.06881000  0.10848000  1.0
  O  O350  1  0.22468000  0.79058000  0.17200000  1.0
  O  O351  1  0.05199000  0.01205000  0.17304000  1.0
  O  O352  1  0.41932000  0.77998000  0.01509000  1.0
  O  O353  1  0.24978000  0.95656000  0.17747000  1.0
  O  O354  1  0.17742000  0.63668000  0.98118000  1.0
  O  O355  1  0.75794000  0.90290000  0.36459000  1.0
  O  O356  1  0.72821000  0.00735000  0.46478000  1.0
  O  O357  1  0.40260000  0.92656000  0.14237000  1.0
  O  O358  1  0.43072000  0.75846000  0.14973000  1.0
