# generated using pymatgen
data_AgH12C16N5O3
_symmetry_space_group_name_H-M   'P 1'
_cell_length_a   8.53899000
_cell_length_b   8.66072000
_cell_length_c   21.87790000
_cell_angle_alpha   96.88680000
_cell_angle_beta   90.00000000
_cell_angle_gamma   90.00000000
_symmetry_Int_Tables_number   1
_chemical_formula_structural   AgH12C16N5O3
_chemical_formula_sum   'Ag4 H48 C64 N20 O12'
_cell_volume   1606.28032492
_cell_formula_units_Z   4
loop_
 _symmetry_equiv_pos_site_id
 _symmetry_equiv_pos_as_xyz
  1  'x, y, z'
loop_
 _atom_site_type_symbol
 _atom_site_label
 _atom_site_symmetry_multiplicity
 _atom_site_fract_x
 _atom_site_fract_y
 _atom_site_fract_z
 _atom_site_occupancy
  Ag  Ag0  1  0.08024000  0.65439000  0.69747000  1.0
  Ag  Ag1  1  0.58024000  0.34561000  0.80253000  1.0
  Ag  Ag2  1  0.91976000  0.34561000  0.30253000  1.0
  Ag  Ag3  1  0.41976000  0.65439000  0.19747000  1.0
  H  H4  1  0.82190000  0.87353000  0.50461000  1.0
  H  H5  1  0.32190000  0.12647000  0.99539000  1.0
  H  H6  1  0.17810000  0.12647000  0.49539000  1.0
  H  H7  1  0.67810000  0.87353000  0.00461000  1.0
  H  H8  1  0.69016000  0.63076000  0.45668000  1.0
  H  H9  1  0.19016000  0.36924000  0.04332000  1.0
  H  H10  1  0.30984000  0.36924000  0.54332000  1.0
  H  H11  1  0.80984000  0.63076000  0.95668000  1.0
  H  H12  1  0.70668000  0.38987000  0.51115000  1.0
  H  H13  1  0.20668000  0.61013000  0.98885000  1.0
  H  H14  1  0.29332000  0.61013000  0.48885000  1.0
  H  H15  1  0.79332000  0.38987000  0.01115000  1.0
  H  H16  1  0.85499000  0.40428000  0.60990000  1.0
  H  H17  1  0.35499000  0.59572000  0.89010000  1.0
  H  H18  1  0.14501000  0.59572000  0.39010000  1.0
  H  H19  1  0.64501000  0.40428000  0.10990000  1.0
  H  H20  1  0.92630000  0.10286000  0.55962000  1.0
  H  H21  1  0.42630000  0.89714000  0.94038000  1.0
  H  H22  1  0.07371000  0.89714000  0.44038000  1.0
  H  H23  1  0.57370000  0.10286000  0.05962000  1.0
  H  H24  1  0.13444000  0.25753000  0.64279000  1.0
  H  H25  1  0.63444000  0.74247000  0.85721000  1.0
  H  H26  1  0.86556000  0.74247000  0.35721000  1.0
  H  H27  1  0.36556000  0.25753000  0.14279000  1.0
  H  H28  1  0.32740000  0.16578000  0.71977000  1.0
  H  H29  1  0.82740000  0.83422000  0.78023000  1.0
  H  H30  1  0.67260000  0.83422000  0.28023000  1.0
  H  H31  1  0.17260000  0.16578000  0.21977000  1.0
  H  H32  1  0.34135000  0.96229000  0.72261000  1.0
  H  H33  1  0.84135000  0.03771000  0.77739000  1.0
  H  H34  1  0.65865000  0.03771000  0.27739000  1.0
  H  H35  1  0.15865000  0.96229000  0.22261000  1.0
  H  H36  1  0.21410000  0.83757000  0.80113000  1.0
  H  H37  1  0.71410000  0.16243000  0.69887000  1.0
  H  H38  1  0.78590000  0.16243000  0.19887000  1.0
  H  H39  1  0.28590000  0.83757000  0.30113000  1.0
  H  H40  1  0.05491000  0.85487000  0.89651000  1.0
  H  H41  1  0.55491000  0.14513000  0.60349000  1.0
  H  H42  1  0.94509000  0.14513000  0.10350000  1.0
  H  H43  1  0.44509000  0.85487000  0.39650000  1.0
  H  H44  1  0.95860000  0.33839000  0.88064000  1.0
  H  H45  1  0.45860000  0.66160000  0.61936000  1.0
  H  H46  1  0.04140000  0.66161000  0.11936000  1.0
  H  H47  1  0.54140000  0.33839000  0.38064000  1.0
  H  H48  1  0.11942000  0.32048000  0.78545000  1.0
  H  H49  1  0.61942000  0.67952000  0.71455000  1.0
  H  H50  1  0.88058000  0.67952000  0.21455000  1.0
  H  H51  1  0.38058000  0.32048000  0.28545000  1.0
  C  C52  1  0.91305000  0.76368000  0.58093000  1.0
  C  C53  1  0.41305000  0.23632000  0.91907000  1.0
  C  C54  1  0.08695000  0.23632000  0.41907000  1.0
  C  C55  1  0.58695000  0.76368000  0.08093000  1.0
  C  C56  1  0.82882000  0.76660000  0.52607000  1.0
  C  C57  1  0.32882000  0.23340000  0.97393000  1.0
  C  C58  1  0.17118000  0.23340000  0.47393000  1.0
  C  C59  1  0.67117000  0.76660000  0.02607000  1.0
  C  C60  1  0.75391000  0.63190000  0.49995000  1.0
  C  C61  1  0.25390000  0.36810000  0.00005000  1.0
  C  C62  1  0.24610000  0.36810000  0.50005000  1.0
  C  C63  1  0.74610000  0.63190000  0.99995000  1.0
  C  C64  1  0.76267000  0.49832000  0.52971000  1.0
  C  C65  1  0.26267000  0.50169000  0.97029000  1.0
  C  C66  1  0.23733000  0.50168000  0.47029000  1.0
  C  C67  1  0.73733000  0.49832000  0.02971000  1.0
  C  C68  1  0.84735000  0.50503000  0.58445000  1.0
  C  C69  1  0.34735000  0.49497000  0.91555000  1.0
  C  C70  1  0.15266000  0.49497000  0.41555000  1.0
  C  C71  1  0.65265000  0.50503000  0.08445000  1.0
  C  C72  1  0.99563000  0.90169000  0.60987000  1.0
  C  C73  1  0.49563000  0.09831000  0.89013000  1.0
  C  C74  1  0.00437000  0.09831000  0.39013000  1.0
  C  C75  1  0.50437000  0.90169000  0.10987000  1.0
  C  C76  1  0.99400000  0.05643000  0.59521000  1.0
  C  C77  1  0.49400000  0.94357000  0.90479000  1.0
  C  C78  1  0.00600000  0.94357000  0.40479000  1.0
  C  C79  1  0.50600000  0.05643000  0.09521000  1.0
  C  C80  1  0.09585000  0.13706000  0.63685000  1.0
  C  C81  1  0.59586000  0.86295000  0.86315000  1.0
  C  C82  1  0.90415000  0.86294000  0.36315000  1.0
  C  C83  1  0.40415000  0.13706000  0.13685000  1.0
  C  C84  1  0.25990000  0.06083000  0.72562000  1.0
  C  C85  1  0.75990000  0.93917000  0.77438000  1.0
  C  C86  1  0.74010000  0.93917000  0.27438000  1.0
  C  C87  1  0.24010000  0.06083000  0.22562000  1.0
  C  C88  1  0.17358000  0.07644000  0.78624000  1.0
  C  C89  1  0.67357000  0.92356000  0.71376000  1.0
  C  C90  1  0.82642000  0.92356000  0.21376000  1.0
  C  C91  1  0.32642000  0.07644000  0.28624000  1.0
  C  C92  1  0.15757000  0.94709000  0.81841000  1.0
  C  C93  1  0.65757000  0.05291000  0.68159000  1.0
  C  C94  1  0.84243000  0.05291000  0.18159000  1.0
  C  C95  1  0.34243000  0.94709000  0.31841000  1.0
  C  C96  1  0.06882000  0.95604000  0.87202000  1.0
  C  C97  1  0.56882000  0.04396000  0.62798000  1.0
  C  C98  1  0.93118000  0.04396000  0.12798000  1.0
  C  C99  1  0.43118000  0.95604000  0.37202000  1.0
  C  C100  1  0.99588000  0.09723000  0.89396000  1.0
  C  C101  1  0.49587000  0.90277000  0.60604000  1.0
  C  C102  1  0.00413000  0.90277000  0.10604000  1.0
  C  C103  1  0.50412000  0.09723000  0.39396000  1.0
  C  C104  1  0.01481000  0.22933000  0.86293000  1.0
  C  C105  1  0.51481000  0.77067000  0.63707000  1.0
  C  C106  1  0.98519000  0.77067000  0.13707000  1.0
  C  C107  1  0.48519000  0.22933000  0.36293000  1.0
  C  C108  1  0.10396000  0.21810000  0.80940000  1.0
  C  C109  1  0.60396000  0.78190000  0.69060000  1.0
  C  C110  1  0.89604000  0.78190000  0.19060000  1.0
  C  C111  1  0.39604000  0.21810000  0.30940000  1.0
  C  C112  1  0.89991000  0.10740000  0.94746000  1.0
  C  C113  1  0.39991000  0.89260000  0.55255000  1.0
  C  C114  1  0.10008000  0.89260000  0.05255000  1.0
  C  C115  1  0.60009000  0.10740000  0.44746000  1.0
  N  N116  1  0.92193000  0.63356000  0.60945000  1.0
  N  N117  1  0.42193000  0.36645000  0.89055000  1.0
  N  N118  1  0.07807000  0.36644000  0.39055000  1.0
  N  N119  1  0.57807000  0.63356000  0.10945000  1.0
  N  N120  1  0.15281000  0.03301000  0.67329000  1.0
  N  N121  1  0.65281000  0.96700000  0.82671000  1.0
  N  N122  1  0.84719000  0.96700000  0.32671000  1.0
  N  N123  1  0.34719000  0.03300000  0.17329000  1.0
  N  N124  1  0.09242000  0.88995000  0.65786000  1.0
  N  N125  1  0.59242000  0.11005000  0.84214000  1.0
  N  N126  1  0.90758000  0.11004000  0.34214000  1.0
  N  N127  1  0.40758000  0.88995000  0.15786000  1.0
  N  N128  1  0.81851000  0.11733000  0.99071000  1.0
  N  N129  1  0.31851000  0.88267000  0.50929000  1.0
  N  N130  1  0.18149000  0.88267000  0.00929000  1.0
  N  N131  1  0.68149000  0.11733000  0.49071000  1.0
  N  N132  1  0.37152000  0.46617000  0.70334000  1.0
  N  N133  1  0.87152000  0.53383000  0.79666000  1.0
  N  N134  1  0.62848000  0.53383000  0.29666000  1.0
  N  N135  1  0.12848000  0.46617000  0.20334000  1.0
  O  O136  1  0.29098000  0.46614000  0.65429000  1.0
  O  O137  1  0.79098000  0.53386000  0.84571000  1.0
  O  O138  1  0.70902000  0.53386000  0.34571000  1.0
  O  O139  1  0.20902000  0.46614000  0.15429000  1.0
  O  O140  1  0.33231000  0.55146000  0.75184000  1.0
  O  O141  1  0.83231000  0.44854000  0.74816000  1.0
  O  O142  1  0.66769000  0.44854000  0.24816000  1.0
  O  O143  1  0.16769000  0.55146000  0.25184000  1.0
  O  O144  1  0.49139000  0.37804000  0.70256000  1.0
  O  O145  1  0.99140000  0.62196000  0.79744000  1.0
  O  O146  1  0.50860000  0.62196000  0.29744000  1.0
  O  O147  1  0.00861000  0.37804000  0.20256000  1.0
