# generated using pymatgen
data_CdH4(CN2)5
_symmetry_space_group_name_H-M   'P 1'
_cell_length_a   3.65137000
_cell_length_b   11.46880000
_cell_length_c   12.02270000
_cell_angle_alpha   70.14260000
_cell_angle_beta   81.75180000
_cell_angle_gamma   87.13010000
_symmetry_Int_Tables_number   1
_chemical_formula_structural   CdH4(CN2)5
_chemical_formula_sum   'Cd2 H8 C10 N20'
_cell_volume   468.63778947
_cell_formula_units_Z   2
loop_
 _symmetry_equiv_pos_site_id
 _symmetry_equiv_pos_as_xyz
  1  'x, y, z'
loop_
 _atom_site_type_symbol
 _atom_site_label
 _atom_site_symmetry_multiplicity
 _atom_site_fract_x
 _atom_site_fract_y
 _atom_site_fract_z
 _atom_site_occupancy
  Cd  Cd0  1  0.32012000  0.50015000  0.36517000  1.0
  Cd  Cd1  1  0.67989000  0.49985000  0.63483000  1.0
  H  H2  1  0.09165000  0.52567000  0.09174000  1.0
  H  H3  1  0.90836000  0.47433000  0.90826000  1.0
  H  H4  1  0.75826000  0.00559000  0.39854000  1.0
  H  H5  1  0.24174000  0.99442000  0.60146000  1.0
  H  H6  1  0.71156000  0.96467000  0.20890000  1.0
  H  H7  1  0.28843000  0.03532000  0.79110000  1.0
  H  H8  1  0.44836000  0.13588000  0.03991000  1.0
  H  H9  1  0.55164000  0.86412000  0.96009000  1.0
  C  C10  1  0.20466000  0.43313000  0.12789000  1.0
  C  C11  1  0.79535000  0.56687000  0.87211000  1.0
  C  C12  1  0.42886000  0.27146000  0.24886000  1.0
  C  C13  1  0.57114000  0.72854000  0.75113000  1.0
  C  C14  1  0.65279000  0.07770000  0.32452000  1.0
  C  C15  1  0.34719000  0.92230000  0.67548000  1.0
  C  C16  1  0.62523000  0.05342000  0.21830000  1.0
  C  C17  1  0.37475000  0.94658000  0.78170000  1.0
  C  C18  1  0.48742000  0.14331000  0.12542000  1.0
  C  C19  1  0.51257000  0.85669000  0.87458000  1.0
  N  N20  1  0.24141000  0.35481000  0.06629000  1.0
  N  N21  1  0.75859000  0.64519000  0.93371000  1.0
  N  N22  1  0.31408000  0.38806000  0.23783000  1.0
  N  N23  1  0.68593000  0.61194000  0.76217000  1.0
  N  N24  1  0.56017000  0.18557000  0.34023000  1.0
  N  N25  1  0.43982000  0.81443000  0.65977000  1.0
  N  N26  1  0.38605000  0.25204000  0.14317000  1.0
  N  N27  1  0.61394000  0.74796000  0.85683000  1.0
  N  N28  1  0.77160000  0.39179000  0.48907000  1.0
  N  N29  1  0.22840000  0.60821000  0.51093000  1.0
  N  N30  1  0.80478000  0.28016000  0.53833000  1.0
  N  N31  1  0.19521000  0.71984000  0.46167000  1.0
  N  N32  1  0.84234000  0.17537000  0.58665000  1.0
  N  N33  1  0.15766000  0.82463000  0.41335000  1.0
  N  N34  1  0.84108000  0.62391000  0.26914000  1.0
  N  N35  1  0.15892000  0.37609000  0.73086000  1.0
  N  N36  1  0.87095000  0.72395000  0.19114000  1.0
  N  N37  1  0.12905000  0.27605000  0.80886000  1.0
  N  N38  1  0.90366000  0.82030000  0.11581000  1.0
  N  N39  1  0.09635000  0.17970000  0.88419000  1.0
