# generated using pymatgen
data_BaH10C8(NO2)4
_symmetry_space_group_name_H-M   'P 1'
_cell_length_a   7.50067000
_cell_length_b   9.53009000
_cell_length_c   9.82293000
_cell_angle_alpha   64.49490000
_cell_angle_beta   74.83660000
_cell_angle_gamma   83.78650000
_symmetry_Int_Tables_number   1
_chemical_formula_structural   BaH10C8(NO2)4
_chemical_formula_sum   'Ba2 H20 C16 N8 O16'
_cell_volume   611.66326699
_cell_formula_units_Z   2
loop_
 _symmetry_equiv_pos_site_id
 _symmetry_equiv_pos_as_xyz
  1  'x, y, z'
loop_
 _atom_site_type_symbol
 _atom_site_label
 _atom_site_symmetry_multiplicity
 _atom_site_fract_x
 _atom_site_fract_y
 _atom_site_fract_z
 _atom_site_occupancy
  Ba  Ba0  1  0.28936000  0.61745000  0.38798000  1.0
  Ba  Ba1  1  0.71063000  0.38254000  0.61202000  1.0
  H  H2  1  0.68603000  0.10549000  0.46380000  1.0
  H  H3  1  0.31397000  0.89451000  0.53620000  1.0
  H  H4  1  0.51366000  0.47028000  0.11423000  1.0
  H  H5  1  0.48634000  0.52972000  0.88577000  1.0
  H  H6  1  0.69769000  0.05881000  0.04959000  1.0
  H  H7  1  0.30231000  0.94119000  0.95041000  1.0
  H  H8  1  0.20504000  0.05626000  0.08481000  1.0
  H  H9  1  0.79497000  0.94374000  0.91519000  1.0
  H  H10  1  0.18597000  0.12661000  0.48726000  1.0
  H  H11  1  0.81403000  0.87339000  0.51274000  1.0
  H  H12  1  0.01604000  0.47776000  0.12203000  1.0
  H  H13  1  0.98396000  0.52224000  0.87797000  1.0
  H  H14  1  0.96123000  0.85053000  0.24182000  1.0
  H  H15  1  0.03877000  0.14947000  0.75818000  1.0
  H  H16  1  0.01938000  0.75390000  0.14064000  1.0
  H  H17  1  0.98062000  0.24610000  0.85936000  1.0
  H  H18  1  0.69717000  0.76242000  0.32408000  1.0
  H  H19  1  0.30283000  0.23758000  0.67592000  1.0
  H  H20  1  0.74347000  0.66221000  0.22472000  1.0
  H  H21  1  0.25652000  0.33779000  0.77528000  1.0
  C  C22  1  0.60359000  0.27775000  0.05644000  1.0
  C  C23  1  0.39641000  0.72226000  0.94356000  1.0
  C  C24  1  0.58938000  0.29458000  0.29982000  1.0
  C  C25  1  0.41062000  0.70542000  0.70018000  1.0
  C  C26  1  0.69825000  0.05838000  0.26880000  1.0
  C  C27  1  0.30174000  0.94162000  0.73120000  1.0
  C  C28  1  0.66637000  0.12388000  0.12000000  1.0
  C  C29  1  0.33363000  0.87612000  0.88000000  1.0
  C  C30  1  0.20248000  0.06673000  0.29925000  1.0
  C  C31  1  0.79752000  0.93326000  0.70075000  1.0
  C  C32  1  0.09573000  0.31209000  0.31526000  1.0
  C  C33  1  0.90427000  0.68791000  0.68474000  1.0
  C  C34  1  0.11256000  0.27991000  0.07933000  1.0
  C  C35  1  0.88744000  0.72009000  0.92067000  1.0
  C  C36  1  0.17738000  0.12888000  0.14760000  1.0
  C  C37  1  0.82262000  0.87112000  0.85240000  1.0
  N  N38  1  0.56524000  0.35605000  0.15269000  1.0
  N  N39  1  0.43476000  0.64395000  0.84731000  1.0
  N  N40  1  0.65735000  0.14765000  0.35349000  1.0
  N  N41  1  0.34265000  0.85235000  0.64651000  1.0
  N  N42  1  0.16219000  0.16493000  0.37622000  1.0
  N  N43  1  0.83781000  0.83506000  0.62378000  1.0
  N  N44  1  0.07230000  0.36594000  0.16823000  1.0
  N  N45  1  0.92770000  0.63406000  0.83177000  1.0
  O  O46  1  0.57931000  0.35279000  0.91938000  1.0
  O  O47  1  0.42069000  0.64721000  0.08062000  1.0
  O  O48  1  0.55146000  0.36988000  0.38197000  1.0
  O  O49  1  0.44854000  0.63012000  0.61803000  1.0
  O  O50  1  0.76311000  0.92170000  0.33672000  1.0
  O  O51  1  0.23689000  0.07830000  0.66328000  1.0
  O  O52  1  0.25873000  0.92986000  0.37227000  1.0
  O  O53  1  0.74127000  0.07014000  0.62773000  1.0
  O  O54  1  0.05746000  0.39428000  0.39145000  1.0
  O  O55  1  0.94253000  0.60572000  0.60855000  1.0
  O  O56  1  0.08603000  0.34699000  0.94125000  1.0
  O  O57  1  0.91397000  0.65301000  0.05875000  1.0
  O  O58  1  0.06603000  0.79573000  0.20098000  1.0
  O  O59  1  0.93397000  0.20427000  0.79903000  1.0
  O  O60  1  0.66485000  0.66504000  0.32167000  1.0
  O  O61  1  0.33515000  0.33496000  0.67833000  1.0
