# generated using pymatgen
data_AlH10C15(NO3)2
_symmetry_space_group_name_H-M   'P 1'
_cell_length_a   6.70560000
_cell_length_b   16.87990000
_cell_length_c   17.68300000
_cell_angle_alpha   86.69460000
_cell_angle_beta   80.33350000
_cell_angle_gamma   83.56930000
_symmetry_Int_Tables_number   1
_chemical_formula_structural   AlH10C15(NO3)2
_chemical_formula_sum   'Al2 H20 C30 N4 O12'
_cell_volume   1959.16062945
_cell_formula_units_Z   2
loop_
 _symmetry_equiv_pos_site_id
 _symmetry_equiv_pos_as_xyz
  1  'x, y, z'
loop_
 _atom_site_type_symbol
 _atom_site_label
 _atom_site_symmetry_multiplicity
 _atom_site_fract_x
 _atom_site_fract_y
 _atom_site_fract_z
 _atom_site_occupancy
  Al  Al0  1  0.50127000  0.49946000  0.49754000  1.0
  Al  Al1  1  0.00322000  0.49816000  0.49531000  1.0
  H  H2  1  0.76527000  0.57262000  0.42026000  1.0
  H  H3  1  0.22118000  0.45247000  0.58735000  1.0
  H  H4  1  0.13457000  0.26526000  0.45374000  1.0
  H  H5  1  0.20296000  0.11557000  0.45524000  1.0
  H  H6  1  0.56406000  0.09873000  0.52931000  1.0
  H  H7  1  0.39097000  0.89930000  0.53809000  1.0
  H  H8  1  0.82443000  0.88401000  0.45901000  1.0
  H  H9  1  0.89737000  0.73473000  0.46057000  1.0
  H  H10  1  0.68647000  0.48813000  0.27444000  1.0
  H  H11  1  0.77852000  0.49139000  0.13168000  1.0
  H  H12  1  0.05448000  0.48713000  0.25648000  1.0
  H  H13  1  0.95914000  0.50970000  0.73653000  1.0
  H  H14  1  0.32355000  0.51446000  0.72163000  1.0
  H  H15  1  0.23593000  0.51261000  0.86407000  1.0
  H  H16  1  0.41865000  0.31320000  0.52370000  1.0
  H  H17  1  0.33719000  0.21830000  0.54417000  1.0
  H  H18  1  0.53839000  0.68504000  0.54211000  1.0
  H  H19  1  0.60381000  0.77958000  0.55876000  1.0
  H  H20  1  0.17762000  0.49281000  0.05139000  1.0
  H  H21  1  0.84128000  0.50680000  0.94155000  1.0
  C  C22  1  0.31446000  0.49146000  0.35853000  1.0
  C  C23  1  0.21110000  0.64427000  0.49924000  1.0
  C  C24  1  0.69305000  0.50643000  0.63564000  1.0
  C  C25  1  0.79051000  0.35445000  0.49351000  1.0
  C  C26  1  0.81447000  0.26668000  0.49251000  1.0
  C  C27  1  0.01189000  0.22764000  0.47177000  1.0
  C  C28  1  0.05109000  0.14558000  0.47262000  1.0
  C  C29  1  0.88530000  0.09981000  0.49520000  1.0
  C  C30  1  0.68782000  0.13646000  0.51362000  1.0
  C  C31  1  0.64602000  0.22052000  0.51312000  1.0
  C  C32  1  0.28294000  0.86195000  0.52222000  1.0
  C  C33  1  0.10400000  0.89899000  0.50059000  1.0
  C  C34  1  0.96024000  0.85364000  0.47817000  1.0
  C  C35  1  0.00211000  0.77169000  0.47899000  1.0
  C  C36  1  0.18064000  0.73197000  0.50176000  1.0
  C  C37  1  0.32588000  0.77792000  0.52441000  1.0
  C  C38  1  0.36584000  0.48873000  0.27327000  1.0
  C  C39  1  0.56999000  0.48899000  0.23822000  1.0
  C  C40  1  0.62056000  0.49078000  0.15895000  1.0
  C  C41  1  0.46725000  0.49264000  0.11311000  1.0
  C  C42  1  0.26183000  0.49032000  0.14909000  1.0
  C  C43  1  0.21199000  0.48829000  0.22877000  1.0
  C  C44  1  0.50565000  0.49796000  0.03218000  1.0
  C  C45  1  0.51241000  0.50402000  0.96228000  1.0
  C  C46  1  0.54902000  0.50887000  0.88134000  1.0
  C  C47  1  0.75405000  0.50939000  0.84442000  1.0
  C  C48  1  0.80162000  0.51026000  0.76466000  1.0
  C  C49  1  0.64575000  0.51067000  0.72093000  1.0
  C  C50  1  0.44202000  0.51271000  0.75705000  1.0
  C  C51  1  0.39372000  0.51186000  0.83632000  1.0
  N  N52  1  0.90387000  0.01541000  0.49882000  1.0
  N  N53  1  0.08312000  0.98333000  0.50067000  1.0
  N  N54  1  0.45158000  0.25377000  0.53437000  1.0
  N  N55  1  0.49901000  0.74438000  0.54896000  1.0
  O  O56  1  0.46102000  0.49969000  0.39393000  1.0
  O  O57  1  0.06084000  0.60774000  0.48939000  1.0
  O  O58  1  0.87730000  0.50777000  0.60285000  1.0
  O  O59  1  0.61194000  0.39056000  0.49226000  1.0
  O  O60  1  0.54204000  0.50037000  0.60181000  1.0
  O  O61  1  0.94759000  0.38962000  0.49704000  1.0
  O  O62  1  0.13041000  0.48695000  0.38985000  1.0
  O  O63  1  0.38827000  0.60917000  0.50597000  1.0
  O  O64  1  0.75648000  0.53465000  0.46352000  1.0
  O  O65  1  0.24574000  0.46370000  0.53235000  1.0
  O  O66  1  0.11203000  0.49089000  0.10538000  1.0
  O  O67  1  0.90561000  0.50805000  0.88737000  1.0
