# generated using pymatgen
data_Al6H33C83N5O28
_symmetry_space_group_name_H-M   'P 1'
_cell_length_a   12.44170000
_cell_length_b   12.50817428
_cell_length_c   27.98140000
_cell_angle_alpha   89.89198401
_cell_angle_beta   89.61690000
_cell_angle_gamma   118.93041269
_symmetry_Int_Tables_number   1
_chemical_formula_structural   Al6H33C83N5O28
_chemical_formula_sum   'Al6 H33 C83 N5 O28'
_cell_volume   3810.98436773
_cell_formula_units_Z   1
loop_
 _symmetry_equiv_pos_site_id
 _symmetry_equiv_pos_as_xyz
  1  'x, y, z'
loop_
 _atom_site_type_symbol
 _atom_site_label
 _atom_site_symmetry_multiplicity
 _atom_site_fract_x
 _atom_site_fract_y
 _atom_site_fract_z
 _atom_site_occupancy
  Al  Al0  1  0.59318000  0.40292000  0.49552000  1.0
  Al  Al1  1  0.59169000  0.65808000  0.49845000  1.0
  Al  Al2  1  0.34812000  0.42784000  0.49752000  1.0
  Al  Al3  1  0.06047000  0.90377000  0.98612000  1.0
  Al  Al4  1  0.32578000  0.91611000  0.98196000  1.0
  Al  Al5  1  0.09997000  0.66870000  0.98324000  1.0
  H  H6  1  0.29054000  0.79653000  0.29691000  1.0
  H  H7  1  0.70062000  0.43448000  0.63082000  1.0
  H  H8  1  0.84731000  0.80637000  0.86988000  1.0
  H  H9  1  0.98222000  0.55178000  0.84927000  1.0
  H  H10  1  0.83041000  0.81922000  0.61628000  1.0
  H  H11  1  0.42365000  0.54016000  0.27256000  1.0
  H  H12  1  0.52005000  0.25511000  0.19049000  1.0
  H  H13  1  0.66224000  0.66090000  0.27383000  1.0
  H  H14  1  0.00120000  0.65640000  0.29984000  1.0
  H  H15  1  0.57609000  0.77192000  0.62581000  1.0
  H  H16  1  0.55366000  0.79518000  0.71253000  1.0
  H  H17  1  0.69371000  0.65414000  0.18611000  1.0
  H  H18  1  0.44678000  0.90247000  0.85474000  1.0
  H  H19  1  0.27503000  0.81717000  0.20932000  1.0
  H  H20  1  0.19234000  0.51059000  0.61720000  1.0
  H  H21  1  0.20905000  0.28396000  0.62548000  1.0
  H  H22  1  0.18459000  0.23101000  0.71176000  1.0
  H  H23  1  0.49380000  0.18498000  0.61346000  1.0
  H  H24  1  0.40775000  0.56051000  0.18491000  1.0
  H  H25  1  0.79714000  0.79528000  0.78386000  1.0
  H  H26  1  0.75964000  0.46252000  0.71665000  1.0
  H  H27  1  0.93714000  0.54318000  0.76227000  1.0
  H  H28  1  0.03309000  0.65001000  0.21218000  1.0
  H  H29  1  0.13258000  0.07838000  0.28671000  1.0
  H  H30  1  0.12521000  0.03944000  0.19915000  1.0
  H  H31  1  0.21942000  0.49467000  0.77902000  1.0
  H  H32  1  0.19140000  0.51871000  0.86564000  1.0
  H  H33  1  0.16613000  0.53934000  0.70362000  1.0
  H  H34  1  0.50067000  0.18398000  0.77299000  1.0
  H  H35  1  0.12226000  0.10358000  0.76843000  1.0
  H  H36  1  0.46796000  0.12658000  0.69938000  1.0
  H  H37  1  0.64371000  0.25106000  0.51607000  1.0
  H  H38  1  0.94851000  0.99666000  0.95802000  1.0
  C  C39  1  0.73353000  0.62304000  0.43203000  1.0
  C  C40  1  0.21683000  0.11648000  0.26546000  1.0
  C  C41  1  0.21274000  0.09487000  0.21675000  1.0
  C  C42  1  0.40108000  0.61795000  0.43131000  1.0
  C  C43  1  0.43537000  0.21671000  0.21145000  1.0
  C  C44  1  0.43973000  0.23856000  0.26052000  1.0
  C  C45  1  0.32960000  0.18855000  0.28840000  1.0
  C  C46  1  0.32200000  0.14486000  0.18908000  1.0
  C  C47  1  0.31657000  0.12108000  0.13958000  1.0
  C  C48  1  0.33612000  0.21352000  0.33776000  1.0
  C  C49  1  0.30772000  0.09705000  0.09716000  1.0
  C  C50  1  0.38255000  0.61221000  0.20956000  1.0
  C  C51  1  0.78514000  0.65026000  0.38473000  1.0
  C  C52  1  0.74350000  0.65924000  0.26002000  1.0
  C  C53  1  0.76054000  0.65470000  0.21123000  1.0
  C  C54  1  0.38337000  0.29080000  0.42717000  1.0
  C  C55  1  0.95230000  0.65274000  0.22591000  1.0
  C  C56  1  0.93505000  0.65710000  0.27471000  1.0
  C  C57  1  0.83024000  0.65999000  0.29244000  1.0
  C  C58  1  0.86526000  0.65131000  0.19345000  1.0
  C  C59  1  0.88566000  0.65142000  0.14370000  1.0
  C  C60  1  0.80827000  0.65754000  0.34210000  1.0
  C  C61  1  0.39153000  0.60102000  0.25855000  1.0
  C  C62  1  0.90648000  0.65708000  0.10089000  1.0
  C  C63  1  0.38540000  0.64122000  0.61605000  1.0
  C  C64  1  0.48658000  0.72196000  0.64320000  1.0
  C  C65  1  0.47316000  0.73503000  0.69180000  1.0
  C  C66  1  0.71454000  0.60176000  0.56861000  1.0
  C  C67  1  0.35779000  0.67015000  0.71448000  1.0
  C  C68  1  0.25665000  0.58942000  0.68688000  1.0
  C  C69  1  0.27032000  0.57413000  0.63838000  1.0
  C  C70  1  0.26764000  0.58483000  0.79522000  1.0
  C  C71  1  0.25327000  0.59731000  0.84392000  1.0
  C  C72  1  0.35868000  0.66746000  0.29075000  1.0
  C  C73  1  0.39675000  0.81332000  0.83796000  1.0
  C  C74  1  0.40752000  0.80136000  0.78859000  1.0
  C  C75  1  0.34407000  0.68543000  0.76615000  1.0
  C  C76  1  0.31877000  0.71182000  0.86569000  1.0
  C  C77  1  0.35288000  0.23772000  0.61442000  1.0
  C  C78  1  0.40533000  0.62002000  0.56529000  1.0
  C  C79  1  0.26494000  0.24932000  0.64219000  1.0
  C  C80  1  0.25212000  0.21989000  0.69050000  1.0
  C  C81  1  0.32623000  0.17744000  0.71213000  1.0
  C  C82  1  0.41270000  0.16363000  0.68378000  1.0
  C  C83  1  0.34051000  0.69028000  0.19107000  1.0
  C  C84  1  0.42623000  0.19416000  0.63552000  1.0
  C  C85  1  0.41204000  0.15542000  0.79008000  1.0
  C  C86  1  0.39899000  0.12389000  0.83873000  1.0
  C  C87  1  0.18890000  0.08501000  0.83670000  1.0
  C  C88  1  0.20220000  0.11356000  0.78783000  1.0
  C  C89  1  0.31349000  0.14840000  0.76369000  1.0
  C  C90  1  0.37536000  0.28136000  0.56408000  1.0
  C  C91  1  0.28624000  0.08633000  0.86296000  1.0
  C  C92  1  0.76099000  0.62475000  0.61857000  1.0
  C  C93  1  0.74376000  0.52490000  0.64685000  1.0
  C  C94  1  0.33005000  0.70162000  0.14111000  1.0
  C  C95  1  0.77800000  0.54140000  0.69449000  1.0
  C  C96  1  0.83242000  0.65742000  0.71569000  1.0
  C  C97  1  0.85260000  0.75839000  0.68632000  1.0
  C  C98  1  0.81552000  0.74129000  0.63833000  1.0
  C  C99  1  0.83859000  0.74229000  0.79766000  1.0
  C  C100  1  0.86476000  0.74761000  0.84608000  1.0
  C  C101  1  0.94119000  0.60406000  0.83442000  1.0
  C  C102  1  0.37987000  0.64495000  0.38344000  1.0
  C  C103  1  0.91541000  0.59933000  0.78599000  1.0
  C  C104  1  0.86392000  0.66844000  0.76683000  1.0
  C  C105  1  0.36928000  0.65604000  0.34068000  1.0
  C  C106  1  0.91662000  0.67894000  0.86470000  1.0
  C  C107  1  0.28057000  0.04710000  0.04978000  1.0
  C  C108  1  0.29167000  0.73069000  0.05022000  1.0
  C  C109  1  0.95360000  0.69160000  0.05304000  1.0
  C  C110  1  0.26474000  0.03850000  0.91293000  1.0
  C  C111  1  0.29629000  0.73114000  0.91649000  1.0
  C  C112  1  0.95600000  0.69561000  0.91543000  1.0
  C  C113  1  0.31617000  0.74512000  0.27227000  1.0
  C  C114  1  0.30748000  0.75654000  0.22327000  1.0
  C  C115  1  0.47788000  0.91097000  0.76169000  1.0
  C  C116  1  0.31918000  0.71164000  0.09830000  1.0
  C  C117  1  0.50560000  0.13151000  0.86105000  1.0
  C  C118  1  0.07206000  0.05549000  0.85725000  1.0
  C  C119  1  0.91448000  0.88080000  0.70357000  1.0
  C  C120  1  0.55571000  0.31155000  0.28249000  1.0
  C  C121  1  0.34939000  0.24045000  0.37993000  1.0
  N  N122  1  0.53347000  0.00311000  0.74093000  1.0
  N  N123  1  0.59881000  0.14081000  0.87403000  1.0
  N  N124  1  0.97388000  0.03730000  0.86827000  1.0
  N  N125  1  0.96562000  0.98272000  0.71572000  1.0
  N  N126  1  0.65204000  0.37172000  0.29943000  1.0
  O  O127  1  0.49062000  0.31877000  0.44004000  1.0
  O  O128  1  0.19246000  0.64659000  0.03230000  1.0
  O  O129  1  0.97610000  0.61657000  0.02894000  1.0
  O  O130  1  0.71040000  0.52194000  0.45041000  1.0
  O  O131  1  0.95842000  0.78424000  0.93782000  1.0
  O  O132  1  0.16046000  0.00551000  0.93102000  1.0
  O  O133  1  0.35243000  0.02888000  0.93298000  1.0
  O  O134  1  0.36772000  0.83559000  0.93455000  1.0
  O  O135  1  0.20278000  0.64599000  0.93769000  1.0
  O  O136  1  0.99137000  0.62171000  0.93260000  1.0
  O  O137  1  0.16433000  0.82916000  0.98330000  1.0
  O  O138  1  0.50865000  0.69552000  0.54614000  1.0
  O  O139  1  0.70978000  0.70355000  0.45121000  1.0
  O  O140  1  0.50162000  0.69283000  0.45110000  1.0
  O  O141  1  0.31934000  0.51654000  0.44938000  1.0
  O  O142  1  0.30345000  0.30682000  0.45118000  1.0
  O  O143  1  0.46830000  0.28926000  0.54231000  1.0
  O  O144  1  0.68090000  0.49660000  0.55228000  1.0
  O  O145  1  0.70787000  0.68903000  0.54650000  1.0
  O  O146  1  0.32275000  0.52508000  0.54456000  1.0
  O  O147  1  0.30000000  0.31440000  0.54643000  1.0
  O  O148  1  0.50957000  0.49731000  0.49725000  1.0
  O  O149  1  0.97372000  0.79586000  0.03933000  1.0
  O  O150  1  0.17417000  0.01421000  0.03461000  1.0
  O  O151  1  0.36614000  0.03553000  0.02785000  1.0
  O  O152  1  0.36457000  0.83244000  0.03014000  1.0
  O  O153  1  0.67223000  0.31924000  0.49412000  1.0
  O  O154  1  0.97228000  0.97749000  0.98836000  1.0
