# generated using pymatgen
data_NiH12(C4O3)4
_symmetry_space_group_name_H-M   'P 1'
_cell_length_a   4.93174000
_cell_length_b   6.40130000
_cell_length_c   12.31000000
_cell_angle_alpha   78.02160000
_cell_angle_beta   85.40890000
_cell_angle_gamma   86.52490000
_symmetry_Int_Tables_number   1
_chemical_formula_structural   NiH12(C4O3)4
_chemical_formula_sum   'Ni1 H12 C16 O12'
_cell_volume   378.55341706
_cell_formula_units_Z   1
loop_
 _symmetry_equiv_pos_site_id
 _symmetry_equiv_pos_as_xyz
  1  'x, y, z'
loop_
 _atom_site_type_symbol
 _atom_site_label
 _atom_site_symmetry_multiplicity
 _atom_site_fract_x
 _atom_site_fract_y
 _atom_site_fract_z
 _atom_site_occupancy
  Ni  Ni0  1  0.00000000  0.00000000  0.50000000  1.0
  H  H1  1  0.39872000  0.01336000  0.62409000  1.0
  H  H2  1  0.60129000  0.98665000  0.37591000  1.0
  H  H3  1  0.12018000  0.08042000  0.68735000  1.0
  H  H4  1  0.87982000  0.91958000  0.31266000  1.0
  H  H5  1  0.92720000  0.37871000  0.43485000  1.0
  H  H6  1  0.07280000  0.62129000  0.56515000  1.0
  H  H7  1  0.75087000  0.34245000  0.54842000  1.0
  H  H8  1  0.24913000  0.65756000  0.45158000  1.0
  H  H9  1  0.57684000  0.88559000  0.84333000  1.0
  H  H10  1  0.42317000  0.11440000  0.15667000  1.0
  H  H11  1  0.66356000  0.65243000  0.28199000  1.0
  H  H12  1  0.33642000  0.34758000  0.71801000  1.0
  C  C13  1  0.90329000  0.47742000  0.04630000  1.0
  C  C14  1  0.09671000  0.52256000  0.95370000  1.0
  C  C15  1  0.44877000  0.74907000  0.85211000  1.0
  C  C16  1  0.55123000  0.25092000  0.14789000  1.0
  C  C17  1  0.68568000  0.55687000  0.21802000  1.0
  C  C18  1  0.31431000  0.44314000  0.78197000  1.0
  C  C19  1  0.32355000  0.32459000  0.32661000  1.0
  C  C20  1  0.67645000  0.67542000  0.67339000  1.0
  C  C21  1  0.05581000  0.78426000  0.11513000  1.0
  C  C22  1  0.94420000  0.21572000  0.88487000  1.0
  C  C23  1  0.87739000  0.60504000  0.12758000  1.0
  C  C24  1  0.12259000  0.39495000  0.87242000  1.0
  C  C25  1  0.26301000  0.69609000  0.94323000  1.0
  C  C26  1  0.73699000  0.30390000  0.05678000  1.0
  C  C27  1  0.52707000  0.37901000  0.22838000  1.0
  C  C28  1  0.47293000  0.62099000  0.77162000  1.0
  O  O29  1  0.05769000  0.90983000  0.17790000  1.0
  O  O30  1  0.94232000  0.09017000  0.82211000  1.0
  O  O31  1  0.22239000  0.09812000  0.61394000  1.0
  O  O32  1  0.77761000  0.90189000  0.38606000  1.0
  O  O33  1  0.78173000  0.28599000  0.47940000  1.0
  O  O34  1  0.21827000  0.71402000  0.52059000  1.0
  O  O35  1  0.19251000  0.47813000  0.35987000  1.0
  O  O36  1  0.80749000  0.52187000  0.64013000  1.0
  O  O37  1  0.29174000  0.12553000  0.36600000  1.0
  O  O38  1  0.70827000  0.87446000  0.63400000  1.0
  O  O39  1  0.24232000  0.81951000  0.02328000  1.0
  O  O40  1  0.75768000  0.18048000  0.97672000  1.0
