# generated using pymatgen
data_CoH22C28(N5O3)2
_symmetry_space_group_name_H-M   'P 1'
_cell_length_a   7.60783000
_cell_length_b   9.49595000
_cell_length_c   10.86600000
_cell_angle_alpha   107.69800000
_cell_angle_beta   105.04500000
_cell_angle_gamma   100.57300000
_symmetry_Int_Tables_number   1
_chemical_formula_structural   CoH22C28(N5O3)2
_chemical_formula_sum   'Co1 H22 C28 N10 O6'
_cell_volume   692.21440160
_cell_formula_units_Z   1
loop_
 _symmetry_equiv_pos_site_id
 _symmetry_equiv_pos_as_xyz
  1  'x, y, z'
loop_
 _atom_site_type_symbol
 _atom_site_label
 _atom_site_symmetry_multiplicity
 _atom_site_fract_x
 _atom_site_fract_y
 _atom_site_fract_z
 _atom_site_occupancy
  Co  Co0  1  0.00000000  0.00000000  0.50000000  1.0
  H  H1  1  0.49548000  0.25581000  0.35066000  1.0
  H  H2  1  0.50451000  0.74419000  0.64934000  1.0
  H  H3  1  0.53572000  0.98088000  0.84550000  1.0
  H  H4  1  0.46429000  0.01912000  0.15449000  1.0
  H  H5  1  0.30589000  0.56530000  0.63739000  1.0
  H  H6  1  0.69411000  0.43470000  0.36261000  1.0
  H  H7  1  0.67531000  0.32046000  0.87865000  1.0
  H  H8  1  0.32469000  0.67954000  0.12135000  1.0
  H  H9  1  0.43459000  0.21410000  0.82323000  1.0
  H  H10  1  0.56541000  0.78589000  0.17677000  1.0
  H  H11  1  0.75565000  0.13575000  0.39506000  1.0
  H  H12  1  0.24435000  0.86425000  0.60494000  1.0
  H  H13  1  0.07642000  0.33829000  0.62423000  1.0
  H  H14  1  0.92359000  0.66171000  0.37578000  1.0
  H  H15  1  0.60833000  0.14282000  0.00270000  1.0
  H  H16  1  0.39167000  0.85717000  0.99730000  1.0
  H  H17  1  0.26946000  0.04151000  0.35690000  1.0
  H  H18  1  0.73054000  0.95849000  0.64310000  1.0
  H  H19  1  0.65724000  0.22313000  0.67085000  1.0
  H  H20  1  0.34276000  0.77687000  0.32915000  1.0
  H  H21  1  0.62901000  0.00390000  0.41952000  1.0
  H  H22  1  0.37099000  0.99610000  0.58048000  1.0
  C  C23  1  0.42762000  0.43386000  0.49634000  1.0
  C  C24  1  0.57238000  0.56614000  0.50366000  1.0
  C  C25  1  0.96933000  0.20794000  0.99913000  1.0
  C  C26  1  0.03067000  0.79206000  0.00087000  1.0
  C  C27  1  0.40776000  0.28186000  0.41437000  1.0
  C  C28  1  0.59224000  0.71814000  0.58562000  1.0
  C  C29  1  0.27813000  0.15937000  0.41549000  1.0
  C  C30  1  0.72187000  0.84063000  0.58451000  1.0
  C  C31  1  0.17370000  0.32506000  0.56644000  1.0
  C  C32  1  0.82631000  0.67494000  0.43356000  1.0
  C  C33  1  0.11889000  0.23052000  0.94637000  1.0
  C  C34  1  0.88111000  0.76948000  0.05362000  1.0
  C  C35  1  0.30274000  0.45231000  0.57149000  1.0
  C  C36  1  0.69727000  0.54769000  0.42851000  1.0
  C  C37  1  0.57670000  0.20360000  0.82493000  1.0
  C  C38  1  0.42330000  0.79640000  0.17507000  1.0
  C  C39  1  0.08498000  0.15899000  0.80523000  1.0
  C  C40  1  0.91502000  0.84100000  0.19477000  1.0
  C  C41  1  0.62585000  0.10000000  0.90217000  1.0
  C  C42  1  0.37415000  0.90000000  0.09784000  1.0
  C  C43  1  0.30741000  0.31555000  0.03222000  1.0
  C  C44  1  0.69259000  0.68445000  0.96778000  1.0
  C  C45  1  0.09474000  0.45094000  0.20486000  1.0
  C  C46  1  0.90526000  0.54905000  0.79513000  1.0
  C  C47  1  0.86431000  0.24353000  0.20070000  1.0
  C  C48  1  0.13568000  0.75647000  0.79930000  1.0
  C  C49  1  0.97616000  0.29908000  0.13203000  1.0
  C  C50  1  0.02383000  0.70092000  0.86797000  1.0
  N  N51  1  0.16308000  0.17904000  0.49169000  1.0
  N  N52  1  0.83693000  0.82096000  0.50831000  1.0
  N  N53  1  0.05891000  0.10018000  0.68793000  1.0
  N  N54  1  0.94109000  0.89982000  0.31207000  1.0
  N  N55  1  0.46535000  0.38233000  0.10168000  1.0
  N  N56  1  0.53464000  0.61767000  0.89832000  1.0
  N  N57  1  0.77377000  0.20211000  0.26210000  1.0
  N  N58  1  0.22623000  0.79789000  0.73789000  1.0
  N  N59  1  0.18456000  0.57939000  0.26904000  1.0
  N  N60  1  0.81543000  0.42062000  0.73096000  1.0
  O  O61  1  0.74718000  0.09174000  0.46586000  1.0
  O  O62  1  0.25282000  0.90826000  0.53414000  1.0
  O  O63  1  0.81783000  0.08657000  0.91498000  1.0
  O  O64  1  0.18217000  0.91342000  0.08502000  1.0
  O  O65  1  0.57807000  0.14106000  0.68819000  1.0
  O  O66  1  0.42193000  0.85894000  0.31181000  1.0
