# generated using pymatgen
data_AgH6C3SNO5
_symmetry_space_group_name_H-M   'P 1'
_cell_length_a   5.40430000
_cell_length_b   7.60637000
_cell_length_c   16.83970000
_cell_angle_alpha   89.99840000
_cell_angle_beta   93.00170000
_cell_angle_gamma   89.99980000
_symmetry_Int_Tables_number   1
_chemical_formula_structural   AgH6C3SNO5
_chemical_formula_sum   'Ag4 H24 C12 S4 N4 O20'
_cell_volume   691.28156818
_cell_formula_units_Z   4
loop_
 _symmetry_equiv_pos_site_id
 _symmetry_equiv_pos_as_xyz
  1  'x, y, z'
loop_
 _atom_site_type_symbol
 _atom_site_label
 _atom_site_symmetry_multiplicity
 _atom_site_fract_x
 _atom_site_fract_y
 _atom_site_fract_z
 _atom_site_occupancy
  Ag  Ag0  1  0.73098000  0.39043000  0.20507000  1.0
  Ag  Ag1  1  0.26903000  0.89043000  0.79493000  1.0
  Ag  Ag2  1  0.29426000  0.42004000  0.28542000  1.0
  Ag  Ag3  1  0.70571000  0.92007000  0.71457000  1.0
  H  H4  1  0.65285000  0.07002000  0.50099000  1.0
  H  H5  1  0.34716000  0.57002000  0.49902000  1.0
  H  H6  1  0.66318000  0.84841000  0.49124000  1.0
  H  H7  1  0.33681000  0.34841000  0.50877000  1.0
  H  H8  1  0.42725000  0.96511000  0.44774000  1.0
  H  H9  1  0.57275000  0.46510000  0.55226000  1.0
  H  H10  1  0.62489000  0.81085000  0.04048000  1.0
  H  H11  1  0.37511000  0.31083000  0.95951000  1.0
  H  H12  1  0.45118000  0.99099000  0.01488000  1.0
  H  H13  1  0.54879000  0.49099000  0.98511000  1.0
  H  H14  1  0.33065000  0.79125000  0.00935000  1.0
  H  H15  1  0.66933000  0.29125000  0.99065000  1.0
  H  H16  1  0.06750000  0.97864000  0.19212000  1.0
  H  H17  1  0.93253000  0.47865000  0.80788000  1.0
  H  H18  1  0.98704000  0.86077000  0.10294000  1.0
  H  H19  1  0.01296000  0.36078000  0.89706000  1.0
  H  H20  1  0.50921000  0.99544000  0.15384000  1.0
  H  H21  1  0.49079000  0.49545000  0.84616000  1.0
  H  H22  1  0.89218000  0.81439000  0.29591000  1.0
  H  H23  1  0.10780000  0.31439000  0.70410000  1.0
  H  H24  1  0.60442000  0.74351000  0.33438000  1.0
  H  H25  1  0.39556000  0.24351000  0.66562000  1.0
  H  H26  1  0.94938000  0.02733000  0.41104000  1.0
  H  H27  1  0.05062000  0.52734000  0.58896000  1.0
  C  C28  1  0.65577000  0.11876000  0.33276000  1.0
  C  C29  1  0.34422000  0.61876000  0.66725000  1.0
  C  C30  1  0.42706000  0.72319000  0.17287000  1.0
  C  C31  1  0.57293000  0.22320000  0.82713000  1.0
  C  C32  1  0.11445000  0.95849000  0.13022000  1.0
  C  C33  1  0.88556000  0.45850000  0.86978000  1.0
  C  C34  1  0.38105000  0.89677000  0.12713000  1.0
  C  C35  1  0.61896000  0.39677000  0.87287000  1.0
  C  C36  1  0.78722000  0.80138000  0.34959000  1.0
  C  C37  1  0.21277000  0.30139000  0.65042000  1.0
  C  C38  1  0.76512000  0.97949000  0.39022000  1.0
  C  C39  1  0.23488000  0.47950000  0.60978000  1.0
  S  S40  1  0.05328000  0.16606000  0.08197000  1.0
  S  S41  1  0.94672000  0.66607000  0.91803000  1.0
  S  S42  1  0.95172000  0.64452000  0.41158000  1.0
  S  S43  1  0.04828000  0.14453000  0.58842000  1.0
  N  N44  1  0.61496000  0.96543000  0.46196000  1.0
  N  N45  1  0.38503000  0.46543000  0.53804000  1.0
  N  N46  1  0.45295000  0.87149000  0.04358000  1.0
  N  N47  1  0.54704000  0.37149000  0.95641000  1.0
  O  O48  1  0.81846000  0.63767000  0.48599000  1.0
  O  O49  1  0.18155000  0.13769000  0.51401000  1.0
  O  O50  1  0.20698000  0.71333000  0.42488000  1.0
  O  O51  1  0.79302000  0.21334000  0.57512000  1.0
  O  O52  1  0.61342000  0.63753000  0.15092000  1.0
  O  O53  1  0.38664000  0.13752000  0.84908000  1.0
  O  O54  1  0.16278000  0.30436000  0.13325000  1.0
  O  O55  1  0.83724000  0.80437000  0.86675000  1.0
  O  O56  1  0.16120000  0.15725000  0.00320000  1.0
  O  O57  1  0.83877000  0.65725000  0.99679000  1.0
  O  O58  1  0.94180000  0.47610000  0.36870000  1.0
  O  O59  1  0.05819000  0.97611000  0.63130000  1.0
  O  O60  1  0.77693000  0.14184000  0.27096000  1.0
  O  O61  1  0.22309000  0.64183000  0.72905000  1.0
  O  O62  1  0.28317000  0.68757000  0.22727000  1.0
  O  O63  1  0.71684000  0.18760000  0.77271000  1.0
  O  O64  1  0.77882000  0.17573000  0.07364000  1.0
  O  O65  1  0.22117000  0.67574000  0.92637000  1.0
  O  O66  1  0.46114000  0.19536000  0.35294000  1.0
  O  O67  1  0.53886000  0.69538000  0.64706000  1.0
