# generated using pymatgen
data_TbH15C13(N3O4)2
_symmetry_space_group_name_H-M   'P 1'
_cell_length_a   13.12470000
_cell_length_b   13.12470000
_cell_length_c   14.53780000
_cell_angle_alpha   72.55200000
_cell_angle_beta   72.55200000
_cell_angle_gamma   78.63420000
_symmetry_Int_Tables_number   1
_chemical_formula_structural   TbH15C13(N3O4)2
_chemical_formula_sum   'Tb4 H60 C52 N24 O32'
_cell_volume   2263.25011133
_cell_formula_units_Z   4
loop_
 _symmetry_equiv_pos_site_id
 _symmetry_equiv_pos_as_xyz
  1  'x, y, z'
loop_
 _atom_site_type_symbol
 _atom_site_label
 _atom_site_symmetry_multiplicity
 _atom_site_fract_x
 _atom_site_fract_y
 _atom_site_fract_z
 _atom_site_occupancy
  Tb  Tb0  1  0.61004000  0.02569000  0.05467000  1.0
  Tb  Tb1  1  0.97431000  0.38996000  0.44533000  1.0
  Tb  Tb2  1  0.38996000  0.97430000  0.94533000  1.0
  Tb  Tb3  1  0.02569000  0.61004000  0.55467000  1.0
  H  H4  1  0.27038000  0.59349000  0.10847000  1.0
  H  H5  1  0.40651000  0.72962000  0.39153000  1.0
  H  H6  1  0.72962000  0.40651000  0.89153000  1.0
  H  H7  1  0.59349000  0.27038000  0.60847000  1.0
  H  H8  1  0.25528000  0.49662000  0.22693000  1.0
  H  H9  1  0.50338000  0.74472000  0.27308000  1.0
  H  H10  1  0.74472000  0.50338000  0.77308000  1.0
  H  H11  1  0.49662000  0.25528000  0.72692000  1.0
  H  H12  1  0.31537000  0.61561000  0.20367000  1.0
  H  H13  1  0.38439000  0.68463000  0.29633000  1.0
  H  H14  1  0.68463000  0.38439000  0.79633000  1.0
  H  H15  1  0.61561000  0.31537000  0.70367000  1.0
  H  H16  1  0.90799000  0.31677000  0.09309000  1.0
  H  H17  1  0.68323000  0.09201000  0.40691000  1.0
  H  H18  1  0.09201000  0.68323000  0.90690000  1.0
  H  H19  1  0.31677000  0.90799000  0.59310000  1.0
  H  H20  1  0.79314000  0.33137000  0.04766000  1.0
  H  H21  1  0.66863000  0.20686000  0.45234000  1.0
  H  H22  1  0.20686000  0.66863000  0.95233000  1.0
  H  H23  1  0.33137000  0.79314000  0.54766000  1.0
  H  H24  1  0.92247000  0.29131000  0.97542000  1.0
  H  H25  1  0.70869000  0.07753000  0.52458000  1.0
  H  H26  1  0.07753000  0.70868000  0.02458000  1.0
  H  H27  1  0.29131000  0.92247000  0.47542000  1.0
  H  H28  1  0.07967000  0.60539000  0.21237000  1.0
  H  H29  1  0.39461000  0.92033000  0.28763000  1.0
  H  H30  1  0.92033000  0.39461000  0.78763000  1.0
  H  H31  1  0.60539000  0.07967000  0.71237000  1.0
  H  H32  1  0.80952000  0.16254000  0.18390000  1.0
  H  H33  1  0.83746000  0.19048000  0.31609000  1.0
  H  H34  1  0.19048000  0.83746000  0.81610000  1.0
  H  H35  1  0.16254000  0.80952000  0.68390000  1.0
  H  H36  1  0.68925000  0.96442000  0.35482000  1.0
  H  H37  1  0.03558000  0.31075000  0.14518000  1.0
  H  H38  1  0.31075000  0.03558000  0.64518000  1.0
  H  H39  1  0.96442000  0.68925000  0.85482000  1.0
  H  H40  1  0.61477000  0.85276000  0.40388000  1.0
  H  H41  1  0.14724000  0.38523000  0.09612000  1.0
  H  H42  1  0.38522000  0.14724000  0.59612000  1.0
  H  H43  1  0.85276000  0.61478000  0.90388000  1.0
  H  H44  1  0.78624000  0.66854000  0.29953000  1.0
  H  H45  1  0.33146000  0.21376000  0.20047000  1.0
  H  H46  1  0.21376000  0.33146000  0.70047000  1.0
  H  H47  1  0.66854000  0.78624000  0.79953000  1.0
  H  H48  1  0.68461000  0.69024000  0.40559000  1.0
  H  H49  1  0.30976000  0.31539000  0.09441000  1.0
  H  H50  1  0.31539000  0.30976000  0.59441000  1.0
  H  H51  1  0.69024000  0.68461000  0.90559000  1.0
  H  H52  1  0.10881000  0.94626000  0.07645000  1.0
  H  H53  1  0.05374000  0.89119000  0.42355000  1.0
  H  H54  1  0.89119000  0.05374000  0.92355000  1.0
  H  H55  1  0.94626000  0.10881000  0.57645000  1.0
  H  H56  1  0.20686000  0.79016000  0.15130000  1.0
  H  H57  1  0.20984000  0.79314000  0.34870000  1.0
  H  H58  1  0.79314000  0.20984000  0.84870000  1.0
  H  H59  1  0.79016000  0.20686000  0.65130000  1.0
  H  H60  1  0.02039000  0.11996000  0.05105000  1.0
  H  H61  1  0.88004000  0.97961000  0.44895000  1.0
  H  H62  1  0.97961000  0.88004000  0.94895000  1.0
  H  H63  1  0.11996000  0.02039000  0.55105000  1.0
  C  C64  1  0.11242000  0.62075000  0.34096000  1.0
  C  C65  1  0.37925000  0.88758000  0.15904000  1.0
  C  C66  1  0.88758000  0.37925000  0.65904000  1.0
  C  C67  1  0.62075000  0.11242000  0.84096000  1.0
  C  C68  1  0.25254000  0.58276000  0.18933000  1.0
  C  C69  1  0.41724000  0.74746000  0.31067000  1.0
  C  C70  1  0.74745000  0.41724000  0.81067000  1.0
  C  C71  1  0.58276000  0.25255000  0.68933000  1.0
  C  C72  1  0.87101000  0.28368000  0.05168000  1.0
  C  C73  1  0.71632000  0.12899000  0.44831000  1.0
  C  C74  1  0.12899000  0.71632000  0.94831000  1.0
  C  C75  1  0.28368000  0.87101000  0.55169000  1.0
  C  C76  1  0.77326000  0.12751000  0.06694000  1.0
  C  C77  1  0.87249000  0.22674000  0.43306000  1.0
  C  C78  1  0.22674000  0.87249000  0.93306000  1.0
  C  C79  1  0.12751000  0.77326000  0.56694000  1.0
  C  C80  1  0.63511000  0.92679000  0.24562000  1.0
  C  C81  1  0.07321000  0.36489000  0.25438000  1.0
  C  C82  1  0.36489000  0.07321000  0.75438000  1.0
  C  C83  1  0.92679000  0.63511000  0.74562000  1.0
  C  C84  1  0.84051000  0.63469000  0.43073000  1.0
  C  C85  1  0.36530000  0.15949000  0.06927000  1.0
  C  C86  1  0.15949000  0.36530000  0.56927000  1.0
  C  C87  1  0.63470000  0.84051000  0.93073000  1.0
  C  C88  1  0.14106000  0.63997000  0.22728000  1.0
  C  C89  1  0.36003000  0.85894000  0.27272000  1.0
  C  C90  1  0.85894000  0.36003000  0.77272000  1.0
  C  C91  1  0.63997000  0.14106000  0.72728000  1.0
  C  C92  1  0.85177000  0.16729000  0.10517000  1.0
  C  C93  1  0.83271000  0.14823000  0.39483000  1.0
  C  C94  1  0.14823000  0.83271000  0.89483000  1.0
  C  C95  1  0.16729000  0.85177000  0.60517000  1.0
  C  C96  1  0.67650000  0.89148000  0.34001000  1.0
  C  C97  1  0.10852000  0.32350000  0.15999000  1.0
  C  C98  1  0.32350000  0.10852000  0.65999000  1.0
  C  C99  1  0.89148000  0.67650000  0.84001000  1.0
  C  C100  1  0.76799000  0.70258000  0.36391000  1.0
  C  C101  1  0.29742000  0.23201000  0.13609000  1.0
  C  C102  1  0.23201000  0.29742000  0.63610000  1.0
  C  C103  1  0.70258000  0.76799000  0.86390000  1.0
  C  C104  1  0.04348000  0.81858000  0.19216000  1.0
  C  C105  1  0.18142000  0.95652000  0.30784000  1.0
  C  C106  1  0.95652000  0.18142000  0.80784000  1.0
  C  C107  1  0.81858000  0.04348000  0.69216000  1.0
  C  C108  1  0.95236000  0.99356000  0.15778000  1.0
  C  C109  1  0.00644000  0.04764000  0.34223000  1.0
  C  C110  1  0.04764000  0.00644000  0.84223000  1.0
  C  C111  1  0.99356000  0.95236000  0.65777000  1.0
  C  C112  1  0.86668000  0.85388000  0.26772000  1.0
  C  C113  1  0.14612000  0.13332000  0.23228000  1.0
  C  C114  1  0.13332000  0.14611000  0.73229000  1.0
  C  C115  1  0.85389000  0.86668000  0.76772000  1.0
  N  N116  1  0.04583000  0.92571000  0.14124000  1.0
  N  N117  1  0.07429000  0.95417000  0.35876000  1.0
  N  N118  1  0.95417000  0.07429000  0.85876000  1.0
  N  N119  1  0.92571000  0.04583000  0.64124000  1.0
  N  N120  1  0.86407000  0.96139000  0.22556000  1.0
  N  N121  1  0.03861000  0.13593000  0.27444000  1.0
  N  N122  1  0.13593000  0.03861000  0.77444000  1.0
  N  N123  1  0.96139000  0.86407000  0.72556000  1.0
  N  N124  1  0.95381000  0.78013000  0.25174000  1.0
  N  N125  1  0.21987000  0.04619000  0.24827000  1.0
  N  N126  1  0.04619000  0.21987000  0.74827000  1.0
  N  N127  1  0.78013000  0.95381000  0.75173000  1.0
  N  N128  1  0.13655000  0.75413000  0.17669000  1.0
  N  N129  1  0.24587000  0.86345000  0.32332000  1.0
  N  N130  1  0.86345000  0.24587000  0.82332000  1.0
  N  N131  1  0.75413000  0.13655000  0.67669000  1.0
  N  N132  1  0.95199000  0.09614000  0.10240000  1.0
  N  N133  1  0.90386000  0.04801000  0.39760000  1.0
  N  N134  1  0.04801000  0.90386000  0.89760000  1.0
  N  N135  1  0.09614000  0.95199000  0.60240000  1.0
  N  N136  1  0.77499000  0.81765000  0.33094000  1.0
  N  N137  1  0.18235000  0.22501000  0.16906000  1.0
  N  N138  1  0.22501000  0.18235000  0.66906000  1.0
  N  N139  1  0.81765000  0.77499000  0.83094000  1.0
  O  O140  1  0.13355000  0.68499000  0.38109000  1.0
  O  O141  1  0.31501000  0.86645000  0.11891000  1.0
  O  O142  1  0.86645000  0.31501000  0.61891000  1.0
  O  O143  1  0.68499000  0.13355000  0.88109000  1.0
  O  O144  1  0.06672000  0.53810000  0.39475000  1.0
  O  O145  1  0.46190000  0.93328000  0.10525000  1.0
  O  O146  1  0.93328000  0.46190000  0.60525000  1.0
  O  O147  1  0.53810000  0.06672000  0.89475000  1.0
  O  O148  1  0.67891000  0.17479000  0.07797000  1.0
  O  O149  1  0.82521000  0.32109000  0.42203000  1.0
  O  O150  1  0.32109000  0.82521000  0.92203000  1.0
  O  O151  1  0.17479000  0.67891000  0.57797000  1.0
  O  O152  1  0.80250000  0.04474000  0.03061000  1.0
  O  O153  1  0.95526000  0.19750000  0.46939000  1.0
  O  O154  1  0.19750000  0.95526000  0.96939000  1.0
  O  O155  1  0.04474000  0.80250000  0.53061000  1.0
  O  O156  1  0.67503000  0.87658000  0.17797000  1.0
  O  O157  1  0.12342000  0.32497000  0.32204000  1.0
  O  O158  1  0.32497000  0.12342000  0.82204000  1.0
  O  O159  1  0.87658000  0.67503000  0.67796000  1.0
  O  O160  1  0.56433000  0.00818000  0.23730000  1.0
  O  O161  1  0.99181000  0.43567000  0.26270000  1.0
  O  O162  1  0.43567000  0.99181000  0.76270000  1.0
  O  O163  1  0.00819000  0.56433000  0.73730000  1.0
  O  O164  1  0.84508000  0.53481000  0.43943000  1.0
  O  O165  1  0.46519000  0.15491000  0.06057000  1.0
  O  O166  1  0.15491000  0.46519000  0.56057000  1.0
  O  O167  1  0.53481000  0.84508000  0.93943000  1.0
  O  O168  1  0.88698000  0.67867000  0.47091000  1.0
  O  O169  1  0.32133000  0.11302000  0.02909000  1.0
  O  O170  1  0.11302000  0.32133000  0.52909000  1.0
  O  O171  1  0.67867000  0.88697000  0.97091000  1.0
